data_PCOD9097489
_publ_section_title
;
Structure prediction by ZEFSAII (Michael W. Deem and Ramdas Pophale) SiO2 
 PCOD9097489
Probable space group: P -1
;
_chemical_formula_sum "Si O2"
_cell_formula_units_Z 16
_cell_length_a 5.316005
_cell_length_b 11.206512
_cell_length_c 12.607140
_cell_angle_alpha 77.759290
_cell_angle_beta 71.466661
_cell_angle_gamma 62.808209
_cell_volume 631.416780
_symmetry_space_group_name_H-M "P -1"
_symmetry_group_IT_number 2
_symmetry_cell_setting 'triclinic'
loop_
_space_group_symop_operation_xyz
x,y,z
-x,-y,-z
loop_
_atom_site_type_symbol
_atom_site_label
_atom_site_fract_x
_atom_site_fract_y
_atom_site_fract_z
Si Si1 0.832632 0.316852 0.113561
Si Si2 0.645342 0.890218 0.803949
Si Si3 0.246618 0.416385 0.832985
Si Si4 0.143155 0.115026 0.739999
Si Si5 0.871432 0.405891 0.688954
Si Si6 0.338398 0.785742 0.033127
Si Si7 0.747502 0.053477 0.438084
Si Si8 0.360787 0.304156 0.336600
O O1 0.903791 0.439286 0.117806
O O2 0.551126 0.336866 0.216931
O O3 0.079294 0.173659 0.143829
O O4 0.742450 0.318130 0.004580
O O5 0.738781 0.793037 0.704057
O O6 0.471680 0.042051 0.757016
O O7 0.403461 0.871240 0.916598
O O8 0.545523 0.410544 0.738660
O O9 0.370484 0.295735 0.923110
O O10 0.028572 0.402634 0.780637
O O11 0.119830 0.007778 0.682114
O O12 0.069051 0.251784 0.657153
O O13 0.914259 0.144109 0.860812
O O14 0.850201 0.548434 0.620264
O O15 0.500000 0.000000 0.500000
O O16 0.575484 0.212756 0.415352
O O17 0.000000 0.000000 0.500000
#
# Coordination Sequence:
#
# PCOD9097489 Si02
#       8
#     2   2   2   2   2   2   2   2
#     4  10  20  36  60  97 129 182 220 254 309 379
#     4  10  20  37  62  90 134 179 223 252 312 379
#     4  10  21  36  59  90 137 177 226 253 304 368
#     4  10  24  44  63  95 133 167 216 275 328 377
#     4  10  21  41  64  95 125 177 211 265 320 377
#     4  10  22  36  55  95 133 179 216 270 309 375
#     4  11  27  48  75 100 122 162 215 270 336 401
#     4   9  21  42  67  93 134 169 214 260 317 384
#
# _framework density 25.339836999999999
#
# number of rings (size 3 to 8) (size 9 to 14) (size 15 to 20)
#    0.000    2.000    1.250    0.750    7.000    4.000 
#    9.000    1.250    0.000    0.000    0.000    0.000 
#    0.000    0.000    0.000    0.000    0.000    0.000 
#
# Total GULP energy -89390.632898 kJ/mol
# GULP energy per Si atom -5586.914556 kJ/mol
# Density = 2.528216 g / cm^3
# Si number density = 25.339837 Si / 1000 Ang^3
#
#
#
# Elastic Constant Matrix: (Units=GPa)
#
#
# Indices 1 2 3 4 5 6 
#
# 1 94.4807 1.7825 23.4768 -2.3642 14.9147 -21.0072
# 2 1.7825 159.3600 21.5690 -29.1096 4.6185 -30.7994
# 3 23.4768 21.5690 68.3092 4.9284 6.5914 -11.0991
# 4 -2.3642 -29.1096 4.9284 37.7673 -18.6966 6.4666
# 5 14.9147 4.6185 6.5914 -18.6966 33.2230 -8.9890
# 6 -21.0072 -30.7994 -11.0991 6.4666 -8.9890 33.0741
#
#
#
# Elastic Compliance Matrix: (Units=1/GPa)
#
#
# Indices 1 2 3 4 5 6 
#
# 1 0.013939 0.002035 -0.003651 -0.000391 -0.003712 0.008591
# 2 0.002035 0.010261 -0.003801 0.010253 0.006726 0.009395
# 3 -0.003651 -0.003801 0.018383 -0.008734 -0.006313 0.000302
# 4 -0.000391 0.010253 -0.008734 0.049290 0.029507 0.004751
# 5 -0.003712 0.006726 -0.006313 0.029507 0.051391 0.009985
# 6 0.008591 0.009395 0.000302 0.004751 0.009985 0.046327
#
#
# Mechanical properties :
#
#
# Convention : Reuss Voigt Hill
#
# Bulk Modulus (GPa) = 31.49858 46.20070 38.84964
# Shear Modulus (GPa) = 23.69579 39.16765 31.43172
#
# Velocity S-wave (km/s) = 3.06129 3.93580 3.52576
# Velocity P-wave (km/s) = 4.99528 6.23907 5.65150
#
# Compressibility (1/GPa) = 0.03174747
#
# Stress axis : x y z
#
# Youngs Moduli (GPa) = 71.73982 97.46047 54.39862
#
# Poissons Ratio (x) = -0.19830 0.19860
# Poissons Ratio (y) = -0.14597 0.20679
# Poissons Ratio (z) = 0.26191 0.37048
#
# Static dielectric constant tensor:
#      x y z
#    x 2.015920 0.019940 -0.078340 
#    y 0.019940 2.067640 -0.004210 
#    z -0.078340 -0.004210 1.999210 
# 
# From -- ./inp_files/68479.got.cif
#   From: 2010.05.17/outbox.cif.g08.bks.cpg/sg2_35_cif.got.tgz:68479.got - 2010.06.03 11:33:40.
