data_PCOD9097377
_publ_section_title
;
Structure prediction by ZEFSAII (Michael W. Deem and Ramdas Pophale) SiO2 
 PCOD9097377
Probable space group: P -1
;
_chemical_formula_sum "Si O2"
_cell_formula_units_Z 16
_cell_length_a 5.384637
_cell_length_b 27.416771
_cell_length_c 15.740037
_cell_angle_alpha 156.577364
_cell_angle_beta 97.909793
_cell_angle_gamma 95.053154
_cell_volume 767.432310
_symmetry_space_group_name_H-M "P -1"
_symmetry_group_IT_number 2
_symmetry_cell_setting 'triclinic'
loop_
_space_group_symop_operation_xyz
x,y,z
-x,-y,-z
loop_
_atom_site_type_symbol
_atom_site_label
_atom_site_fract_x
_atom_site_fract_y
_atom_site_fract_z
Si Si1 0.121357 0.167971 0.506378
Si Si2 0.382491 0.201390 0.292786
Si Si3 0.297638 0.559215 0.553226
Si Si4 0.656016 0.390476 0.008154
Si Si5 0.740024 0.990943 0.879283
Si Si6 0.149317 0.423897 0.840199
Si Si7 0.446700 0.120841 0.975202
Si Si8 0.268792 0.471433 0.215696
O O1 0.403284 0.264245 0.734250
O O2 0.202722 0.117722 0.344477
O O3 0.001213 0.266044 0.623290
O O4 0.856121 0.019397 0.297752
O O5 0.471722 0.119951 0.233756
O O6 0.407410 0.159331 0.130980
O O7 0.567688 0.375228 0.583510
O O8 0.023617 0.122336 0.153393
O O9 0.500000 0.500000 0.500000
O O10 0.450727 0.734351 0.840745
O O11 0.247954 0.510385 0.374133
O O12 0.000000 0.500000 0.500000
O O13 0.828822 0.541821 0.203663
O O14 0.476023 0.408777 0.105403
O O15 0.923596 0.368620 0.007054
O O16 0.664426 0.066270 0.921007
O O17 0.500000 0.500000 0.000000
O O18 0.000000 0.500000 0.000000
#
# Coordination Sequence:
#
# PCOD9097377 Si02
#       8
#     2   2   2   2   2   2   2   2
#     4  10  23  36  57  92 132 178 221 253 302 379
#     4   9  21  36  55  92 130 173 218 266 308 379
#     4  11  26  48  75  98 122 153 215 287 348 401
#     4  11  23  38  60  93 135 178 215 257 301 378
#     4  10  20  36  60  89 134 173 217 261 319 370
#     4  10  21  35  54  84 133 186 226 247 280 346
#     4  10  23  37  68  91 124 170 215 271 333 384
#     4  11  24  40  68  93 127 170 214 261 331 381
#
# _framework density 20.848742999999999
#
# number of rings (size 3 to 8) (size 9 to 14) (size 15 to 20)
#    0.000    1.750    0.000    3.375   15.750    0.000 
#    0.000    0.000    0.000    4.500    0.000    0.000 
#    0.000    0.000    0.000    0.000    0.000    0.000 
#
# Total GULP energy -89185.068696 kJ/mol
# GULP energy per Si atom -5574.066794 kJ/mol
# Density = 2.080129 g / cm^3
# Si number density = 20.848743 Si / 1000 Ang^3
#
#
#
# Elastic Constant Matrix: (Units=GPa)
#
#
# Indices 1 2 3 4 5 6 
#
# 1 122.1095 36.7694 43.4586 9.9715 -6.2081 6.1605
# 2 36.7694 73.8099 37.7924 22.3137 7.5941 3.8293
# 3 43.4586 37.7924 114.2330 22.1511 13.4759 -1.4766
# 4 9.9715 22.3137 22.1511 31.6329 -11.8905 -1.1941
# 5 -6.2081 7.5941 13.4759 -11.8905 26.2111 -3.9529
# 6 6.1605 3.8293 -1.4766 -1.1941 -3.9529 36.0178
#
#
#
# Elastic Compliance Matrix: (Units=1/GPa)
#
#
# Indices 1 2 3 4 5 6 
#
# 1 0.012299 -0.007666 -0.005630 0.010261 0.012716 0.000216
# 2 -0.007666 0.027416 0.001943 -0.027493 -0.023994 -0.005069
# 3 -0.005630 0.001943 0.015765 -0.017487 -0.018110 -0.001165
# 4 0.010261 -0.027493 -0.017487 0.082228 0.058130 0.009557
# 5 0.012716 -0.023994 -0.018110 0.058130 0.085446 0.010938
# 6 0.000216 -0.005069 -0.001165 0.009557 0.010938 0.029735
#
#
# Mechanical properties :
#
#
# Convention : Reuss Voigt Hill
#
# Bulk Modulus (GPa) = 30.51194 60.68812 45.60003
# Shear Modulus (GPa) = 17.45072 31.58117 24.51595
#
# Velocity S-wave (km/s) = 2.89626 3.89623 3.43285
# Velocity P-wave (km/s) = 5.08440 7.02942 6.13449
#
# Compressibility (1/GPa) = 0.03277406
#
# Stress axis : x y z
#
# Youngs Moduli (GPa) = 81.30741 36.47537 63.42982
#
# Poissons Ratio (x) = 0.27961 0.35710
# Poissons Ratio (y) = 0.62328 -0.12321
# Poissons Ratio (z) = 0.45775 -0.07085
#
# Static dielectric constant tensor:
#      x y z
#    x 1.847050 -0.029310 0.009680 
#    y -0.029310 1.770420 -0.001730 
#    z 0.009680 -0.001730 1.775610 
# 
# From -- ./inp_files/551518.got.cif
#   From: 2010.05.17/outbox.cif.g08.bks.cpg/sg2_276_cif.got.tgz:551518.got - 2010.06.03 11:33:40.
