data_PCOD9097949
_publ_section_title
;
Structure prediction by ZEFSAII (Michael W. Deem and Ramdas Pophale) SiO2 
 PCOD9097949
Probable space group: P -1
;
_chemical_formula_sum "Si O2"
_cell_formula_units_Z 13
_cell_length_a 4.959036
_cell_length_b 8.918822
_cell_length_c 12.154361
_cell_angle_alpha 74.913039
_cell_angle_beta 80.546368
_cell_angle_gamma 96.802410
_cell_volume 504.607499
_symmetry_space_group_name_H-M "P -1"
_symmetry_group_IT_number 2
_symmetry_cell_setting 'triclinic'
loop_
_space_group_symop_operation_xyz
x,y,z
-x,-y,-z
loop_
_atom_site_type_symbol
_atom_site_label
_atom_site_fract_x
_atom_site_fract_y
_atom_site_fract_z
Si Si1 0.025143 0.755618 0.974884
Si Si2 0.859652 0.078216 0.834898
Si Si3 0.189917 0.459615 0.248901
Si Si4 0.297340 0.599118 0.437224
Si Si5 0.406587 0.087137 0.685685
Si Si6 0.354940 0.734254 0.741935
Si Si7 0.500000 0.500000 0.000000
O O1 0.755256 0.623260 0.023255
O O2 0.266464 0.712989 0.883188
O O3 0.919517 0.904342 0.894150
O O4 0.131235 0.823317 0.072883
O O5 0.574988 0.064810 0.790738
O O6 0.120182 0.144837 0.725584
O O7 0.304083 0.587328 0.306637
O O8 0.344991 0.309670 0.284745
O O9 0.865470 0.392262 0.283336
O O10 0.284664 0.514366 0.111908
O O11 0.500000 0.500000 0.500000
O O12 0.396976 0.781652 0.422898
O O13 0.000000 0.500000 0.500000
O O14 0.343702 0.911880 0.674979
#
# Coordination Sequence:
#
# PCOD9097949 Si02
#       7
#     2   2   2   2   2   2   1
#     4   9  20  34  57  94 133 172 214 256 314 380
#     4  10  21  36  60  91 130 173 217 260 305 381
#     4  11  24  43  65  96 134 167 211 264 324 381
#     4  12  27  47  69  95 128 169 219 273 323 381
#     4  11  22  42  66  90 124 171 220 265 319 381
#     4  10  22  40  63  92 128 166 210 265 317 383
#     4  10  20  36  62  94 130 168 200 254 324 382
#
# _framework density 25.762599999999999
#
# number of rings (size 3 to 8) (size 9 to 14) (size 15 to 20)
#    0.000    1.538    0.000    5.538    0.000   12.923 
#    0.000    4.615    0.000    0.000    0.000    0.000 
#    0.000    0.000    0.000    0.000    0.000    0.000 
#
# Total GULP energy -72685.548619 kJ/mol
# GULP energy per Si atom -5591.196048 kJ/mol
# Density = 2.570396 g / cm^3
# Si number density = 25.762600 Si / 1000 Ang^3
#
#
#
# Elastic Constant Matrix: (Units=GPa)
#
#
# Indices 1 2 3 4 5 6 
#
# 1 113.5706 4.7147 1.6071 0.0797 -7.0070 22.8990
# 2 4.7147 110.0896 17.2424 -17.4378 -6.0338 15.0929
# 3 1.6071 17.2424 42.0443 -10.9197 -1.0853 9.1924
# 4 0.0797 -17.4378 -10.9197 46.0964 11.2417 -3.7295
# 5 -7.0070 -6.0338 -1.0853 11.2417 34.5068 1.2896
# 6 22.8990 15.0929 9.1924 -3.7295 1.2896 43.2639
#
#
#
# Elastic Compliance Matrix: (Units=1/GPa)
#
#
# Indices 1 2 3 4 5 6 
#
# 1 0.010101 0.000262 0.000596 -0.000877 0.002615 -0.005718
# 2 0.000262 0.010424 -0.002893 0.002777 0.000991 -0.002951
# 3 0.000596 -0.002893 0.027296 0.005257 -0.001066 -0.004621
# 4 -0.000877 0.002777 0.005257 0.026021 -0.008036 0.000861
# 5 0.002615 0.000991 -0.001066 -0.008036 0.032387 -0.003161
# 6 -0.005718 -0.002951 -0.004621 0.000861 -0.003161 0.028320
#
#
# Mechanical properties :
#
#
# Convention : Reuss Voigt Hill
#
# Bulk Modulus (GPa) = 22.85616 34.75920 28.80768
# Shear Modulus (GPa) = 32.63678 40.91611 36.77644
#
# Velocity S-wave (km/s) = 3.56311 3.98954 3.78234
# Velocity P-wave (km/s) = 5.08122 5.89435 5.50282
#
# Compressibility (1/GPa) = 0.04375189
#
# Stress axis : x y z
#
# Youngs Moduli (GPa) = 99.00383 95.93136 36.63517
#
# Poissons Ratio (x) = -0.02517 -0.02184
# Poissons Ratio (y) = -0.02597 0.10598
# Poissons Ratio (z) = -0.05902 0.27752
#
# Static dielectric constant tensor:
#      x y z
#    x 2.048500 -0.157360 -0.037740 
#    y -0.157360 2.120900 -0.016200 
#    z -0.037740 -0.016200 2.027700 
# 
# From -- ./inp_files/31330.got.cif
#   From: 2010.05.17/outbox.cif.g08.bks.cpg/sg2_16_cif.got.tgz:31330.got - 2010.06.03 11:33:40.
