data_PCOD9097068
_publ_section_title
;
Structure prediction by ZEFSAII (Michael W. Deem and Ramdas Pophale) SiO2 
 PCOD9097068
Probable space group: P -1
;
_chemical_formula_sum "Si O2"
_cell_formula_units_Z 16
_cell_length_a 22.089595
_cell_length_b 14.365337
_cell_length_c 9.058355
_cell_angle_alpha 77.070273
_cell_angle_beta 115.295145
_cell_angle_gamma 157.733814
_cell_volume 852.173256
_symmetry_space_group_name_H-M "P -1"
_symmetry_group_IT_number 2
_symmetry_cell_setting 'triclinic'
loop_
_space_group_symop_operation_xyz
x,y,z
-x,-y,-z
loop_
_atom_site_type_symbol
_atom_site_label
_atom_site_fract_x
_atom_site_fract_y
_atom_site_fract_z
Si Si1 0.163680 0.319450 0.166010
Si Si2 0.222171 0.763730 0.091074
Si Si3 0.354523 0.114135 0.901447
Si Si4 0.077300 0.391468 0.907799
Si Si5 0.123145 0.760546 0.493905
Si Si6 0.343481 0.196339 0.159926
Si Si7 0.457466 0.166043 0.450319
Si Si8 0.719931 0.679845 0.931970
O O1 0.326629 0.573085 0.360961
O O2 0.152613 0.384563 0.002269
O O3 0.241124 0.324309 0.176906
O O4 0.940644 0.002584 0.104776
O O5 0.356946 0.956959 0.307264
O O6 0.212525 0.647688 0.047356
O O7 0.000000 0.500000 0.000000
O O8 0.301769 0.945277 0.988856
O O9 0.218527 0.934808 0.677707
O O10 0.324719 0.154811 0.980400
O O11 0.582797 0.429825 0.978169
O O12 0.020335 0.359782 0.702257
O O13 0.870466 0.111310 0.881767
O O14 0.000000 0.500000 0.500000
O O15 0.304721 0.976947 0.494991
O O16 0.476417 0.292035 0.336580
O O17 0.394632 0.373788 0.187307
#
# Coordination Sequence:
#
# PCOD9097068 Si02
#       8
#     2   2   2   2   2   2   2   2
#     4  10  22  40  56  80 121 156 190 223 287 347
#     4  11  18  36  61  86 116 143 184 240 286 335
#     4  11  19  34  62  90 112 139 193 247 282 319
#     4  10  20  37  59  85 116 153 182 229 290 345
#     4  11  19  33  59  91 113 143 190 240 276 332
#     4   9  20  36  61  84 109 147 198 237 281 323
#     4  10  20  36  59  86 108 157 191 225 285 347
#     4  10  21  39  58  79 116 156 189 242 276 327
#
# _framework density 18.775523
#
# number of rings (size 3 to 8) (size 9 to 14) (size 15 to 20)
#    0.000    1.750    6.250    0.375    0.000    1.000 
#    4.500    5.000   11.000    0.000    0.000    0.000 
#    0.000    0.000    0.000    0.000    0.000    0.000 
#
# Total GULP energy -89180.598145 kJ/mol
# GULP energy per Si atom -5573.787384 kJ/mol
# Density = 1.873279 g / cm^3
# Si number density = 18.775523 Si / 1000 Ang^3
#
#
#
# Elastic Constant Matrix: (Units=GPa)
#
#
# Indices 1 2 3 4 5 6 
#
# 1 52.1936 13.9854 21.7179 -8.9474 -3.6404 -13.9929
# 2 13.9854 111.2477 39.3807 0.8839 2.1230 -9.1692
# 3 21.7179 39.3807 126.2519 3.3879 -10.8529 -3.5424
# 4 -8.9474 0.8839 3.3879 22.9788 2.5508 -6.0770
# 5 -3.6404 2.1230 -10.8529 2.5508 14.2797 -4.7135
# 6 -13.9929 -9.1692 -3.5424 -6.0770 -4.7135 18.4670
#
#
#
# Elastic Compliance Matrix: (Units=1/GPa)
#
#
# Indices 1 2 3 4 5 6 
#
# 1 0.036118 -0.000317 -0.004465 0.023099 0.014134 0.037563
# 2 -0.000317 0.010637 -0.003465 0.001397 -0.003220 0.004014
# 3 -0.004465 -0.003465 0.010438 -0.004686 0.007223 -0.002800
# 4 0.023099 0.001397 -0.004686 0.063049 0.003729 0.038997
# 5 0.014134 -0.003220 0.007223 0.003729 0.090423 0.034803
# 6 0.037563 0.004014 -0.002800 0.038997 0.034803 0.105785
#
#
# Mechanical properties :
#
#
# Convention : Reuss Voigt Hill
#
# Bulk Modulus (GPa) = 24.57115 48.87345 36.72230
# Shear Modulus (GPa) = 14.42963 25.45238 19.94101
#
# Velocity S-wave (km/s) = 2.77525 3.68586 3.26248
# Velocity P-wave (km/s) = 4.83576 6.64839 5.81316
#
# Compressibility (1/GPa) = 0.04069814
#
# Stress axis : x y z
#
# Youngs Moduli (GPa) = 27.68672 94.01522 95.80764
#
# Poissons Ratio (x) = 0.02983 0.42778
# Poissons Ratio (y) = 0.00878 0.33196
# Poissons Ratio (z) = 0.12362 0.32575
#
# Static dielectric constant tensor:
#      x y z
#    x 1.678490 -0.017950 0.002880 
#    y -0.017950 1.655670 0.002590 
#    z 0.002880 0.002590 1.658840 
# 
# From -- ./inp_files/171347.got.cif
#   From: 2010.05.17/outbox.cif.g08.bks.cpg/sg2_86_cif.got.tgz:171347.got - 2010.06.03 11:33:40.
