data_PCOD9097850
_publ_section_title
;
Structure prediction by ZEFSAII (Michael W. Deem and Ramdas Pophale) SiO2 
 PCOD9097850
Probable space group: P -1
;
_chemical_formula_sum "Si O2"
_cell_formula_units_Z 13
_cell_length_a 19.382026
_cell_length_b 7.841428
_cell_length_c 5.475189
_cell_angle_alpha 107.216179
_cell_angle_beta 66.554309
_cell_angle_gamma 135.842150
_cell_volume 531.762738
_symmetry_space_group_name_H-M "P -1"
_symmetry_group_IT_number 2
_symmetry_cell_setting 'triclinic'
loop_
_space_group_symop_operation_xyz
x,y,z
-x,-y,-z
loop_
_atom_site_type_symbol
_atom_site_label
_atom_site_fract_x
_atom_site_fract_y
_atom_site_fract_z
Si Si1 0.224993 0.043194 0.416541
Si Si2 0.752658 0.409546 0.174689
Si Si3 0.825635 0.838672 0.962927
Si Si4 0.398282 0.069786 0.091033
Si Si5 0.580231 0.213224 0.669946
Si Si6 0.031824 0.344349 0.802090
Si Si7 0.000000 0.500000 0.500000
O O1 0.338573 0.141310 0.306889
O O2 0.127860 0.746740 0.416854
O O3 0.209321 0.111234 0.727045
O O4 0.212465 0.136924 0.224968
O O5 0.784499 0.575023 0.963134
O O6 0.682526 0.413589 0.457045
O O7 0.856421 0.516011 0.202365
O O8 0.680686 0.126339 0.089818
O O9 0.948839 0.068474 0.891472
O O10 0.399744 0.910057 0.214924
O O11 0.515609 0.267034 0.911991
O O12 0.500000 0.000000 0.500000
O O13 0.020790 0.341064 0.527908
O O14 0.000000 0.500000 0.000000
#
# Coordination Sequence:
#
# PCOD9097850 Si02
#       7
#     2   2   2   2   2   2   1
#     4  11  24  42  66  94 134 173 224 264 318 393
#     4  11  23  41  66  93 135 169 210 278 328 382
#     4  11  26  42  61 102 138 173 212 266 333 386
#     4  10  22  40  70  95 120 173 224 272 316 390
#     4   9  21  40  68  95 123 161 227 269 328 382
#     4  11  21  40  62  96 127 175 220 260 312 392
#     4  10  20  36  62  90 122 168 224 258 302 376
#
# _framework density 24.446995000000001
#
# number of rings (size 3 to 8) (size 9 to 14) (size 15 to 20)
#    0.000    1.538    1.538    3.231    6.462    0.000 
#    0.000    3.846    0.000    0.000    0.000    0.000 
#    0.000    0.000    0.000    0.000    0.000    0.000 
#
# Total GULP energy -72427.196699 kJ/mol
# GULP energy per Si atom -5571.322823 kJ/mol
# Density = 2.439135 g / cm^3
# Si number density = 24.446995 Si / 1000 Ang^3
#
#
#
# Elastic Constant Matrix: (Units=GPa)
#
#
# Indices 1 2 3 4 5 6 
#
# 1 133.9266 20.5968 43.5881 -20.4458 -8.0184 31.8905
# 2 20.5968 58.5304 32.9010 -17.6680 -9.5157 5.2043
# 3 43.5881 32.9010 98.5779 -18.5508 -3.0465 9.9103
# 4 -20.4458 -17.6680 -18.5508 37.3370 5.5021 8.9291
# 5 -8.0184 -9.5157 -3.0465 5.5021 28.7179 -7.5548
# 6 31.8905 5.2043 9.9103 8.9291 -7.5548 24.5972
#
#
#
# Elastic Compliance Matrix: (Units=1/GPa)
#
#
# Indices 1 2 3 4 5 6 
#
# 1 0.017430 0.002169 -0.002247 0.017611 -0.006023 -0.030395
# 2 0.002169 0.024470 -0.006037 0.011263 0.003675 -0.008517
# 3 -0.002247 -0.006037 0.014314 0.004463 -0.003052 -0.004133
# 4 0.017611 0.011263 0.004463 0.059167 -0.016286 -0.053494
# 5 -0.006023 0.003675 -0.003052 -0.016286 0.044476 0.027833
# 6 -0.030395 -0.008517 -0.004133 -0.053494 0.027833 0.111497
#
#
# Mechanical properties :
#
#
# Convention : Reuss Voigt Hill
#
# Bulk Modulus (GPa) = 22.73568 53.91185 38.32377
# Shear Modulus (GPa) = 16.76471 31.06033 23.91252
#
# Velocity S-wave (km/s) = 2.62154 3.56830 3.13091
# Velocity P-wave (km/s) = 4.29924 6.25119 5.36474
#
# Compressibility (1/GPa) = 0.04398373
#
# Stress axis : x y z
#
# Youngs Moduli (GPa) = 57.37181 40.86665 69.86247
#
# Poissons Ratio (x) = -0.08864 0.15701
# Poissons Ratio (y) = -0.12444 0.42174
# Poissons Ratio (z) = 0.12894 0.24670
#
# Static dielectric constant tensor:
#      x y z
#    x 1.939350 0.004680 -0.021030 
#    y 0.004680 1.978860 0.056770 
#    z -0.021030 0.056770 2.102780 
# 
# From -- ./inp_files/66647.got.cif
#   From: 2010.05.17/outbox.cif.g08.bks.cpg/sg2_34_cif.got.tgz:66647.got - 2010.06.03 11:33:40.
