data_PCOD9097201
_publ_section_title
;
Structure prediction by ZEFSAII (Michael W. Deem and Ramdas Pophale) SiO2 
 PCOD9097201
Probable space group: P -1
;
_chemical_formula_sum "Si O2"
_cell_formula_units_Z 14
_cell_length_a 7.869223
_cell_length_b 8.407597
_cell_length_c 16.647696
_cell_angle_alpha 145.970266
_cell_angle_beta 88.876906
_cell_angle_gamma 89.171989
_cell_volume 615.340547
_symmetry_space_group_name_H-M "P -1"
_symmetry_group_IT_number 2
_symmetry_cell_setting 'triclinic'
loop_
_space_group_symop_operation_xyz
x,y,z
-x,-y,-z
loop_
_atom_site_type_symbol
_atom_site_label
_atom_site_fract_x
_atom_site_fract_y
_atom_site_fract_z
Si Si1 0.968629 0.835971 0.160867
Si Si2 0.366864 0.089569 0.469277
Si Si3 0.852576 0.617529 0.608962
Si Si4 0.786039 0.441158 0.708615
Si Si5 0.421124 0.696094 0.757376
Si Si6 0.632917 0.124597 0.343331
Si Si7 0.153451 0.088007 0.982197
O O1 0.808004 0.918325 0.256358
O O2 0.896098 0.947432 0.123342
O O3 0.128831 0.038934 0.257230
O O4 0.000000 0.500000 0.000000
O O5 0.216497 0.886808 0.404612
O O6 0.500000 0.000000 0.500000
O O7 0.318620 0.420309 0.619612
O O8 0.480318 0.040635 0.367642
O O9 0.886189 0.519976 0.660248
O O10 0.693988 0.432629 0.503578
O O11 0.000000 0.500000 0.500000
O O12 0.600103 0.576087 0.739966
O O13 0.824200 0.596047 0.855833
O O14 0.434321 0.860270 0.741323
O O15 0.322806 0.887322 0.904431
O O16 0.000000 0.000000 0.000000
#
# Coordination Sequence:
#
# PCOD9097201 Si02
#       7
#     2   2   2   2   2   2   2
#     4  10  23  41  62  89 121 165 209 251 302 364
#     4  10  20  36  59  93 123 152 205 255 298 354
#     4  10  20  38  64  87 125 161 202 248 310 359
#     4  11  22  41  63  94 125 161 203 254 305 362
#     4  10  22  39  64  91 122 167 200 247 311 367
#     4  10  20  40  64  90 125 160 204 253 307 367
#     4  11  23  43  60  87 127 164 204 248 308 367
#
# _framework density 22.751629000000001
#
# number of rings (size 3 to 8) (size 9 to 14) (size 15 to 20)
#    0.000    1.714    4.286    0.857    0.000    3.429 
#    2.571    2.143    0.000    0.000    0.000    0.000 
#    0.000    0.000    0.000    0.000    0.000    0.000 
#
# Total GULP energy -78023.294119 kJ/mol
# GULP energy per Si atom -5573.092437 kJ/mol
# Density = 2.269985 g / cm^3
# Si number density = 22.751629 Si / 1000 Ang^3
#
#
#
# Elastic Constant Matrix: (Units=GPa)
#
#
# Indices 1 2 3 4 5 6 
#
# 1 47.2904 11.0454 9.6572 -1.7419 -1.4183 13.4080
# 2 11.0454 80.6955 16.1607 -0.1542 -5.0418 28.0622
# 3 9.6572 16.1607 107.1355 9.9052 -1.8451 25.9990
# 4 -1.7419 -0.1542 9.9052 40.0353 3.9949 3.0525
# 5 -1.4183 -5.0418 -1.8451 3.9949 35.3509 -6.5938
# 6 13.4080 28.0622 25.9990 3.0525 -6.5938 31.7523
#
#
#
# Elastic Compliance Matrix: (Units=1/GPa)
#
#
# Indices 1 2 3 4 5 6 
#
# 1 0.024227 0.000504 0.000295 0.001979 -0.001286 -0.011375
# 2 0.000504 0.018136 0.001378 0.001170 -0.000743 -0.017636
# 3 0.000295 0.001378 0.011977 -0.001991 -0.001025 -0.011170
# 4 0.001979 0.001170 -0.001991 0.026172 -0.003463 -0.003474
# 5 -0.001286 -0.000743 -0.001025 -0.003463 0.030075 0.008618
# 6 -0.011375 -0.017636 -0.011170 -0.003474 0.008618 0.063153
#
#
# Mechanical properties :
#
#
# Convention : Reuss Voigt Hill
#
# Bulk Modulus (GPa) = 17.03751 34.31645 25.67698
# Shear Modulus (GPa) = 26.46181 34.64491 30.55336
#
# Velocity S-wave (km/s) = 3.41409 3.90647 3.66855
# Velocity P-wave (km/s) = 4.80063 5.95509 5.40875
#
# Compressibility (1/GPa) = 0.05869402
#
# Stress axis : x y z
#
# Youngs Moduli (GPa) = 41.27576 55.13835 83.49526
#
# Poissons Ratio (x) = -0.02777 -0.02467
# Poissons Ratio (y) = -0.02079 -0.11503
# Poissons Ratio (z) = -0.01220 -0.07597
#
# Static dielectric constant tensor:
#      x y z
#    x 1.979430 0.006460 0.056920 
#    y 0.006460 1.830670 -0.086720 
#    z 0.056920 -0.086720 1.224680 
# 
# From -- ./inp_files/176310.got.cif
#   From: 2010.05.17/outbox.cif.g08.bks.cpg/sg2_89_cif.got.tgz:176310.got - 2010.06.03 11:33:40.
