data_PCOD9097335
_publ_section_title
;
Structure prediction by ZEFSAII (Michael W. Deem and Ramdas Pophale) SiO2 
 PCOD9097335
Probable space group: P -1
;
_chemical_formula_sum "Si O2"
_cell_formula_units_Z 13
_cell_length_a 4.994473
_cell_length_b 13.818855
_cell_length_c 8.926929
_cell_angle_alpha 108.160020
_cell_angle_beta 100.844890
_cell_angle_gamma 114.914555
_cell_volume 493.120432
_symmetry_space_group_name_H-M "P -1"
_symmetry_group_IT_number 2
_symmetry_cell_setting 'triclinic'
loop_
_space_group_symop_operation_xyz
x,y,z
-x,-y,-z
loop_
_atom_site_type_symbol
_atom_site_label
_atom_site_fract_x
_atom_site_fract_y
_atom_site_fract_z
Si Si1 0.769291 0.659619 0.161238
Si Si2 0.000000 0.500000 0.000000
Si Si3 0.183716 0.264544 0.137806
Si Si4 0.892390 0.369745 0.372331
Si Si5 0.606393 0.167667 0.458392
Si Si6 0.106875 0.938620 0.776717
Si Si7 0.746128 0.881233 0.329559
O O1 0.943745 0.584708 0.155810
O O2 0.822024 0.777760 0.307594
O O3 0.388555 0.575175 0.102305
O O4 0.853279 0.705503 0.019826
O O5 0.551425 0.306082 0.222138
O O6 0.931879 0.128855 0.102903
O O7 0.121026 0.351555 0.277438
O O8 0.852458 0.294665 0.479911
O O9 0.000000 0.500000 0.500000
O O10 0.257296 0.137086 0.352641
O O11 0.568509 0.154554 0.626398
O O12 0.671926 0.081708 0.323299
O O13 0.231414 0.076774 0.820797
O O14 0.000000 0.000000 0.500000
#
# Coordination Sequence:
#
# PCOD9097335 Si02
#       7
#     2   1   2   2   2   2   2
#     4  11  24  44  68  94 130 172 218 268 323 387
#     4  10  26  46  62  92 128 172 220 258 320 390
#     4  10  21  38  59  90 126 162 207 261 323 385
#     4  10  20  36  60  87 120 166 218 265 311 370
#     4   9  19  34  54  85 123 159 201 254 312 372
#     4   9  19  36  57  86 122 156 197 253 317 378
#     4  10  22  40  66  96 129 169 216 270 326 383
#
# _framework density 26.362729000000002
#
# number of rings (size 3 to 8) (size 9 to 14) (size 15 to 20)
#    0.000    2.154    0.000    1.846    0.000    9.231 
#    0.000    9.231    0.000   12.923    0.000    0.000 
#    0.000    0.000    0.000    0.000    0.000    0.000 
#
# Total GULP energy -72386.853231 kJ/mol
# GULP energy per Si atom -5568.219479 kJ/mol
# Density = 2.630273 g / cm^3
# Si number density = 26.362729 Si / 1000 Ang^3
#
#
#
# Elastic Constant Matrix: (Units=GPa)
#
#
# Indices 1 2 3 4 5 6 
#
# 1 137.5974 5.4394 32.1051 11.7964 -44.2466 -1.1084
# 2 5.4394 65.5424 9.1969 8.5550 -18.1454 -1.3867
# 3 32.1051 9.1969 83.0552 3.2192 -18.0798 6.3735
# 4 11.7964 8.5550 3.2192 49.5893 -5.4675 -8.8713
# 5 -44.2466 -18.1454 -18.0798 -5.4675 38.5175 -1.4997
# 6 -1.1084 -1.3867 6.3735 -8.8713 -1.4997 22.0264
#
#
#
# Elastic Compliance Matrix: (Units=1/GPa)
#
#
# Indices 1 2 3 4 5 6 
#
# 1 0.012602 0.003657 -0.002080 -0.001492 0.015085 0.001892
# 2 0.003657 0.018854 -0.000818 -0.002438 0.012410 0.001471
# 3 -0.002080 -0.000818 0.014062 -0.000642 0.003570 -0.004241
# 4 -0.001492 -0.002438 -0.000642 0.022658 0.000407 0.009110
# 5 0.015085 0.012410 0.003570 0.000407 0.051032 0.004146
# 6 0.001892 0.001471 -0.004241 0.009110 0.004146 0.050767
#
#
# Mechanical properties :
#
#
# Convention : Reuss Voigt Hill
#
# Bulk Modulus (GPa) = 21.26032 42.18640 31.72336
# Shear Modulus (GPa) = 27.15388 37.99022 32.57205
#
# Velocity S-wave (km/s) = 3.21286 3.80025 3.51883
# Velocity P-wave (km/s) = 4.67390 5.94078 5.34501
#
# Compressibility (1/GPa) = 0.04703599
#
# Stress axis : x y z
#
# Youngs Moduli (GPa) = 79.34999 53.04007 71.11275
#
# Poissons Ratio (x) = -0.19397 0.14791
# Poissons Ratio (y) = -0.29019 0.05819
# Poissons Ratio (z) = 0.16505 0.04340
#
# Static dielectric constant tensor:
#      x y z
#    x 2.111790 -0.040950 0.090270 
#    y -0.040950 2.268890 -0.029540 
#    z 0.090270 -0.029540 2.145520 
# 
# From -- ./inp_files/133465.got.cif
#   From: 2010.05.17/outbox.cif.g08.bks.cpg/sg2_67_cif.got.tgz:133465.got - 2010.06.03 11:33:40.
