data_PCOD9097110
_publ_section_title
;
Structure prediction by ZEFSAII (Michael W. Deem and Ramdas Pophale) SiO2 
 PCOD9097110
Probable space group: P -1
;
_chemical_formula_sum "Si O2"
_cell_formula_units_Z 16
_cell_length_a 5.312466
_cell_length_b 17.687741
_cell_length_c 13.649507
_cell_angle_alpha 32.757705
_cell_angle_beta 98.753725
_cell_angle_gamma 99.237796
_cell_volume 684.634383
_symmetry_space_group_name_H-M "P -1"
_symmetry_group_IT_number 2
_symmetry_cell_setting 'triclinic'
loop_
_space_group_symop_operation_xyz
x,y,z
-x,-y,-z
loop_
_atom_site_type_symbol
_atom_site_label
_atom_site_fract_x
_atom_site_fract_y
_atom_site_fract_z
Si Si1 0.308451 0.115500 0.330645
Si Si2 0.494737 0.432370 0.965670
Si Si3 0.217654 0.397980 0.653298
Si Si4 0.953736 0.883252 0.476824
Si Si5 0.779174 0.895251 0.066205
Si Si6 0.538451 0.890746 0.274445
Si Si7 0.007270 0.418685 0.271183
Si Si8 0.451889 0.393323 0.466402
O O1 0.151299 0.143093 0.390661
O O2 0.500000 0.000000 0.500000
O O3 0.448477 0.263378 0.146792
O O4 0.132073 0.026300 0.339451
O O5 0.763243 0.492379 0.870062
O O6 0.242195 0.495562 0.836377
O O7 0.500000 0.500000 0.000000
O O8 0.108285 0.240160 0.827893
O O9 0.415605 0.377028 0.598697
O O10 0.380347 0.461588 0.683394
O O11 0.000000 0.500000 0.500000
O O12 0.736801 0.904475 0.359484
O O13 0.061100 0.734998 0.612499
O O14 0.641702 0.879017 0.181909
O O15 0.623427 0.975340 0.888442
O O16 0.000000 0.000000 0.000000
O O17 0.413860 0.731436 0.445145
O O18 0.165970 0.395304 0.405762
#
# Coordination Sequence:
#
# PCOD9097110 Si02
#       8
#     2   2   2   2   2   2   2   2
#     4  11  25  42  66  92 131 172 212 268 327 387
#     4  12  25  44  70  96 132 168 219 273 329 384
#     4  10  20  36  61  87 126 162 203 257 316 376
#     4  10  23  43  65  92 128 171 215 266 323 393
#     4  10  20  36  59  87 119 157 200 256 310 372
#     4   9  20  40  60  84 118 159 208 251 309 378
#     4  11  25  44  70  99 128 173 221 272 321 390
#     4   9  21  40  60  89 120 164 208 257 314 378
#
# _framework density 23.370139000000002
#
# number of rings (size 3 to 8) (size 9 to 14) (size 15 to 20)
#    0.000    1.750    1.250    1.875    5.250    3.000 
#    6.750    0.000    0.000    0.000    0.000    0.000 
#    0.000    0.000    0.000    0.000    0.000    0.000 
#
# Total GULP energy -89227.429514 kJ/mol
# GULP energy per Si atom -5576.714345 kJ/mol
# Density = 2.331695 g / cm^3
# Si number density = 23.370139 Si / 1000 Ang^3
#
#
#
# Elastic Constant Matrix: (Units=GPa)
#
#
# Indices 1 2 3 4 5 6 
#
# 1 55.2095 38.5053 32.2067 -9.7347 4.7907 -5.6027
# 2 38.5053 166.3826 65.4874 -33.0455 2.0163 22.3504
# 3 32.2067 65.4874 125.3329 -38.5529 15.0641 6.1422
# 4 -9.7347 -33.0455 -38.5529 51.7813 -3.1749 -6.4930
# 5 4.7907 2.0163 15.0641 -3.1749 34.0814 -0.9275
# 6 -5.6027 22.3504 6.1422 -6.4930 -0.9275 29.6074
#
#
#
# Elastic Compliance Matrix: (Units=1/GPa)
#
#
# Indices 1 2 3 4 5 6 
#
# 1 0.025477 -0.005728 -0.004129 -0.000787 -0.001224 0.009791
# 2 -0.005728 0.009868 -0.002788 0.002306 0.001467 -0.007403
# 3 -0.004129 -0.002788 0.013178 0.006982 -0.004429 -0.000018
# 4 -0.000787 0.002306 0.006982 0.026093 -0.000617 0.002364
# 5 -0.001224 0.001467 -0.004429 -0.000617 0.031339 0.000426
# 6 0.009791 -0.007403 -0.000018 0.002364 0.000426 0.041752
#
#
# Mechanical properties :
#
#
# Convention : Reuss Voigt Hill
#
# Bulk Modulus (GPa) = 43.04253 68.81375 55.92814
# Shear Modulus (GPa) = 27.66403 37.14238 32.40321
#
# Velocity S-wave (km/s) = 3.44428 3.99094 3.72764
# Velocity P-wave (km/s) = 5.85450 7.12361 6.52001
#
# Compressibility (1/GPa) = 0.02323283
#
# Stress axis : x y z
#
# Youngs Moduli (GPa) = 39.25090 101.33766 75.88693
#
# Poissons Ratio (x) = 0.58043 0.31333
# Poissons Ratio (y) = 0.22482 0.21160
# Poissons Ratio (z) = 0.16206 0.28257
#
# Static dielectric constant tensor:
#      x y z
#    x 1.907630 -0.008730 -0.148990 
#    y -0.008730 1.879140 -0.074100 
#    z -0.148990 -0.074100 2.316770 
# 
# From -- ./inp_files/138721.got.cif
#   From: 2010.05.17/outbox.cif.g08.bks.cpg/sg2_70_cif.got.tgz:138721.got - 2010.06.03 11:33:40.
