data_PCOD9097862
_publ_section_title
;
Structure prediction by ZEFSAII (Michael W. Deem and Ramdas Pophale) SiO2 
 PCOD9097862
Probable space group: P -1
;
_chemical_formula_sum "Si O2"
_cell_formula_units_Z 16
_cell_length_a 9.168987
_cell_length_b 12.020180
_cell_length_c 11.000285
_cell_angle_alpha 60.483383
_cell_angle_beta 78.542048
_cell_angle_gamma 43.812983
_cell_volume 705.204688
_symmetry_space_group_name_H-M "P -1"
_symmetry_group_IT_number 2
_symmetry_cell_setting 'triclinic'
loop_
_space_group_symop_operation_xyz
x,y,z
-x,-y,-z
loop_
_atom_site_type_symbol
_atom_site_label
_atom_site_fract_x
_atom_site_fract_y
_atom_site_fract_z
Si Si1 0.213024 0.523742 0.314842
Si Si2 0.350504 0.656714 0.046653
Si Si3 0.403664 0.882096 0.629216
Si Si4 0.950192 0.772938 0.657944
Si Si5 0.971671 0.071264 0.239302
Si Si6 0.381149 0.273958 0.072172
Si Si7 0.243741 0.659099 0.457142
Si Si8 0.963069 0.579844 0.120683
O O1 0.321420 0.580478 0.203935
O O2 0.391710 0.301139 0.381620
O O3 0.165349 0.590286 0.424263
O O4 0.998596 0.625301 0.218115
O O5 0.500000 0.500000 0.000000
O O6 0.119308 0.827106 0.929245
O O7 0.465106 0.719527 0.021218
O O8 0.232343 0.873593 0.690009
O O9 0.490153 0.865432 0.758744
O O10 0.265224 0.070186 0.473466
O O11 0.003017 0.593325 0.772076
O O12 0.942765 0.866000 0.727786
O O13 0.147282 0.703985 0.582161
O O14 0.150502 0.849365 0.318088
O O15 0.177444 0.477880 0.059535
O O16 0.257958 0.261832 0.002895
O O17 0.500000 0.500000 0.500000
#
# Coordination Sequence:
#
# PCOD9097862 Si02
#       8
#     2   2   2   2   2   2   2   2
#     4  11  22  37  61  90 124 156 196 240 310 351
#     4  11  18  35  66  89 116 155 202 256 288 344
#     4   9  18  35  57  87 114 154 201 251 285 350
#     4  11  22  36  62  87 122 156 202 248 297 351
#     4  10  20  36  62  91 112 155 209 250 292 343
#     4   9  19  33  56  88 115 149 200 242 289 343
#     4  11  24  39  58  87 126 158 198 250 296 357
#     4  10  21  34  58  92 118 157 195 245 300 360
#
# _framework density 22.688447
#
# number of rings (size 3 to 8) (size 9 to 14) (size 15 to 20)
#    0.000    1.750    3.750    3.750    3.500    3.000 
#    0.000    0.000    0.000    8.250    0.000    0.000 
#    0.000    0.000    0.000    0.000    0.000    0.000 
#
# Total GULP energy -89462.935856 kJ/mol
# GULP energy per Si atom -5591.433491 kJ/mol
# Density = 2.263681 g / cm^3
# Si number density = 22.688447 Si / 1000 Ang^3
#
#
#
# Elastic Constant Matrix: (Units=GPa)
#
#
# Indices 1 2 3 4 5 6 
#
# 1 99.8146 15.5718 37.1305 -9.0219 42.3568 4.7923
# 2 15.5718 58.2423 16.6899 -12.0241 15.2584 0.3930
# 3 37.1305 16.6899 81.9109 -24.9780 14.1075 -4.3904
# 4 -9.0219 -12.0241 -24.9780 21.3685 5.3598 10.4404
# 5 42.3568 15.2584 14.1075 5.3598 44.6650 2.4681
# 6 4.7923 0.3930 -4.3904 10.4404 2.4681 25.0864
#
#
#
# Elastic Compliance Matrix: (Units=1/GPa)
#
#
# Indices 1 2 3 4 5 6 
#
# 1 0.023468 0.006392 0.000231 0.026954 -0.027022 -0.013102
# 2 0.006392 0.026757 0.005349 0.035767 -0.020433 -0.013579
# 3 0.000231 0.005349 0.026105 0.043251 -0.014813 -0.012102
# 4 0.026954 0.035767 0.043251 0.178225 -0.069208 -0.065504
# 5 -0.027022 -0.020433 -0.014813 -0.069208 0.066589 0.025141
# 6 -0.013102 -0.013579 -0.012102 -0.065504 0.025141 0.065248
#
#
# Mechanical properties :
#
#
# Convention : Reuss Voigt Hill
#
# Bulk Modulus (GPa) = 9.97278 42.08359 26.02818
# Shear Modulus (GPa) = 12.63029 29.59567 21.11298
#
# Velocity S-wave (km/s) = 2.36197 3.61562 3.05382
# Velocity P-wave (km/s) = 3.44146 6.00158 4.89196
#
# Compressibility (1/GPa) = 0.10027293
#
# Stress axis : x y z
#
# Youngs Moduli (GPa) = 42.61148 37.37364 38.30625
#
# Poissons Ratio (x) = -0.23888 -0.00884
# Poissons Ratio (y) = -0.27236 -0.20490
# Poissons Ratio (z) = -0.00983 -0.19991
#
# Static dielectric constant tensor:
#      x y z
#    x 1.897150 0.000130 0.003980 
#    y 0.000130 1.802830 -0.004320 
#    z 0.003980 -0.004320 1.887310 
# 
# From -- ./inp_files/389407.got.cif
#   From: 2010.05.17/outbox.cif.g08.bks.cpg/sg2_195_cif.got.tgz:389407.got - 2010.06.03 11:33:40.
