data_PCOD9097655
_publ_section_title
;
Structure prediction by ZEFSAII (Michael W. Deem and Ramdas Pophale) SiO2 
 PCOD9097655
Probable space group: P -1
;
_chemical_formula_sum "Si O2"
_cell_formula_units_Z 16
_cell_length_a 9.188871
_cell_length_b 8.571370
_cell_length_c 15.479078
_cell_angle_alpha 100.101113
_cell_angle_beta 146.428756
_cell_angle_gamma 85.426845
_cell_volume 658.753319
_symmetry_space_group_name_H-M "P -1"
_symmetry_group_IT_number 2
_symmetry_cell_setting 'triclinic'
loop_
_space_group_symop_operation_xyz
x,y,z
-x,-y,-z
loop_
_atom_site_type_symbol
_atom_site_label
_atom_site_fract_x
_atom_site_fract_y
_atom_site_fract_z
Si Si1 0.178135 0.131771 0.160451
Si Si2 0.068714 0.282723 0.772627
Si Si3 0.626542 0.055417 0.273679
Si Si4 0.851016 0.933163 0.668180
Si Si5 0.925547 0.455653 0.058238
Si Si6 0.696253 0.538793 0.256486
Si Si7 0.393293 0.807679 0.889496
Si Si8 0.233107 0.203425 0.559542
O O1 0.458090 0.169697 0.254341
O O2 0.040472 0.291106 0.116832
O O3 0.240826 0.067342 0.279388
O O4 0.000000 0.000000 0.000000
O O5 0.980957 0.403773 0.813246
O O6 0.109809 0.365222 0.708006
O O7 0.891124 0.113025 0.669043
O O8 0.361207 0.239070 0.939689
O O9 0.509293 0.056068 0.119480
O O10 0.933662 0.117959 0.417324
O O11 0.603944 0.891487 0.300230
O O12 0.694753 0.825931 0.506451
O O13 0.133464 0.863299 0.807415
O O14 0.608622 0.436360 0.911076
O O15 0.000000 0.500000 0.000000
O O16 0.705179 0.353166 0.228228
O O17 0.750761 0.615279 0.384547
#
# Coordination Sequence:
#
# PCOD9097655 Si02
#       8
#     2   2   2   2   2   2   2   2
#     4  12  23  39  63  92 122 156 198 250 310 356
#     4  11  21  37  61  90 123 158 200 252 302 352
#     4  10  21  39  60  84 119 158 200 245 289 356
#     4  11  23  38  61  89 122 158 202 248 292 360
#     4  11  23  40  62  94 126 153 193 251 314 358
#     4  11  21  39  65  88 122 161 199 247 299 360
#     4  10  20  36  61  92 117 152 204 254 297 345
#     4  10  23  42  61  85 119 165 207 240 292 355
#
# _framework density 24.288302999999999
#
# number of rings (size 3 to 8) (size 9 to 14) (size 15 to 20)
#    0.000    1.250    0.000    9.375    0.000    3.500 
#    0.000    2.500    0.000    5.250    0.000    0.000 
#    0.000    0.000    0.000    0.000    0.000    0.000 
#
# Total GULP energy -89537.241543 kJ/mol
# GULP energy per Si atom -5596.077596 kJ/mol
# Density = 2.423302 g / cm^3
# Si number density = 24.288303 Si / 1000 Ang^3
#
#
#
# Elastic Constant Matrix: (Units=GPa)
#
#
# Indices 1 2 3 4 5 6 
#
# 1 115.2786 13.1787 3.4192 -4.8587 -20.0110 -7.7475
# 2 13.1787 136.5022 24.3648 13.2096 -4.9423 -21.8057
# 3 3.4192 24.3648 58.4441 10.2001 -20.0549 -1.7422
# 4 -4.8587 13.2096 10.2001 48.7464 -13.1650 -7.7615
# 5 -20.0110 -4.9423 -20.0549 -13.1650 32.1407 -9.2441
# 6 -7.7475 -21.8057 -1.7422 -7.7615 -9.2441 41.7810
#
#
#
# Elastic Compliance Matrix: (Units=1/GPa)
#
#
# Indices 1 2 3 4 5 6 
#
# 1 0.011472 -0.000836 0.003348 0.005004 0.012759 0.005583
# 2 -0.000836 0.008749 -0.003534 -0.001325 -0.000819 0.003836
# 3 0.003348 -0.003534 0.024702 0.001955 0.019014 0.004376
# 4 0.005004 -0.001325 0.001955 0.027324 0.018021 0.009381
# 5 0.012759 -0.000819 0.019014 0.018021 0.063997 0.020238
# 6 0.005583 0.003836 0.004376 0.009381 0.020238 0.033375
#
#
# Mechanical properties :
#
#
# Convention : Reuss Voigt Hill
#
# Bulk Modulus (GPa) = 23.32103 43.57225 33.44664
# Shear Modulus (GPa) = 26.88845 42.48444 34.68644
#
# Velocity S-wave (km/s) = 3.33085 4.18685 3.78314
# Velocity P-wave (km/s) = 4.94119 6.43051 5.73441
#
# Compressibility (1/GPa) = 0.04287975
#
# Stress axis : x y z
#
# Youngs Moduli (GPa) = 87.17099 114.30212 40.48319
#
# Poissons Ratio (x) = 0.09551 -0.13555
# Poissons Ratio (y) = 0.07284 0.14307
# Poissons Ratio (z) = -0.29189 0.40394
#
# Static dielectric constant tensor:
#      x y z
#    x 1.941680 0.008290 -0.029820 
#    y 0.008290 1.934560 0.001510 
#    z -0.029820 0.001510 2.011490 
# 
# From -- ./inp_files/495535.got.cif
#   From: 2010.05.17/outbox.cif.g08.bks.cpg/sg2_248_cif.got.tgz:495535.got - 2010.06.03 11:33:40.
