data_PCOD9097738
_publ_section_title
;
Structure prediction by ZEFSAII (Michael W. Deem and Ramdas Pophale) SiO2 
 PCOD9097738
Probable space group: P -1
;
_chemical_formula_sum "Si O2"
_cell_formula_units_Z 14
_cell_length_a 7.793461
_cell_length_b 15.142187
_cell_length_c 13.338558
_cell_angle_alpha 47.490858
_cell_angle_beta 146.345608
_cell_angle_gamma 135.544388
_cell_volume 597.303438
_symmetry_space_group_name_H-M "P -1"
_symmetry_group_IT_number 2
_symmetry_cell_setting 'triclinic'
loop_
_space_group_symop_operation_xyz
x,y,z
-x,-y,-z
loop_
_atom_site_type_symbol
_atom_site_label
_atom_site_fract_x
_atom_site_fract_y
_atom_site_fract_z
Si Si1 0.218512 0.901520 0.752828
Si Si2 0.852983 0.054682 0.686809
Si Si3 0.727329 0.378255 0.782497
Si Si4 0.674709 0.746094 0.129083
Si Si5 0.825047 0.796405 0.835178
Si Si6 0.242367 0.173807 0.587511
Si Si7 0.643532 0.392145 0.122876
O O1 0.915775 0.849878 0.725784
O O2 0.066304 0.834994 0.625435
O O3 0.911020 0.924904 0.845083
O O4 0.339681 0.055532 0.685464
O O5 0.941210 0.165432 0.728802
O O6 0.116406 0.126675 0.673783
O O7 0.500000 0.000000 0.500000
O O8 0.948583 0.288235 0.972644
O O9 0.500251 0.355717 0.789169
O O10 0.514054 0.314777 0.628812
O O11 0.972466 0.525710 0.776740
O O12 0.497427 0.850998 0.963239
O O13 0.568423 0.677505 0.023793
O O14 0.452181 0.706924 0.754620
O O15 0.500000 0.500000 0.000000
#
# Coordination Sequence:
#
# PCOD9097738 Si02
#       7
#     2   2   2   2   2   2   2
#     4   9  18  35  59  86 111 145 187 228 281 338
#     4  10  21  36  56  88 118 139 179 239 288 332
#     4   9  18  37  61  79 110 150 193 225 267 333
#     4  10  20  36  62  81 108 152 190 227 279 331
#     4   9  19  36  55  82 118 144 180 231 278 333
#     4   9  18  35  58  85 115 145 182 232 280 328
#     4  10  21  37  56  83 113 150 191 229 271 330
#
# _framework density 23.438673000000001
#
# number of rings (size 3 to 8) (size 9 to 14) (size 15 to 20)
#    0.000    2.571    0.000    1.286    2.000    4.000 
#   15.429    1.429    6.286    0.000    0.000    0.000 
#    0.000    0.000    0.000    0.000    0.000    0.000 
#
# Total GULP energy -78101.831359 kJ/mol
# GULP energy per Si atom -5578.702240 kJ/mol
# Density = 2.338533 g / cm^3
# Si number density = 23.438673 Si / 1000 Ang^3
#
#
#
# Elastic Constant Matrix: (Units=GPa)
#
#
# Indices 1 2 3 4 5 6 
#
# 1 57.6027 37.6276 11.7627 6.7773 -9.4154 6.8308
# 2 37.6276 122.8523 37.6670 28.1240 -13.8846 13.1863
# 3 11.7627 37.6670 86.5672 23.6546 -11.0217 -0.3696
# 4 6.7773 28.1240 23.6546 35.8701 -8.2028 -5.7860
# 5 -9.4154 -13.8846 -11.0217 -8.2028 22.4360 -0.7276
# 6 6.8308 13.1863 -0.3696 -5.7860 -0.7276 28.5259
#
#
#
# Elastic Compliance Matrix: (Units=1/GPa)
#
#
# Indices 1 2 3 4 5 6 
#
# 1 0.022576 -0.006453 -0.000007 0.001892 0.006108 -0.001884
# 2 -0.006453 0.013723 -0.002626 -0.008605 0.001136 -0.006549
# 3 -0.000007 -0.002626 0.015047 -0.007133 0.003157 0.000044
# 4 0.001892 -0.008605 -0.007133 0.042789 0.008008 0.012316
# 5 0.006108 0.001136 0.003157 0.008008 0.052349 0.001013
# 6 -0.001884 -0.006549 0.000044 0.012316 0.001013 0.041058
#
#
# Mechanical properties :
#
#
# Convention : Reuss Voigt Hill
#
# Bulk Modulus (GPa) = 30.14527 49.01520 39.58023
# Shear Modulus (GPa) = 23.06568 29.36407 26.21487
#
# Velocity S-wave (km/s) = 3.14042 3.54334 3.34794
# Velocity P-wave (km/s) = 5.10283 6.13986 5.64521
#
# Compressibility (1/GPa) = 0.03317270
#
# Stress axis : x y z
#
# Youngs Moduli (GPa) = 44.29434 72.87238 66.46011
#
# Poissons Ratio (x) = 0.47025 0.00047
# Poissons Ratio (y) = 0.28584 0.17454
# Poissons Ratio (z) = 0.00031 0.19138
#
# Static dielectric constant tensor:
#      x y z
#    x 1.929500 0.007850 0.018420 
#    y 0.007850 1.913490 0.033470 
#    z 0.018420 0.033470 1.912900 
# 
# From -- ./inp_files/400509.got.cif
#   From: 2010.05.17/outbox.cif.g08.bks.cpg/sg2_201_cif.got.tgz:400509.got - 2010.06.03 11:33:40.
