data_PCOD9097868
_publ_section_title
;
Structure prediction by ZEFSAII (Michael W. Deem and Ramdas Pophale) SiO2 
 PCOD9097868
Probable space group: P -1
;
_chemical_formula_sum "Si O2"
_cell_formula_units_Z 16
_cell_length_a 7.409200
_cell_length_b 5.437385
_cell_length_c 22.155298
_cell_angle_alpha 67.893472
_cell_angle_beta 106.800778
_cell_angle_gamma 69.219049
_cell_volume 674.911170
_symmetry_space_group_name_H-M "P -1"
_symmetry_group_IT_number 2
_symmetry_cell_setting 'triclinic'
loop_
_space_group_symop_operation_xyz
x,y,z
-x,-y,-z
loop_
_atom_site_type_symbol
_atom_site_label
_atom_site_fract_x
_atom_site_fract_y
_atom_site_fract_z
Si Si1 0.659834 0.713343 0.583609
Si Si2 0.678226 0.702140 0.991094
Si Si3 0.902480 0.941354 0.917063
Si Si4 0.704144 0.074762 0.756327
Si Si5 0.314803 0.659425 0.616117
Si Si6 0.903385 0.520942 0.730763
Si Si7 0.887873 0.312587 0.530957
Si Si8 0.210529 0.167195 0.887760
O O1 0.495591 0.757919 0.618166
O O2 0.864654 0.669155 0.646949
O O3 0.770136 0.431304 0.572693
O O4 0.500000 0.000000 0.500000
O O5 0.735694 0.960571 0.950038
O O6 0.429335 0.825570 0.936295
O O7 0.719004 0.675874 0.069063
O O8 0.868987 0.375227 0.014781
O O9 0.782170 0.940022 0.843431
O O10 0.994315 0.168440 0.891604
O O11 0.445790 0.340776 0.695817
O O12 0.837874 0.255035 0.742054
O O13 0.771332 0.800043 0.740483
O O14 0.283894 0.615364 0.546150
O O15 0.083296 0.953818 0.585470
O O16 0.144540 0.335435 0.801732
O O17 0.000000 0.500000 0.500000
#
# Coordination Sequence:
#
# PCOD9097868 Si02
#       8
#     2   2   2   2   2   2   2   2
#     4  11  21  40  67  91 124 172 214 262 325 392
#     4  10  20  36  62  91 118 170 218 258 335 384
#     4  10  20  37  61  91 123 166 217 265 322 396
#     4  10  21  41  65  90 130 173 208 267 329 382
#     4  10  23  40  64  90 127 172 212 264 331 385
#     4  10  22  40  64  93 126 172 214 262 330 388
#     4  11  22  40  61  95 124 162 215 269 317 383
#     4  10  20  38  60  87 129 164 210 275 321 388
#
# _framework density 23.706826
#
# number of rings (size 3 to 8) (size 9 to 14) (size 15 to 20)
#    0.000    1.750    2.500    1.875    1.750    1.000 
#    2.250    0.000    0.000    0.000    0.000    0.000 
#    0.000    0.000    0.000    0.000    0.000    0.000 
#
# Total GULP energy -89136.439541 kJ/mol
# GULP energy per Si atom -5571.027471 kJ/mol
# Density = 2.365287 g / cm^3
# Si number density = 23.706826 Si / 1000 Ang^3
#
#
#
# Elastic Constant Matrix: (Units=GPa)
#
#
# Indices 1 2 3 4 5 6 
#
# 1 75.6827 12.1382 17.1013 0.2575 -0.0847 2.1659
# 2 12.1382 75.2999 54.5573 11.7099 7.8275 -0.9427
# 3 17.1013 54.5573 180.9974 -3.5339 38.2749 -16.8578
# 4 0.2575 11.7099 -3.5339 39.2918 1.1652 3.3347
# 5 -0.0847 7.8275 38.2749 1.1652 29.6796 -3.5749
# 6 2.1659 -0.9427 -16.8578 3.3347 -3.5749 28.7953
#
#
#
# Elastic Compliance Matrix: (Units=1/GPa)
#
#
# Indices 1 2 3 4 5 6 
#
# 1 0.013828 -0.001452 -0.001466 0.000294 0.002095 -0.001720
# 2 -0.001452 0.018859 -0.006600 -0.006141 0.003535 -0.001987
# 3 -0.001466 -0.006600 0.010529 0.002897 -0.011437 0.004303
# 4 0.000294 -0.006141 0.002897 0.027827 -0.003471 -0.002180
# 5 0.002095 0.003535 -0.011437 -0.003471 0.047601 -0.000426
# 6 -0.001720 -0.001987 0.004303 -0.002180 -0.000426 0.037511
#
#
# Mechanical properties :
#
#
# Convention : Reuss Voigt Hill
#
# Bulk Modulus (GPa) = 41.35735 55.50820 48.43277
# Shear Modulus (GPa) = 27.28521 36.09888 31.69205
#
# Velocity S-wave (km/s) = 3.39624 3.90644 3.66024
# Velocity P-wave (km/s) = 5.73258 6.61909 6.19172
#
# Compressibility (1/GPa) = 0.02417950
#
# Stress axis : x y z
#
# Youngs Moduli (GPa) = 72.31823 53.02623 94.97853
#
# Poissons Ratio (x) = 0.07697 0.13927
# Poissons Ratio (y) = 0.10497 0.62684
# Poissons Ratio (z) = 0.10604 0.34997
#
# Static dielectric constant tensor:
#      x y z
#    x 2.122610 0.074120 0.023630 
#    y 0.074120 1.961780 -0.029790 
#    z 0.023630 -0.029790 2.013980 
# 
# From -- ./inp_files/142280.got.cif
#   From: 2010.05.17/outbox.cif.g08.bks.cpg/sg2_72_cif.got.tgz:142280.got - 2010.06.03 11:33:40.
