data_PCOD9097553
_publ_section_title
;
Structure prediction by ZEFSAII (Michael W. Deem and Ramdas Pophale) SiO2 
 PCOD9097553
Probable space group: P -1
;
_chemical_formula_sum "Si O2"
_cell_formula_units_Z 16
_cell_length_a 9.555898
_cell_length_b 10.378794
_cell_length_c 17.922328
_cell_angle_alpha 56.555918
_cell_angle_beta 146.485781
_cell_angle_gamma 109.612900
_cell_volume 788.803314
_symmetry_space_group_name_H-M "P -1"
_symmetry_group_IT_number 2
_symmetry_cell_setting 'triclinic'
loop_
_space_group_symop_operation_xyz
x,y,z
-x,-y,-z
loop_
_atom_site_type_symbol
_atom_site_label
_atom_site_fract_x
_atom_site_fract_y
_atom_site_fract_z
Si Si1 0.004361 0.178778 0.416483
Si Si2 0.224269 0.290487 0.133438
Si Si3 0.617306 0.758050 0.089375
Si Si4 0.572585 0.651904 0.949953
Si Si5 0.841121 0.925179 0.247862
Si Si6 0.366025 0.593289 0.158090
Si Si7 0.189774 0.355740 0.578987
Si Si8 0.640903 0.006957 0.482018
O O1 0.059802 0.306463 0.461370
O O2 0.713458 0.239732 0.234762
O O3 0.220223 0.148930 0.455652
O O4 0.000000 0.000000 0.500000
O O5 0.252888 0.355520 0.042763
O O6 0.308116 0.421269 0.180357
O O7 0.433544 0.124827 0.298288
O O8 0.925246 0.286311 0.013192
O O9 0.706749 0.706459 0.063058
O O10 0.354143 0.903760 0.912646
O O11 0.843876 0.821301 0.208337
O O12 0.528290 0.633992 0.145237
O O13 0.500000 0.500000 0.000000
O O14 0.727282 0.819432 0.288728
O O15 0.113688 0.928849 0.403367
O O16 0.534512 0.598689 0.305673
O O17 0.000000 0.500000 0.500000
O O18 0.500000 0.000000 0.500000
#
# Coordination Sequence:
#
# PCOD9097553 Si02
#       8
#     2   2   2   2   2   2   2   2
#     4  12  23  42  67  95 128 170 226 274 314 389
#     4  11  23  40  64  91 130 170 214 266 339 384
#     4  10  20  36  61  87 122 164 208 264 317 376
#     4  12  22  37  63  95 125 166 212 265 320 387
#     4  10  20  37  60  87 122 161 214 265 310 381
#     4  10  22  40  62  91 129 169 208 268 326 395
#     4  11  22  40  68  95 125 172 219 266 326 384
#     4  12  24  41  65  93 127 176 219 269 333 388
#
# _framework density 20.283888999999999
#
# number of rings (size 3 to 8) (size 9 to 14) (size 15 to 20)
#    0.000    1.000    5.000    2.250    1.750    0.000 
#    2.250    0.625    0.000    2.250    0.000    0.000 
#    0.000    0.000    0.000    0.000    0.000    0.000 
#
# Total GULP energy -89070.836898 kJ/mol
# GULP energy per Si atom -5566.927306 kJ/mol
# Density = 2.023772 g / cm^3
# Si number density = 20.283889 Si / 1000 Ang^3
#
#
#
# Elastic Constant Matrix: (Units=GPa)
#
#
# Indices 1 2 3 4 5 6 
#
# 1 77.0155 21.1564 5.4060 10.3427 -6.3271 -11.7273
# 2 21.1564 63.6436 18.3005 28.3321 1.2498 -15.8404
# 3 5.4060 18.3005 68.4608 13.9627 2.8069 -4.7824
# 4 10.3427 28.3321 13.9627 50.7542 -1.2655 -13.0195
# 5 -6.3271 1.2498 2.8069 -1.2655 33.1732 2.4787
# 6 -11.7273 -15.8404 -4.7824 -13.0195 2.4787 23.7843
#
#
#
# Elastic Compliance Matrix: (Units=1/GPa)
#
#
# Indices 1 2 3 4 5 6 
#
# 1 0.014970 -0.004098 0.000029 0.000488 0.002679 0.004646
# 2 -0.004098 0.024643 -0.003567 -0.009805 -0.002422 0.008560
# 3 0.000029 -0.003567 0.016110 -0.002582 -0.001292 -0.000401
# 4 0.000488 -0.009805 -0.002582 0.027965 0.001121 0.008383
# 5 0.002679 -0.002422 -0.001292 0.001121 0.031137 -0.003183
# 6 0.004646 0.008560 -0.000401 0.008383 -0.003183 0.054876
#
#
# Mechanical properties :
#
#
# Convention : Reuss Voigt Hill
#
# Bulk Modulus (GPa) = 24.72180 33.20509 28.96344
# Shear Modulus (GPa) = 25.19438 32.49279 28.84358
#
# Velocity S-wave (km/s) = 3.52815 4.00672 3.77503
# Velocity P-wave (km/s) = 5.36763 6.14905 5.77158
#
# Compressibility (1/GPa) = 0.04045013
#
# Stress axis : x y z
#
# Youngs Moduli (GPa) = 66.79980 40.57917 62.07475
#
# Poissons Ratio (x) = 0.16629 -0.00177
# Poissons Ratio (y) = 0.27375 0.22142
# Poissons Ratio (z) = -0.00191 0.14474
#
# Static dielectric constant tensor:
#      x y z
#    x 1.693780 0.182290 0.040130 
#    y 0.182290 1.201520 -0.101440 
#    z 0.040130 -0.101440 1.707650 
# 
# From -- ./inp_files/494755.got.cif
#   From: 2010.05.17/outbox.cif.g08.bks.cpg/sg2_248_cif.got.tgz:494755.got - 2010.06.03 11:33:40.
