data_PCOD9097503
_publ_section_title
;
Structure prediction by ZEFSAII (Michael W. Deem and Ramdas Pophale) SiO2 
 PCOD9097503
Probable space group: P -1
;
_chemical_formula_sum "Si O2"
_cell_formula_units_Z 16
_cell_length_a 8.573279
_cell_length_b 11.142742
_cell_length_c 18.168466
_cell_angle_alpha 119.305286
_cell_angle_beta 49.258076
_cell_angle_gamma 140.659183
_cell_volume 833.205974
_symmetry_space_group_name_H-M "P -1"
_symmetry_group_IT_number 2
_symmetry_cell_setting 'triclinic'
loop_
_space_group_symop_operation_xyz
x,y,z
-x,-y,-z
loop_
_atom_site_type_symbol
_atom_site_label
_atom_site_fract_x
_atom_site_fract_y
_atom_site_fract_z
Si Si1 0.705378 0.485089 0.890166
Si Si2 0.294375 0.986814 0.382584
Si Si3 0.009382 0.433725 0.897078
Si Si4 0.660887 0.039069 0.807483
Si Si5 0.229383 0.047833 0.889208
Si Si6 0.371148 0.299134 0.264570
Si Si7 0.283493 0.305430 0.463794
Si Si8 0.946271 0.203727 0.251577
O O1 0.492772 0.268745 0.864166
O O2 0.912916 0.507154 0.891095
O O3 0.882071 0.624547 0.808809
O O4 0.500000 0.500000 0.000000
O O5 0.300198 0.154411 0.439402
O O6 0.618292 0.093016 0.329830
O O7 0.214531 0.910646 0.299516
O O8 0.046572 0.808778 0.455200
O O9 0.327181 0.530748 0.813133
O O10 0.811160 0.211965 0.870208
O O11 0.000000 0.500000 0.000000
O O12 0.354437 0.965503 0.862118
O O13 0.658745 0.880647 0.785991
O O14 0.076868 0.951048 0.830597
O O15 0.000000 0.000000 0.000000
O O16 0.364801 0.338502 0.363331
O O17 0.123800 0.264256 0.287929
O O18 0.500000 0.500000 0.500000
#
# Coordination Sequence:
#
# PCOD9097503 Si02
#       8
#     2   2   2   2   2   2   2   2
#     4  11  21  36  58  80 116 160 205 249 292 350
#     4   9  20  39  64  88 116 154 198 249 303 365
#     4  11  23  37  57  87 118 159 206 250 299 348
#     4   9  21  40  57  84 118 155 201 249 298 354
#     4  10  20  36  61  81 109 161 209 245 291 348
#     4  11  24  39  59  88 125 158 197 253 303 360
#     4  10  20  40  68  90 113 153 200 249 310 365
#     4  11  23  39  56  88 125 158 200 244 300 363
#
# _framework density 19.202935
#
# number of rings (size 3 to 8) (size 9 to 14) (size 15 to 20)
#    0.000    1.750    1.250    3.750    1.750    5.000 
#    0.000    0.625    0.000    0.000    0.000    0.000 
#    0.000    0.000    0.000    0.000    0.000    0.000 
#
# Total GULP energy -89228.065023 kJ/mol
# GULP energy per Si atom -5576.754064 kJ/mol
# Density = 1.915923 g / cm^3
# Si number density = 19.202935 Si / 1000 Ang^3
#
#
#
# Elastic Constant Matrix: (Units=GPa)
#
#
# Indices 1 2 3 4 5 6 
#
# 1 72.6831 36.2530 25.5649 2.8464 5.9572 13.6625
# 2 36.2530 111.7629 50.8261 7.7734 17.5368 19.1186
# 3 25.5649 50.8261 98.2555 -3.4029 -1.6721 14.1086
# 4 2.8464 7.7734 -3.4029 37.5084 11.2849 -4.0615
# 5 5.9572 17.5368 -1.6721 11.2849 27.6156 0.9045
# 6 13.6625 19.1186 14.1086 -4.0615 0.9045 25.7207
#
#
#
# Elastic Compliance Matrix: (Units=1/GPa)
#
#
# Indices 1 2 3 4 5 6 
#
# 1 0.017404 -0.003575 -0.001919 -0.001074 -0.000975 -0.005670
# 2 -0.003575 0.015539 -0.006439 -0.001592 -0.008638 -0.006067
# 3 -0.001919 -0.006439 0.014434 0.001050 0.005017 -0.002123
# 4 -0.001074 -0.001592 0.001050 0.031410 -0.011744 0.006551
# 5 -0.000975 -0.008638 0.005017 -0.011744 0.046988 0.000680
# 6 -0.005670 -0.006067 -0.002123 0.006551 0.000680 0.048576
#
#
# Mechanical properties :
#
#
# Convention : Reuss Voigt Hill
#
# Bulk Modulus (GPa) = 42.53106 56.44327 49.48716
# Shear Modulus (GPa) = 24.26545 29.50611 26.88578
#
# Velocity S-wave (km/s) = 3.55862 3.92413 3.74583
# Velocity P-wave (km/s) = 6.25150 7.07026 6.67345
#
# Compressibility (1/GPa) = 0.02351223
#
# Stress axis : x y z
#
# Youngs Moduli (GPa) = 57.45695 64.35279 69.28044
#
# Poissons Ratio (x) = 0.23008 0.13292
# Poissons Ratio (y) = 0.20542 0.44609
# Poissons Ratio (z) = 0.11024 0.41437
#
# Static dielectric constant tensor:
#      x y z
#    x 1.642660 0.015690 -0.057600 
#    y 0.015690 1.656780 0.053290 
#    z -0.057600 0.053290 1.614060 
# 
# From -- ./inp_files/472234.got.cif
#   From: 2010.05.17/outbox.cif.g08.bks.cpg/sg2_237_cif.got.tgz:472234.got - 2010.06.03 11:33:40.
