data_PCOD9097580
_publ_section_title
;
Structure prediction by ZEFSAII (Michael W. Deem and Ramdas Pophale) SiO2 
 PCOD9097580
Probable space group: P -1
;
_chemical_formula_sum "Si O2"
_cell_formula_units_Z 16
_cell_length_a 20.184657
_cell_length_b 9.131718
_cell_length_c 6.589575
_cell_angle_alpha 52.175137
_cell_angle_beta 84.428359
_cell_angle_gamma 55.430633
_cell_volume 728.876418
_symmetry_space_group_name_H-M "P -1"
_symmetry_group_IT_number 2
_symmetry_cell_setting 'triclinic'
loop_
_space_group_symop_operation_xyz
x,y,z
-x,-y,-z
loop_
_atom_site_type_symbol
_atom_site_label
_atom_site_fract_x
_atom_site_fract_y
_atom_site_fract_z
Si Si1 0.829437 0.614282 0.927377
Si Si2 0.103206 0.496635 0.420715
Si Si3 0.328652 0.871464 0.280474
Si Si4 0.078593 0.263866 0.952896
Si Si5 0.401370 0.374509 0.630446
Si Si6 0.580712 0.053167 0.105562
Si Si7 0.088832 0.838538 0.473341
Si Si8 0.478893 0.711590 0.681592
O O1 0.828929 0.595909 0.701637
O O2 0.750244 0.874465 0.818290
O O3 0.911262 0.593849 0.000823
O O4 0.840647 0.392392 0.211026
O O5 0.129050 0.275231 0.741800
O O6 0.084556 0.708131 0.389849
O O7 0.014046 0.609547 0.232571
O O8 0.326086 0.654624 0.465063
O O9 0.410632 0.772313 0.482150
O O10 0.358963 0.888292 0.036701
O O11 0.107308 0.014608 0.246400
O O12 0.375344 0.208914 0.775157
O O13 0.441113 0.353184 0.415728
O O14 0.484039 0.241402 0.873107
O O15 0.565923 0.067390 0.336644
O O16 0.000000 0.000000 0.500000
O O17 0.500000 0.500000 0.000000
#
# Coordination Sequence:
#
# PCOD9097580 Si02
#       8
#     2   2   2   2   2   2   2   2
#     4  11  25  40  59  90 128 165 202 252 313 366
#     4  10  22  39  64  96 118 154 210 256 302 368
#     4  11  23  39  57  84 127 159 194 250 306 354
#     4  10  22  39  65  90 119 157 204 254 304 361
#     4  10  20  36  61  89 113 154 200 250 298 354
#     4  10  20  37  62  87 117 152 207 246 291 362
#     4  11  23  39  67  92 117 158 206 256 306 366
#     4  11  18  36  64  89 113 161 202 247 298 353
#
# _framework density 21.951595999999999
#
# number of rings (size 3 to 8) (size 9 to 14) (size 15 to 20)
#    0.000    1.500    3.750    1.875    3.500    3.000 
#    0.000    0.000    0.000    0.000    0.000    0.000 
#    0.000    0.000    0.000    0.000    0.000    0.000 
#
# Total GULP energy -89265.887598 kJ/mol
# GULP energy per Si atom -5579.117975 kJ/mol
# Density = 2.190163 g / cm^3
# Si number density = 21.951596 Si / 1000 Ang^3
#
#
#
# Elastic Constant Matrix: (Units=GPa)
#
#
# Indices 1 2 3 4 5 6 
#
# 1 25.6987 4.5654 19.3798 -4.5429 -16.2169 12.5953
# 2 4.5654 127.4296 44.1071 0.0028 -16.4717 7.7327
# 3 19.3798 44.1071 106.7960 -5.9321 -38.5746 7.1522
# 4 -4.5429 0.0028 -5.9321 51.7369 9.9115 -3.7272
# 5 -16.2169 -16.4717 -38.5746 9.9115 24.9204 -10.5607
# 6 12.5953 7.7327 7.1522 -3.7272 -10.5607 25.9087
#
#
#
# Elastic Compliance Matrix: (Units=1/GPa)
#
#
# Indices 1 2 3 4 5 6 
#
# 1 0.076944 0.003593 0.005233 -0.004412 0.054534 -0.018329
# 2 0.003593 0.009419 -0.003711 -0.000676 0.001874 -0.002867
# 3 0.005233 -0.003711 0.026314 -0.004981 0.047960 0.010132
# 4 -0.004412 -0.000676 -0.004981 0.022186 -0.020456 -0.001425
# 5 0.054534 0.001874 0.047960 -0.020456 0.170318 0.026171
# 6 -0.018329 -0.002867 0.010132 -0.001425 0.026171 0.056029
#
#
# Mechanical properties :
#
#
# Convention : Reuss Voigt Hill
#
# Bulk Modulus (GPa) = 8.13610 44.00324 26.06967
# Shear Modulus (GPa) = 12.75675 33.30466 23.03071
#
# Velocity S-wave (km/s) = 2.41328 3.89933 3.24259
# Velocity P-wave (km/s) = 3.38816 6.35312 5.09126
#
# Compressibility (1/GPa) = 0.12290907
#
# Stress axis : x y z
#
# Youngs Moduli (GPa) = 12.99647 106.16333 38.00191
#
# Poissons Ratio (x) = -0.38148 -0.19888
# Poissons Ratio (y) = -0.04670 0.14103
# Poissons Ratio (z) = -0.06801 0.39398
#
# Static dielectric constant tensor:
#      x y z
#    x 1.842520 -0.008480 -0.002890 
#    y -0.008480 1.843860 -0.007260 
#    z -0.002890 -0.007260 1.831580 
# 
# From -- ./inp_files/122823.got.cif
#   From: 2010.05.17/outbox.cif.g08.bks.cpg/sg2_62_cif.got.tgz:122823.got - 2010.06.03 11:33:40.
