data_PCOD9097787
_publ_section_title
;
Structure prediction by ZEFSAII (Michael W. Deem and Ramdas Pophale) SiO2 
 PCOD9097787
Probable space group: P -1
;
_chemical_formula_sum "Si O2"
_cell_formula_units_Z 16
_cell_length_a 8.872994
_cell_length_b 16.187241
_cell_length_c 19.681610
_cell_angle_alpha 159.661984
_cell_angle_beta 131.348006
_cell_angle_gamma 55.619056
_cell_volume 721.147028
_symmetry_space_group_name_H-M "P -1"
_symmetry_group_IT_number 2
_symmetry_cell_setting 'triclinic'
loop_
_space_group_symop_operation_xyz
x,y,z
-x,-y,-z
loop_
_atom_site_type_symbol
_atom_site_label
_atom_site_fract_x
_atom_site_fract_y
_atom_site_fract_z
Si Si1 0.055489 0.735271 0.984083
Si Si2 0.467289 0.147262 0.402445
Si Si3 0.017496 0.763995 0.147592
Si Si4 0.731707 0.418668 0.301510
Si Si5 0.833892 0.656511 0.380822
Si Si6 0.374972 0.063027 0.843927
Si Si7 0.588251 0.232949 0.658067
Si Si8 0.262662 0.925541 0.849005
O O1 0.258457 0.941952 0.188830
O O2 0.055633 0.660755 0.005521
O O3 0.063948 0.508943 0.764852
O O4 0.860949 0.859730 0.012493
O O5 0.407641 0.407281 0.573898
O O6 0.592763 0.076435 0.322180
O O7 0.573586 0.162993 0.520157
O O8 0.092650 0.058875 0.391415
O O9 0.775270 0.751783 0.073392
O O10 0.174865 0.685785 0.186849
O O11 0.865461 0.587516 0.415085
O O12 0.825922 0.287731 0.288859
O O13 0.588989 0.210922 0.052599
O O14 0.585129 0.607647 0.258835
O O15 0.277803 0.892348 0.746679
O O16 0.500000 0.000000 0.500000
O O17 0.500000 0.000000 0.000000
#
# Coordination Sequence:
#
# PCOD9097787 Si02
#       8
#     2   2   2   2   2   2   2   2
#     4  11  20  37  62  84 112 159 193 231 292 342
#     4  11  21  37  62  86 115 157 196 238 283 348
#     4  10  21  40  57  89 121 151 192 243 290 341
#     4  10  20  40  59  82 120 152 192 247 284 335
#     4  10  20  36  62  88 111 155 197 241 281 341
#     4  10  22  39  59  84 122 154 188 243 296 340
#     4   9  18  38  59  87 122 146 191 251 276 338
#     4   9  22  40  57  85 121 149 190 247 288 343
#
# _framework density 22.186876999999999
#
# number of rings (size 3 to 8) (size 9 to 14) (size 15 to 20)
#    0.000    2.000    5.000    0.000    0.000    5.500 
#    0.000    2.500    0.000    0.000    0.000    0.000 
#    0.000    0.000    0.000    0.000    0.000    0.000 
#
# Total GULP energy -89357.044062 kJ/mol
# GULP energy per Si atom -5584.815254 kJ/mol
# Density = 2.213638 g / cm^3
# Si number density = 22.186877 Si / 1000 Ang^3
#
#
#
# Elastic Constant Matrix: (Units=GPa)
#
#
# Indices 1 2 3 4 5 6 
#
# 1 109.0935 37.8795 40.6113 -7.9516 -41.1463 -3.4264
# 2 37.8795 141.6846 31.9357 -18.8468 -33.2867 5.3049
# 3 40.6113 31.9357 59.5693 -0.2326 -29.8461 10.4306
# 4 -7.9516 -18.8468 -0.2326 22.3582 -4.9832 13.1010
# 5 -41.1463 -33.2867 -29.8461 -4.9832 60.3934 -12.0822
# 6 -3.4264 5.3049 10.4306 13.1010 -12.0822 26.1362
#
#
#
# Elastic Compliance Matrix: (Units=1/GPa)
#
#
# Indices 1 2 3 4 5 6 
#
# 1 0.015817 -0.000490 -0.007639 0.002356 0.008522 0.007980
# 2 -0.000490 0.010701 -0.002069 0.013363 0.004432 -0.006060
# 3 -0.007639 -0.002069 0.027764 0.003395 0.005491 -0.010825
# 4 0.002356 0.013363 0.003395 0.083000 0.009280 -0.041073
# 5 0.008522 0.004432 0.005491 0.009280 0.029708 0.007108
# 6 0.007980 -0.006060 -0.010825 -0.041073 0.007108 0.068732
#
#
# Mechanical properties :
#
#
# Convention : Reuss Voigt Hill
#
# Bulk Modulus (GPa) = 29.51092 59.02229 44.26661
# Shear Modulus (GPa) = 18.69776 35.10561 26.90168
#
# Velocity S-wave (km/s) = 2.90615 3.98209 3.48588
# Velocity P-wave (km/s) = 4.95892 6.91396 6.01638
#
# Compressibility (1/GPa) = 0.03388576
#
# Stress axis : x y z
#
# Youngs Moduli (GPa) = 63.22438 93.44906 36.01827
#
# Poissons Ratio (x) = 0.04581 0.27513
# Poissons Ratio (y) = 0.03100 0.07452
# Poissons Ratio (z) = 0.48295 0.19333
#
# Static dielectric constant tensor:
#      x y z
#    x 1.871850 -0.006200 0.111840 
#    y -0.006200 1.818060 -0.015670 
#    z 0.111840 -0.015670 1.837160 
# 
# From -- ./inp_files/348904.got.cif
#   From: 2010.05.17/outbox.cif.g08.bks.cpg/sg2_175_cif.got.tgz:348904.got - 2010.06.03 11:33:40.
