data_PCOD9097158
_publ_section_title
;
Structure prediction by ZEFSAII (Michael W. Deem and Ramdas Pophale) SiO2 
 PCOD9097158
Probable space group: P -1
;
_chemical_formula_sum "Si O2"
_cell_formula_units_Z 12
_cell_length_a 14.250753
_cell_length_b 8.783712
_cell_length_c 13.250621
_cell_angle_alpha 108.321157
_cell_angle_beta 30.848049
_cell_angle_gamma 124.459582
_cell_volume 641.013084
_symmetry_space_group_name_H-M "P -1"
_symmetry_group_IT_number 2
_symmetry_cell_setting 'triclinic'
loop_
_space_group_symop_operation_xyz
x,y,z
-x,-y,-z
loop_
_atom_site_type_symbol
_atom_site_label
_atom_site_fract_x
_atom_site_fract_y
_atom_site_fract_z
Si Si1 0.057285 0.556591 0.340310
Si Si2 0.281073 0.206338 0.573435
Si Si3 0.980918 0.231099 0.210529
Si Si4 0.424681 0.513665 0.962923
Si Si5 0.104970 0.187903 0.516441
Si Si6 0.176642 0.454889 0.863318
O O1 0.030883 0.719703 0.356671
O O2 0.000000 0.500000 0.500000
O O3 0.910186 0.351620 0.365671
O O4 0.315471 0.631733 0.098899
O O5 0.136944 0.138864 0.588739
O O6 0.209625 0.326871 0.726942
O O7 0.556588 0.346772 0.327032
O O8 0.204385 0.007237 0.663404
O O9 0.212996 0.299035 0.069503
O O10 0.067330 0.329139 0.041445
O O11 0.500000 0.500000 0.000000
O O12 0.639084 0.629002 0.716772
O O13 0.000000 0.000000 0.500000
O O14 0.000000 0.500000 0.000000
#
# Coordination Sequence:
#
# PCOD9097158 Si02
#       6
#     2   2   2   2   2   2
#     4  10  20  36  59  89 126 165 209 251 310 378
#     4  11  23  42  66  91 126 169 207 264 321 370
#     4  10  22  43  62  92 128 163 213 260 318 372
#     4  10  20  38  60  89 130 160 206 256 307 374
#     4  12  22  39  63  94 131 167 208 262 318 377
#     4  11  24  44  65  92 127 162 220 264 308 380
#
# _framework density 18.720367
#
# number of rings (size 3 to 8) (size 9 to 14) (size 15 to 20)
#    1.000    0.333    3.333    3.500    0.000    1.333 
#    3.000    0.000    0.000    0.000    0.000    0.000 
#    0.000    0.000    0.000    0.000    0.000    0.000 
#
# Total GULP energy -66854.951409 kJ/mol
# GULP energy per Si atom -5571.245951 kJ/mol
# Density = 1.867776 g / cm^3
# Si number density = 18.720367 Si / 1000 Ang^3
#
#
#
# Elastic Constant Matrix: (Units=GPa)
#
#
# Indices 1 2 3 4 5 6 
#
# 1 126.4294 43.4566 45.5228 -1.6911 4.9906 -8.9027
# 2 43.4566 109.3794 40.5928 -0.9535 -12.0692 -11.7802
# 3 45.5228 40.5928 77.8398 0.8202 5.0755 -17.0749
# 4 -1.6911 -0.9535 0.8202 37.2912 -8.8314 -2.7250
# 5 4.9906 -12.0692 5.0755 -8.8314 34.7077 5.7379
# 6 -8.9027 -11.7802 -17.0749 -2.7250 5.7379 34.7521
#
#
#
# Elastic Compliance Matrix: (Units=1/GPa)
#
#
# Indices 1 2 3 4 5 6 
#
# 1 0.010582 -0.002653 -0.004748 0.000100 -0.001685 -0.000235
# 2 -0.002653 0.012989 -0.005625 0.001802 0.006166 0.000083
# 3 -0.004748 -0.005625 0.020704 -0.001665 -0.006033 0.007915
# 4 0.000100 0.001802 -0.001665 0.028871 0.008078 0.000748
# 5 -0.001685 0.006166 -0.006033 0.008078 0.035208 -0.006486
# 6 -0.000235 0.000083 0.007915 0.000748 -0.006486 0.033762
#
#
# Mechanical properties :
#
#
# Convention : Reuss Voigt Hill
#
# Bulk Modulus (GPa) = 54.87339 63.64366 59.25853
# Shear Modulus (GPa) = 28.69551 33.62197 31.15874
#
# Velocity S-wave (km/s) = 3.91941 4.24253 4.08417
# Velocity P-wave (km/s) = 7.06103 7.62034 7.34601
#
# Compressibility (1/GPa) = 0.01822377
#
# Stress axis : x y z
#
# Youngs Moduli (GPa) = 94.49746 76.98873 48.29874
#
# Poissons Ratio (x) = 0.20422 0.22933
# Poissons Ratio (y) = 0.25066 0.27169
# Poissons Ratio (z) = 0.44870 0.43307
#
# Static dielectric constant tensor:
#      x y z
#    x 1.729190 0.019570 -0.012650 
#    y 0.019570 1.643270 0.000960 
#    z -0.012650 0.000960 1.637210 
# 
# From -- ./inp_files/528710.got.cif
#   From: 2010.05.17/outbox.cif.g08.bks.cpg/sg2_265_cif.got.tgz:528710.got - 2010.06.03 11:33:40.
