data_PCOD9097445
_publ_section_title
;
Structure prediction by ZEFSAII (Michael W. Deem and Ramdas Pophale) SiO2 
 PCOD9097445
Probable space group: P -1
;
_chemical_formula_sum "Si O2"
_cell_formula_units_Z 16
_cell_length_a 17.408988
_cell_length_b 8.976345
_cell_length_c 9.164176
_cell_angle_alpha 135.162757
_cell_angle_beta 71.595211
_cell_angle_gamma 130.140370
_cell_volume 744.884458
_symmetry_space_group_name_H-M "P -1"
_symmetry_group_IT_number 2
_symmetry_cell_setting 'triclinic'
loop_
_space_group_symop_operation_xyz
x,y,z
-x,-y,-z
loop_
_atom_site_type_symbol
_atom_site_label
_atom_site_fract_x
_atom_site_fract_y
_atom_site_fract_z
Si Si1 0.301149 0.558307 0.054146
Si Si2 0.848980 0.818171 0.337907
Si Si3 0.214952 0.828794 0.318785
Si Si4 0.651428 0.705801 0.653419
Si Si5 0.537966 0.302354 0.166781
Si Si6 0.197961 0.240879 0.174577
Si Si7 0.018175 0.604015 0.894533
Si Si8 0.920224 0.726694 0.525491
O O1 0.301338 0.795423 0.286335
O O2 0.237056 0.316794 0.039991
O O3 0.229971 0.468144 0.890040
O O4 0.402228 0.612652 0.965214
O O5 0.867627 0.787643 0.474303
O O6 0.803410 0.978603 0.453992
O O7 0.963739 0.995351 0.324583
O O8 0.099326 0.540901 0.188211
O O9 0.259421 0.992448 0.253078
O O10 0.609953 0.499218 0.396783
O O11 0.557952 0.693655 0.764031
O O12 0.703540 0.655173 0.712807
O O13 0.500000 0.000000 0.000000
O O14 0.149763 0.378288 0.362730
O O15 0.103815 0.923334 0.039225
O O16 0.061028 0.470505 0.690392
O O17 0.000000 0.500000 0.000000
#
# Coordination Sequence:
#
# PCOD9097445 Si02
#       8
#     2   2   2   2   2   2   2   2
#     4  12  25  39  64  94 134 164 209 269 331 364
#     4  10  20  37  62  89 127 172 216 258 295 375
#     4  11  20  38  66  92 126 171 211 255 302 379
#     4  11  23  43  71  91 122 161 221 267 313 381
#     4  11  24  45  72  94 112 165 223 267 318 386
#     4  12  25  41  60 101 137 166 203 266 320 377
#     4  11  21  36  65  97 129 172 218 246 298 383
#     4  10  20  36  60  92 127 174 219 249 300 369
#
# _framework density 21.479839999999999
#
# number of rings (size 3 to 8) (size 9 to 14) (size 15 to 20)
#    0.000    1.000    5.000    3.000    0.000    4.500 
#    0.000    3.125    0.000    0.000    0.000    0.000 
#    0.000    0.000    0.000    0.000    0.000    0.000 
#
# Total GULP energy -89280.074996 kJ/mol
# GULP energy per Si atom -5580.004687 kJ/mol
# Density = 2.143095 g / cm^3
# Si number density = 21.479840 Si / 1000 Ang^3
#
#
#
# Elastic Constant Matrix: (Units=GPa)
#
#
# Indices 1 2 3 4 5 6 
#
# 1 79.6531 29.8239 43.1649 -11.1582 -23.1380 22.7575
# 2 29.8239 108.1801 43.2131 -28.6886 -16.1537 20.5638
# 3 43.1649 43.2131 89.6456 -8.5545 -32.8258 17.0367
# 4 -11.1582 -28.6886 -8.5545 33.4987 8.1404 -10.1743
# 5 -23.1380 -16.1537 -32.8258 8.1404 36.7957 -6.3434
# 6 22.7575 20.5638 17.0367 -10.1743 -6.3434 23.5409
#
#
#
# Elastic Compliance Matrix: (Units=1/GPa)
#
#
# Indices 1 2 3 4 5 6 
#
# 1 0.021600 -0.000149 -0.005064 -0.000519 0.006429 -0.015579
# 2 -0.000149 0.015026 -0.006008 0.010333 -0.001952 -0.004694
# 3 -0.005064 -0.006008 0.022053 -0.006089 0.014412 -0.004565
# 4 -0.000519 0.010333 -0.006089 0.042716 -0.008599 0.012027
# 5 0.006429 -0.001952 0.014412 -0.008599 0.043948 -0.006814
# 6 -0.015579 -0.004694 -0.004565 0.012027 -0.006814 0.068305
#
#
# Mechanical properties :
#
#
# Convention : Reuss Voigt Hill
#
# Bulk Modulus (GPa) = 27.59526 56.65363 42.12444
# Shear Modulus (GPa) = 20.14763 29.51887 24.83325
#
# Velocity S-wave (km/s) = 3.06597 3.71112 3.40386
# Velocity P-wave (km/s) = 5.04068 6.69296 5.92470
#
# Compressibility (1/GPa) = 0.03623811
#
# Stress axis : x y z
#
# Youngs Moduli (GPa) = 46.29665 66.55164 45.34482
#
# Poissons Ratio (x) = 0.00988 0.22961
# Poissons Ratio (y) = 0.00688 0.27245
# Poissons Ratio (z) = 0.23442 0.39987
#
# Static dielectric constant tensor:
#      x y z
#    x 1.805000 0.007130 -0.036600 
#    y 0.007130 1.781170 0.023900 
#    z -0.036600 0.023900 1.809200 
# 
# From -- ./inp_files/329573.got.cif
#   From: 2010.05.17/outbox.cif.g08.bks.cpg/sg2_165_cif.got.tgz:329573.got - 2010.06.03 11:33:40.
