data_PCOD9097780
_publ_section_title
;
Structure prediction by ZEFSAII (Michael W. Deem and Ramdas Pophale) SiO2 
 PCOD9097780
Probable space group: P -1
;
_chemical_formula_sum "Si O2"
_cell_formula_units_Z 16
_cell_length_a 19.364226
_cell_length_b 12.620037
_cell_length_c 26.853646
_cell_angle_alpha 153.139103
_cell_angle_beta 162.822333
_cell_angle_gamma 26.683494
_cell_volume 832.932153
_symmetry_space_group_name_H-M "P -1"
_symmetry_group_IT_number 2
_symmetry_cell_setting 'triclinic'
loop_
_space_group_symop_operation_xyz
x,y,z
-x,-y,-z
loop_
_atom_site_type_symbol
_atom_site_label
_atom_site_fract_x
_atom_site_fract_y
_atom_site_fract_z
Si Si1 0.574517 0.902035 0.454705
Si Si2 0.993425 0.606274 0.442497
Si Si3 0.898346 0.456563 0.990856
Si Si4 0.047906 0.852573 0.202971
Si Si5 0.638608 0.374236 0.153723
Si Si6 0.952341 0.049932 0.929689
Si Si7 0.597567 0.231412 0.176123
Si Si8 0.256650 0.528190 0.876967
O O1 0.785373 0.643125 0.498428
O O2 0.332847 0.904298 0.259970
O O3 0.500000 0.000000 0.500000
O O4 0.705115 0.077668 0.591195
O O5 0.125786 0.813444 0.631187
O O6 0.770098 0.576354 0.310886
O O7 0.904929 0.594024 0.319694
O O8 0.939655 0.277422 0.896549
O O9 0.002145 0.290655 0.041159
O O10 0.608607 0.594545 0.857012
O O11 0.013290 0.669369 0.144590
O O12 0.824291 0.106502 0.155178
O O13 0.601947 0.366977 0.183766
O O14 0.378694 0.410586 0.963223
O O15 0.106049 0.809422 0.903551
O O16 0.000000 0.000000 0.000000
O O17 0.500000 0.000000 0.000000
O O18 0.500000 0.500000 0.000000
#
# Coordination Sequence:
#
# PCOD9097780 Si02
#       8
#     2   2   2   2   2   2   2   2
#     4  11  18  37  64  90 116 154 216 251 287 364
#     4  10  20  36  62  87 118 161 206 248 294 362
#     4  11  21  38  61  89 123 160 201 247 309 358
#     4  10  21  38  66  91 117 160 208 249 296 366
#     4  10  21  39  61  92 123 153 199 254 305 358
#     4  12  23  38  63  95 123 157 202 254 309 354
#     4  12  22  37  57  90 123 154 198 252 308 355
#     4  10  21  38  61  90 123 156 200 247 299 363
#
# _framework density 19.209247999999999
#
# number of rings (size 3 to 8) (size 9 to 14) (size 15 to 20)
#    0.000    1.250    5.000    2.625    0.000    0.000 
#    2.250    1.250    0.000    4.500    0.000    0.000 
#    0.000    0.000    0.000    0.000    0.000    0.000 
#
# Total GULP energy -89251.910744 kJ/mol
# GULP energy per Si atom -5578.244421 kJ/mol
# Density = 1.916553 g / cm^3
# Si number density = 19.209248 Si / 1000 Ang^3
#
#
#
# Elastic Constant Matrix: (Units=GPa)
#
#
# Indices 1 2 3 4 5 6 
#
# 1 78.1545 17.1492 44.4782 -3.4574 6.6062 6.3642
# 2 17.1492 63.9081 39.2239 -1.1681 8.1525 2.0104
# 3 44.4782 39.2239 140.9213 -4.4356 -2.8555 16.0466
# 4 -3.4574 -1.1681 -4.4356 29.8022 9.5706 -0.8395
# 5 6.6062 8.1525 -2.8555 9.5706 33.6379 -2.2228
# 6 6.3642 2.0104 16.0466 -0.8395 -2.2228 29.3243
#
#
#
# Elastic Compliance Matrix: (Units=1/GPa)
#
#
# Indices 1 2 3 4 5 6 
#
# 1 0.016246 -0.000812 -0.004784 0.002449 -0.004169 -0.001098
# 2 -0.000812 0.019943 -0.005520 0.001681 -0.005524 0.001459
# 3 -0.004784 -0.005520 0.010674 -0.000258 0.002979 -0.004206
# 4 0.002449 0.001681 -0.000258 0.037591 -0.011626 -0.000311
# 5 -0.004169 -0.005524 0.002979 -0.011626 0.035580 0.002018
# 6 -0.001098 0.001459 -0.004206 -0.000311 0.002018 0.036685
#
#
# Mechanical properties :
#
#
# Convention : Reuss Voigt Hill
#
# Bulk Modulus (GPa) = 40.59958 53.85407 47.22683
# Shear Modulus (GPa) = 26.71509 30.69507 28.70508
#
# Velocity S-wave (km/s) = 3.73331 4.00175 3.86986
# Velocity P-wave (km/s) = 6.30593 7.03195 6.67882
#
# Compressibility (1/GPa) = 0.02463080
#
# Stress axis : x y z
#
# Youngs Moduli (GPa) = 61.55309 50.14385 93.68962
#
# Poissons Ratio (x) = 0.04073 0.44821
# Poissons Ratio (y) = 0.04999 0.51713
# Poissons Ratio (z) = 0.29447 0.27677
#
# Static dielectric constant tensor:
#      x y z
#    x 1.685070 -0.005100 0.028130 
#    y -0.005100 1.695500 0.042280 
#    z 0.028130 0.042280 1.685700 
# 
# From -- ./inp_files/494798.got.cif
#   From: 2010.05.17/outbox.cif.g08.bks.cpg/sg2_248_cif.got.tgz:494798.got - 2010.06.03 11:33:40.
