data_PCOD9097789
_publ_section_title
;
Structure prediction by ZEFSAII (Michael W. Deem and Ramdas Pophale) SiO2 
 PCOD9097789
Probable space group: P -1
;
_chemical_formula_sum "Si O2"
_cell_formula_units_Z 12
_cell_length_a 8.805967
_cell_length_b 16.228040
_cell_length_c 9.702171
_cell_angle_alpha 33.823240
_cell_angle_beta 56.577912
_cell_angle_gamma 57.757475
_cell_volume 635.477218
_symmetry_space_group_name_H-M "P -1"
_symmetry_group_IT_number 2
_symmetry_cell_setting 'triclinic'
loop_
_space_group_symop_operation_xyz
x,y,z
-x,-y,-z
loop_
_atom_site_type_symbol
_atom_site_label
_atom_site_fract_x
_atom_site_fract_y
_atom_site_fract_z
Si Si1 0.066708 0.503708 0.801771
Si Si2 0.331427 0.459210 0.056053
Si Si3 0.691894 0.298224 0.500868
Si Si4 0.214576 0.936649 0.465209
Si Si5 0.599242 0.765984 0.047643
Si Si6 0.539837 0.167105 0.264912
O O1 0.151287 0.657311 0.536928
O O2 0.223110 0.363929 0.880886
O O3 0.870615 0.498963 0.834294
O O4 0.000000 0.500000 0.000000
O O5 0.371326 0.281522 0.256032
O O6 0.500000 0.500000 0.000000
O O7 0.350100 0.551049 0.778775
O O8 0.756724 0.169268 0.536170
O O9 0.517649 0.265297 0.718149
O O10 0.293916 0.846154 0.689627
O O11 0.000000 0.000000 0.500000
O O12 0.325673 0.076109 0.200154
O O13 0.461855 0.773348 0.973713
O O14 0.500000 0.000000 0.500000
#
# Coordination Sequence:
#
# PCOD9097789 Si02
#       6
#     2   2   2   2   2   2
#     4  10  20  36  62  88 115 161 200 239 291 367
#     4  11  21  39  62  89 120 157 207 240 295 360
#     4  11  22  38  64  89 123 157 193 260 299 342
#     4  11  23  40  64  87 120 164 205 240 295 365
#     4  11  22  40  60  92 124 156 198 248 309 341
#     4  10  22  37  62  83 120 157 203 239 294 357
#
# _framework density 18.883447
#
# number of rings (size 3 to 8) (size 9 to 14) (size 15 to 20)
#    0.000    1.333    5.000    3.000    2.333    0.000 
#    0.000    3.333    0.000    0.000    0.000    0.000 
#    0.000    0.000    0.000    0.000    0.000    0.000 
#
# Total GULP energy -66815.396103 kJ/mol
# GULP energy per Si atom -5567.949675 kJ/mol
# Density = 1.884047 g / cm^3
# Si number density = 18.883447 Si / 1000 Ang^3
#
#
#
# Elastic Constant Matrix: (Units=GPa)
#
#
# Indices 1 2 3 4 5 6 
#
# 1 119.7133 47.2366 50.0645 1.7968 -6.0236 -16.2296
# 2 47.2366 147.0482 56.4727 -14.2959 -1.5356 -12.0094
# 3 50.0645 56.4727 79.6697 1.0740 -13.7133 -13.6717
# 4 1.7968 -14.2959 1.0740 25.0896 3.4371 -9.9788
# 5 -6.0236 -1.5356 -13.7133 3.4371 27.5242 -6.7854
# 6 -16.2296 -12.0094 -13.6717 -9.9788 -6.7854 29.8139
#
#
#
# Elastic Compliance Matrix: (Units=1/GPa)
#
#
# Indices 1 2 3 4 5 6 
#
# 1 0.011772 -0.001260 -0.005873 -0.000060 0.000395 0.003277
# 2 -0.001260 0.010950 -0.007359 0.008029 -0.003798 0.002173
# 3 -0.005873 -0.007359 0.024918 -0.003858 0.012904 0.006911
# 4 -0.000060 0.008029 -0.003858 0.052298 -0.003549 0.018129
# 5 0.000395 -0.003798 0.012904 -0.003549 0.046531 0.014005
# 6 0.003277 0.002173 0.006911 0.018129 0.014005 0.048625
#
#
# Mechanical properties :
#
#
# Convention : Reuss Voigt Hill
#
# Bulk Modulus (GPa) = 53.60355 72.66433 63.13394
# Shear Modulus (GPa) = 21.71127 29.32937 25.52032
#
# Velocity S-wave (km/s) = 3.39448 3.94531 3.68022
# Velocity P-wave (km/s) = 6.61902 7.70182 7.18086
#
# Compressibility (1/GPa) = 0.01865548
#
# Stress axis : x y z
#
# Youngs Moduli (GPa) = 84.95002 91.32644 40.13220
#
# Poissons Ratio (x) = 0.11508 0.23569
# Poissons Ratio (y) = 0.10704 0.29532
# Poissons Ratio (z) = 0.49890 0.67205
#
# Static dielectric constant tensor:
#      x y z
#    x 1.848180 0.036140 0.011450 
#    y 0.036140 1.656760 -0.028260 
#    z 0.011450 -0.028260 1.645820 
# 
# From -- ./inp_files/148053.got.cif
#   From: 2010.05.17/outbox.cif.g08.bks.cpg/sg2_75_cif.got.tgz:148053.got - 2010.06.03 11:33:40.
