data_PCOD9097972
_publ_section_title
;
Structure prediction by ZEFSAII (Michael W. Deem and Ramdas Pophale) SiO2 
 PCOD9097972
Probable space group: P -1
;
_chemical_formula_sum "Si O2"
_cell_formula_units_Z 16
_cell_length_a 19.203562
_cell_length_b 11.924957
_cell_length_c 15.914325
_cell_angle_alpha 143.873358
_cell_angle_beta 160.009278
_cell_angle_gamma 29.035886
_cell_volume 602.577655
_symmetry_space_group_name_H-M "P -1"
_symmetry_group_IT_number 2
_symmetry_cell_setting 'triclinic'
loop_
_space_group_symop_operation_xyz
x,y,z
-x,-y,-z
loop_
_atom_site_type_symbol
_atom_site_label
_atom_site_fract_x
_atom_site_fract_y
_atom_site_fract_z
Si Si1 0.952763 0.436940 0.216970
Si Si2 0.321069 0.084816 0.769954
Si Si3 0.781641 0.657784 0.978210
Si Si4 0.552171 0.661156 0.556353
Si Si5 0.091556 0.826565 0.369311
Si Si6 0.277320 0.470049 0.727300
Si Si7 0.993661 0.106007 0.195348
Si Si8 0.314962 0.010376 0.135597
O O1 0.172192 0.461712 0.511791
O O2 0.988742 0.215305 0.166155
O O3 0.740355 0.664862 0.165753
O O4 0.877378 0.494253 0.069412
O O5 0.116036 0.039082 0.536007
O O6 0.500000 0.000000 0.000000
O O7 0.500059 0.886474 0.789602
O O8 0.948742 0.758062 0.226644
O O9 0.752977 0.557420 0.798762
O O10 0.629456 0.412141 0.459532
O O11 0.645482 0.788021 0.681831
O O12 0.259640 0.857326 0.356178
O O13 0.913758 0.906957 0.135485
O O14 0.071042 0.686704 0.683884
O O15 0.438146 0.192038 0.756321
O O16 0.500000 0.500000 0.000000
O O17 0.770021 0.073233 0.932916
#
# Coordination Sequence:
#
# PCOD9097972 Si02
#       8
#     2   2   2   2   2   2   2   2
#     4  11  22  40  64 102 138 171 217 282 355 386
#     4  10  23  42  63 100 136 171 216 276 347 391
#     4  10  23  42  65  98 138 172 220 282 334 392
#     4  11  23  43  71  98 131 182 233 271 323 401
#     4  11  24  43  71  97 131 184 233 270 325 402
#     4  10  20  36  62  97 133 172 224 274 329 394
#     4  11  23  39  68  98 137 177 225 282 327 408
#     4  10  21  38  64 103 128 170 234 271 330 384
#
# _framework density 26.552595
#
# number of rings (size 3 to 8) (size 9 to 14) (size 15 to 20)
#    0.000    1.500    1.250    4.875    3.500    5.000 
#    9.000    0.625    0.000    6.000    0.000    0.000 
#    0.000    0.000    0.000    0.000    0.000    0.000 
#
# Total GULP energy -89126.801925 kJ/mol
# GULP energy per Si atom -5570.425120 kJ/mol
# Density = 2.649216 g / cm^3
# Si number density = 26.552595 Si / 1000 Ang^3
#
#
#
# Elastic Constant Matrix: (Units=GPa)
#
#
# Indices 1 2 3 4 5 6 
#
# 1 78.4147 39.8582 26.9545 1.3195 15.3340 43.5345
# 2 39.8582 173.3555 32.9970 -9.7617 12.0771 21.6467
# 3 26.9545 32.9970 79.1818 14.5209 31.8301 42.6920
# 4 1.3195 -9.7617 14.5209 28.0345 -10.5380 -17.3592
# 5 15.3340 12.0771 31.8301 -10.5380 21.0930 -23.9306
# 6 43.5345 21.6467 42.6920 -17.3592 -23.9306 3.1957
#
#
#
# Elastic Compliance Matrix: (Units=1/GPa)
#
#
# Indices 1 2 3 4 5 6 
#
# 1 0.014879 -0.002072 -0.008232 0.005713 0.006459 0.000716
# 2 -0.002072 0.006838 -0.001223 0.001785 -0.001245 -0.001387
# 3 -0.008232 -0.001223 0.010039 0.001115 0.002211 0.008919
# 4 0.005713 0.001785 0.001115 0.026127 -0.006442 -0.011138
# 5 0.006459 -0.001245 0.002211 -0.006442 0.016888 -0.017615
# 6 0.000716 -0.001387 0.008919 -0.011138 -0.017615 0.001000
#
#
# Mechanical properties :
#
#
# Convention : Reuss Voigt Hill
#
# Bulk Modulus (GPa) = 114.90599 58.95236 86.92917
# Shear Modulus (GPa) = 49.15214 25.87413 37.51313
#
# Velocity S-wave (km/s) = 4.30714 3.12500 3.76278
# Velocity P-wave (km/s) = 8.25252 5.93895 7.18941
#
# Compressibility (1/GPa) = 0.00870277
#
# Stress axis : x y z
#
# Youngs Moduli (GPa) = 67.21051 146.23862 99.60841
#
# Poissons Ratio (x) = 0.30297 0.81996
# Poissons Ratio (y) = 0.13924 0.12183
# Poissons Ratio (z) = 0.55326 0.17887
#
# Static dielectric constant tensor:
#      x y z
#    x 0.396240 1.771020 -0.010560 
#    y 1.771020 0.475480 0.038380 
#    z -0.010560 0.038380 2.129280 
# 
# From -- ./inp_files/578002.got.cif
#   From: 2010.05.17/outbox.cif.g08.bks.cpg/sg2_290_cif.got.tgz:578002.got - 2010.06.03 11:33:40.
