data_PCOD9097781
_publ_section_title
;
Structure prediction by ZEFSAII (Michael W. Deem and Ramdas Pophale) SiO2 
 PCOD9097781
Probable space group: P -1
;
_chemical_formula_sum "Si O2"
_cell_formula_units_Z 16
_cell_length_a 9.378945
_cell_length_b 18.128856
_cell_length_c 9.721756
_cell_angle_alpha 50.517754
_cell_angle_beta 53.857295
_cell_angle_gamma 38.139137
_cell_volume 773.828281
_symmetry_space_group_name_H-M "P -1"
_symmetry_group_IT_number 2
_symmetry_cell_setting 'triclinic'
loop_
_space_group_symop_operation_xyz
x,y,z
-x,-y,-z
loop_
_atom_site_type_symbol
_atom_site_label
_atom_site_fract_x
_atom_site_fract_y
_atom_site_fract_z
Si Si1 0.353267 0.955268 0.132828
Si Si2 0.523788 0.282566 0.752435
Si Si3 0.058773 0.797073 0.588613
Si Si4 0.743336 0.338190 0.777766
Si Si5 0.350465 0.907227 0.501816
Si Si6 0.838654 0.220455 0.148879
Si Si7 0.112104 0.510495 0.555455
Si Si8 0.826144 0.776508 0.507069
O O1 0.419332 0.850423 0.109348
O O2 0.403232 0.889397 0.331071
O O3 0.084158 0.084078 0.124854
O O4 0.500000 0.000000 0.000000
O O5 0.566044 0.332439 0.804036
O O6 0.266948 0.388134 0.708746
O O7 0.713809 0.257292 0.565363
O O8 0.904827 0.778670 0.610392
O O9 0.116668 0.744242 0.772591
O O10 0.895594 0.949608 0.512574
O O11 0.718865 0.460030 0.618079
O O12 0.002343 0.227788 0.692010
O O13 0.749051 0.315297 0.962277
O O14 0.328752 0.808258 0.686261
O O15 0.557929 0.885617 0.490324
O O16 0.000000 0.500000 0.500000
O O17 0.902720 0.639803 0.599903
#
# Coordination Sequence:
#
# PCOD9097781 Si02
#       8
#     2   2   2   2   2   2   2   2
#     4  11  22  36  64  92 123 164 205 254 299 364
#     4  11  20  42  64  89 121 163 208 251 296 365
#     4  10  20  36  62  87 120 165 194 248 311 362
#     4   9  23  39  61  93 119 159 210 250 297 357
#     4  11  19  38  60  90 128 160 196 246 319 361
#     4  11  21  38  59  91 129 152 200 248 319 363
#     4  10  22  38  69  87 117 162 215 249 294 354
#     4   9  21  38  61  86 116 160 210 244 289 364
#
# _framework density 20.676421999999999
#
# number of rings (size 3 to 8) (size 9 to 14) (size 15 to 20)
#    0.750    1.000    2.500    3.000    1.750    0.500 
#    6.750    0.625    0.000    1.500    0.000    0.000 
#    0.000    0.000    0.000    0.000    0.000    0.000 
#
# Total GULP energy -89265.166932 kJ/mol
# GULP energy per Si atom -5579.072933 kJ/mol
# Density = 2.062936 g / cm^3
# Si number density = 20.676422 Si / 1000 Ang^3
#
#
#
# Elastic Constant Matrix: (Units=GPa)
#
#
# Indices 1 2 3 4 5 6 
#
# 1 124.3523 8.6068 5.0447 1.0697 17.6378 9.6964
# 2 8.6068 30.6656 -1.1137 -4.8846 5.6193 -3.4725
# 3 5.0447 -1.1137 52.0346 2.2208 11.4239 0.8756
# 4 1.0697 -4.8846 2.2208 11.2543 3.4757 0.1084
# 5 17.6378 5.6193 11.4239 3.4757 38.0836 1.0338
# 6 9.6964 -3.4725 0.8756 0.1084 1.0338 37.8231
#
#
#
# Elastic Compliance Matrix: (Units=1/GPa)
#
#
# Indices 1 2 3 4 5 6 
#
# 1 0.008907 -0.002201 -0.000038 -0.000639 -0.003666 -0.002383
# 2 -0.002201 0.037955 0.001680 0.018436 -0.006880 0.004145
# 3 -0.000038 0.001680 0.020705 -0.001403 -0.006309 -0.000139
# 4 -0.000639 0.018436 -0.001403 0.100648 -0.011241 0.001908
# 5 -0.003666 -0.006880 -0.006309 -0.011241 0.031900 -0.000386
# 6 -0.002383 0.004145 -0.000139 0.001908 -0.000386 0.027439
#
#
# Mechanical properties :
#
#
# Convention : Reuss Voigt Hill
#
# Bulk Modulus (GPa) = 15.04954 25.79200 20.42077
# Shear Modulus (GPa) = 19.93443 30.39984 25.16713
#
# Velocity S-wave (km/s) = 3.10839 3.83856 3.49261
# Velocity P-wave (km/s) = 4.49190 5.66986 5.11490
#
# Compressibility (1/GPa) = 0.06644723
#
# Stress axis : x y z
#
# Youngs Moduli (GPa) = 112.27392 26.34674 48.29750
#
# Poissons Ratio (x) = 0.05799 0.00186
# Poissons Ratio (y) = 0.24713 -0.08112
# Poissons Ratio (z) = 0.00432 -0.04425
#
# Static dielectric constant tensor:
#      x y z
#    x 1.772210 0.017220 -0.014780 
#    y 0.017220 1.746530 0.022770 
#    z -0.014780 0.022770 1.723090 
# 
# From -- ./inp_files/223162.got.cif
#   From: 2010.05.17/outbox.cif.g08.bks.cpg/sg2_112_cif.got.tgz:223162.got - 2010.06.03 11:33:40.
