data_PCOD9097964
_publ_section_title
;
Structure prediction by ZEFSAII (Michael W. Deem and Ramdas Pophale) SiO2 
 PCOD9097964
Probable space group: P -1
;
_chemical_formula_sum "Si O2"
_cell_formula_units_Z 16
_cell_length_a 9.764716
_cell_length_b 18.886998
_cell_length_c 11.043608
_cell_angle_alpha 39.236945
_cell_angle_beta 114.801866
_cell_angle_gamma 142.012730
_cell_volume 690.976819
_symmetry_space_group_name_H-M "P -1"
_symmetry_group_IT_number 2
_symmetry_cell_setting 'triclinic'
loop_
_space_group_symop_operation_xyz
x,y,z
-x,-y,-z
loop_
_atom_site_type_symbol
_atom_site_label
_atom_site_fract_x
_atom_site_fract_y
_atom_site_fract_z
Si Si1 0.364036 0.116458 0.209300
Si Si2 0.888459 0.837423 0.090035
Si Si3 0.570568 0.912597 0.127315
Si Si4 0.189711 0.552192 0.594911
Si Si5 0.781109 0.369372 0.856132
Si Si6 0.279320 0.199416 0.293561
Si Si7 0.443916 0.502551 0.791897
Si Si8 0.134607 0.319208 0.481332
O O1 0.370878 0.151599 0.306546
O O2 0.300842 0.199567 0.011313
O O3 0.634985 0.240762 0.091821
O O4 0.138447 0.896670 0.376822
O O5 0.791377 0.693304 0.346398
O O6 0.000000 0.000000 0.000000
O O7 0.131866 0.935263 0.978349
O O8 0.445924 0.777037 0.375601
O O9 0.428743 0.776872 0.135056
O O10 0.500000 0.000000 0.000000
O O11 0.249351 0.461825 0.697452
O O12 0.000000 0.500000 0.500000
O O13 0.035487 0.459920 0.785228
O O14 0.860773 0.545696 0.672395
O O15 0.444780 0.339855 0.281844
O O16 0.300551 0.322924 0.053623
O O17 0.000000 0.000000 0.500000
O O18 0.668482 0.595208 0.665615
#
# Coordination Sequence:
#
# PCOD9097964 Si02
#       8
#     2   2   2   2   2   2   2   2
#     4  11  22  39  63  95 127 169 225 277 330 394
#     4  10  20  36  62  96 130 165 217 275 336 396
#     4  11  22  39  58  92 140 180 213 258 335 414
#     4  10  24  42  63  99 144 180 215 271 343 413
#     4  11  23  40  59  93 131 173 217 265 335 401
#     4  11  24  44  71 100 131 176 232 289 332 384
#     4  11  24  44  70 103 133 174 233 280 332 405
#     4  11  21  38  67  96 131 168 220 284 334 395
#
# _framework density 23.155625000000001
#
# number of rings (size 3 to 8) (size 9 to 14) (size 15 to 20)
#    0.000    1.250    5.000    2.250    1.750    4.500 
#    0.000    0.625    0.000    1.500    0.000    0.000 
#    0.000    0.000    0.000    0.000    0.000    0.000 
#
# Total GULP energy -89351.001301 kJ/mol
# GULP energy per Si atom -5584.437581 kJ/mol
# Density = 2.310292 g / cm^3
# Si number density = 23.155625 Si / 1000 Ang^3
#
#
#
# Elastic Constant Matrix: (Units=GPa)
#
#
# Indices 1 2 3 4 5 6 
#
# 1 95.0684 11.4429 53.4910 -10.8040 -28.2654 -18.0490
# 2 11.4429 86.6880 20.5622 -22.4479 1.8577 -42.2046
# 3 53.4910 20.5622 164.1314 -26.5857 -26.0050 -7.0884
# 4 -10.8040 -22.4479 -26.5857 35.9906 -4.7621 5.2180
# 5 -28.2654 1.8577 -26.0050 -4.7621 53.6688 3.6516
# 6 -18.0490 -42.2046 -7.0884 5.2180 3.6516 37.5825
#
#
#
# Elastic Compliance Matrix: (Units=1/GPa)
#
#
# Indices 1 2 3 4 5 6 
#
# 1 0.016901 0.006199 -0.003904 0.005007 0.006352 0.013029
# 2 0.006199 0.034314 -0.002055 0.016086 -0.000138 0.038903
# 3 -0.003904 -0.002055 0.008724 0.004883 0.002913 -0.003499
# 4 0.005007 0.016086 0.004883 0.041711 0.007133 0.014906
# 5 0.006352 -0.000138 0.002913 0.007133 0.024020 0.000121
# 6 0.013029 0.038903 -0.003499 0.014906 0.000121 0.073812
#
#
# Mechanical properties :
#
#
# Convention : Reuss Voigt Hill
#
# Bulk Modulus (GPa) = 16.55147 57.43112 36.99130
# Shear Modulus (GPa) = 22.81623 42.80781 32.81202
#
# Velocity S-wave (km/s) = 3.14242 4.30432 3.76842
# Velocity P-wave (km/s) = 4.50887 7.03981 5.91138
#
# Compressibility (1/GPa) = 0.06041759
#
# Stress axis : x y z
#
# Youngs Moduli (GPa) = 59.16867 29.14283 114.62530
#
# Poissons Ratio (x) = -0.18066 0.44754
# Poissons Ratio (y) = -0.36680 0.23559
# Poissons Ratio (z) = 0.23102 0.05990
#
# Static dielectric constant tensor:
#      x y z
#    x 1.804980 0.015790 0.015270 
#    y 0.015790 1.975470 0.020250 
#    z 0.015270 0.020250 1.866290 
# 
# From -- ./inp_files/402864.got.cif
#   From: 2010.05.17/outbox.cif.g08.bks.cpg/sg2_202_cif.got.tgz:402864.got - 2010.06.03 11:33:40.
