data_PCOD9097906
_publ_section_title
;
Structure prediction by ZEFSAII (Michael W. Deem and Ramdas Pophale) SiO2 
 PCOD9097906
Probable space group: P -1
;
_chemical_formula_sum "Si O2"
_cell_formula_units_Z 16
_cell_length_a 14.575315
_cell_length_b 8.437082
_cell_length_c 27.672020
_cell_angle_alpha 53.117242
_cell_angle_beta 20.675047
_cell_angle_gamma 44.983644
_cell_volume 823.062340
_symmetry_space_group_name_H-M "P -1"
_symmetry_group_IT_number 2
_symmetry_cell_setting 'triclinic'
loop_
_space_group_symop_operation_xyz
x,y,z
-x,-y,-z
loop_
_atom_site_type_symbol
_atom_site_label
_atom_site_fract_x
_atom_site_fract_y
_atom_site_fract_z
Si Si1 0.630449 0.698769 0.447295
Si Si2 0.419075 0.730769 0.131108
Si Si3 0.359973 0.830280 0.657028
Si Si4 0.284801 0.249534 0.211311
Si Si5 0.656129 0.218582 0.129761
Si Si6 0.081536 0.970281 0.604465
Si Si7 0.662032 0.078740 0.964578
Si Si8 0.688475 0.739390 0.609524
O O1 0.522364 0.678992 0.557685
O O2 0.975664 0.493324 0.309692
O O3 0.637296 0.933909 0.395619
O O4 0.358300 0.748690 0.535398
O O5 0.632191 0.468093 0.091292
O O6 0.400832 0.739441 0.080451
O O7 0.101615 0.840608 0.297096
O O8 0.514787 0.920249 0.058447
O O9 0.516577 0.728423 0.649062
O O10 0.016498 0.900692 0.818635
O O11 0.446866 0.221162 0.187983
O O12 0.531802 0.200780 0.057310
O O13 0.156576 0.077476 0.296603
O O14 0.500734 0.218130 0.256686
O O15 0.000000 0.000000 0.000000
O O16 0.230776 0.064322 0.476783
O O17 0.000000 0.500000 0.500000
#
# Coordination Sequence:
#
# PCOD9097906 Si02
#       8
#     2   2   2   2   2   2   2   2
#     4  10  20  36  65  95 128 150 198 268 318 362
#     4  10  21  41  66  88 128 158 206 262 303 374
#     4  10  20  36  62  93 116 162 211 245 304 376
#     4  11  24  39  62  94 129 159 199 264 314 359
#     4  12  26  44  60  90 130 171 212 252 298 365
#     4  10  21  41  64  95 123 157 207 259 312 369
#     4  10  21  40  65  94 118 160 203 258 328 357
#     4  11  22  40  64  84 121 173 208 242 297 370
#
# _framework density 19.439596000000002
#
# number of rings (size 3 to 8) (size 9 to 14) (size 15 to 20)
#    0.000    1.500    2.500    2.625    1.750    4.500 
#    4.500    1.875    0.000    0.000    0.000    0.000 
#    0.000    0.000    0.000    0.000    0.000    0.000 
#
# Total GULP energy -89244.127670 kJ/mol
# GULP energy per Si atom -5577.757979 kJ/mol
# Density = 1.939535 g / cm^3
# Si number density = 19.439596 Si / 1000 Ang^3
#
#
#
# Elastic Constant Matrix: (Units=GPa)
#
#
# Indices 1 2 3 4 5 6 
#
# 1 69.2363 11.3955 -16.0603 -28.7463 27.9254 -12.8677
# 2 11.3955 68.8487 1.5613 -2.7094 22.5949 -12.0830
# 3 -16.0603 1.5613 17.7419 -40.2356 42.9314 10.5770
# 4 -28.7463 -2.7094 -40.2356 11.1070 4.3377 15.1969
# 5 27.9254 22.5949 42.9314 4.3377 31.4995 -10.7141
# 6 -12.8677 -12.0830 10.5770 15.1969 -10.7141 13.8557
#
#
#
# Elastic Compliance Matrix: (Units=1/GPa)
#
#
# Indices 1 2 3 4 5 6 
#
# 1 0.016457 0.001806 -0.004331 -0.003915 -0.001524 0.023281
# 2 0.001806 0.020600 0.000999 -0.006467 -0.010874 0.017564
# 3 -0.004331 0.000999 0.004081 -0.014208 0.003645 0.012134
# 4 -0.003915 -0.006467 -0.014208 0.020166 0.024027 -0.001969
# 5 -0.001524 -0.010874 0.003645 0.024027 0.025787 -0.020093
# 6 0.023281 0.017564 0.012134 -0.001969 -0.020093 0.086470
#
#
# Mechanical properties :
#
#
# Convention : Reuss Voigt Hill
#
# Bulk Modulus (GPa) = 26.25696 16.62444 21.44070
# Shear Modulus (GPa) = 26.41178 21.88780 24.14979
#
# Velocity S-wave (km/s) = 3.69000 3.35914 3.52845
# Velocity P-wave (km/s) = 5.62948 4.85958 5.25864
#
# Compressibility (1/GPa) = 0.03808514
#
# Stress axis : x y z
#
# Youngs Moduli (GPa) = 60.76337 48.54456 245.02012
#
# Poissons Ratio (x) = -0.08769 1.06130
# Poissons Ratio (y) = -0.10976 -0.24468
# Poissons Ratio (z) = 0.26319 -0.04848
#
# Static dielectric constant tensor:
#      x y z
#    x 1.753330 0.014240 -0.052290 
#    y 0.014240 1.731170 0.019480 
#    z -0.052290 0.019480 1.725990 
# 
# From -- ./inp_files/188652.got.cif
#   From: 2010.05.17/outbox.cif.g08.bks.cpg/sg2_95_cif.got.tgz:188652.got - 2010.06.03 11:33:40.
