data_PCOD9097510
_publ_section_title
;
Structure prediction by ZEFSAII (Michael W. Deem and Ramdas Pophale) SiO2 
 PCOD9097510
Probable space group: P -1
;
_chemical_formula_sum "Si O2"
_cell_formula_units_Z 11
_cell_length_a 9.035333
_cell_length_b 16.234166
_cell_length_c 8.773785
_cell_angle_alpha 144.670166
_cell_angle_beta 146.303993
_cell_angle_gamma 52.520141
_cell_volume 402.852335
_symmetry_space_group_name_H-M "P -1"
_symmetry_group_IT_number 2
_symmetry_cell_setting 'triclinic'
loop_
_space_group_symop_operation_xyz
x,y,z
-x,-y,-z
loop_
_atom_site_type_symbol
_atom_site_label
_atom_site_fract_x
_atom_site_fract_y
_atom_site_fract_z
Si Si1 0.004126 0.543772 0.893106
Si Si2 0.811025 0.121134 0.166932
Si Si3 0.506803 0.664580 0.308987
Si Si4 0.311859 0.224480 0.976373
Si Si5 0.899985 0.258450 0.158743
Si Si6 0.500000 0.000000 0.000000
O O1 0.966537 0.405865 0.541256
O O2 0.762445 0.630376 0.801409
O O3 0.000000 0.500000 0.000000
O O4 0.288849 0.653778 0.246463
O O5 0.091575 0.179483 0.584913
O O6 0.856352 0.118895 0.022355
O O7 0.609200 0.236393 0.178106
O O8 0.644752 0.999838 0.954227
O O9 0.828874 0.730355 0.691174
O O10 0.500000 0.500000 0.000000
O O11 0.359461 0.736315 0.157347
O O12 0.299194 0.097859 0.898512
#
# Coordination Sequence:
#
# PCOD9097510 Si02
#       6
#     2   2   2   2   2   1
#     4  11  22  38  62  93 125 147 202 246 295 347
#     4  10  20  36  61  83 117 154 197 244 286 355
#     4  10  23  39  55  83 127 167 186 230 295 376
#     4  10  21  36  57  92 115 150 192 259 284 341
#     4  11  22  40  58  87 124 163 189 230 310 359
#     4   8  22  36  58  88 118 148 202 246 304 322
#
# _framework density 27.305292000000001
#
# number of rings (size 3 to 8) (size 9 to 14) (size 15 to 20)
#    1.091    0.727    1.818    3.818    2.545    5.091 
#    0.000    0.000    0.000    2.182    0.000    0.000 
#    0.000    0.000    0.000    0.000    0.000    0.000 
#
# Total GULP energy -61285.580674 kJ/mol
# GULP energy per Si atom -5571.416425 kJ/mol
# Density = 2.724314 g / cm^3
# Si number density = 27.305292 Si / 1000 Ang^3
#
#
#
# Elastic Constant Matrix: (Units=GPa)
#
#
# Indices 1 2 3 4 5 6 
#
# 1 92.8915 32.4445 20.5439 -12.7214 2.4565 33.2873
# 2 32.4445 159.1892 36.9507 -58.2823 2.0840 4.3528
# 3 20.5439 36.9507 98.3836 -27.0375 3.9769 -6.9927
# 4 -12.7214 -58.2823 -27.0375 43.6388 -6.6002 -7.0924
# 5 2.4565 2.0840 3.9769 -6.6002 36.1866 -7.3903
# 6 33.2873 4.3528 -6.9927 -7.0924 -7.3903 75.6180
#
#
#
# Elastic Compliance Matrix: (Units=1/GPa)
#
#
# Indices 1 2 3 4 5 6 
#
# 1 0.014836 -0.003460 -0.003282 -0.003909 -0.002643 -0.007260
# 2 -0.003460 0.013396 0.000804 0.018347 0.003308 0.002870
# 3 -0.003282 0.000804 0.013252 0.009077 0.001108 0.003584
# 4 -0.003909 0.018347 0.009077 0.054605 0.009718 0.007575
# 5 -0.002643 0.003308 0.001108 0.009718 0.030284 0.004947
# 6 -0.007260 0.002870 0.003584 0.007575 0.004947 0.017780
#
#
# Mechanical properties :
#
#
# Convention : Reuss Voigt Hill
#
# Bulk Modulus (GPa) = 33.77524 58.92694 46.35109
# Shear Modulus (GPa) = 30.13879 48.45704 39.29791
#
# Velocity S-wave (km/s) = 3.32591 4.21722 3.79780
# Velocity P-wave (km/s) = 5.21011 6.73356 6.02022
#
# Compressibility (1/GPa) = 0.02960749
#
# Stress axis : x y z
#
# Youngs Moduli (GPa) = 67.40502 74.64936 75.45848
#
# Poissons Ratio (x) = 0.25829 0.24765
# Poissons Ratio (y) = 0.23323 -0.06065
# Poissons Ratio (z) = 0.22122 -0.06000
#
# Static dielectric constant tensor:
#      x y z
#    x 2.067350 0.022740 -0.018170 
#    y 0.022740 2.184350 0.110780 
#    z -0.018170 0.110780 2.198790 
# 
# From -- ./inp_files/194266.got.cif
#   From: 2010.05.17/outbox.cif.g08.bks.cpg/sg2_98_cif.got.tgz:194266.got - 2010.06.03 11:33:40.
