data_PCOD9097940
_publ_section_title
;
Structure prediction by ZEFSAII (Michael W. Deem and Ramdas Pophale) SiO2 
 PCOD9097940
Probable space group: P -1
;
_chemical_formula_sum "Si O2"
_cell_formula_units_Z 16
_cell_length_a 11.018614
_cell_length_b 5.286331
_cell_length_c 15.042576
_cell_angle_alpha 110.930552
_cell_angle_beta 50.785982
_cell_angle_gamma 97.179186
_cell_volume 627.884397
_symmetry_space_group_name_H-M "P -1"
_symmetry_group_IT_number 2
_symmetry_cell_setting 'triclinic'
loop_
_space_group_symop_operation_xyz
x,y,z
-x,-y,-z
loop_
_atom_site_type_symbol
_atom_site_label
_atom_site_fract_x
_atom_site_fract_y
_atom_site_fract_z
Si Si1 0.546789 0.288908 0.615385
Si Si2 0.194001 0.699861 0.027458
Si Si3 0.057160 0.328508 0.364659
Si Si4 0.662904 0.980336 0.871391
Si Si5 0.502152 0.261660 0.824538
Si Si6 0.970741 0.718697 0.289855
Si Si7 0.719317 0.195178 0.181279
Si Si8 0.293754 0.941442 0.641643
O O1 0.601289 0.263187 0.688120
O O2 0.408471 0.541086 0.708414
O O3 0.667184 0.293959 0.479535
O O4 0.459712 0.022035 0.608164
O O5 0.076184 0.599903 0.140940
O O6 0.217718 0.981977 0.099354
O O7 0.368386 0.522708 0.928348
O O8 0.161706 0.736710 0.942759
O O9 0.248613 0.272606 0.256272
O O10 0.000000 0.500000 0.500000
O O11 0.988132 0.506705 0.334827
O O12 0.013888 0.015709 0.342543
O O13 0.619914 0.214676 0.846570
O O14 0.500000 0.000000 0.000000
O O15 0.388012 0.024033 0.836475
O O16 0.799827 0.808567 0.337754
O O17 0.792845 0.106414 0.231927
#
# Coordination Sequence:
#
# PCOD9097940 Si02
#       8
#     2   2   2   2   2   2   2   2
#     4   9  21  39  61  94 127 159 224 279 320 398
#     4  10  22  40  61  93 136 164 223 273 321 404
#     4  11  27  48  68 101 141 173 229 274 328 408
#     4  11  21  39  68  95 127 178 219 274 333 391
#     4  10  20  36  62  94 126 166 215 273 335 385
#     4  11  26  45  70  94 135 181 214 272 336 399
#     4  10  20  38  61  95 126 164 216 279 324 389
#     4  10  22  40  65  89 129 174 218 270 336 392
#
# _framework density 25.482396999999999
#
# number of rings (size 3 to 8) (size 9 to 14) (size 15 to 20)
#    0.000    1.750    1.250    1.875    5.250    2.500 
#    0.000    5.625    0.000    0.000    0.000    0.000 
#    0.000    0.000    0.000    0.000    0.000    0.000 
#
# Total GULP energy -89332.632198 kJ/mol
# GULP energy per Si atom -5583.289512 kJ/mol
# Density = 2.542440 g / cm^3
# Si number density = 25.482397 Si / 1000 Ang^3
#
#
#
# Elastic Constant Matrix: (Units=GPa)
#
#
# Indices 1 2 3 4 5 6 
#
# 1 57.7924 22.5410 43.4136 -17.2366 14.4717 -15.1933
# 2 22.5410 91.6861 43.7587 -5.7284 20.5331 -12.6883
# 3 43.4136 43.7587 197.9036 -4.6846 21.0198 -16.1653
# 4 -17.2366 -5.7284 -4.6846 33.3089 -9.6128 7.2484
# 5 14.4717 20.5331 21.0198 -9.6128 33.7526 -3.9426
# 6 -15.1933 -12.6883 -16.1653 7.2484 -3.9426 43.9944
#
#
#
# Elastic Compliance Matrix: (Units=1/GPa)
#
#
# Indices 1 2 3 4 5 6 
#
# 1 0.026919 -0.002354 -0.004327 0.010756 -0.003777 0.004917
# 2 -0.002354 0.014006 -0.001733 -0.001439 -0.006580 0.002237
# 3 -0.004327 -0.001733 0.006570 -0.002257 -0.001750 0.000635
# 4 0.010756 -0.001439 -0.002257 0.038041 0.008145 -0.003067
# 5 -0.003777 -0.006580 -0.001750 0.008145 0.038456 -0.001741
# 6 0.004917 0.002237 0.000635 -0.003067 -0.001741 0.025656
#
#
# Mechanical properties :
#
#
# Convention : Reuss Voigt Hill
#
# Bulk Modulus (GPa) = 32.61002 62.97873 47.79438
# Shear Modulus (GPa) = 28.29684 38.05577 33.17630
#
# Velocity S-wave (km/s) = 3.33595 3.86866 3.61214
# Velocity P-wave (km/s) = 5.25956 6.68758 6.01609
#
# Compressibility (1/GPa) = 0.03066542
#
# Stress axis : x y z
#
# Youngs Moduli (GPa) = 37.14910 71.39815 152.21434
#
# Poissons Ratio (x) = 0.16811 0.65865
# Poissons Ratio (y) = 0.08747 0.26376
# Poissons Ratio (z) = 0.16075 0.12372
#
# Static dielectric constant tensor:
#      x y z
#    x 2.025270 0.107240 -0.012380 
#    y 0.107240 2.108720 -0.063710 
#    z -0.012380 -0.063710 2.057870 
# 
# From -- ./inp_files/77181.got.cif
#   From: 2010.05.17/outbox.cif.g08.bks.cpg/sg2_39_cif.got.tgz:77181.got - 2010.06.03 11:33:40.
