data_PCOD9097060
_publ_section_title
;
Structure prediction by ZEFSAII (Michael W. Deem and Ramdas Pophale) SiO2 
 PCOD9097060
Probable space group: P -1
;
_chemical_formula_sum "Si O2"
_cell_formula_units_Z 16
_cell_length_a 9.242881
_cell_length_b 13.541508
_cell_length_c 12.877976
_cell_angle_alpha 139.591143
_cell_angle_beta 116.228336
_cell_angle_gamma 93.966041
_cell_volume 671.497789
_symmetry_space_group_name_H-M "P -1"
_symmetry_group_IT_number 2
_symmetry_cell_setting 'triclinic'
loop_
_space_group_symop_operation_xyz
x,y,z
-x,-y,-z
loop_
_atom_site_type_symbol
_atom_site_label
_atom_site_fract_x
_atom_site_fract_y
_atom_site_fract_z
Si Si1 0.750825 0.693244 0.685447
Si Si2 0.796926 0.335204 0.915609
Si Si3 0.704927 0.406267 0.737997
Si Si4 0.486167 0.855405 0.122402
Si Si5 0.570889 0.878458 0.784264
Si Si6 0.001391 0.729603 0.412165
Si Si7 0.877747 0.455392 0.532761
Si Si8 0.642990 0.572072 0.316382
O O1 0.500000 0.500000 0.500000
O O2 0.771627 0.888657 0.870664
O O3 0.897420 0.644707 0.728783
O O4 0.742203 0.662051 0.534322
O O5 0.697091 0.273912 0.719867
O O6 0.625445 0.190129 0.837275
O O7 0.881261 0.564972 0.147920
O O8 0.030422 0.395724 0.041742
O O9 0.570118 0.267050 0.480396
O O10 0.574086 0.465309 0.786148
O O11 0.385221 0.917687 0.063900
O O12 0.427183 0.647735 0.900510
O O13 0.755382 0.048468 0.361474
O O14 0.393420 0.747921 0.717259
O O15 0.832065 0.731938 0.417928
O O16 0.041124 0.617339 0.417515
O O17 0.000000 0.500000 0.500000
#
# Coordination Sequence:
#
# PCOD9097060 Si02
#       8
#     2   2   2   2   2   2   2   2
#     4   9  18  33  59  83 111 155 189 234 287 338
#     4  10  21  39  64  79 120 152 193 233 291 340
#     4  10  20  40  60  87 112 157 190 235 288 344
#     4  10  21  38  59  87 116 152 191 237 288 338
#     4   9  19  37  56  83 120 144 193 238 282 341
#     4  10  20  39  58  87 118 153 189 238 285 343
#     4  10  16  30  58  85 104 150 193 222 286 337
#     4  10  21  38  61  83 119 149 192 240 284 337
#
# _framework density 23.82733
#
# number of rings (size 3 to 8) (size 9 to 14) (size 15 to 20)
#    0.000    2.250    3.750    0.000    0.000    2.500 
#    4.500    6.875    0.000    3.750    0.000    0.000 
#    0.000    0.000    0.000    0.000    0.000    0.000 
#
# Total GULP energy -89396.194039 kJ/mol
# GULP energy per Si atom -5587.262127 kJ/mol
# Density = 2.377310 g / cm^3
# Si number density = 23.827330 Si / 1000 Ang^3
#
#
#
# Elastic Constant Matrix: (Units=GPa)
#
#
# Indices 1 2 3 4 5 6 
#
# 1 211.2713 51.6861 51.8540 14.8224 26.9568 14.2634
# 2 51.6861 87.7378 28.7136 7.4286 11.2238 16.2388
# 3 51.8540 28.7136 93.2454 12.4574 13.7800 8.2198
# 4 14.8224 7.4286 12.4574 31.2892 1.3661 4.0968
# 5 26.9568 11.2238 13.7800 1.3661 28.1807 7.6712
# 6 14.2634 16.2388 8.2198 4.0968 7.6712 44.4707
#
#
#
# Elastic Compliance Matrix: (Units=1/GPa)
#
#
# Indices 1 2 3 4 5 6 
#
# 1 0.006472 -0.002506 -0.002020 -0.001494 -0.004151 0.000066
# 2 -0.002506 0.014604 -0.002503 -0.000736 -0.001123 -0.003804
# 3 -0.002020 -0.002503 0.013643 -0.003725 -0.003560 -0.000002
# 4 -0.001494 -0.000736 -0.003725 0.034501 0.002461 -0.002166
# 5 -0.004151 -0.001123 -0.003560 0.002461 0.042950 -0.005236
# 6 0.000066 -0.003804 -0.000002 -0.002166 -0.005236 0.024958
#
#
# Mechanical properties :
#
#
# Convention : Reuss Voigt Hill
#
# Bulk Modulus (GPa) = 48.40686 72.97356 60.69021
# Shear Modulus (GPa) = 31.63073 38.12151 34.87612
#
# Velocity S-wave (km/s) = 3.64744 4.00422 3.82999
# Velocity P-wave (km/s) = 6.17237 7.21602 6.71450
#
# Compressibility (1/GPa) = 0.02065823
#
# Stress axis : x y z
#
# Youngs Moduli (GPa) = 154.50674 68.47644 73.29929
#
# Poissons Ratio (x) = 0.17163 0.14808
# Poissons Ratio (y) = 0.38726 0.18350
# Poissons Ratio (z) = 0.31214 0.17143
#
# Static dielectric constant tensor:
#      x y z
#    x 1.937260 -0.025250 0.005580 
#    y -0.025250 1.944120 0.020160 
#    z 0.005580 0.020160 1.977080 
# 
# From -- ./inp_files/505617.got.cif
#   From: 2010.05.17/outbox.cif.g08.bks.cpg/sg2_253_cif.got.tgz:505617.got - 2010.06.03 11:33:40.
