data_PCOD9097235
_publ_section_title
;
Structure prediction by ZEFSAII (Michael W. Deem and Ramdas Pophale) SiO2 
 PCOD9097235
Probable space group: P -1
;
_chemical_formula_sum "Si O2"
_cell_formula_units_Z 11
_cell_length_a 9.167568
_cell_length_b 7.647392
_cell_length_c 10.493563
_cell_angle_alpha 85.415816
_cell_angle_beta 122.155396
_cell_angle_gamma 132.315668
_cell_volume 412.515001
_symmetry_space_group_name_H-M "P -1"
_symmetry_group_IT_number 2
_symmetry_cell_setting 'triclinic'
loop_
_space_group_symop_operation_xyz
x,y,z
-x,-y,-z
loop_
_atom_site_type_symbol
_atom_site_label
_atom_site_fract_x
_atom_site_fract_y
_atom_site_fract_z
Si Si1 0.911513 0.741628 0.521861
Si Si2 0.580010 0.926850 0.370394
Si Si3 0.119477 0.827913 0.165825
Si Si4 0.591019 0.261346 0.983657
Si Si5 0.500000 0.500000 0.500000
Si Si6 0.087880 0.953505 0.873997
O O1 0.604319 0.503184 0.401356
O O2 0.952982 0.773979 0.694560
O O3 0.000000 0.000000 0.500000
O O4 0.121939 0.788809 0.539601
O O5 0.387985 0.938499 0.315203
O O6 0.472303 0.778141 0.192317
O O7 0.557873 0.745426 0.463704
O O8 0.114966 0.466623 0.870411
O O9 0.084223 0.816219 0.996678
O O10 0.059717 0.980480 0.169675
O O11 0.383600 0.222256 0.963237
O O12 0.500000 0.000000 0.000000
#
# Coordination Sequence:
#
# PCOD9097235 Si02
#       6
#     2   2   2   2   1   2
#     4   9  20  38  58  83 109 153 203 242 283 347
#     4  10  21  34  59  86 114 153 204 239 286 351
#     4  11  22  36  58  93 124 157 185 247 310 345
#     4  11  21  35  60  90 123 156 197 238 291 364
#     4  10  20  36  60  82 110 150 204 252 280 336
#     4  10  22  38  58  88 128 152 192 247 300 356
#
# _framework density 26.665697000000002
#
# number of rings (size 3 to 8) (size 9 to 14) (size 15 to 20)
#    0.000    1.818    1.818    2.182    5.091    0.000 
#    0.000    3.636    0.000   10.909    0.000    0.000 
#    0.000    0.000    0.000    0.000    0.000    0.000 
#
# Total GULP energy -61302.113954 kJ/mol
# GULP energy per Si atom -5572.919450 kJ/mol
# Density = 2.660500 g / cm^3
# Si number density = 26.665697 Si / 1000 Ang^3
#
#
#
# Elastic Constant Matrix: (Units=GPa)
#
#
# Indices 1 2 3 4 5 6 
#
# 1 155.7199 75.7049 34.8948 2.2318 49.7607 37.7494
# 2 75.7049 126.0961 22.7538 -22.6338 -2.4205 8.1611
# 3 34.8948 22.7538 108.3127 -38.8307 -3.9046 -25.7856
# 4 2.2318 -22.6338 -38.8307 35.3321 2.2668 6.9525
# 5 49.7607 -2.4205 -3.9046 2.2668 27.6835 -27.4209
# 6 37.7494 8.1611 -25.7856 6.9525 -27.4209 9.3398
#
#
#
# Elastic Compliance Matrix: (Units=1/GPa)
#
#
# Indices 1 2 3 4 5 6 
#
# 1 0.003416 -0.003592 0.001240 -0.003768 0.005434 0.011515
# 2 -0.003592 0.012389 0.000065 0.010010 -0.001669 -0.008479
# 3 0.001240 0.000065 0.012501 0.015556 -0.008365 -0.006694
# 4 -0.003768 0.010010 0.015556 0.055003 -0.007204 -0.012664
# 5 0.005434 -0.001669 -0.008365 -0.007204 0.006423 -0.019379
# 6 0.011515 -0.008479 -0.006694 -0.012664 -0.019379 0.001986
#
#
# Mechanical properties :
#
#
# Convention : Reuss Voigt Hill
#
# Bulk Modulus (GPa) = 42.13845 72.98176 57.56011
# Shear Modulus (GPa) = 47.98262 31.58945 39.78604
#
# Velocity S-wave (km/s) = 4.24655 3.44560 3.86687
# Velocity P-wave (km/s) = 6.31515 6.57709 6.44745
#
# Compressibility (1/GPa) = 0.02373129
#
# Stress axis : x y z
#
# Youngs Moduli (GPa) = 292.71436 80.71724 79.99335
#
# Poissons Ratio (x) = 0.28995 -0.09921
# Poissons Ratio (y) = 1.05149 -0.00516
# Poissons Ratio (z) = -0.36303 -0.00521
#
# Static dielectric constant tensor:
#      x y z
#    x 2.240780 -0.217710 -0.244990 
#    y -0.217710 1.583340 -0.402790 
#    z -0.244990 -0.402790 1.591700 
# 
# From -- ./inp_files/373895.got.cif
#   From: 2010.05.17/outbox.cif.g08.bks.cpg/sg2_187_cif.got.tgz:373895.got - 2010.06.03 11:33:40.
