data_PCOD9097879
_publ_section_title
;
Structure prediction by ZEFSAII (Michael W. Deem and Ramdas Pophale) SiO2 
 PCOD9097879
Probable space group: P -1
;
_chemical_formula_sum "Si O2"
_cell_formula_units_Z 16
_cell_length_a 8.528855
_cell_length_b 14.541093
_cell_length_c 12.974313
_cell_angle_alpha 42.839844
_cell_angle_beta 80.958908
_cell_angle_gamma 49.338355
_cell_volume 650.088030
_symmetry_space_group_name_H-M "P -1"
_symmetry_group_IT_number 2
_symmetry_cell_setting 'triclinic'
loop_
_space_group_symop_operation_xyz
x,y,z
-x,-y,-z
loop_
_atom_site_type_symbol
_atom_site_label
_atom_site_fract_x
_atom_site_fract_y
_atom_site_fract_z
Si Si1 0.056819 0.293892 0.830566
Si Si2 0.240783 0.357623 0.257678
Si Si3 0.846192 0.893085 0.566202
Si Si4 0.421054 0.125360 0.744310
Si Si5 0.807427 0.324915 0.099638
Si Si6 0.020136 0.926927 0.923929
Si Si7 0.558376 0.616360 0.384603
Si Si8 0.105893 0.150763 0.637171
O O1 0.187322 0.246202 0.749326
O O2 0.893429 0.517129 0.723061
O O3 0.885539 0.271237 0.861583
O O4 0.308604 0.099038 0.042004
O O5 0.152515 0.271630 0.298189
O O6 0.553693 0.140616 0.418074
O O7 0.172311 0.529587 0.049244
O O8 0.900596 0.895850 0.440511
O O9 0.049013 0.805189 0.702016
O O10 0.414083 0.292960 0.600631
O O11 0.357521 0.075096 0.695145
O O12 0.943346 0.154789 0.129658
O O13 0.500000 0.500000 0.000000
O O14 0.726058 0.141436 0.827725
O O15 0.120742 0.011526 0.827478
O O16 0.500000 0.500000 0.500000
O O17 0.836277 0.420167 0.458970
#
# Coordination Sequence:
#
# PCOD9097879 Si02
#       8
#     2   2   2   2   2   2   2   2
#     4   9  20  39  61  87 125 169 213 264 323 385
#     4  10  23  42  65  94 126 167 215 270 323 383
#     4  11  25  42  65  96 128 170 221 265 325 392
#     4  10  20  36  62  91 124 168 215 263 323 388
#     4  11  24  44  67  91 128 171 215 271 326 383
#     4   9  21  39  58  87 122 165 213 262 320 381
#     4   9  19  37  59  85 121 161 204 260 317 372
#     4  11  22  37  60  92 128 165 213 269 322 385
#
# _framework density 24.612051999999998
#
# number of rings (size 3 to 8) (size 9 to 14) (size 15 to 20)
#    0.000    2.000    0.000    2.250    0.000   11.500 
#    0.000    7.500    0.000    0.000    0.000    0.000 
#    0.000    0.000    0.000    0.000    0.000    0.000 
#
# Total GULP energy -89369.037837 kJ/mol
# GULP energy per Si atom -5585.564865 kJ/mol
# Density = 2.455603 g / cm^3
# Si number density = 24.612052 Si / 1000 Ang^3
#
#
#
# Elastic Constant Matrix: (Units=GPa)
#
#
# Indices 1 2 3 4 5 6 
#
# 1 92.7370 26.1108 35.1705 11.4646 -16.3567 5.5339
# 2 26.1108 117.1106 38.2888 -8.7512 16.1952 5.8907
# 3 35.1705 38.2888 81.0387 -4.7703 -22.5808 12.0631
# 4 11.4646 -8.7512 -4.7703 46.8152 0.5450 -0.5520
# 5 -16.3567 16.1952 -22.5808 0.5450 43.3458 2.8680
# 6 5.5339 5.8907 12.0631 -0.5520 2.8680 33.2251
#
#
#
# Elastic Compliance Matrix: (Units=1/GPa)
#
#
# Indices 1 2 3 4 5 6 
#
# 1 0.014479 -0.002989 -0.003643 -0.004544 0.004810 -0.001050
# 2 -0.002989 0.013408 -0.008124 0.002557 -0.010535 0.002022
# 3 -0.003643 -0.008124 0.022867 0.001452 0.014047 -0.007444
# 4 -0.004544 0.002557 0.001452 0.023129 -0.002228 0.000353
# 5 0.004810 -0.010535 0.014047 -0.002228 0.036646 -0.007234
# 6 -0.001050 0.002022 -0.007444 0.000353 -0.007234 0.033247
#
#
# Mechanical properties :
#
#
# Convention : Reuss Voigt Hill
#
# Bulk Modulus (GPa) = 47.07555 54.44738 50.76147
# Shear Modulus (GPa) = 27.72128 37.43162 32.57645
#
# Velocity S-wave (km/s) = 3.35972 3.90406 3.64207
# Velocity P-wave (km/s) = 5.84969 6.51863 6.19320
#
# Compressibility (1/GPa) = 0.02124245
#
# Stress axis : x y z
#
# Youngs Moduli (GPa) = 69.06584 74.58423 43.73209
#
# Poissons Ratio (x) = 0.22294 0.15930
# Poissons Ratio (y) = 0.20645 0.35526
# Poissons Ratio (z) = 0.25158 0.60589
#
# Static dielectric constant tensor:
#      x y z
#    x 2.019520 0.008240 -0.000920 
#    y 0.008240 1.942680 0.041060 
#    z -0.000920 0.041060 2.033120 
# 
# From -- ./inp_files/505261.got.cif
#   From: 2010.05.17/outbox.cif.g08.bks.cpg/sg2_253_cif.got.tgz:505261.got - 2010.06.03 11:33:40.
