data_PCOD9097641
_publ_section_title
;
Structure prediction by ZEFSAII (Michael W. Deem and Ramdas Pophale) SiO2 
 PCOD9097641
Probable space group: P -1
;
_chemical_formula_sum "Si O2"
_cell_formula_units_Z 16
_cell_length_a 9.252408
_cell_length_b 13.955291
_cell_length_c 11.938364
_cell_angle_alpha 127.457029
_cell_angle_beta 137.975688
_cell_angle_gamma 79.641391
_cell_volume 703.749194
_symmetry_space_group_name_H-M "P -1"
_symmetry_group_IT_number 2
_symmetry_cell_setting 'triclinic'
loop_
_space_group_symop_operation_xyz
x,y,z
-x,-y,-z
loop_
_atom_site_type_symbol
_atom_site_label
_atom_site_fract_x
_atom_site_fract_y
_atom_site_fract_z
Si Si1 0.944795 0.301353 0.374057
Si Si2 0.225922 0.634889 0.073030
Si Si3 0.067378 0.970704 0.895691
Si Si4 0.307243 0.580262 0.311473
Si Si5 0.371127 0.607577 0.898167
Si Si6 0.782131 0.708784 0.044318
Si Si7 0.524384 0.218958 0.249018
Si Si8 0.789200 0.106435 0.713863
O O1 0.002489 0.185906 0.279799
O O2 0.775597 0.324268 0.200480
O O3 0.783090 0.255918 0.364285
O O4 0.200809 0.446840 0.646691
O O5 0.370062 0.673699 0.302133
O O6 0.148823 0.750764 0.083829
O O7 0.360683 0.621377 0.034160
O O8 0.980009 0.486513 0.857493
O O9 0.923886 0.024093 0.772149
O O10 0.364112 0.068071 0.107422
O O11 0.000000 0.000000 0.000000
O O12 0.307038 0.441250 0.173576
O O13 0.459185 0.671840 0.569381
O O14 0.655610 0.675080 0.068138
O O15 0.638437 0.771070 0.937434
O O16 0.078001 0.820115 0.276612
O O17 0.500000 0.000000 0.500000
#
# Coordination Sequence:
#
# PCOD9097641 Si02
#       8
#     2   2   2   2   2   2   2   2
#     4  10  21  38  63  94 129 165 204 259 326 367
#     4  10  21  38  61  88 126 169 211 249 315 372
#     4  11  24  38  64  97 123 163 216 260 306 384
#     4  10  20  36  61  91 125 170 208 254 305 380
#     4  10  20  38  63  94 129 162 204 270 313 367
#     4   9  21  37  62  93 124 161 215 261 312 366
#     4  10  20  38  62  92 131 163 206 261 316 366
#     4  10  23  43  62  84 129 168 208 259 313 378
#
# _framework density 22.735372000000002
#
# number of rings (size 3 to 8) (size 9 to 14) (size 15 to 20)
#    0.000    2.000    1.250    1.500    3.500    0.500 
#    0.000    0.625    0.000    0.000    0.000    0.000 
#    0.000    0.000    0.000    0.000    0.000    0.000 
#
# Total GULP energy -89282.309725 kJ/mol
# GULP energy per Si atom -5580.144358 kJ/mol
# Density = 2.268363 g / cm^3
# Si number density = 22.735372 Si / 1000 Ang^3
#
#
#
# Elastic Constant Matrix: (Units=GPa)
#
#
# Indices 1 2 3 4 5 6 
#
# 1 198.9908 55.8977 44.9643 10.7734 1.7046 29.2259
# 2 55.8977 97.8209 32.6566 28.8813 -7.7374 -5.1262
# 3 44.9643 32.6566 36.9176 11.4606 7.9482 8.9752
# 4 10.7734 28.8813 11.4606 24.9683 -1.8801 -6.9864
# 5 1.7046 -7.7374 7.9482 -1.8801 37.9814 1.6063
# 6 29.2259 -5.1262 8.9752 -6.9864 1.6063 31.2604
#
#
#
# Elastic Compliance Matrix: (Units=1/GPa)
#
#
# Indices 1 2 3 4 5 6 
#
# 1 0.008148 -0.003346 -0.006042 0.001452 0.000548 -0.006136
# 2 -0.003346 0.022202 -0.013871 -0.015430 0.006517 0.006968
# 3 -0.006042 -0.013871 0.057732 -0.013263 -0.014641 -0.015414
# 4 0.001452 -0.015430 -0.013263 0.067712 0.002287 0.014935
# 5 0.000548 0.006517 -0.014641 0.002287 0.030652 0.003696
# 6 -0.006136 0.006968 -0.015414 0.014935 0.003696 0.046442
#
#
# Mechanical properties :
#
#
# Convention : Reuss Voigt Hill
#
# Bulk Modulus (GPa) = 24.05855 66.75183 45.40519
# Shear Modulus (GPa) = 17.04961 32.18940 24.61951
#
# Velocity S-wave (km/s) = 2.74143 3.76683 3.29427
# Velocity P-wave (km/s) = 4.54154 6.95290 5.87232
#
# Compressibility (1/GPa) = 0.04156526
#
# Stress axis : x y z
#
# Youngs Moduli (GPa) = 122.72465 45.04100 17.32127
#
# Poissons Ratio (x) = 0.15072 0.10465
# Poissons Ratio (y) = 0.41067 0.24026
# Poissons Ratio (z) = 0.74145 0.62476
#
# Static dielectric constant tensor:
#      x y z
#    x 1.854840 0.078600 -0.020920 
#    y 0.078600 1.721770 0.178050 
#    z -0.020920 0.178050 1.635580 
# 
# From -- ./inp_files/314237.got.cif
#   From: 2010.05.17/outbox.cif.g08.bks.cpg/sg2_158_cif.got.tgz:314237.got - 2010.06.03 11:33:40.
