data_PCOD9097221
_publ_section_title
;
Structure prediction by ZEFSAII (Michael W. Deem and Ramdas Pophale) SiO2 
 PCOD9097221
Probable space group: P -1
;
_chemical_formula_sum "Si O2"
_cell_formula_units_Z 16
_cell_length_a 31.709134
_cell_length_b 16.754249
_cell_length_c 5.066433
_cell_angle_alpha 112.642887
_cell_angle_beta 67.272647
_cell_angle_gamma 164.512682
_cell_volume 662.042638
_symmetry_space_group_name_H-M "P -1"
_symmetry_group_IT_number 2
_symmetry_cell_setting 'triclinic'
loop_
_space_group_symop_operation_xyz
x,y,z
-x,-y,-z
loop_
_atom_site_type_symbol
_atom_site_label
_atom_site_fract_x
_atom_site_fract_y
_atom_site_fract_z
Si Si1 0.719721 0.125894 0.765816
Si Si2 0.023662 0.782715 0.887968
Si Si3 0.091770 0.001030 0.494445
Si Si4 0.688504 0.739192 0.887084
Si Si5 0.312991 0.669945 0.096299
Si Si6 0.591397 0.986248 0.423799
Si Si7 0.754319 0.553772 0.513163
Si Si8 0.618828 0.766509 0.745168
O O1 0.606119 0.942765 0.564302
O O2 0.894572 0.479019 0.735583
O O3 0.717116 0.019347 0.691200
O O4 0.656187 0.063834 0.094931
O O5 0.196314 0.053753 0.872714
O O6 0.987637 0.758720 0.229656
O O7 0.037801 0.885065 0.772052
O O8 0.257694 0.249093 0.380360
O O9 0.119555 0.146929 0.506795
O O10 0.716914 0.875434 0.816434
O O11 0.506711 0.412533 0.988755
O O12 0.307431 0.751681 0.358542
O O13 0.246967 0.481753 0.229231
O O14 0.239304 0.514365 0.793655
O O15 0.500000 0.000000 0.000000
O O16 0.417522 0.711044 0.443944
O O17 0.500000 0.500000 0.500000
#
# Coordination Sequence:
#
# PCOD9097221 Si02
#       8
#     2   2   2   2   2   2   2   2
#     4  12  26  40  66  89 130 173 207 250 325 371
#     4  10  23  42  61  90 124 180 209 253 299 384
#     4  10  21  40  65  90 126 162 225 247 305 375
#     4   9  23  40  67  88 131 161 202 272 303 367
#     4  10  20  36  59  97 137 158 204 265 323 368
#     4  11  23  39  62  95 129 163 208 261 315 378
#     4  11  20  35  67  98 123 168 207 266 318 368
#     4  11  24  42  64 101 128 152 210 274 315 366
#
# _framework density 24.167625999999998
#
# number of rings (size 3 to 8) (size 9 to 14) (size 15 to 20)
#    0.750    0.750    0.000    6.750    7.000    0.500 
#    0.000    1.250    0.000   15.000    0.000    0.000 
#    0.000    0.000    0.000    0.000    0.000    0.000 
#
# Total GULP energy -89469.086319 kJ/mol
# GULP energy per Si atom -5591.817895 kJ/mol
# Density = 2.411262 g / cm^3
# Si number density = 24.167626 Si / 1000 Ang^3
#
#
#
# Elastic Constant Matrix: (Units=GPa)
#
#
# Indices 1 2 3 4 5 6 
#
# 1 123.5492 33.5454 6.4428 -6.4980 18.8934 -14.0477
# 2 33.5454 73.9706 6.5564 4.2894 -2.1339 -21.5322
# 3 6.4428 6.5564 101.7292 -14.4260 10.5498 2.1741
# 4 -6.4980 4.2894 -14.4260 32.6734 -6.1432 2.7362
# 5 18.8934 -2.1339 10.5498 -6.1432 41.2551 -4.0988
# 6 -14.0477 -21.5322 2.1741 2.7362 -4.0988 37.9685
#
#
#
# Elastic Compliance Matrix: (Units=1/GPa)
#
#
# Indices 1 2 3 4 5 6 
#
# 1 0.010249 -0.004822 0.000418 0.001935 -0.004724 0.000384
# 2 -0.004822 0.019190 -0.002210 -0.004523 0.004085 0.009992
# 3 0.000418 -0.002210 0.010965 0.004921 -0.002612 -0.002363
# 4 0.001935 -0.004523 0.004921 0.034562 0.002334 -0.004369
# 5 -0.004724 0.004085 -0.002612 0.002334 0.027984 0.003571
# 6 0.000384 0.009992 -0.002363 -0.004369 0.003571 0.032982
#
#
# Mechanical properties :
#
#
# Convention : Reuss Voigt Hill
#
# Bulk Modulus (GPa) = 36.79603 43.59314 40.19459
# Shear Modulus (GPa) = 31.60159 39.22635 35.41397
#
# Velocity S-wave (km/s) = 3.62000 4.03314 3.83214
# Velocity P-wave (km/s) = 5.72109 6.30597 6.02064
#
# Compressibility (1/GPa) = 0.02717684
#
# Stress axis : x y z
#
# Youngs Moduli (GPa) = 97.56926 52.11006 91.19727
#
# Poissons Ratio (x) = 0.25125 -0.03810
# Poissons Ratio (y) = 0.47044 0.20154
# Poissons Ratio (z) = -0.04076 0.11516
#
# Static dielectric constant tensor:
#      x y z
#    x 1.942600 0.017290 -0.023910 
#    y 0.017290 1.965090 -0.018950 
#    z -0.023910 -0.018950 1.910800 
# 
# From -- ./inp_files/128604.got.cif
#   From: 2010.05.17/outbox.cif.g08.bks.cpg/sg2_65_cif.got.tgz:128604.got - 2010.06.03 11:33:40.
