data_PCOD9097729
_publ_section_title
;
Structure prediction by ZEFSAII (Michael W. Deem and Ramdas Pophale) SiO2 
 PCOD9097729
Probable space group: P -1
;
_chemical_formula_sum "Si O2"
_cell_formula_units_Z 15
_cell_length_a 14.727873
_cell_length_b 8.639120
_cell_length_c 11.819872
_cell_angle_alpha 81.129373
_cell_angle_beta 27.516006
_cell_angle_gamma 95.730165
_cell_volume 587.072330
_symmetry_space_group_name_H-M "P -1"
_symmetry_group_IT_number 2
_symmetry_cell_setting 'triclinic'
loop_
_space_group_symop_operation_xyz
x,y,z
-x,-y,-z
loop_
_atom_site_type_symbol
_atom_site_label
_atom_site_fract_x
_atom_site_fract_y
_atom_site_fract_z
Si Si1 0.811583 0.368892 0.576082
Si Si2 0.887840 0.262058 0.935112
Si Si3 0.183715 0.280046 0.233582
Si Si4 0.077348 0.071613 0.595854
Si Si5 0.293169 0.871088 0.480686
Si Si6 0.845441 0.673227 0.134964
Si Si7 0.500000 0.500000 0.000000
Si Si8 0.529597 0.241264 0.495006
O O1 0.988210 0.546989 0.289281
O O2 0.653151 0.205668 0.682100
O O3 0.674009 0.421337 0.805132
O O4 0.966614 0.303389 0.472993
O O5 0.022729 0.279364 0.899060
O O6 0.929865 0.129469 0.825340
O O7 0.642384 0.216054 0.260350
O O8 0.222876 0.237404 0.326520
O O9 0.097471 0.108574 0.264565
O O10 0.433929 0.458082 0.930967
O O11 0.259450 0.038417 0.464667
O O12 0.439223 0.865889 0.423847
O O13 0.030284 0.727235 0.825650
O O14 0.678587 0.455954 0.338911
O O15 0.718254 0.786116 0.248462
#
# Coordination Sequence:
#
# PCOD9097729 Si02
#       8
#     2   2   2   2   2   2   1   2
#     4  11  22  40  68  94 126 168 217 263 316 372
#     4  11  20  40  63  94 129 170 206 262 320 375
#     4  10  24  46  64  92 128 171 217 266 316 381
#     4  10  23  43  64  89 137 174 200 264 340 367
#     4  10  20  41  62  88 131 173 201 259 324 378
#     4  10  20  36  62 100 124 162 220 265 297 388
#     4  12  24  40  70  98 116 162 232 268 294 384
#     4  10  20  36  64  99 127 162 219 263 306 378
#
# _framework density 25.550515000000001
#
# number of rings (size 3 to 8) (size 9 to 14) (size 15 to 20)
#    0.000    1.600    4.000    1.200    0.000    5.333 
#    0.000   12.667    0.000    0.000    0.000    0.000 
#    0.000    0.000    0.000    0.000    0.000    0.000 
#
# Total GULP energy -83783.558136 kJ/mol
# GULP energy per Si atom -5585.570542 kJ/mol
# Density = 2.549236 g / cm^3
# Si number density = 25.550515 Si / 1000 Ang^3
#
#
#
# Elastic Constant Matrix: (Units=GPa)
#
#
# Indices 1 2 3 4 5 6 
#
# 1 67.8877 47.8356 32.3251 12.3372 0.7040 -19.4140
# 2 47.8356 124.3963 52.5732 42.0279 -0.6736 -2.9576
# 3 32.3251 52.5732 73.2382 36.8831 3.7121 7.7097
# 4 12.3372 42.0279 36.8831 55.1431 1.3754 7.7371
# 5 0.7040 -0.6736 3.7121 1.3754 31.0134 3.4202
# 6 -19.4140 -2.9576 7.7097 7.7371 3.4202 50.8229
#
#
#
# Elastic Compliance Matrix: (Units=1/GPa)
#
#
# Indices 1 2 3 4 5 6 
#
# 1 0.027040 -0.007568 -0.010095 0.004989 -0.000974 0.010726
# 2 -0.007568 0.014976 -0.003845 -0.007121 0.001322 -0.000441
# 3 -0.010095 -0.003845 0.027969 -0.012589 -0.001952 -0.006275
# 4 0.004989 -0.007121 -0.012589 0.031052 0.000008 -0.001326
# 5 -0.000974 0.001322 -0.001952 0.000008 0.032771 -0.002206
# 6 0.010726 -0.000441 -0.006275 -0.001326 -0.002206 0.025050
#
#
# Mechanical properties :
#
#
# Convention : Reuss Voigt Hill
#
# Bulk Modulus (GPa) = 37.07734 58.99891 48.03812
# Shear Modulus (GPa) = 23.71198 36.24844 29.98021
#
# Velocity S-wave (km/s) = 3.04969 3.77065 3.42917
# Velocity P-wave (km/s) = 5.19073 6.48832 5.87545
#
# Compressibility (1/GPa) = 0.02697065
#
# Stress axis : x y z
#
# Youngs Moduli (GPa) = 36.98229 66.77201 35.75356
#
# Poissons Ratio (x) = 0.50531 0.36092
# Poissons Ratio (y) = 0.27987 0.13748
# Poissons Ratio (z) = 0.37332 0.25675
#
# Static dielectric constant tensor:
#      x y z
#    x 4.295490 6.216960 -5.131910 
#    y 6.216960 19.122900 -14.243180 
#    z -5.131910 -14.243180 13.763400 
# 
# From -- ./inp_files/444543.got.cif
#   From: 2010.05.17/outbox.cif.g08.bks.cpg/sg2_223_cif.got.tgz:444543.got - 2010.06.03 11:33:40.
