data_PCOD9097610
_publ_section_title
;
Structure prediction by ZEFSAII (Michael W. Deem and Ramdas Pophale) SiO2 
 PCOD9097610
Probable space group: P -1
;
_chemical_formula_sum "Si O2"
_cell_formula_units_Z 16
_cell_length_a 21.549899
_cell_length_b 14.262546
_cell_length_c 23.227022
_cell_angle_alpha 20.822663
_cell_angle_beta 19.476685
_cell_angle_gamma 31.104505
_cell_volume 827.145422
_symmetry_space_group_name_H-M "P -1"
_symmetry_group_IT_number 2
_symmetry_cell_setting 'triclinic'
loop_
_space_group_symop_operation_xyz
x,y,z
-x,-y,-z
loop_
_atom_site_type_symbol
_atom_site_label
_atom_site_fract_x
_atom_site_fract_y
_atom_site_fract_z
Si Si1 0.539720 0.379437 0.942214
Si Si2 0.912680 0.215333 0.711284
Si Si3 0.517436 0.701315 0.175538
Si Si4 0.216853 0.327907 0.810277
Si Si5 0.703616 0.888172 0.585918
Si Si6 0.740480 0.703585 0.868427
Si Si7 0.352141 0.534514 0.694498
Si Si8 0.864616 0.349995 0.406175
O O1 0.711066 0.248605 0.842772
O O2 0.625825 0.666588 0.732033
O O3 0.434165 0.187891 0.195285
O O4 0.385484 0.393551 0.020872
O O5 0.000000 0.500000 0.500000
O O6 0.082685 0.141056 0.568130
O O7 0.866114 0.989101 0.931346
O O8 0.641549 0.673720 0.139687
O O9 0.302632 0.562150 0.461104
O O10 0.617001 0.597364 0.093851
O O11 0.500000 0.000000 0.000000
O O12 0.223929 0.423778 0.815331
O O13 0.432823 0.390138 0.562079
O O14 0.107270 0.485441 0.772308
O O15 0.701954 0.190421 0.394885
O O16 0.942375 0.620939 0.744009
O O17 0.789809 0.032740 0.638070
#
# Coordination Sequence:
#
# PCOD9097610 Si02
#       8
#     2   2   2   2   2   2   2   2
#     4  10  21  39  60  83 118 156 193 239 293 348
#     4  10  22  37  58  88 119 151 189 242 292 345
#     4   9  20  35  54  79 119 152 185 236 287 345
#     4  10  20  36  63  86 121 148 190 247 297 338
#     4  10  21  38  59  89 115 149 196 246 291 341
#     4  10  20  37  58  78 117 155 193 230 288 350
#     4  10  20  36  61  90 116 152 194 243 299 338
#     4   9  20  36  55  86 115 149 191 243 284 337
#
# _framework density 19.343636
#
# number of rings (size 3 to 8) (size 9 to 14) (size 15 to 20)
#    0.000    2.250    1.250    0.750    7.000    1.500 
#    4.500    0.625    0.000    1.500    0.000    0.000 
#    0.000    0.000    0.000    0.000    0.000    0.000 
#
# Total GULP energy -89218.948360 kJ/mol
# GULP energy per Si atom -5576.184272 kJ/mol
# Density = 1.929961 g / cm^3
# Si number density = 19.343636 Si / 1000 Ang^3
#
#
#
# Elastic Constant Matrix: (Units=GPa)
#
#
# Indices 1 2 3 4 5 6 
#
# 1 115.2562 37.7830 45.9802 -1.9868 -1.2268 -24.7415
# 2 37.7830 76.2175 24.5898 5.9755 -5.9852 -19.5378
# 3 45.9802 24.5898 72.0298 -4.2294 0.5501 -12.3362
# 4 -1.9868 5.9755 -4.2294 29.3577 -15.9233 4.5608
# 5 -1.2268 -5.9852 0.5501 -15.9233 22.0120 3.0604
# 6 -24.7415 -19.5378 -12.3362 4.5608 3.0604 25.8242
#
#
#
# Elastic Compliance Matrix: (Units=1/GPa)
#
#
# Indices 1 2 3 4 5 6 
#
# 1 0.014045 -0.002496 -0.006670 -0.002407 -0.002740 0.009131
# 2 -0.002496 0.018868 -0.003233 -0.007341 -0.001887 0.011859
# 3 -0.006670 -0.003233 0.019394 0.003499 0.000836 -0.000289
# 4 -0.002407 -0.007341 0.003499 0.066080 0.048872 -0.023651
# 5 -0.002740 -0.001887 0.000836 0.048872 0.083175 -0.022142
# 6 0.009131 0.011859 -0.000289 -0.023651 -0.022142 0.063107
#
#
# Mechanical properties :
#
#
# Convention : Reuss Voigt Hill
#
# Bulk Modulus (GPa) = 36.35268 53.35661 44.85465
# Shear Modulus (GPa) = 16.74261 25.78214 21.26238
#
# Velocity S-wave (km/s) = 2.94519 3.65478 3.31900
# Velocity P-wave (km/s) = 5.51357 6.74191 6.15844
#
# Compressibility (1/GPa) = 0.02750829
#
# Stress axis : x y z
#
# Youngs Moduli (GPa) = 71.19937 52.99869 51.56142
#
# Poissons Ratio (x) = 0.13230 0.34392
# Poissons Ratio (y) = 0.17774 0.16672
# Poissons Ratio (z) = 0.47490 0.17137
#
# Static dielectric constant tensor:
#      x y z
#    x 1.647130 0.001460 0.004570 
#    y 0.001460 1.715170 0.021940 
#    z 0.004570 0.021940 1.699700 
# 
# From -- ./inp_files/402474.got.cif
#   From: 2010.05.17/outbox.cif.g08.bks.cpg/sg2_202_cif.got.tgz:402474.got - 2010.06.03 11:33:40.
