data_PCOD9097011
_publ_section_title
;
Structure prediction by ZEFSAII (Michael W. Deem and Ramdas Pophale) SiO2 
 PCOD9097011
Probable space group: P -1
;
_chemical_formula_sum "Si O2"
_cell_formula_units_Z 16
_cell_length_a 9.809481
_cell_length_b 16.877955
_cell_length_c 6.776791
_cell_angle_alpha 122.335182
_cell_angle_beta 50.601401
_cell_angle_gamma 114.314136
_cell_volume 728.074210
_symmetry_space_group_name_H-M "P -1"
_symmetry_group_IT_number 2
_symmetry_cell_setting 'triclinic'
loop_
_space_group_symop_operation_xyz
x,y,z
-x,-y,-z
loop_
_atom_site_type_symbol
_atom_site_label
_atom_site_fract_x
_atom_site_fract_y
_atom_site_fract_z
Si Si1 0.746596 0.699598 0.313861
Si Si2 0.999157 0.462036 0.168399
Si Si3 0.518765 0.612896 0.107051
Si Si4 0.488236 0.934336 0.224122
Si Si5 0.197847 0.973697 0.220728
Si Si6 0.015547 0.177025 0.039589
Si Si7 0.852214 0.361899 0.506571
Si Si8 0.689153 0.769910 0.893128
O O1 0.555617 0.668437 0.352931
O O2 0.856490 0.783404 0.204218
O O3 0.738456 0.733841 0.587355
O O4 0.843322 0.605504 0.061047
O O5 0.017316 0.557377 0.404530
O O6 0.843187 0.395179 0.330112
O O7 0.000000 0.500000 0.000000
O O8 0.333374 0.633155 0.215293
O O9 0.500000 0.500000 0.000000
O O10 0.662440 0.673403 0.918549
O O11 0.308870 0.944851 0.274271
O O12 0.500000 0.000000 0.500000
O O13 0.518535 0.828091 0.119906
O O14 0.653396 0.958816 0.949180
O O15 0.136535 0.894744 0.008398
O O16 0.000000 0.000000 0.500000
O O17 0.154603 0.157410 0.055605
O O18 0.920921 0.262833 0.325074
#
# Coordination Sequence:
#
# PCOD9097011 Si02
#       8
#     2   2   2   2   2   2   2   2
#     4  10  22  40  61  91 127 171 220 273 333 387
#     4  10  20  36  59  82 120 167 221 274 318 387
#     4  11  24  41  61  90 136 178 217 276 333 382
#     4  11  27  47  73 108 139 176 227 286 345 415
#     4  11  25  48  76 102 141 178 222 282 354 415
#     4  10  23  42  67  94 130 174 216 276 334 400
#     4  10  22  38  57  89 125 168 220 269 329 387
#     4  11  25  43  67  98 135 171 226 276 331 404
#
# _framework density 21.975781999999999
#
# number of rings (size 3 to 8) (size 9 to 14) (size 15 to 20)
#    0.000    1.500    1.250    2.250    7.000    6.500 
#    2.250    0.000    0.000    0.000    0.000    0.000 
#    0.000    0.000    0.000    0.000    0.000    0.000 
#
# Total GULP energy -89104.920568 kJ/mol
# GULP energy per Si atom -5569.057536 kJ/mol
# Density = 2.192576 g / cm^3
# Si number density = 21.975782 Si / 1000 Ang^3
#
#
#
# Elastic Constant Matrix: (Units=GPa)
#
#
# Indices 1 2 3 4 5 6 
#
# 1 109.7466 32.3487 25.5519 5.7223 -1.1268 -1.3929
# 2 32.3487 59.8915 10.0555 12.0901 -1.5344 -3.0568
# 3 25.5519 10.0555 95.7966 14.4905 3.9578 -10.5663
# 4 5.7223 12.0901 14.4905 26.5489 -0.9349 1.2417
# 5 -1.1268 -1.5344 3.9578 -0.9349 40.0744 -7.0340
# 6 -1.3929 -3.0568 -10.5663 1.2417 -7.0340 23.9544
#
#
#
# Elastic Compliance Matrix: (Units=1/GPa)
#
#
# Indices 1 2 3 4 5 6 
#
# 1 0.011488 -0.006192 -0.002882 0.001990 0.000163 -0.001449
# 2 -0.006192 0.021969 0.001143 -0.009433 0.000988 0.003727
# 3 -0.002882 0.001143 0.012844 -0.007201 -0.000440 0.005888
# 4 0.001990 -0.009433 -0.007201 0.045781 0.000326 -0.006542
# 5 0.000163 0.000988 -0.000440 0.000326 0.026394 0.007675
# 6 -0.001449 0.003727 0.005888 -0.006542 0.007675 0.047327
#
#
# Mechanical properties :
#
#
# Convention : Reuss Voigt Hill
#
# Bulk Modulus (GPa) = 32.85303 44.59410 38.72357
# Shear Modulus (GPa) = 26.06718 31.28080 28.67399
#
# Velocity S-wave (km/s) = 3.44783 3.77692 3.61612
# Velocity P-wave (km/s) = 5.55267 6.27348 5.92405
#
# Compressibility (1/GPa) = 0.03043859
#
# Stress axis : x y z
#
# Youngs Moduli (GPa) = 87.05042 45.51788 77.85579
#
# Poissons Ratio (x) = 0.28187 0.22435
# Poissons Ratio (y) = 0.53905 -0.08897
# Poissons Ratio (z) = 0.25085 -0.05202
#
# Static dielectric constant tensor:
#      x y z
#    x 1.818230 -0.048150 0.127180 
#    y -0.048150 1.907370 0.019080 
#    z 0.127180 0.019080 1.598290 
# 
# From -- ./inp_files/48809.got.cif
#   From: 2010.05.17/outbox.cif.g08.bks.cpg/sg2_25_cif.got.tgz:48809.got - 2010.06.03 11:33:40.
