data_PCOD9097795
_publ_section_title
;
Structure prediction by ZEFSAII (Michael W. Deem and Ramdas Pophale) SiO2 
 PCOD9097795
Probable space group: P -1
;
_chemical_formula_sum "Si O2"
_cell_formula_units_Z 16
_cell_length_a 14.000101
_cell_length_b 9.650177
_cell_length_c 18.510394
_cell_angle_alpha 124.364783
_cell_angle_beta 160.418876
_cell_angle_gamma 58.143889
_cell_volume 691.767622
_symmetry_space_group_name_H-M "P -1"
_symmetry_group_IT_number 2
_symmetry_cell_setting 'triclinic'
loop_
_space_group_symop_operation_xyz
x,y,z
-x,-y,-z
loop_
_atom_site_type_symbol
_atom_site_label
_atom_site_fract_x
_atom_site_fract_y
_atom_site_fract_z
Si Si1 0.771005 0.209020 0.133085
Si Si2 0.911198 0.175972 0.068394
Si Si3 0.800288 0.270570 0.651808
Si Si4 0.315421 0.576351 0.735919
Si Si5 0.792621 0.153247 0.760272
Si Si6 0.233438 0.347565 0.213035
Si Si7 0.411581 0.227523 0.639087
Si Si8 0.586952 0.878908 0.961123
O O1 0.835146 0.271877 0.116611
O O2 0.076315 0.189934 0.385836
O O3 0.605383 0.337625 0.105074
O O4 0.634421 0.020908 0.975368
O O5 0.084413 0.271837 0.157219
O O6 0.093590 0.019258 0.177842
O O7 0.613202 0.118331 0.801826
O O8 0.715510 0.145390 0.619660
O O9 0.557004 0.284873 0.422832
O O10 0.785843 0.454057 0.732269
O O11 0.115306 0.214702 0.838812
O O12 0.472996 0.414741 0.769799
O O13 0.000000 0.500000 0.500000
O O14 0.355215 0.728063 0.751359
O O15 0.535285 0.218150 0.644145
O O16 0.055374 0.281251 0.999013
O O17 0.500000 0.000000 0.000000
#
# Coordination Sequence:
#
# PCOD9097795 Si02
#       8
#     2   2   2   2   2   2   2   2
#     4  10  21  37  62  88 118 161 203 248 300 359
#     4  11  22  36  59  92 122 158 202 243 299 363
#     4  11  22  39  61  86 125 162 198 250 302 365
#     4   9  20  40  62  86 115 161 204 246 302 362
#     4  11  22  36  61  89 124 160 198 244 301 365
#     4  10  23  37  57  92 124 159 201 245 306 354
#     4  10  21  37  61  87 124 160 200 250 299 353
#     4  10  20  36  62  88 117 158 203 248 302 354
#
# _framework density 23.129155000000001
#
# number of rings (size 3 to 8) (size 9 to 14) (size 15 to 20)
#    0.000    1.750    1.250    4.125    3.500    1.500 
#    0.000    1.250    0.000   20.250    0.000    0.000 
#    0.000    0.000    0.000    0.000    0.000    0.000 
#
# Total GULP energy -89324.423391 kJ/mol
# GULP energy per Si atom -5582.776462 kJ/mol
# Density = 2.307651 g / cm^3
# Si number density = 23.129155 Si / 1000 Ang^3
#
#
#
# Elastic Constant Matrix: (Units=GPa)
#
#
# Indices 1 2 3 4 5 6 
#
# 1 79.4049 16.7675 10.4200 -12.7440 7.6687 -11.0014
# 2 16.7675 100.6000 16.5416 6.1667 2.2595 -5.9930
# 3 10.4200 16.5416 85.2450 2.4468 -0.3927 6.0476
# 4 -12.7440 6.1667 2.4468 34.7598 -4.2878 2.7549
# 5 7.6687 2.2595 -0.3927 -4.2878 29.9672 -4.5657
# 6 -11.0014 -5.9930 6.0476 2.7549 -4.5657 39.0171
#
#
#
# Elastic Compliance Matrix: (Units=1/GPa)
#
#
# Indices 1 2 3 4 5 6 
#
# 1 0.014884 -0.002258 -0.001794 0.005418 -0.002358 0.003469
# 2 -0.002258 0.010892 -0.001864 -0.002801 -0.000444 0.001471
# 3 -0.001794 -0.001864 0.012528 -0.000972 0.000222 -0.002639
# 4 0.005418 -0.002801 -0.000972 0.031772 0.003265 -0.000613
# 5 -0.002358 -0.000444 0.000222 0.003265 0.034948 0.003091
# 6 0.003469 0.001471 -0.002639 -0.000613 0.003091 0.027648
#
#
# Mechanical properties :
#
#
# Convention : Reuss Voigt Hill
#
# Bulk Modulus (GPa) = 37.77409 39.18977 38.48193
# Shear Modulus (GPa) = 32.60993 35.51687 34.06340
#
# Velocity S-wave (km/s) = 3.75894 3.92291 3.84180
# Velocity P-wave (km/s) = 5.93353 6.12369 6.02936
#
# Compressibility (1/GPa) = 0.02647318
#
# Stress axis : x y z
#
# Youngs Moduli (GPa) = 67.18666 91.80640 79.82160
#
# Poissons Ratio (x) = 0.20733 0.14317
# Poissons Ratio (y) = 0.15173 0.14876
# Poissons Ratio (z) = 0.12051 0.17109
#
# Static dielectric constant tensor:
#      x y z
#    x 1.877050 -0.004000 0.030530 
#    y -0.004000 1.934850 0.038460 
#    z 0.030530 0.038460 1.922960 
# 
# From -- ./inp_files/597417.got.cif
#   From: 2010.05.17/outbox.cif.g08.bks.cpg/sg2_299_cif.got.tgz:597417.got - 2010.06.03 11:33:40.
