data_PCOD9097876
_publ_section_title
;
Structure prediction by ZEFSAII (Michael W. Deem and Ramdas Pophale) SiO2 
 PCOD9097876
Probable space group: P -1
;
_chemical_formula_sum "Si O2"
_cell_formula_units_Z 16
_cell_length_a 9.574054
_cell_length_b 10.401941
_cell_length_c 23.789815
_cell_angle_alpha 24.551948
_cell_angle_beta 123.158614
_cell_angle_gamma 123.299954
_cell_volume 815.049163
_symmetry_space_group_name_H-M "P -1"
_symmetry_group_IT_number 2
_symmetry_cell_setting 'triclinic'
loop_
_space_group_symop_operation_xyz
x,y,z
-x,-y,-z
loop_
_atom_site_type_symbol
_atom_site_label
_atom_site_fract_x
_atom_site_fract_y
_atom_site_fract_z
Si Si1 0.261265 0.249307 0.591609
Si Si2 0.409359 0.779545 0.615361
Si Si3 0.661951 0.198401 0.124962
Si Si4 0.446323 0.931778 0.353232
Si Si5 0.294795 0.120446 0.134739
Si Si6 0.507858 0.106555 0.895123
Si Si7 0.130980 0.760828 0.141199
Si Si8 0.946422 0.980801 0.560557
O O1 0.349846 0.598398 0.484476
O O2 0.389202 0.120743 0.626159
O O3 0.247537 0.057250 0.722732
O O4 0.083209 0.193269 0.544137
O O5 0.431409 0.427701 0.746237
O O6 0.500000 0.000000 0.500000
O O7 0.492888 0.859264 0.663189
O O8 0.224161 0.870648 0.536594
O O9 0.481565 0.161647 0.132022
O O10 0.608102 0.137623 0.073187
O O11 0.761980 0.542482 0.019329
O O12 0.321935 0.055434 0.231716
O O13 0.185143 0.853758 0.180562
O O14 0.698812 0.160046 0.890711
O O15 0.500000 0.000000 0.000000
O O16 0.071864 0.384729 0.277445
O O17 0.000000 0.000000 0.000000
O O18 0.000000 0.000000 0.500000
#
# Coordination Sequence:
#
# PCOD9097876 Si02
#       8
#     2   2   2   2   2   2   2   2
#     4  10  20  36  63  91 121 158 216 269 307 361
#     4  12  24  42  64  93 137 173 206 258 327 392
#     4   9  18  35  59  87 117 158 209 256 306 370
#     4  10  20  36  62  91 122 164 210 260 315 374
#     4   9  18  34  60  88 117 155 210 262 305 361
#     4  11  24  42  65  93 129 175 213 251 324 398
#     4  11  24  41  66  95 128 164 215 274 316 368
#     4  12  24  40  66 100 129 165 218 269 316 372
#
# _framework density 19.630717000000001
#
# number of rings (size 3 to 8) (size 9 to 14) (size 15 to 20)
#    0.000    1.500    2.500    3.000    5.250    2.000 
#    0.000    2.500    0.000    2.250    0.000    0.000 
#    0.000    0.000    0.000    0.000    0.000    0.000 
#
# Total GULP energy -89279.071738 kJ/mol
# GULP energy per Si atom -5579.941984 kJ/mol
# Density = 1.958604 g / cm^3
# Si number density = 19.630717 Si / 1000 Ang^3
#
#
#
# Elastic Constant Matrix: (Units=GPa)
#
#
# Indices 1 2 3 4 5 6 
#
# 1 80.1190 14.4180 29.0543 8.0732 13.7260 5.1049
# 2 14.4180 74.1040 -4.1753 11.8660 5.5971 0.8363
# 3 29.0543 -4.1753 81.0320 12.6617 12.8283 -6.1759
# 4 8.0732 11.8660 12.6617 39.3236 -4.6947 0.8644
# 5 13.7260 5.5971 12.8283 -4.6947 26.0506 7.1464
# 6 5.1049 0.8363 -6.1759 0.8644 7.1464 19.0654
#
#
#
# Elastic Compliance Matrix: (Units=1/GPa)
#
#
# Indices 1 2 3 4 5 6 
#
# 1 0.016064 -0.002888 -0.005400 -0.001095 -0.004202 -0.004299
# 2 -0.002888 0.015708 0.004094 -0.006280 -0.006092 0.003979
# 3 -0.005400 0.004094 0.018494 -0.007761 -0.011846 0.012049
# 4 -0.001095 -0.006280 -0.007761 0.031891 0.013850 -0.008583
# 5 -0.004202 -0.006092 -0.011846 0.013850 0.056937 -0.024415
# 6 -0.004299 0.003979 0.012049 -0.008583 -0.024415 0.066871
#
#
# Mechanical properties :
#
#
# Convention : Reuss Voigt Hill
#
# Bulk Modulus (GPa) = 23.87914 34.87211 29.37563
# Shear Modulus (GPa) = 21.89986 29.95180 25.92583
#
# Velocity S-wave (km/s) = 3.34367 3.91034 3.63805
# Velocity P-wave (km/s) = 5.20552 6.17983 5.71348
#
# Compressibility (1/GPa) = 0.04187755
#
# Stress axis : x y z
#
# Youngs Moduli (GPa) = 62.25281 63.66160 54.07111
#
# Poissons Ratio (x) = 0.18388 0.29197
# Poissons Ratio (y) = 0.17981 -0.22137
# Poissons Ratio (z) = 0.33615 -0.26063
#
# Static dielectric constant tensor:
#      x y z
#    x 1.659450 -0.023290 0.005490 
#    y -0.023290 1.692410 -0.007290 
#    z 0.005490 -0.007290 1.702700 
# 
# From -- ./inp_files/333632.got.cif
#   From: 2010.05.17/outbox.cif.g08.bks.cpg/sg2_167_cif.got.tgz:333632.got - 2010.06.03 11:33:40.
