data_PCOD9097589
_publ_section_title
;
Structure prediction by ZEFSAII (Michael W. Deem and Ramdas Pophale) SiO2 
 PCOD9097589
Probable space group: P -1
;
_chemical_formula_sum "Si O2"
_cell_formula_units_Z 16
_cell_length_a 9.253655
_cell_length_b 16.022646
_cell_length_c 21.479372
_cell_angle_alpha 19.718467
_cell_angle_beta 48.811002
_cell_angle_gamma 46.864582
_cell_volume 782.676848
_symmetry_space_group_name_H-M "P -1"
_symmetry_group_IT_number 2
_symmetry_cell_setting 'triclinic'
loop_
_space_group_symop_operation_xyz
x,y,z
-x,-y,-z
loop_
_atom_site_type_symbol
_atom_site_label
_atom_site_fract_x
_atom_site_fract_y
_atom_site_fract_z
Si Si1 0.405362 0.656134 0.607948
Si Si2 0.943470 0.395773 0.346261
Si Si3 0.086187 0.951157 0.284125
Si Si4 0.821247 0.370629 0.125875
Si Si5 0.813261 0.378055 0.635877
Si Si6 0.828324 0.966913 0.027411
Si Si7 0.670636 0.975303 0.521920
Si Si8 0.571330 0.765787 0.992734
O O1 0.206742 0.680370 0.606977
O O2 0.598518 0.577456 0.564024
O O3 0.411241 0.431333 0.815439
O O4 0.409851 0.905507 0.472656
O O5 0.934357 0.249544 0.516311
O O6 0.172758 0.299106 0.327104
O O7 0.872431 0.695069 0.171661
O O8 0.150145 0.794263 0.314415
O O9 0.887601 0.188847 0.174842
O O10 0.260789 0.082907 0.158141
O O11 0.619211 0.590501 0.039857
O O12 0.804662 0.163729 0.328313
O O13 0.000000 0.500000 0.000000
O O14 0.000000 0.500000 0.500000
O O15 0.811559 0.185177 0.827911
O O16 0.634128 0.030626 0.081030
O O17 0.000000 0.000000 0.000000
O O18 0.500000 0.000000 0.500000
#
# Coordination Sequence:
#
# PCOD9097589 Si02
#       8
#     2   2   2   2   2   2   2   2
#     4  10  22  40  63  91 120 162 211 254 304 371
#     4  11  23  38  63  94 125 158 207 257 307 369
#     4  10  20  36  61  89 119 159 200 245 305 367
#     4   8  17  34  59  88 112 155 201 242 293 369
#     4  11  24  39  60  86 125 167 205 251 307 367
#     4  11  24  38  59  88 125 160 208 258 305 358
#     4  10  22  37  67  91 122 161 208 260 313 368
#     4   9  19  38  62  85 116 160 205 243 303 364
#
# _framework density 20.442665999999999
#
# number of rings (size 3 to 8) (size 9 to 14) (size 15 to 20)
#    0.000    2.000    0.000    2.625    8.750    5.000 
#    0.000    1.250    0.000    1.500    0.000    0.000 
#    0.000    0.000    0.000    0.000    0.000    0.000 
#
# Total GULP energy -89154.124904 kJ/mol
# GULP energy per Si atom -5572.132807 kJ/mol
# Density = 2.039614 g / cm^3
# Si number density = 20.442666 Si / 1000 Ang^3
#
#
#
# Elastic Constant Matrix: (Units=GPa)
#
#
# Indices 1 2 3 4 5 6 
#
# 1 88.4659 50.8606 -3.9306 -23.0526 0.5486 -2.0069
# 2 50.8606 170.1487 18.5805 -41.5819 -0.2815 -5.9149
# 3 -3.9306 18.5805 48.6371 -4.7532 -8.5758 -16.1996
# 4 -23.0526 -41.5819 -4.7532 33.5499 -2.8169 6.5943
# 5 0.5486 -0.2815 -8.5758 -2.8169 13.5810 0.8685
# 6 -2.0069 -5.9149 -16.1996 6.5943 0.8685 24.2655
#
#
#
# Elastic Compliance Matrix: (Units=1/GPa)
#
#
# Indices 1 2 3 4 5 6 
#
# 1 0.015186 -0.003212 0.004126 0.007084 0.003319 0.001184
# 2 -0.003212 0.009529 -0.004047 0.009672 -0.000013 -0.003273
# 3 0.004126 -0.004047 0.032604 0.000020 0.019035 0.020435
# 4 0.007084 0.009672 0.000020 0.049736 0.010943 -0.010951
# 5 0.003319 -0.000013 0.019035 0.010943 0.087347 0.006879
# 6 0.001184 -0.003273 0.020435 -0.010951 0.006879 0.056883
#
#
# Mechanical properties :
#
#
# Convention : Reuss Voigt Hill
#
# Bulk Modulus (GPa) = 19.58718 48.69696 34.14207
# Shear Modulus (GPa) = 18.21031 30.39538 24.30284
#
# Velocity S-wave (km/s) = 2.98786 3.86017 3.45168
# Velocity P-wave (km/s) = 4.63739 6.61368 5.71166
#
# Compressibility (1/GPa) = 0.05105381
#
# Stress axis : x y z
#
# Youngs Moduli (GPa) = 65.84997 104.93927 30.67067
#
# Poissons Ratio (x) = 0.33707 -0.12655
# Poissons Ratio (y) = 0.21152 0.12413
# Poissons Ratio (z) = -0.27171 0.42469
#
# Static dielectric constant tensor:
#      x y z
#    x 1.703930 -0.024030 0.001500 
#    y -0.024030 1.835470 -0.033980 
#    z 0.001500 -0.033980 1.701500 
# 
# From -- ./inp_files/176646.got.cif
#   From: 2010.05.17/outbox.cif.g08.bks.cpg/sg2_89_cif.got.tgz:176646.got - 2010.06.03 11:33:40.
