data_PCOD9097947
_publ_section_title
;
Structure prediction by ZEFSAII (Michael W. Deem and Ramdas Pophale) SiO2 
 PCOD9097947
Probable space group: P -1
;
_chemical_formula_sum "Si O2"
_cell_formula_units_Z 16
_cell_length_a 9.258525
_cell_length_b 10.481803
_cell_length_c 10.924623
_cell_angle_alpha 42.006464
_cell_angle_beta 69.293476
_cell_angle_gamma 61.019039
_cell_volume 620.615219
_symmetry_space_group_name_H-M "P -1"
_symmetry_group_IT_number 2
_symmetry_cell_setting 'triclinic'
loop_
_space_group_symop_operation_xyz
x,y,z
-x,-y,-z
loop_
_atom_site_type_symbol
_atom_site_label
_atom_site_fract_x
_atom_site_fract_y
_atom_site_fract_z
Si Si1 0.013597 0.309847 0.959782
Si Si2 0.386168 0.295975 0.592558
Si Si3 0.729484 0.161716 0.459753
Si Si4 0.118496 0.685331 0.275396
Si Si5 0.605802 0.759235 0.106977
Si Si6 0.317205 0.600334 0.932453
Si Si7 0.678957 0.108027 0.067707
Si Si8 0.011252 0.088825 0.615043
O O1 0.836845 0.473912 0.942912
O O2 0.975413 0.323133 0.815680
O O3 0.016880 0.113063 0.179634
O O4 0.198686 0.305912 0.923854
O O5 0.560757 0.175556 0.562851
O O6 0.414913 0.355560 0.681252
O O7 0.267946 0.480674 0.415409
O O8 0.307638 0.121611 0.758025
O O9 0.684245 0.342611 0.247612
O O10 0.855243 0.186011 0.504187
O O11 0.831197 0.969199 0.480910
O O12 0.004889 0.761235 0.373854
O O13 0.202524 0.853082 0.098450
O O14 0.505134 0.755270 0.017798
O O15 0.500000 0.000000 0.000000
O O16 0.273216 0.806931 0.883082
O O17 0.500000 0.500000 0.000000
#
# Coordination Sequence:
#
# PCOD9097947 Si02
#       8
#     2   2   2   2   2   2   2   2
#     4  10  21  41  66  93 131 172 220 276 330 387
#     4  11  23  40  65  98 133 169 218 274 329 395
#     4  10  21  37  59  93 134 173 216 266 330 397
#     4  11  23  41  71  99 127 171 226 276 327 389
#     4  10  21  39  64  94 131 169 215 275 330 383
#     4  10  22  42  68  95 132 179 224 270 327 399
#     4  10  22  42  68  96 130 173 220 274 334 384
#     4  10  20  36  62  94 129 173 219 268 327 393
#
# _framework density 25.78087
#
# number of rings (size 3 to 8) (size 9 to 14) (size 15 to 20)
#    0.000    1.750    0.000    5.625    0.000    8.000 
#    0.000    1.875    0.000    1.500    0.000    7.875 
#    0.000    0.000    0.000    0.000    0.000    0.000 
#
# Total GULP energy -89427.662704 kJ/mol
# GULP energy per Si atom -5589.228919 kJ/mol
# Density = 2.572219 g / cm^3
# Si number density = 25.780870 Si / 1000 Ang^3
#
#
#
# Elastic Constant Matrix: (Units=GPa)
#
#
# Indices 1 2 3 4 5 6 
#
# 1 144.0145 35.6138 69.8755 14.2883 28.1157 -49.8953
# 2 35.6138 93.6884 46.8607 7.9305 -7.3561 -39.1272
# 3 69.8755 46.8607 148.6603 11.2056 22.1732 -19.0800
# 4 14.2883 7.9305 11.2056 44.9581 -6.3190 -3.2500
# 5 28.1157 -7.3561 22.1732 -6.3190 55.4222 4.3418
# 6 -49.8953 -39.1272 -19.0800 -3.2500 4.3418 54.8660
#
#
#
# Elastic Compliance Matrix: (Units=1/GPa)
#
#
# Indices 1 2 3 4 5 6 
#
# 1 0.015508 0.002285 -0.004768 -0.004122 -0.007255 0.014404
# 2 0.002285 0.018179 -0.005380 -0.001343 0.002241 0.012914
# 3 -0.004768 -0.005380 0.010493 -0.000783 -0.002238 -0.004393
# 4 -0.004122 -0.001343 -0.000783 0.024447 0.005323 -0.003952
# 5 -0.007255 0.002241 -0.002238 0.005323 0.024101 -0.007369
# 6 0.014404 0.012914 -0.004393 -0.003952 -0.007369 0.039356
#
#
# Mechanical properties :
#
#
# Convention : Reuss Voigt Hill
#
# Bulk Modulus (GPa) = 35.14522 76.78481 55.96502
# Shear Modulus (GPa) = 31.78738 46.65013 39.21876
#
# Velocity S-wave (km/s) = 3.51520 4.25842 3.90453
# Velocity P-wave (km/s) = 5.48975 7.35032 6.48708
#
# Compressibility (1/GPa) = 0.02845337
#
# Stress axis : x y z
#
# Youngs Moduli (GPa) = 64.48364 55.00809 95.30384
#
# Poissons Ratio (x) = -0.12567 0.45440
# Poissons Ratio (y) = -0.14732 0.51272
# Poissons Ratio (z) = 0.30745 0.29594
#
# Static dielectric constant tensor:
#      x y z
#    x 2.065620 0.032740 -0.015730 
#    y 0.032740 2.192150 0.002820 
#    z -0.015730 0.002820 2.001790 
# 
# From -- ./inp_files/395427.got.cif
#   From: 2010.05.17/outbox.cif.g08.bks.cpg/sg2_198_cif.got.tgz:395427.got - 2010.06.03 11:33:40.
