data_PCOD9097985
_publ_section_title
;
Structure prediction by ZEFSAII (Michael W. Deem and Ramdas Pophale) SiO2 
 PCOD9097985
Probable space group: P -1
;
_chemical_formula_sum "Si O2"
_cell_formula_units_Z 16
_cell_length_a 30.424803
_cell_length_b 14.993634
_cell_length_c 9.160669
_cell_angle_alpha 139.208555
_cell_angle_beta 145.419326
_cell_angle_gamma 18.469181
_cell_volume 744.745784
_symmetry_space_group_name_H-M "P -1"
_symmetry_group_IT_number 2
_symmetry_cell_setting 'triclinic'
loop_
_space_group_symop_operation_xyz
x,y,z
-x,-y,-z
loop_
_atom_site_type_symbol
_atom_site_label
_atom_site_fract_x
_atom_site_fract_y
_atom_site_fract_z
Si Si1 0.133585 0.496875 0.782596
Si Si2 0.919823 0.408521 0.895565
Si Si3 0.588352 0.748366 0.834523
Si Si4 0.856101 0.813586 0.216129
Si Si5 0.413218 0.150628 0.600936
Si Si6 0.380611 0.873635 0.578671
Si Si7 0.773701 0.085318 0.027161
Si Si8 0.524418 0.280934 0.055311
O O1 0.966893 0.721830 0.523198
O O2 0.253828 0.186632 0.678527
O O3 0.111768 0.541966 0.954397
O O4 0.229043 0.485483 0.978639
O O5 0.772888 0.580219 0.609538
O O6 0.937507 0.541583 0.070174
O O7 0.078429 0.085710 0.875784
O O8 0.542917 0.682226 0.711448
O O9 0.489093 0.918277 0.623898
O O10 0.500000 0.000000 0.000000
O O11 0.680795 0.044570 0.088001
O O12 0.834354 0.933363 0.158366
O O13 0.500000 0.000000 0.500000
O O14 0.467066 0.219680 0.876673
O O15 0.296632 0.922405 0.280333
O O16 0.423479 0.727427 0.662127
O O17 0.628269 0.414936 0.060734
#
# Coordination Sequence:
#
# PCOD9097985 Si02
#       8
#     2   2   2   2   2   2   2   2
#     4  11  21  39  67  99 122 160 211 270 309 360
#     4  12  23  40  67  96 122 166 219 258 309 368
#     4  10  20  36  63 103 118 156 212 265 309 355
#     4  12  23  42  66  91 131 163 215 261 308 372
#     4  12  21  40  69  92 125 164 211 260 308 378
#     4  11  21  41  67  93 128 164 212 261 310 379
#     4  12  28  39  63  97 130 167 209 260 317 378
#     4  12  25  45  62  92 132 173 200 257 330 375
#
# _framework density 21.483840000000001
#
# number of rings (size 3 to 8) (size 9 to 14) (size 15 to 20)
#    0.000    0.500    7.500    3.000    3.500    0.500 
#    0.000    0.000    0.000    2.250    0.000    0.000 
#    0.000    0.000    0.000    0.000    0.000    0.000 
#
# Total GULP energy -89322.682694 kJ/mol
# GULP energy per Si atom -5582.667668 kJ/mol
# Density = 2.143494 g / cm^3
# Si number density = 21.483840 Si / 1000 Ang^3
#
#
#
# Elastic Constant Matrix: (Units=GPa)
#
#
# Indices 1 2 3 4 5 6 
#
# 1 82.4613 10.3324 16.4012 -12.6730 -9.0901 -5.4135
# 2 10.3324 57.9569 13.5967 -22.1580 6.1475 -9.0963
# 3 16.4012 13.5967 109.6691 -27.2084 1.7870 -7.9704
# 4 -12.6730 -22.1580 -27.2084 27.6455 -8.8708 3.7272
# 5 -9.0901 6.1475 1.7870 -8.8708 39.3096 -9.7544
# 6 -5.4135 -9.0963 -7.9704 3.7272 -9.7544 16.0807
#
#
#
# Elastic Compliance Matrix: (Units=1/GPa)
#
#
# Indices 1 2 3 4 5 6 
#
# 1 0.014680 0.001467 0.000495 0.009644 0.007366 0.008250
# 2 0.001467 0.028208 0.004016 0.026956 0.005714 0.015659
# 3 0.000495 0.004016 0.013240 0.016905 0.004662 0.007910
# 4 0.009644 0.026956 0.016905 0.082824 0.021003 0.020417
# 5 0.007366 0.005714 0.004662 0.021003 0.037151 0.025691
# 6 0.008250 0.015659 0.007910 0.020417 0.025691 0.088593
#
#
# Mechanical properties :
#
#
# Convention : Reuss Voigt Hill
#
# Bulk Modulus (GPa) = 14.68764 36.74977 25.71871
# Shear Modulus (GPa) = 18.15313 30.59097 24.37205
#
# Velocity S-wave (km/s) = 2.90998 3.77756 3.37179
# Velocity P-wave (km/s) = 4.25936 6.01411 5.21113
#
# Compressibility (1/GPa) = 0.06808445
#
# Stress axis : x y z
#
# Youngs Moduli (GPa) = 68.11787 35.45104 75.53153
#
# Poissons Ratio (x) = -0.05202 -0.03738
# Poissons Ratio (y) = -0.09996 -0.30334
# Poissons Ratio (z) = -0.03371 -0.14237
#
# Static dielectric constant tensor:
#      x y z
#    x 1.843950 0.025570 0.292460 
#    y 0.025570 1.805530 0.082010 
#    z 0.292460 0.082010 2.518120 
# 
# From -- ./inp_files/262383.got.cif
#   From: 2010.05.17/outbox.cif.g08.bks.cpg/sg2_132_cif.got.tgz:262383.got - 2010.06.03 11:33:40.
