data_PCOD9097325
_publ_section_title
;
Structure prediction by ZEFSAII (Michael W. Deem and Ramdas Pophale) SiO2 
 PCOD9097325
Probable space group: P -1
;
_chemical_formula_sum "Si O2"
_cell_formula_units_Z 14
_cell_length_a 8.899949
_cell_length_b 8.860159
_cell_length_c 13.910880
_cell_angle_alpha 47.979685
_cell_angle_beta 57.702393
_cell_angle_gamma 54.713742
_cell_volume 645.190944
_symmetry_space_group_name_H-M "P -1"
_symmetry_group_IT_number 2
_symmetry_cell_setting 'triclinic'
loop_
_space_group_symop_operation_xyz
x,y,z
-x,-y,-z
loop_
_atom_site_type_symbol
_atom_site_label
_atom_site_fract_x
_atom_site_fract_y
_atom_site_fract_z
Si Si1 0.705922 0.817545 0.506394
Si Si2 0.988432 0.014408 0.112412
Si Si3 0.700821 0.484064 0.482679
Si Si4 0.966224 0.023053 0.616695
Si Si5 0.151208 0.266276 0.076129
Si Si6 0.934514 0.466706 0.732383
Si Si7 0.304828 0.545379 0.994757
O O1 0.697955 0.662904 0.486582
O O2 0.784728 0.653210 0.639870
O O3 0.854669 0.944873 0.406071
O O4 0.500000 0.000000 0.500000
O O5 0.147906 0.097877 0.066804
O O6 0.790029 0.211617 0.119710
O O7 0.021975 0.767451 0.233320
O O8 0.000000 0.000000 0.000000
O O9 0.500000 0.500000 0.500000
O O10 0.790989 0.245054 0.597863
O O11 0.863770 0.497885 0.347380
O O12 0.914467 0.833454 0.765481
O O13 0.000000 0.000000 0.500000
O O14 0.327917 0.341400 0.004501
O O15 0.000000 0.500000 0.000000
O O16 0.843995 0.461967 0.868586
O O17 0.500000 0.500000 0.000000
#
# Coordination Sequence:
#
# PCOD9097325 Si02
#       7
#     2   2   2   2   2   2   2
#     4  11  23  38  61  92 123 163 212 264 320 383
#     4   9  19  38  61  84 119 165 206 253 313 373
#     4  11  23  39  61  92 125 165 212 261 319 386
#     4  11  22  40  64  92 127 166 209 263 322 384
#     4  10  20  36  60  87 117 159 203 251 308 369
#     4  10  21  41  61  84 125 165 203 263 320 374
#     4  10  22  38  60  91 121 159 209 257 312 381
#
# _framework density 21.699002
#
# number of rings (size 3 to 8) (size 9 to 14) (size 15 to 20)
#    0.000    1.714    0.000    6.000    0.000    4.571 
#    0.000    5.714    0.000    0.000    0.000    0.000 
#    0.000    0.000    0.000    0.000    0.000    0.000 
#
# Total GULP energy -78078.100019 kJ/mol
# GULP energy per Si atom -5577.007144 kJ/mol
# Density = 2.164961 g / cm^3
# Si number density = 21.699002 Si / 1000 Ang^3
#
#
#
# Elastic Constant Matrix: (Units=GPa)
#
#
# Indices 1 2 3 4 5 6 
#
# 1 178.7617 56.4111 18.9750 -16.2671 -10.1960 2.0037
# 2 56.4111 115.1773 39.3130 -29.4519 -6.0315 6.2150
# 3 18.9750 39.3130 85.2453 -23.4073 6.1061 -6.1690
# 4 -16.2671 -29.4519 -23.4073 45.8144 14.8511 4.6764
# 5 -10.1960 -6.0315 6.1061 14.8511 24.0083 -4.4370
# 6 2.0037 6.2150 -6.1690 4.6764 -4.4370 51.9330
#
#
#
# Elastic Compliance Matrix: (Units=1/GPa)
#
#
# Indices 1 2 3 4 5 6 
#
# 1 0.006739 -0.003256 -0.000392 -0.000824 0.002725 0.000390
# 2 -0.003256 0.013192 -0.003773 0.006098 -0.001355 -0.002566
# 3 -0.000392 -0.003773 0.017119 0.009820 -0.011424 0.000640
# 4 -0.000824 0.006098 0.009820 0.039743 -0.026899 -0.005408
# 5 0.002725 -0.001355 -0.011424 -0.026899 0.063220 0.006523
# 6 0.000390 -0.002566 0.000640 -0.005408 0.006523 0.020668
#
#
# Mechanical properties :
#
#
# Convention : Reuss Voigt Hill
#
# Bulk Modulus (GPa) = 45.02818 67.62029 56.32424
# Shear Modulus (GPa) = 27.33356 41.98349 34.65853
#
# Velocity S-wave (km/s) = 3.55303 4.40342 4.00089
# Velocity P-wave (km/s) = 6.13420 7.55540 6.88158
#
# Compressibility (1/GPa) = 0.02220831
#
# Stress axis : x y z
#
# Youngs Moduli (GPa) = 148.38558 75.80611 58.41420
#
# Poissons Ratio (x) = 0.24682 0.02288
# Poissons Ratio (y) = 0.48314 0.22041
# Poissons Ratio (z) = 0.05811 0.28603
#
# Static dielectric constant tensor:
#      x y z
#    x 1.840740 0.054640 0.006220 
#    y 0.054640 1.823850 0.002850 
#    z 0.006220 0.002850 1.865860 
# 
# From -- ./inp_files/241260.got.cif
#   From: 2010.05.17/outbox.cif.g08.bks.cpg/sg2_121_cif.got.tgz:241260.got - 2010.06.03 11:33:40.
