data_PCOD9097360
_publ_section_title
;
Structure prediction by ZEFSAII (Michael W. Deem and Ramdas Pophale) SiO2 
 PCOD9097360
Probable space group: P -1
;
_chemical_formula_sum "Si O2"
_cell_formula_units_Z 14
_cell_length_a 12.381885
_cell_length_b 9.971533
_cell_length_c 9.823105
_cell_angle_alpha 135.211479
_cell_angle_beta 118.436803
_cell_angle_gamma 60.014767
_cell_volume 725.246268
_symmetry_space_group_name_H-M "P -1"
_symmetry_group_IT_number 2
_symmetry_cell_setting 'triclinic'
loop_
_space_group_symop_operation_xyz
x,y,z
-x,-y,-z
loop_
_atom_site_type_symbol
_atom_site_label
_atom_site_fract_x
_atom_site_fract_y
_atom_site_fract_z
Si Si1 0.350709 0.465776 0.078649
Si Si2 0.144610 0.764689 0.994369
Si Si3 0.504836 0.238804 0.516450
Si Si4 0.851084 0.554900 0.436275
Si Si5 0.382569 0.164754 0.113535
Si Si6 0.652875 0.824015 0.361868
Si Si7 0.842800 0.849956 0.861236
O O1 0.453847 0.571825 0.272435
O O2 0.323601 0.332754 0.089321
O O3 0.232771 0.634716 0.068787
O O4 0.398217 0.310890 0.872977
O O5 0.180508 0.638870 0.783776
O O6 0.992776 0.798249 0.954479
O O7 0.171008 0.974910 0.131496
O O8 0.443733 0.250636 0.340402
O O9 0.414028 0.189545 0.543722
O O10 0.623559 0.044594 0.450723
O O11 0.798537 0.715530 0.402518
O O12 0.813380 0.659597 0.633580
O O13 0.000000 0.500000 0.500000
O O14 0.265853 0.085372 0.043935
O O15 0.500000 0.000000 0.000000
#
# Coordination Sequence:
#
# PCOD9097360 Si02
#       7
#     2   2   2   2   2   2   2
#     4  11  23  38  59  91 121 153 204 245 304 364
#     4   9  21  38  67  91 109 158 207 256 290 350
#     4  11  22  38  60  83 120 166 200 244 295 352
#     4   9  17  33  58  88 114 144 196 249 294 340
#     4  12  25  41  58  89 132 166 189 246 311 363
#     4  10  20  36  60  89 112 156 207 252 285 344
#     4  10  20  41  62  87 124 153 203 251 299 349
#
# _framework density 19.303788000000001
#
# number of rings (size 3 to 8) (size 9 to 14) (size 15 to 20)
#    0.000    1.714    2.857    1.714    2.000    2.857 
#    2.571    0.000    0.000    0.857    0.000    0.000 
#    0.000    0.000    0.000    0.000    0.000    0.000 
#
# Total GULP energy -77962.109540 kJ/mol
# GULP energy per Si atom -5568.722110 kJ/mol
# Density = 1.925985 g / cm^3
# Si number density = 19.303788 Si / 1000 Ang^3
#
#
#
# Elastic Constant Matrix: (Units=GPa)
#
#
# Indices 1 2 3 4 5 6 
#
# 1 76.3839 24.7199 11.2351 -4.1803 -9.1147 -3.4006
# 2 24.7199 88.9623 6.4780 -13.9321 -3.6029 -9.2205
# 3 11.2351 6.4780 95.2504 -5.8195 -8.3560 -1.9332
# 4 -4.1803 -13.9321 -5.8195 29.3336 -0.4455 -0.7964
# 5 -9.1147 -3.6029 -8.3560 -0.4455 20.2929 1.4720
# 6 -3.4006 -9.2205 -1.9332 -0.7964 1.4720 17.9911
#
#
#
# Elastic Compliance Matrix: (Units=1/GPa)
#
#
# Indices 1 2 3 4 5 6 
#
# 1 0.015193 -0.003846 -0.001009 0.000234 0.005707 0.000336
# 2 -0.003846 0.014004 0.000061 0.006304 0.000436 0.006700
# 3 -0.001009 0.000061 0.011125 0.002176 0.004129 0.000794
# 4 0.000234 0.006304 0.002176 0.037724 0.002589 0.004967
# 5 0.005707 0.000436 0.004129 0.002589 0.053861 -0.002546
# 6 0.000336 0.006700 0.000794 0.004967 -0.002546 0.059594
#
#
# Mechanical properties :
#
#
# Convention : Reuss Voigt Hill
#
# Bulk Modulus (GPa) = 32.53648 38.38471 35.46060
# Shear Modulus (GPa) = 23.65925 28.06776 25.86351
#
# Velocity S-wave (km/s) = 3.50469 3.81728 3.66432
# Velocity P-wave (km/s) = 5.76791 6.27348 6.02600
#
# Compressibility (1/GPa) = 0.03073473
#
# Stress axis : x y z
#
# Youngs Moduli (GPa) = 65.81769 71.40687 89.88927
#
# Poissons Ratio (x) = 0.27461 0.09068
# Poissons Ratio (y) = 0.25312 -0.00545
# Poissons Ratio (z) = 0.06640 -0.00433
#
# Static dielectric constant tensor:
#      x y z
#    x 1.707350 -0.070070 -0.041190 
#    y -0.070070 1.696210 0.034040 
#    z -0.041190 0.034040 1.748070 
# 
# From -- ./inp_files/176993.got.cif
#   From: 2010.05.17/outbox.cif.g08.bks.cpg/sg2_89_cif.got.tgz:176993.got - 2010.06.03 11:33:40.
