data_PCOD9097659
_publ_section_title
;
Structure prediction by ZEFSAII (Michael W. Deem and Ramdas Pophale) SiO2 
 PCOD9097659
Probable space group: P -1
;
_chemical_formula_sum "Si O2"
_cell_formula_units_Z 14
_cell_length_a 13.168870
_cell_length_b 5.446781
_cell_length_c 12.046819
_cell_angle_alpha 95.797115
_cell_angle_beta 40.457094
_cell_angle_gamma 86.981680
_cell_volume 546.483571
_symmetry_space_group_name_H-M "P -1"
_symmetry_group_IT_number 2
_symmetry_cell_setting 'triclinic'
loop_
_space_group_symop_operation_xyz
x,y,z
-x,-y,-z
loop_
_atom_site_type_symbol
_atom_site_label
_atom_site_fract_x
_atom_site_fract_y
_atom_site_fract_z
Si Si1 0.539461 0.721610 0.899676
Si Si2 0.860911 0.671592 0.719197
Si Si3 0.730282 0.049808 0.022435
Si Si4 0.611806 0.658275 0.345184
Si Si5 0.684571 0.061988 0.480813
Si Si6 0.013161 0.129644 0.648996
Si Si7 0.833017 0.187616 0.155894
O O1 0.730214 0.656709 0.733415
O O2 0.500000 0.500000 0.000000
O O3 0.425931 0.768625 0.889239
O O4 0.500000 0.000000 0.000000
O O5 0.957448 0.891938 0.626894
O O6 0.964564 0.401130 0.646285
O O7 0.762275 0.783977 0.918350
O O8 0.891336 0.150895 0.858023
O O9 0.725845 0.048756 0.157932
O O10 0.500000 0.500000 0.500000
O O11 0.651031 0.849935 0.413975
O O12 0.778705 0.472063 0.169728
O O13 0.489973 0.766068 0.351097
O O14 0.801300 0.949720 0.476710
O O15 0.790596 0.208985 0.322070
O O16 0.000000 0.000000 0.000000
#
# Coordination Sequence:
#
# PCOD9097659 Si02
#       7
#     2   2   2   2   2   2   2
#     4  10  16  31  48  69 113 147 174 220 271 334
#     4   9  18  31  47  78 107 138 182 223 273 320
#     4   9  20  29  48  81 110 144 178 215 285 324
#     4   9  22  38  54  70 108 148 195 222 272 326
#     4  10  21  37  54  76 107 153 186 228 266 334
#     4  10  19  30  54  78 104 139 182 225 269 317
#     4  11  20  35  51  84 113 143 177 232 278 328
#
# _framework density 25.618335999999999
#
# number of rings (size 3 to 8) (size 9 to 14) (size 15 to 20)
#    0.857    1.429    2.857    0.000    6.000    1.714 
#    0.000    0.000    0.000    0.000    0.000    2.000 
#    0.000    0.000    0.000    0.000    0.000    0.000 
#
# Total GULP energy -78086.915878 kJ/mol
# GULP energy per Si atom -5577.636848 kJ/mol
# Density = 2.556003 g / cm^3
# Si number density = 25.618336 Si / 1000 Ang^3
#
#
#
# Elastic Constant Matrix: (Units=GPa)
#
#
# Indices 1 2 3 4 5 6 
#
# 1 148.3420 79.5495 27.3645 6.0526 -39.7181 -47.6900
# 2 79.5495 182.0293 44.7310 27.1856 -30.1433 -37.2735
# 3 27.3645 44.7310 64.5510 15.2483 -6.7079 -13.3790
# 4 6.0526 27.1856 15.2483 49.9358 -10.1825 -11.1926
# 5 -39.7181 -30.1433 -6.7079 -10.1825 42.2161 19.7041
# 6 -47.6900 -37.2735 -13.3790 -11.1926 19.7041 53.6454
#
#
#
# Elastic Compliance Matrix: (Units=1/GPa)
#
#
# Indices 1 2 3 4 5 6 
#
# 1 0.012697 -0.003025 -0.002003 0.003713 0.007178 0.006824
# 2 -0.003025 0.008614 -0.003646 -0.002616 0.001491 0.001293
# 3 -0.002003 -0.003646 0.019725 -0.004184 -0.002701 0.000725
# 4 0.003713 -0.002616 -0.004184 0.024124 0.005099 0.003600
# 5 0.007178 0.001491 -0.002701 0.005099 0.034592 -0.004899
# 6 0.006824 0.001293 0.000725 0.003600 -0.004899 0.028338
#
#
# Mechanical properties :
#
#
# Convention : Reuss Voigt Hill
#
# Bulk Modulus (GPa) = 42.21514 77.57912 59.89713
# Shear Modulus (GPa) = 32.60856 45.37796 38.99326
#
# Velocity S-wave (km/s) = 3.57159 4.21326 3.90562
# Velocity P-wave (km/s) = 5.78987 7.34963 6.61588
#
# Compressibility (1/GPa) = 0.02368818
#
# Stress axis : x y z
#
# Youngs Moduli (GPa) = 78.75710 116.09240 50.69712
#
# Poissons Ratio (x) = 0.35119 0.10155
# Poissons Ratio (y) = 0.23825 0.18483
# Poissons Ratio (z) = 0.15775 0.42325
#
# Static dielectric constant tensor:
#      x y z
#    x 2.002470 0.004440 -0.005130 
#    y 0.004440 2.113990 -0.053590 
#    z -0.005130 -0.053590 2.153680 
# 
# From -- ./inp_files/134489.got.cif
#   From: 2010.05.17/outbox.cif.g08.bks.cpg/sg2_68_cif.got.tgz:134489.got - 2010.06.03 11:33:40.
