data_PCOD9097341
_publ_section_title
;
Structure prediction by ZEFSAII (Michael W. Deem and Ramdas Pophale) SiO2 
 PCOD9097341
Probable space group: P -1
;
_chemical_formula_sum "Si O2"
_cell_formula_units_Z 14
_cell_length_a 8.812843
_cell_length_b 9.005905
_cell_length_c 11.122101
_cell_angle_alpha 132.165549
_cell_angle_beta 95.031766
_cell_angle_gamma 80.433195
_cell_volume 644.847070
_symmetry_space_group_name_H-M "P -1"
_symmetry_group_IT_number 2
_symmetry_cell_setting 'triclinic'
loop_
_space_group_symop_operation_xyz
x,y,z
-x,-y,-z
loop_
_atom_site_type_symbol
_atom_site_label
_atom_site_fract_x
_atom_site_fract_y
_atom_site_fract_z
Si Si1 0.860002 0.182378 0.010385
Si Si2 0.937432 0.735547 0.144766
Si Si3 0.324204 0.394771 0.807703
Si Si4 0.382419 0.860846 0.364770
Si Si5 0.868826 0.733199 0.782171
Si Si6 0.124216 0.696522 0.373705
Si Si7 0.175047 0.231726 0.468153
O O1 0.735092 0.366416 0.057420
O O2 0.950810 0.258656 0.172552
O O3 0.996953 0.152642 0.902022
O O4 0.802362 0.970783 0.921152
O O5 0.760396 0.730930 0.167436
O O6 0.023325 0.780074 0.296982
O O7 0.000000 0.500000 0.000000
O O8 0.506672 0.328246 0.785658
O O9 0.255571 0.334368 0.639928
O O10 0.278396 0.792778 0.427272
O O11 0.500000 0.000000 0.500000
O O12 0.267596 0.003845 0.347980
O O13 0.833462 0.547693 0.761007
O O14 0.822933 0.677676 0.614688
O O15 0.005162 0.752573 0.503167
#
# Coordination Sequence:
#
# PCOD9097341 Si02
#       7
#     2   2   2   2   2   2   2
#     4  10  20  36  60  88 116 148 191 236 282 343
#     4   9  16  35  60  85 108 145 197 234 271 333
#     4   9  19  38  62  83 116 148 193 239 288 328
#     4  10  22  38  58  84 117 150 193 241 286 335
#     4  11  21  34  60  89 116 147 191 236 286 341
#     4  11  20  36  62  88 114 149 196 238 283 338
#     4  10  20  38  61  88 111 148 195 239 287 337
#
# _framework density 21.710577000000001
#
# number of rings (size 3 to 8) (size 9 to 14) (size 15 to 20)
#    0.000    2.000    4.286    1.714    0.000    2.286 
#    0.000   10.000    6.286    0.000    0.000    0.000 
#    0.000    0.000    0.000    0.000    0.000    0.000 
#
# Total GULP energy -78016.201229 kJ/mol
# GULP energy per Si atom -5572.585802 kJ/mol
# Density = 2.166116 g / cm^3
# Si number density = 21.710577 Si / 1000 Ang^3
#
#
#
# Elastic Constant Matrix: (Units=GPa)
#
#
# Indices 1 2 3 4 5 6 
#
# 1 94.1487 29.4433 7.4790 17.5570 -10.3621 -4.4277
# 2 29.4433 108.5234 12.0328 18.3077 -1.4551 -12.1120
# 3 7.4790 12.0328 43.1877 6.4404 -1.3356 -8.8798
# 4 17.5570 18.3077 6.4404 43.3950 -4.0392 0.3027
# 5 -10.3621 -1.4551 -1.3356 -4.0392 27.7827 13.1664
# 6 -4.4277 -12.1120 -8.8798 0.3027 13.1664 22.0936
#
#
#
# Elastic Compliance Matrix: (Units=1/GPa)
#
#
# Indices 1 2 3 4 5 6 
#
# 1 0.012718 -0.003013 -0.001299 -0.003161 0.005387 -0.002792
# 2 -0.003013 0.011713 -0.000452 -0.004216 -0.005356 0.008885
# 3 -0.001299 -0.000452 0.026820 -0.003972 -0.006535 0.014220
# 4 -0.003161 -0.004216 -0.003972 0.027365 0.006574 -0.008834
# 5 0.005387 -0.005356 -0.006535 0.006574 0.056483 -0.038233
# 6 -0.002792 0.008885 0.014220 -0.008834 -0.038233 0.078195
#
#
# Mechanical properties :
#
#
# Convention : Reuss Voigt Hill
#
# Bulk Modulus (GPa) = 23.96711 38.19667 31.08189
# Shear Modulus (GPa) = 21.12137 31.78125 26.45131
#
# Velocity S-wave (km/s) = 3.12246 3.83019 3.49429
# Velocity P-wave (km/s) = 4.90540 6.09855 5.53422
#
# Compressibility (1/GPa) = 0.04172384
#
# Stress axis : x y z
#
# Youngs Moduli (GPa) = 78.62997 85.37424 37.28618
#
# Poissons Ratio (x) = 0.25719 0.04844
# Poissons Ratio (y) = 0.23687 0.01684
# Poissons Ratio (z) = 0.10215 0.03857
#
# Static dielectric constant tensor:
#      x y z
#    x 1.796740 -0.001720 -0.019330 
#    y -0.001720 1.816690 0.025600 
#    z -0.019330 0.025600 1.947510 
# 
# From -- ./inp_files/199521.got.cif
#   From: 2010.05.17/outbox.cif.g08.bks.cpg/sg2_100_cif.got.tgz:199521.got - 2010.06.03 11:33:40.
