data_PCOD9097326
_publ_section_title
;
Structure prediction by ZEFSAII (Michael W. Deem and Ramdas Pophale) SiO2 
 PCOD9097326
Probable space group: P -1
;
_chemical_formula_sum "Si O2"
_cell_formula_units_Z 16
_cell_length_a 24.351845
_cell_length_b 5.853198
_cell_length_c 8.796159
_cell_angle_alpha 105.560144
_cell_angle_beta 38.195139
_cell_angle_gamma 111.294021
_cell_volume 722.010867
_symmetry_space_group_name_H-M "P -1"
_symmetry_group_IT_number 2
_symmetry_cell_setting 'triclinic'
loop_
_space_group_symop_operation_xyz
x,y,z
-x,-y,-z
loop_
_atom_site_type_symbol
_atom_site_label
_atom_site_fract_x
_atom_site_fract_y
_atom_site_fract_z
Si Si1 0.872984 0.069622 0.268804
Si Si2 0.771895 0.580082 0.210765
Si Si3 0.548884 0.779103 0.373394
Si Si4 0.275843 0.724010 0.461063
Si Si5 0.386967 0.193689 0.458182
Si Si6 0.563010 0.492551 0.008617
Si Si7 0.925525 0.652572 0.656730
Si Si8 0.027339 0.122544 0.714718
O O1 0.801795 0.233658 0.472925
O O2 0.821521 0.829668 0.239040
O O3 0.906776 0.984263 0.338202
O O4 0.959456 0.200716 0.997935
O O5 0.772341 0.367548 0.290647
O O6 0.667680 0.597002 0.409737
O O7 0.827720 0.550978 0.933452
O O8 0.500000 0.500000 0.500000
O O9 0.626602 0.877763 0.348552
O O10 0.574911 0.719626 0.136652
O O11 0.500000 0.000000 0.500000
O O12 0.345266 0.981927 0.393830
O O13 0.338202 0.546710 0.247783
O O14 0.495473 0.266625 0.203787
O O15 0.500000 0.500000 0.000000
O O16 0.922298 0.689292 0.489343
O O17 0.000000 0.500000 0.500000
O O18 0.965795 0.907146 0.705477
#
# Coordination Sequence:
#
# PCOD9097326 Si02
#       8
#     2   2   2   2   2   2   2   2
#     4   9  20  38  61  88 123 162 204 264 320 380
#     4  10  21  38  58  87 125 159 205 260 318 384
#     4  10  23  42  64  92 126 169 220 272 330 392
#     4  11  21  37  65  93 126 163 218 264 330 384
#     4  10  22  41  62  86 124 172 207 265 330 384
#     4  11  21  40  67  92 123 167 221 266 318 393
#     4  10  20  36  60  87 117 161 208 250 315 389
#     4   9  19  39  61  85 121 163 206 256 318 386
#
# _framework density 22.160330999999999
#
# number of rings (size 3 to 8) (size 9 to 14) (size 15 to 20)
#    0.000    2.000    1.250    1.875    1.750    3.000 
#    4.500    3.750    0.000    0.000    0.000    0.000 
#    0.000    0.000    0.000    0.000    0.000    0.000 
#
# Total GULP energy -89195.773766 kJ/mol
# GULP energy per Si atom -5574.735860 kJ/mol
# Density = 2.210989 g / cm^3
# Si number density = 22.160331 Si / 1000 Ang^3
#
#
#
# Elastic Constant Matrix: (Units=GPa)
#
#
# Indices 1 2 3 4 5 6 
#
# 1 131.9000 12.0612 55.6230 15.3625 10.7586 -30.0536
# 2 12.0612 45.7556 31.3982 9.6929 -0.0079 -12.6243
# 3 55.6230 31.3982 128.6885 4.7394 6.9525 -24.2253
# 4 15.3625 9.6929 4.7394 31.1093 -2.9370 -0.6710
# 5 10.7586 -0.0079 6.9525 -2.9370 31.8747 3.1069
# 6 -30.0536 -12.6243 -24.2253 -0.6710 3.1069 32.6114
#
#
#
# Elastic Compliance Matrix: (Units=1/GPa)
#
#
# Indices 1 2 3 4 5 6 
#
# 1 0.012430 0.003659 -0.003780 -0.006952 -0.005024 0.010399
# 2 0.003659 0.030402 -0.006613 -0.010214 -0.001718 0.010181
# 3 -0.003780 -0.006613 0.011515 0.002108 -0.001304 0.002678
# 4 -0.006952 -0.010214 0.002108 0.038849 0.006302 -0.008597
# 5 -0.005024 -0.001718 -0.001304 0.006302 0.034855 -0.009455
# 6 0.010399 0.010181 0.002678 -0.008597 -0.009455 0.046902
#
#
# Mechanical properties :
#
#
# Convention : Reuss Voigt Hill
#
# Bulk Modulus (GPa) = 24.46373 56.05654 40.26013
# Shear Modulus (GPa) = 24.74658 32.93653 28.84156
#
# Velocity S-wave (km/s) = 3.34534 3.85942 3.61154
# Velocity P-wave (km/s) = 5.09756 6.72391 5.96641
#
# Compressibility (1/GPa) = 0.04087684
#
# Stress axis : x y z
#
# Youngs Moduli (GPa) = 80.45009 32.89303 86.84250
#
# Poissons Ratio (x) = -0.12034 0.32828
# Poissons Ratio (y) = -0.29433 0.57431
# Poissons Ratio (z) = 0.30412 0.21753
#
# Static dielectric constant tensor:
#      x y z
#    x 1.847860 0.003770 0.024550 
#    y 0.003770 1.912790 -0.049450 
#    z 0.024550 -0.049450 1.876210 
# 
# From -- ./inp_files/81300.got.cif
#   From: 2010.05.17/outbox.cif.g08.bks.cpg/sg2_41_cif.got.tgz:81300.got - 2010.06.03 11:33:40.
