data_PCOD9097134
_publ_section_title
;
Structure prediction by ZEFSAII (Michael W. Deem and Ramdas Pophale) SiO2 
 PCOD9097134
Probable space group: P -1
;
_chemical_formula_sum "Si O2"
_cell_formula_units_Z 16
_cell_length_a 7.887768
_cell_length_b 14.420925
_cell_length_c 15.465896
_cell_angle_alpha 144.429388
_cell_angle_beta 94.429589
_cell_angle_gamma 62.812634
_cell_volume 748.580983
_symmetry_space_group_name_H-M "P -1"
_symmetry_group_IT_number 2
_symmetry_cell_setting 'triclinic'
loop_
_space_group_symop_operation_xyz
x,y,z
-x,-y,-z
loop_
_atom_site_type_symbol
_atom_site_label
_atom_site_fract_x
_atom_site_fract_y
_atom_site_fract_z
Si Si1 0.726881 0.399653 0.487610
Si Si2 0.594429 0.435910 0.085986
Si Si3 0.170529 0.124148 0.611829
Si Si4 0.086430 0.074659 0.126930
Si Si5 0.316340 0.302677 0.633860
Si Si6 0.605505 0.624886 0.825587
Si Si7 0.194666 0.827484 0.261247
Si Si8 0.040282 0.448209 0.325242
O O1 0.500000 0.500000 0.500000
O O2 0.651888 0.454065 0.626822
O O3 0.833500 0.511472 0.572645
O O4 0.933597 0.165618 0.277213
O O5 0.706107 0.492882 0.197939
O O6 0.407421 0.448641 0.138384
O O7 0.449343 0.637720 0.167654
O O8 0.769570 0.217230 0.872539
O O9 0.188920 0.286361 0.693531
O O10 0.977759 0.197520 0.728854
O O11 0.416795 0.921695 0.512790
O O12 0.122833 0.040022 0.462403
O O13 0.043312 0.272737 0.231435
O O14 0.356105 0.865994 0.990503
O O15 0.000000 0.000000 0.000000
O O16 0.205665 0.339261 0.562949
O O17 0.795523 0.634666 0.815852
#
# Coordination Sequence:
#
# PCOD9097134 Si02
#       8
#     2   2   2   2   2   2   2   2
#     4  10  23  42  64  89 118 171 199 267 315 361
#     4  10  20  38  59  88 120 163 203 250 310 360
#     4   9  19  37  61  89 122 157 204 249 305 365
#     4  12  21  41  66  90 122 161 211 256 310 376
#     4  10  20  36  59  88 124 159 197 255 307 366
#     4  10  23  39  63  88 126 160 209 255 306 374
#     4   9  19  37  63  84 121 163 200 250 302 368
#     4  10  23  40  62  88 127 166 204 262 314 367
#
# _framework density 21.373771999999999
#
# number of rings (size 3 to 8) (size 9 to 14) (size 15 to 20)
#    0.750    1.250    1.250    2.250    0.000    1.500 
#    4.500    3.750    2.750    0.000    0.000    0.000 
#    0.000    0.000    0.000    0.000    0.000    0.000 
#
# Total GULP energy -89103.486320 kJ/mol
# GULP energy per Si atom -5568.967895 kJ/mol
# Density = 2.132512 g / cm^3
# Si number density = 21.373772 Si / 1000 Ang^3
#
#
#
# Elastic Constant Matrix: (Units=GPa)
#
#
# Indices 1 2 3 4 5 6 
#
# 1 86.1891 26.5415 24.9049 -3.0957 -2.0621 -5.3539
# 2 26.5415 80.5605 28.3540 7.2947 1.1362 -8.9779
# 3 24.9049 28.3540 99.1617 -15.5560 -23.1160 9.2822
# 4 -3.0957 7.2947 -15.5560 19.0535 4.3796 -11.5973
# 5 -2.0621 1.1362 -23.1160 4.3796 32.5400 -1.7388
# 6 -5.3539 -8.9779 9.2822 -11.5973 -1.7388 31.7687
#
#
#
# Elastic Compliance Matrix: (Units=1/GPa)
#
#
# Indices 1 2 3 4 5 6 
#
# 1 0.013736 -0.003688 -0.002312 0.004037 -0.001006 0.003367
# 2 -0.003688 0.017293 -0.006845 -0.010511 -0.004168 0.002200
# 3 -0.002312 -0.006845 0.017258 0.012573 0.010543 -0.002200
# 4 0.004037 -0.010511 0.012573 0.082078 -0.000211 0.023988
# 5 -0.001006 -0.004168 0.010543 -0.000211 0.038202 -0.002414
# 6 0.003367 0.002200 -0.002200 0.023988 -0.002414 0.041934
#
#
# Mechanical properties :
#
#
# Convention : Reuss Voigt Hill
#
# Bulk Modulus (GPa) = 44.25166 47.27913 45.76539
# Shear Modulus (GPa) = 20.51498 29.07982 24.79740
#
# Velocity S-wave (km/s) = 3.10146 3.69255 3.40984
# Velocity P-wave (km/s) = 5.79431 6.35201 6.07956
#
# Compressibility (1/GPa) = 0.02259802
#
# Stress axis : x y z
#
# Youngs Moduli (GPa) = 72.80053 57.82702 57.94291
#
# Poissons Ratio (x) = 0.21327 0.13395
# Poissons Ratio (y) = 0.26849 0.39661
# Poissons Ratio (z) = 0.16830 0.39582
#
# Static dielectric constant tensor:
#      x y z
#    x 1.823400 -0.023050 0.009910 
#    y -0.023050 1.789920 -0.056800 
#    z 0.009910 -0.056800 1.764410 
# 
# From -- ./inp_files/393102.got.cif
#   From: 2010.05.17/outbox.cif.g08.bks.cpg/sg2_197_cif.got.tgz:393102.got - 2010.06.03 11:33:40.
