data_PCOD9097880
_publ_section_title
;
Structure prediction by ZEFSAII (Michael W. Deem and Ramdas Pophale) SiO2 
 PCOD9097880
Probable space group: P -1
;
_chemical_formula_sum "Si O2"
_cell_formula_units_Z 16
_cell_length_a 11.336150
_cell_length_b 7.981112
_cell_length_c 16.894114
_cell_angle_alpha 98.066492
_cell_angle_beta 131.840545
_cell_angle_gamma 120.875194
_cell_volume 641.110725
_symmetry_space_group_name_H-M "P -1"
_symmetry_group_IT_number 2
_symmetry_cell_setting 'triclinic'
loop_
_space_group_symop_operation_xyz
x,y,z
-x,-y,-z
loop_
_atom_site_type_symbol
_atom_site_label
_atom_site_fract_x
_atom_site_fract_y
_atom_site_fract_z
Si Si1 0.851991 0.254668 0.732035
Si Si2 0.528549 0.551939 0.145582
Si Si3 0.431178 0.361764 0.659092
Si Si4 0.975508 0.280273 0.228273
Si Si5 0.500428 0.099839 0.887555
Si Si6 0.968227 0.028428 0.682173
Si Si7 0.017030 0.065676 0.105053
Si Si8 0.675294 0.209409 0.810706
O O1 0.818883 0.050014 0.659889
O O2 0.678956 0.104796 0.725742
O O3 0.800255 0.375090 0.662290
O O4 0.182538 0.584939 0.921420
O O5 0.593152 0.556907 0.264765
O O6 0.607717 0.814462 0.186474
O O7 0.712920 0.626564 0.166736
O O8 0.196549 0.247454 0.969382
O O9 0.654043 0.641968 0.718142
O O10 0.570551 0.304446 0.743383
O O11 0.153780 0.094863 0.468792
O O12 0.907465 0.145819 0.099941
O O13 0.721867 0.131779 0.158133
O O14 0.060441 0.177829 0.301458
O O15 0.514869 0.009458 0.804971
O O16 0.000000 0.000000 0.000000
O O17 0.000000 0.500000 0.000000
#
# Coordination Sequence:
#
# PCOD9097880 Si02
#       8
#     2   2   2   2   2   2   2   2
#     4  11  21  38  63  93 129 170 212 267 324 382
#     4   9  19  38  65  93 124 166 221 264 320 380
#     4  10  20  39  64  91 129 176 208 264 327 383
#     4  11  22  40  62  96 132 164 215 270 322 379
#     4   9  19  36  65  90 124 168 216 273 319 368
#     4  11  24  39  65  95 132 174 211 257 331 395
#     4  10  20  36  62  91 126 160 215 267 308 371
#     4   9  19  38  62  89 123 170 214 261 319 373
#
# _framework density 24.956686000000001
#
# number of rings (size 3 to 8) (size 9 to 14) (size 15 to 20)
#    0.000    2.000    1.250    2.250    0.000    4.000 
#    0.000    0.000   11.000    7.500    0.000    0.000 
#    0.000    0.000    0.000    0.000    0.000    0.000 
#
# Total GULP energy -89214.369583 kJ/mol
# GULP energy per Si atom -5575.898099 kJ/mol
# Density = 2.489988 g / cm^3
# Si number density = 24.956686 Si / 1000 Ang^3
#
#
#
# Elastic Constant Matrix: (Units=GPa)
#
#
# Indices 1 2 3 4 5 6 
#
# 1 149.3149 56.9681 11.2257 -1.9363 2.8137 32.5333
# 2 56.9681 112.8553 22.0247 -9.1164 4.7051 6.4733
# 3 11.2257 22.0247 63.4244 -13.5143 9.9250 5.6734
# 4 -1.9363 -9.1164 -13.5143 27.2859 4.9995 8.9911
# 5 2.8137 4.7051 9.9250 4.9995 25.0016 5.4529
# 6 32.5333 6.4733 5.6734 8.9911 5.4529 45.7872
#
#
#
# Elastic Compliance Matrix: (Units=1/GPa)
#
#
# Indices 1 2 3 4 5 6 
#
# 1 0.009927 -0.004650 0.000729 0.001665 0.000638 -0.006890
# 2 -0.004650 0.011871 -0.002844 0.001892 -0.001346 0.001767
# 3 0.000729 -0.002844 0.021205 0.012716 -0.009614 -0.004095
# 4 0.001665 0.001892 0.012716 0.049803 -0.013097 -0.011246
# 5 0.000638 -0.001346 -0.009614 -0.013097 0.047074 -0.002106
# 6 -0.006890 0.001767 -0.004095 -0.011246 -0.002106 0.029452
#
#
# Mechanical properties :
#
#
# Convention : Reuss Voigt Hill
#
# Bulk Modulus (GPa) = 33.92828 56.22573 45.07700
# Shear Modulus (GPa) = 25.94882 35.30669 30.62775
#
# Velocity S-wave (km/s) = 3.22802 3.76536 3.50699
# Velocity P-wave (km/s) = 5.24575 6.44066 5.87367
#
# Compressibility (1/GPa) = 0.02947394
#
# Stress axis : x y z
#
# Youngs Moduli (GPa) = 100.73106 84.23947 47.15761
#
# Poissons Ratio (x) = 0.39175 -0.03438
# Poissons Ratio (y) = 0.46844 0.13409
# Poissons Ratio (z) = -0.07344 0.23954
#
# Static dielectric constant tensor:
#      x y z
#    x 2.064460 0.012460 0.022600 
#    y 0.012460 2.058120 -0.043610 
#    z 0.022600 -0.043610 1.999790 
# 
# From -- ./inp_files/566787.got.cif
#   From: 2010.05.17/outbox.cif.g08.bks.cpg/sg2_284_cif.got.tgz:566787.got - 2010.06.03 11:33:40.
