data_PCOD9097246
_publ_section_title
;
Structure prediction by ZEFSAII (Michael W. Deem and Ramdas Pophale) SiO2 
 PCOD9097246
Probable space group: P -1
;
_chemical_formula_sum "Si O2"
_cell_formula_units_Z 14
_cell_length_a 9.496208
_cell_length_b 18.417858
_cell_length_c 10.054091
_cell_angle_alpha 34.789744
_cell_angle_beta 107.901045
_cell_angle_gamma 133.270778
_cell_volume 575.975954
_symmetry_space_group_name_H-M "P -1"
_symmetry_group_IT_number 2
_symmetry_cell_setting 'triclinic'
loop_
_space_group_symop_operation_xyz
x,y,z
-x,-y,-z
loop_
_atom_site_type_symbol
_atom_site_label
_atom_site_fract_x
_atom_site_fract_y
_atom_site_fract_z
Si Si1 0.433610 0.596219 0.782269
Si Si2 0.115337 0.358473 0.279392
Si Si3 0.475060 0.338115 0.837329
Si Si4 0.753754 0.507235 0.407268
Si Si5 0.030759 0.021355 0.636687
Si Si6 0.568428 0.999009 0.665724
Si Si7 0.713371 0.173454 0.902842
O O1 0.295343 0.490348 0.762708
O O2 0.694796 0.843187 0.463038
O O3 0.500000 0.500000 0.000000
O O4 0.261433 0.533805 0.941973
O O5 0.303555 0.473692 0.282230
O O6 0.049992 0.177461 0.466550
O O7 0.849195 0.227566 0.438502
O O8 0.551381 0.418032 0.586826
O O9 0.461044 0.174079 0.083064
O O10 0.210556 0.199245 0.028224
O O11 0.740631 0.344603 0.648823
O O12 0.031662 0.720120 0.214445
O O13 0.000000 0.000000 0.500000
O O14 0.500000 0.000000 0.500000
O O15 0.378784 0.922212 0.832865
O O16 0.500000 0.000000 0.000000
#
# Coordination Sequence:
#
# PCOD9097246 Si02
#       7
#     2   2   2   2   2   2   2
#     4  10  21  39  60  86 120 158 199 245 297 355
#     4  10  20  36  60  83 115 155 197 242 298 353
#     4  10  21  37  59  85 118 155 198 246 294 358
#     4  10  22  40  60  88 123 157 198 249 300 354
#     4  10  20  38  60  82 117 152 198 246 290 353
#     4  10  21  35  56  88 118 149 198 248 295 352
#     4  10  21  40  61  86 121 159 199 242 301 359
#
# _framework density 24.306570000000001
#
# number of rings (size 3 to 8) (size 9 to 14) (size 15 to 20)
#    0.000    2.000    1.429    1.714    0.000    2.286 
#    5.143    2.857    0.000    0.000    0.000    0.000 
#    0.000    0.000    0.000    0.000    0.000    0.000 
#
# Total GULP energy -78326.782470 kJ/mol
# GULP energy per Si atom -5594.770176 kJ/mol
# Density = 2.425125 g / cm^3
# Si number density = 24.306570 Si / 1000 Ang^3
#
#
#
# Elastic Constant Matrix: (Units=GPa)
#
#
# Indices 1 2 3 4 5 6 
#
# 1 82.7881 10.6995 22.5725 -6.0177 -2.9792 0.7568
# 2 10.6995 142.4454 43.2341 2.7182 -13.5873 16.4764
# 3 22.5725 43.2341 125.0392 4.7635 -21.4371 11.5217
# 4 -6.0177 2.7182 4.7635 56.5761 5.7955 -6.4999
# 5 -2.9792 -13.5873 -21.4371 5.7955 20.0410 -3.3971
# 6 0.7568 16.4764 11.5217 -6.4999 -3.3971 34.5874
#
#
#
# Elastic Compliance Matrix: (Units=1/GPa)
#
#
# Indices 1 2 3 4 5 6 
#
# 1 0.012922 -0.000485 -0.002599 0.001893 -0.001563 0.001016
# 2 -0.000485 0.008335 -0.001897 -0.000997 0.003297 -0.003191
# 3 -0.002599 -0.001897 0.011257 -0.002484 0.010713 -0.002204
# 4 0.001893 -0.000997 -0.002484 0.019424 -0.007968 0.004128
# 5 -0.001563 0.003297 0.010713 -0.007968 0.065638 -0.000156
# 6 0.001016 -0.003191 -0.002204 0.004128 -0.000156 0.031905
#
#
# Mechanical properties :
#
#
# Convention : Reuss Voigt Hill
#
# Bulk Modulus (GPa) = 44.33996 55.92054 50.13025
# Shear Modulus (GPa) = 29.94709 40.49201 35.21955
#
# Velocity S-wave (km/s) = 3.51388 4.08596 3.81067
# Velocity P-wave (km/s) = 5.89446 6.73174 6.32697
#
# Compressibility (1/GPa) = 0.02255302
#
# Stress axis : x y z
#
# Youngs Moduli (GPa) = 77.38520 119.97443 88.83299
#
# Poissons Ratio (x) = 0.05814 0.23087
# Poissons Ratio (y) = 0.03750 0.16854
# Poissons Ratio (z) = 0.20112 0.22762
#
# Static dielectric constant tensor:
#      x y z
#    x 2.001120 -0.007950 0.066180 
#    y -0.007950 1.820940 -0.048460 
#    z 0.066180 -0.048460 2.055870 
# 
# From -- ./inp_files/277472.got.cif
#   From: 2010.05.17/outbox.cif.g08.bks.cpg/sg2_139_cif.got.tgz:277472.got - 2010.06.03 11:33:40.
