data_PCOD9097954
_publ_section_title
;
Structure prediction by ZEFSAII (Michael W. Deem and Ramdas Pophale) SiO2 
 PCOD9097954
Probable space group: P -1
;
_chemical_formula_sum "Si O2"
_cell_formula_units_Z 16
_cell_length_a 20.469263
_cell_length_b 9.028889
_cell_length_c 8.803079
_cell_angle_alpha 81.818838
_cell_angle_beta 126.630074
_cell_angle_gamma 54.470415
_cell_volume 704.256635
_symmetry_space_group_name_H-M "P -1"
_symmetry_group_IT_number 2
_symmetry_cell_setting 'triclinic'
loop_
_space_group_symop_operation_xyz
x,y,z
-x,-y,-z
loop_
_atom_site_type_symbol
_atom_site_label
_atom_site_fract_x
_atom_site_fract_y
_atom_site_fract_z
Si Si1 0.026395 0.070938 0.743726
Si Si2 0.996305 0.460415 0.674348
Si Si3 0.782234 0.463347 0.778622
Si Si4 0.302231 0.923931 0.703601
Si Si5 0.762155 0.283554 0.201032
Si Si6 0.636160 0.750144 0.836096
Si Si7 0.165902 0.278467 0.204201
Si Si8 0.482677 0.894052 0.115626
O O1 0.984837 0.300444 0.703709
O O2 0.881270 0.205183 0.464910
O O3 0.145265 0.910212 0.792654
O O4 0.101375 0.851221 0.008489
O O5 0.000000 0.500000 0.500000
O O6 0.850842 0.767519 0.490641
O O7 0.145405 0.283877 0.995890
O O8 0.768412 0.523595 0.932109
O O9 0.808807 0.588577 0.735545
O O10 0.633988 0.640433 0.459474
O O11 0.284386 0.987419 0.491157
O O12 0.294857 0.765151 0.770027
O O13 0.432052 0.821359 0.974103
O O14 0.626809 0.600461 0.918793
O O15 0.500000 0.000000 0.500000
O O16 0.636805 0.865151 0.958197
O O17 0.000000 0.500000 0.000000
O O18 0.500000 0.000000 0.000000
#
# Coordination Sequence:
#
# PCOD9097954 Si02
#       8
#     2   2   2   2   2   2   2   2
#     4  10  20  36  62  95 122 159 198 259 316 360
#     4  11  22  37  64  97 122 156 207 254 307 373
#     4  10  21  41  63  88 127 163 209 253 308 371
#     4  11  22  40  61  92 127 164 205 250 313 372
#     4  10  20  37  64  92 127 157 202 255 312 374
#     4   9  21  39  64  90 116 167 209 252 306 363
#     4  10  22  38  58  90 129 162 195 254 314 364
#     4  11  22  42  65  87 122 169 211 251 309 371
#
# _framework density 22.718990999999999
#
# number of rings (size 3 to 8) (size 9 to 14) (size 15 to 20)
#    0.000    1.750    2.500    2.250    5.250    0.000 
#    2.250   11.875    0.000    0.000    0.000    0.000 
#    0.000    0.000    0.000    0.000    0.000    0.000 
#
# Total GULP energy -89345.142221 kJ/mol
# GULP energy per Si atom -5584.071389 kJ/mol
# Density = 2.266728 g / cm^3
# Si number density = 22.718991 Si / 1000 Ang^3
#
#
#
# Elastic Constant Matrix: (Units=GPa)
#
#
# Indices 1 2 3 4 5 6 
#
# 1 104.1408 30.5392 52.6237 4.1286 -21.5339 33.7210
# 2 30.5392 70.5230 41.5258 -1.4430 -16.8089 22.3917
# 3 52.6237 41.5258 136.6518 13.8292 -28.0800 23.6565
# 4 4.1286 -1.4430 13.8292 39.0791 10.3857 -9.8035
# 5 -21.5339 -16.8089 -28.0800 10.3857 35.1038 -2.9676
# 6 33.7210 22.3917 23.6565 -9.8035 -2.9676 53.2303
#
#
#
# Elastic Compliance Matrix: (Units=1/GPa)
#
#
# Indices 1 2 3 4 5 6 
#
# 1 0.015885 -0.000809 -0.001840 -0.005771 0.008791 -0.009478
# 2 -0.000809 0.019909 -0.003213 -0.001308 0.006319 -0.006323
# 3 -0.001840 -0.003213 0.012329 -0.007687 0.009142 -0.003868
# 4 -0.005771 -0.001308 -0.007687 0.037637 -0.020316 0.013421
# 5 0.008791 0.006319 0.009142 -0.020316 0.049105 -0.013294
# 6 -0.009478 -0.006323 -0.003868 0.013421 -0.013294 0.030900
#
#
# Mechanical properties :
#
#
# Convention : Reuss Voigt Hill
#
# Bulk Modulus (GPa) = 27.47314 62.29925 44.88619
# Shear Modulus (GPa) = 26.36827 37.92444 32.14636
#
# Velocity S-wave (km/s) = 3.41049 4.09012 3.76567
# Velocity P-wave (km/s) = 5.25618 7.05596 6.22150
#
# Compressibility (1/GPa) = 0.03639919
#
# Stress axis : x y z
#
# Youngs Moduli (GPa) = 62.95274 50.22864 81.10972
#
# Poissons Ratio (x) = 0.04062 0.14926
# Poissons Ratio (y) = 0.05091 0.26060
# Poissons Ratio (z) = 0.11585 0.16138
#
# Static dielectric constant tensor:
#      x y z
#    x 1.958950 -0.051430 -0.069520 
#    y -0.051430 2.044720 0.005080 
#    z -0.069520 0.005080 1.902780 
# 
# From -- ./inp_files/185970.got.cif
#   From: 2010.05.17/outbox.cif.g08.bks.cpg/sg2_93_cif.got.tgz:185970.got - 2010.06.03 11:33:40.
