data_PCOD9097692
_publ_section_title
;
Structure prediction by ZEFSAII (Michael W. Deem and Ramdas Pophale) SiO2 
 PCOD9097692
Probable space group: P -1
;
_chemical_formula_sum "Si O2"
_cell_formula_units_Z 15
_cell_length_a 8.838238
_cell_length_b 14.145080
_cell_length_c 9.431355
_cell_angle_alpha 121.187049
_cell_angle_beta 134.692847
_cell_angle_gamma 40.202222
_cell_volume 540.565001
_symmetry_space_group_name_H-M "P -1"
_symmetry_group_IT_number 2
_symmetry_cell_setting 'triclinic'
loop_
_space_group_symop_operation_xyz
x,y,z
-x,-y,-z
loop_
_atom_site_type_symbol
_atom_site_label
_atom_site_fract_x
_atom_site_fract_y
_atom_site_fract_z
Si Si1 0.031516 0.163221 0.131821
Si Si2 0.414549 0.079398 0.855018
Si Si3 0.536334 0.722740 0.307342
Si Si4 0.210197 0.539884 0.895524
Si Si5 0.895642 0.404073 0.799245
Si Si6 0.805450 0.986792 0.594947
Si Si7 0.495713 0.668008 0.556479
Si Si8 0.000000 0.000000 0.500000
O O1 0.024803 0.295068 0.189721
O O2 0.308083 0.011770 0.129992
O O3 0.031359 0.137781 0.279242
O O4 0.750389 0.207419 0.913610
O O5 0.219930 0.253788 0.879241
O O6 0.218543 0.059019 0.615548
O O7 0.500000 0.000000 0.000000
O O8 0.775340 0.586578 0.262237
O O9 0.489384 0.869263 0.423114
O O10 0.564953 0.655159 0.425883
O O11 0.500000 0.500000 0.000000
O O12 0.197626 0.549356 0.063311
O O13 0.766858 0.549403 0.738628
O O14 0.719891 0.359643 0.592359
O O15 0.957050 0.043477 0.677712
O O16 0.317621 0.833411 0.615152
#
# Coordination Sequence:
#
# PCOD9097692 Si02
#       8
#     2   2   2   2   2   2   2   1
#     4  11  23  42  68  98 130 179 219 261 332 396
#     4  12  24  44  67  94 138 173 227 264 322 405
#     4  10  22  42  64 100 129 163 218 284 326 377
#     4  10  20  36  61  94 130 163 217 273 315 379
#     4  11  21  37  62  96 124 175 217 268 318 377
#     4  11  25  41  65 101 126 175 214 275 333 380
#     4  10  20  36  62  96 125 168 218 269 325 370
#     4  10  22  38  66  92 132 154 216 274 324 378
#
# _framework density 27.748743000000001
#
# number of rings (size 3 to 8) (size 9 to 14) (size 15 to 20)
#    0.000    1.333    5.333    0.800    7.467    0.000 
#    0.000    0.667    2.933    4.000    0.000    0.000 
#    0.000    0.000    0.000    0.000    0.000    0.000 
#
# Total GULP energy -83846.576289 kJ/mol
# GULP energy per Si atom -5589.771753 kJ/mol
# Density = 2.768559 g / cm^3
# Si number density = 27.748743 Si / 1000 Ang^3
#
#
#
# Elastic Constant Matrix: (Units=GPa)
#
#
# Indices 1 2 3 4 5 6 
#
# 1 75.0612 42.6772 63.7970 -23.7449 -13.5151 -18.1990
# 2 42.6772 244.9707 105.4808 -15.8693 -40.2814 -25.2834
# 3 63.7970 105.4808 184.9798 -34.1310 -52.7396 2.9961
# 4 -23.7449 -15.8693 -34.1310 61.1102 13.3419 -3.1645
# 5 -13.5151 -40.2814 -52.7396 13.3419 70.7313 -4.6416
# 6 -18.1990 -25.2834 2.9961 -3.1645 -4.6416 48.6535
#
#
#
# Elastic Compliance Matrix: (Units=1/GPa)
#
#
# Indices 1 2 3 4 5 6 
#
# 1 0.023802 0.000424 -0.008012 0.005747 -0.001624 0.009836
# 2 0.000424 0.005998 -0.003287 -0.000217 0.001322 0.003590
# 3 -0.008012 -0.003287 0.011721 0.001284 0.004773 -0.004888
# 4 0.005747 -0.000217 0.001284 0.019766 -0.001593 0.003092
# 5 -0.001624 0.001322 0.004773 -0.001593 0.018535 0.001450
# 6 0.009836 0.003590 -0.004888 0.003092 0.001450 0.026739
#
#
# Mechanical properties :
#
#
# Convention : Reuss Voigt Hill
#
# Bulk Modulus (GPa) = 50.58520 103.21352 76.89936
# Shear Modulus (GPa) = 37.06386 55.63611 46.34998
#
# Velocity S-wave (km/s) = 3.65868 4.48258 4.09142
# Velocity P-wave (km/s) = 6.00976 8.00424 7.07761
#
# Compressibility (1/GPa) = 0.01976863
#
# Stress axis : x y z
#
# Youngs Moduli (GPa) = 42.01320 166.73275 85.31664
#
# Poissons Ratio (x) = -0.07068 0.68360
# Poissons Ratio (y) = -0.01781 0.28048
# Poissons Ratio (z) = 0.33663 0.54813
#
# Static dielectric constant tensor:
#      x y z
#    x 18.901390 5.441200 3.724820 
#    y 5.441200 3.916860 1.214190 
#    z 3.724820 1.214190 2.950070 
# 
# From -- ./inp_files/276763.got.cif
#   From: 2010.05.17/outbox.cif.g08.bks.cpg/sg2_139_cif.got.tgz:276763.got - 2010.06.03 11:33:40.
