data_PCOD9097216
_publ_section_title
;
Structure prediction by ZEFSAII (Michael W. Deem and Ramdas Pophale) SiO2 
 PCOD9097216
Probable space group: P -1
;
_chemical_formula_sum "Si O2"
_cell_formula_units_Z 14
_cell_length_a 16.924766
_cell_length_b 9.244552
_cell_length_c 11.015759
_cell_angle_alpha 71.916499
_cell_angle_beta 30.671715
_cell_angle_gamma 53.182775
_cell_volume 608.718879
_symmetry_space_group_name_H-M "P -1"
_symmetry_group_IT_number 2
_symmetry_cell_setting 'triclinic'
loop_
_space_group_symop_operation_xyz
x,y,z
-x,-y,-z
loop_
_atom_site_type_symbol
_atom_site_label
_atom_site_fract_x
_atom_site_fract_y
_atom_site_fract_z
Si Si1 0.983576 0.969770 0.887789
Si Si2 0.649757 0.414959 0.206432
Si Si3 0.045573 0.507431 0.197250
Si Si4 0.427379 0.062871 0.755946
Si Si5 0.615260 0.659681 0.754588
Si Si6 0.836241 0.765671 0.183476
Si Si7 0.648251 0.303222 0.693823
O O1 0.148199 0.909284 0.583814
O O2 0.002306 0.776008 0.914638
O O3 0.000000 0.000000 0.000000
O O4 0.752002 0.183933 0.101587
O O5 0.500000 0.500000 0.500000
O O6 0.513388 0.565965 0.236961
O O7 0.850300 0.394839 0.961266
O O8 0.831507 0.602240 0.524812
O O9 0.949444 0.566273 0.170398
O O10 0.247102 0.263963 0.022930
O O11 0.314683 0.167855 0.747468
O O12 0.485310 0.855404 0.781345
O O13 0.667092 0.964492 0.448060
O O14 0.683224 0.449401 0.665049
O O15 0.458875 0.726726 0.054047
#
# Coordination Sequence:
#
# PCOD9097216 Si02
#       7
#     2   2   2   2   2   2   2
#     4  12  22  39  66  94 127 165 209 261 326 378
#     4  12  24  40  66 101 133 166 210 268 328 380
#     4  11  22  38  64  93 133 166 212 264 321 382
#     4  10  21  37  65  90 127 167 212 261 322 375
#     4  10  25  46  64  93 127 176 219 262 311 385
#     4  10  20  36  59  96 126 159 213 265 316 376
#     4  11  25  45  67  91 131 169 220 266 315 383
#
# _framework density 22.999123000000001
#
# number of rings (size 3 to 8) (size 9 to 14) (size 15 to 20)
#    0.000    1.143    2.857    3.000    0.000    6.286 
#    0.000    5.000    0.000    0.000    0.000    0.000 
#    0.000    0.000    0.000    0.000    0.000    0.000 
#
# Total GULP energy -78025.917854 kJ/mol
# GULP energy per Si atom -5573.279847 kJ/mol
# Density = 2.294678 g / cm^3
# Si number density = 22.999123 Si / 1000 Ang^3
#
#
#
# Elastic Constant Matrix: (Units=GPa)
#
#
# Indices 1 2 3 4 5 6 
#
# 1 48.0796 3.5104 30.7633 -7.6539 -0.5898 -1.1915
# 2 3.5104 90.2785 53.2725 2.7200 -1.6921 -8.5322
# 3 30.7633 53.2725 169.0501 -5.7166 17.1987 -2.8849
# 4 -7.6539 2.7200 -5.7166 47.2551 0.9207 -8.5150
# 5 -0.5898 -1.6921 17.1987 0.9207 30.1892 -3.1275
# 6 -1.1915 -8.5322 -2.8849 -8.5150 -3.1275 27.5330
#
#
#
# Elastic Compliance Matrix: (Units=1/GPa)
#
#
# Indices 1 2 3 4 5 6 
#
# 1 0.024873 0.002551 -0.005563 0.003647 0.003984 0.002865
# 2 0.002551 0.014746 -0.005504 -0.000379 0.004489 0.004496
# 3 -0.005563 -0.005504 0.009244 0.000373 -0.005853 -0.001527
# 4 0.003647 -0.000379 0.000373 0.023122 -0.000120 0.007217
# 5 0.003984 0.004489 -0.005853 -0.000120 0.037326 0.005153
# 6 0.002865 0.004496 -0.001527 0.007217 0.005153 0.040495
#
#
# Mechanical properties :
#
#
# Convention : Reuss Voigt Hill
#
# Bulk Modulus (GPa) = 31.41603 53.61115 42.51359
# Shear Modulus (GPa) = 28.17728 35.65292 31.91510
#
# Velocity S-wave (km/s) = 3.50401 3.94151 3.72918
# Velocity P-wave (km/s) = 5.48271 6.63888 6.08830
#
# Compressibility (1/GPa) = 0.03183088
#
# Stress axis : x y z
#
# Youngs Moduli (GPa) = 40.20471 67.81535 108.17493
#
# Poissons Ratio (x) = -0.17301 0.60181
# Poissons Ratio (y) = -0.10257 0.59539
# Poissons Ratio (z) = 0.22367 0.37325
#
# Static dielectric constant tensor:
#      x y z
#    x 1.918930 0.068970 0.043410 
#    y 0.068970 1.736000 -0.091090 
#    z 0.043410 -0.091090 1.905580 
# 
# From -- ./inp_files/462031.got.cif
#   From: 2010.05.17/outbox.cif.g08.bks.cpg/sg2_232_cif.got.tgz:462031.got - 2010.06.03 11:33:40.
