data_PCOD9097310
_publ_section_title
;
Structure prediction by ZEFSAII (Michael W. Deem and Ramdas Pophale) SiO2 
 PCOD9097310
Probable space group: P -1
;
_chemical_formula_sum "Si O2"
_cell_formula_units_Z 16
_cell_length_a 10.225673
_cell_length_b 8.511969
_cell_length_c 15.076657
_cell_angle_alpha 94.222545
_cell_angle_beta 46.362682
_cell_angle_gamma 124.328581
_cell_volume 666.086147
_symmetry_space_group_name_H-M "P -1"
_symmetry_group_IT_number 2
_symmetry_cell_setting 'triclinic'
loop_
_space_group_symop_operation_xyz
x,y,z
-x,-y,-z
loop_
_atom_site_type_symbol
_atom_site_label
_atom_site_fract_x
_atom_site_fract_y
_atom_site_fract_z
Si Si1 0.209949 0.215517 0.162046
Si Si2 0.579711 0.473633 0.367674
Si Si3 0.679517 0.987797 0.466200
Si Si4 0.144744 0.526606 0.150168
Si Si5 0.810465 0.120898 0.939839
Si Si6 0.928085 0.536651 0.624568
Si Si7 0.039858 0.696093 0.945994
Si Si8 0.477387 0.480070 0.219251
O O1 0.275001 0.435567 0.106725
O O2 0.327831 0.275934 0.209332
O O3 0.896298 0.032642 0.307253
O O4 0.271556 0.097418 0.071873
O O5 0.500000 0.500000 0.500000
O O6 0.492394 0.241987 0.412504
O O7 0.882182 0.679481 0.215923
O O8 0.439057 0.438823 0.341152
O O9 0.500000 0.000000 0.500000
O O10 0.866013 0.195756 0.453536
O O11 0.051529 0.528174 0.290357
O O12 0.276765 0.762789 0.054465
O O13 0.934033 0.332297 0.169991
O O14 0.771832 0.104443 0.063951
O O15 0.642198 0.426497 0.744227
O O16 0.000000 0.500000 0.500000
O O17 0.776660 0.633659 0.069406
O O18 0.000000 0.500000 0.000000
#
# Coordination Sequence:
#
# PCOD9097310 Si02
#       8
#     2   2   2   2   2   2   2   2
#     4  10  21  37  55  87 120 152 198 249 300 356
#     4  11  20  33  57  81 111 161 194 240 301 351
#     4  10  21  35  53  82 120 159 198 245 288 360
#     4   9  20  38  59  82 119 154 191 249 301 343
#     4  10  20  36  60  87 112 154 203 243 297 364
#     4  10  23  36  57  89 124 160 197 245 301 363
#     4   9  19  39  63  85 115 154 204 252 299 358
#     4   9  22  37  56  87 122 151 201 250 298 362
#
# _framework density 24.020916
#
# number of rings (size 3 to 8) (size 9 to 14) (size 15 to 20)
#    0.000    2.500    1.250    1.500    3.500    5.500 
#    0.000    2.500    0.000   12.000    0.000    0.000 
#    0.000    0.000    0.000    0.000    0.000    0.000 
#
# Total GULP energy -89141.495164 kJ/mol
# GULP energy per Si atom -5571.343448 kJ/mol
# Density = 2.396624 g / cm^3
# Si number density = 24.020916 Si / 1000 Ang^3
#
#
#
# Elastic Constant Matrix: (Units=GPa)
#
#
# Indices 1 2 3 4 5 6 
#
# 1 138.4158 59.0983 61.3553 17.0893 18.2919 12.9258
# 2 59.0983 144.0953 35.2108 10.1127 11.9610 -0.1689
# 3 61.3553 35.2108 83.8001 28.4969 14.7422 12.4066
# 4 17.0893 10.1127 28.4969 55.0946 7.9095 8.9095
# 5 18.2919 11.9610 14.7422 7.9095 52.4583 13.8390
# 6 12.9258 -0.1689 12.4066 8.9095 13.8390 17.1488
#
#
#
# Elastic Compliance Matrix: (Units=1/GPa)
#
#
# Indices 1 2 3 4 5 6 
#
# 1 0.012126 -0.003255 -0.007251 0.001342 -0.000548 -0.004181
# 2 -0.003255 0.008871 -0.001711 -0.000351 -0.001777 0.005395
# 3 -0.007251 -0.001711 0.021461 -0.007535 -0.000445 -0.005804
# 4 0.001342 -0.000351 -0.007535 0.022898 0.000312 -0.007712
# 5 -0.000548 -0.001777 -0.000445 0.000312 0.024889 -0.019530
# 6 -0.004181 0.005395 -0.005804 -0.007712 -0.019530 0.085483
#
#
# Mechanical properties :
#
#
# Convention : Reuss Voigt Hill
#
# Bulk Modulus (GPa) = 55.48320 75.29334 65.38827
# Shear Modulus (GPa) = 24.25159 38.98345 31.61752
#
# Velocity S-wave (km/s) = 3.18087 4.03289 3.63195
# Velocity P-wave (km/s) = 6.05298 7.28687 6.69840
#
# Compressibility (1/GPa) = 0.01802347
#
# Stress axis : x y z
#
# Youngs Moduli (GPa) = 82.46935 112.72155 46.59588
#
# Poissons Ratio (x) = 0.36689 0.33788
# Poissons Ratio (y) = 0.26843 0.07974
# Poissons Ratio (z) = 0.59801 0.19289
#
# Static dielectric constant tensor:
#      x y z
#    x 1.946850 -0.026210 0.017100 
#    y -0.026210 1.913630 0.095110 
#    z 0.017100 0.095110 2.029960 
# 
# From -- ./inp_files/181333.got.cif
#   From: 2010.05.17/outbox.cif.g08.bks.cpg/sg2_91_cif.got.tgz:181333.got - 2010.06.03 11:33:40.
