data_PCOD9097259
_publ_section_title
;
Structure prediction by ZEFSAII (Michael W. Deem and Ramdas Pophale) SiO2 
 PCOD9097259
Probable space group: P -1
;
_chemical_formula_sum "Si O2"
_cell_formula_units_Z 16
_cell_length_a 15.149570
_cell_length_b 10.934525
_cell_length_c 15.032570
_cell_angle_alpha 102.565850
_cell_angle_beta 27.107529
_cell_angle_gamma 118.687757
_cell_volume 847.364182
_symmetry_space_group_name_H-M "P -1"
_symmetry_group_IT_number 2
_symmetry_cell_setting 'triclinic'
loop_
_space_group_symop_operation_xyz
x,y,z
-x,-y,-z
loop_
_atom_site_type_symbol
_atom_site_label
_atom_site_fract_x
_atom_site_fract_y
_atom_site_fract_z
Si Si1 0.312785 0.770524 0.282063
Si Si2 0.453941 0.638342 0.993704
Si Si3 0.971346 0.097312 0.467017
Si Si4 0.003686 0.648779 0.719588
Si Si5 0.217398 0.913265 0.003511
Si Si6 0.290444 0.664906 0.969039
Si Si7 0.282614 0.159784 0.510098
Si Si8 0.566147 0.003394 0.542461
O O1 0.314571 0.649451 0.200631
O O2 0.167795 0.685616 0.491137
O O3 0.190719 0.844635 0.359157
O O4 0.600830 0.927570 0.071904
O O5 0.439174 0.731714 0.939971
O O6 0.283500 0.455401 0.076784
O O7 0.741428 0.733820 0.774318
O O8 0.000000 0.000000 0.500000
O O9 0.850363 0.986926 0.468341
O O10 0.160321 0.822516 0.652795
O O11 0.955737 0.517645 0.812700
O O12 0.232658 0.777266 0.002363
O O13 0.933825 0.843379 0.256728
O O14 0.351715 0.971393 0.795590
O O15 0.485108 0.682236 0.727873
O O16 0.403259 0.126595 0.474343
O O17 0.500000 0.000000 0.500000
#
# Coordination Sequence:
#
# PCOD9097259 Si02
#       8
#     2   2   2   2   2   2   2   2
#     4  11  20  34  53  80 120 160 196 225 264 336
#     4  10  21  31  52  80 119 157 186 221 278 330
#     4  12  20  31  52  84 119 159 189 221 270 332
#     4   9  20  40  53  84 116 148 193 233 293 332
#     4  10  20  36  60  84 113 149 192 235 275 340
#     4   9  20  36  52  82 122 151 186 232 277 328
#     4  11  20  38  58  86 116 150 199 229 270 346
#     4  10  22  44  66  82 107 144 193 250 291 334
#
# _framework density 18.882082
#
# number of rings (size 3 to 8) (size 9 to 14) (size 15 to 20)
#    0.750    1.000    6.250    0.375    1.750    2.000 
#    0.000    6.250    0.000    1.500    0.000    0.000 
#    0.000    0.000    0.000    0.000    0.000    0.000 
#
# Total GULP energy -89076.369397 kJ/mol
# GULP energy per Si atom -5567.273087 kJ/mol
# Density = 1.883911 g / cm^3
# Si number density = 18.882082 Si / 1000 Ang^3
#
#
#
# Elastic Constant Matrix: (Units=GPa)
#
#
# Indices 1 2 3 4 5 6 
#
# 1 97.9561 14.7737 27.2769 1.7377 16.7705 -11.6150
# 2 14.7737 26.7967 21.0273 -7.2798 3.7267 -1.1883
# 3 27.2769 21.0273 86.7978 -4.1178 -0.0728 -14.0050
# 4 1.7377 -7.2798 -4.1178 32.1045 -12.7801 3.1654
# 5 16.7705 3.7267 -0.0728 -12.7801 17.4684 0.9143
# 6 -11.6150 -1.1883 -14.0050 3.1654 0.9143 8.0767
#
#
#
# Elastic Compliance Matrix: (Units=1/GPa)
#
#
# Indices 1 2 3 4 5 6 
#
# 1 0.027825 -0.017114 0.003849 -0.030208 -0.048365 0.061485
# 2 -0.017114 0.062709 -0.018421 0.030219 0.028349 -0.062380
# 3 0.003849 -0.018421 0.021580 -0.009696 -0.009128 0.045078
# 4 -0.030208 0.030219 -0.009696 0.083418 0.088702 -0.098543
# 5 -0.048365 0.028349 -0.009128 0.088702 0.169563 -0.135169
# 6 0.061485 -0.062380 0.045078 -0.098543 -0.135169 0.335144
#
#
# Mechanical properties :
#
#
# Convention : Reuss Voigt Hill
#
# Bulk Modulus (GPa) = 20.51685 37.52292 29.01989
# Shear Modulus (GPa) = 6.41142 21.42809 13.91975
#
# Velocity S-wave (km/s) = 1.84469 3.37239 2.71808
# Velocity P-wave (km/s) = 3.92766 5.92279 5.02523
#
# Compressibility (1/GPa) = 0.04874042
#
# Stress axis : x y z
#
# Youngs Moduli (GPa) = 35.93924 15.94665 46.33963
#
# Poissons Ratio (x) = 0.27292 -0.17836
# Poissons Ratio (y) = 0.61508 0.85363
# Poissons Ratio (z) = -0.13833 0.29376
#
# Static dielectric constant tensor:
#      x y z
#    x 1.655770 -0.016690 0.014360 
#    y -0.016690 1.679120 -0.038740 
#    z 0.014360 -0.038740 1.698090 
# 
# From -- ./inp_files/269918.got.cif
#   From: 2010.05.17/outbox.cif.g08.bks.cpg/sg2_135_cif.got.tgz:269918.got - 2010.06.03 11:33:40.
