data_PCOD9097108
_publ_section_title
;
Structure prediction by ZEFSAII (Michael W. Deem and Ramdas Pophale) SiO2 
 PCOD9097108
Probable space group: P -1
;
_chemical_formula_sum "Si O2"
_cell_formula_units_Z 12
_cell_length_a 9.711434
_cell_length_b 22.549259
_cell_length_c 15.072025
_cell_angle_alpha 21.093782
_cell_angle_beta 155.600712
_cell_angle_gamma 155.966132
_cell_volume 443.467179
_symmetry_space_group_name_H-M "P -1"
_symmetry_group_IT_number 2
_symmetry_cell_setting 'triclinic'
loop_
_space_group_symop_operation_xyz
x,y,z
-x,-y,-z
loop_
_atom_site_type_symbol
_atom_site_label
_atom_site_fract_x
_atom_site_fract_y
_atom_site_fract_z
Si Si1 0.664528 0.766158 0.908742
Si Si2 0.444597 0.986302 0.356798
Si Si3 0.506320 0.149223 0.720375
Si Si4 0.473745 0.581119 0.774854
Si Si5 0.422563 0.251021 0.843068
Si Si6 0.367004 0.566961 0.468263
O O1 0.504442 0.860977 0.752567
O O2 0.678622 0.876381 0.671990
O O3 0.441705 0.553547 0.053991
O O4 0.070184 0.801664 0.126858
O O5 0.508075 0.092400 0.154479
O O6 0.014622 0.839560 0.309877
O O7 0.366967 0.211917 0.458516
O O8 0.397704 0.276144 0.545619
O O9 0.500000 0.000000 0.000000
O O10 0.032423 0.514749 0.608268
O O11 0.500000 0.500000 0.000000
O O12 0.486031 0.410615 0.727894
O O13 0.645144 0.337011 0.765654
#
# Coordination Sequence:
#
# PCOD9097108 Si02
#       6
#     2   2   2   2   2   2
#     4  10  21  37  59  86 118 155 192 237 294 347
#     4  10  20  36  59  87 119 154 194 240 289 345
#     4  11  23  40  62  86 117 155 196 242 291 345
#     4  11  23  40  62  86 117 155 196 242 291 345
#     4  10  20  36  59  87 119 154 194 240 289 345
#     4  10  21  37  59  86 118 155 192 237 294 347
#
# _framework density 27.059501999999998
#
# number of rings (size 3 to 8) (size 9 to 14) (size 15 to 20)
#    0.000    1.667    0.000    6.000    0.000    5.333 
#    0.000    3.333    0.000   16.000    0.000    0.000 
#    0.000    0.000    0.000    0.000    0.000    0.000 
#
# Total GULP energy -66913.692901 kJ/mol
# GULP energy per Si atom -5576.141075 kJ/mol
# Density = 2.699791 g / cm^3
# Si number density = 27.059502 Si / 1000 Ang^3
#
#
#
# Elastic Constant Matrix: (Units=GPa)
#
#
# Indices 1 2 3 4 5 6 
#
# 1 76.9089 15.7102 53.7812 -23.8010 10.8672 -11.2136
# 2 15.7102 38.7433 37.0588 -6.1439 2.5444 11.1922
# 3 53.7812 37.0588 233.5030 -28.6136 -51.2340 -1.6198
# 4 -23.8010 -6.1439 -28.6136 42.7935 7.9091 10.6373
# 5 10.8672 2.5444 -51.2340 7.9091 59.1766 -9.7381
# 6 -11.2136 11.1922 -1.6198 10.6373 -9.7381 33.4207
#
#
#
# Elastic Compliance Matrix: (Units=1/GPa)
#
#
# Indices 1 2 3 4 5 6 
#
# 1 0.022037 -0.001699 -0.005820 0.009540 -0.010003 0.001730
# 2 -0.001699 0.043182 -0.008705 0.007370 -0.013650 -0.021776
# 3 -0.005820 -0.008705 0.009124 -0.001518 0.010352 0.004904
# 4 0.009540 0.007370 -0.001518 0.033813 -0.010047 -0.013030
# 5 -0.010003 -0.013650 0.010352 -0.010047 0.031970 0.014230
# 6 0.001730 -0.021776 0.004904 -0.013030 0.014230 0.046326
#
#
# Mechanical properties :
#
#
# Convention : Reuss Voigt Hill
#
# Bulk Modulus (GPa) = 23.86876 62.47284 43.17080
# Shear Modulus (GPa) = 21.47169 43.25182 32.36176
#
# Velocity S-wave (km/s) = 2.81997 4.00233 3.46200
# Velocity P-wave (km/s) = 4.40942 6.67050 5.65414
#
# Compressibility (1/GPa) = 0.04189576
#
# Stress axis : x y z
#
# Youngs Moduli (GPa) = 45.37787 23.15765 109.60145
#
# Poissons Ratio (x) = 0.03935 0.63785
# Poissons Ratio (y) = 0.07711 0.95407
# Poissons Ratio (z) = 0.26409 0.20158
#
# Static dielectric constant tensor:
#      x y z
#    x 2.151310 -0.060320 -0.140510 
#    y -0.060320 2.210610 -0.025240 
#    z -0.140510 -0.025240 2.176300 
# 
# From -- ./inp_files/331503.got.cif
#   From: 2010.05.17/outbox.cif.g08.bks.cpg/sg2_166_cif.got.tgz:331503.got - 2010.06.03 11:33:40.
