data_PCOD9097764
_publ_section_title
;
Structure prediction by ZEFSAII (Michael W. Deem and Ramdas Pophale) SiO2 
 PCOD9097764
Probable space group: P -1
;
_chemical_formula_sum "Si O2"
_cell_formula_units_Z 14
_cell_length_a 29.484795
_cell_length_b 24.114944
_cell_length_c 8.545161
_cell_angle_alpha 152.052987
_cell_angle_beta 28.816064
_cell_angle_gamma 169.128037
_cell_volume 534.498319
_symmetry_space_group_name_H-M "P -1"
_symmetry_group_IT_number 2
_symmetry_cell_setting 'triclinic'
loop_
_space_group_symop_operation_xyz
x,y,z
-x,-y,-z
loop_
_atom_site_type_symbol
_atom_site_label
_atom_site_fract_x
_atom_site_fract_y
_atom_site_fract_z
Si Si1 0.873313 0.828746 0.122250
Si Si2 0.371819 0.752237 0.659636
Si Si3 0.226825 0.713079 0.441568
Si Si4 0.771120 0.764772 0.713256
Si Si5 0.390378 0.658077 0.678353
Si Si6 0.589127 0.716003 0.642258
Si Si7 0.172737 0.810627 0.118672
O O1 0.791380 0.873088 0.509839
O O2 0.622299 0.487524 0.106499
O O3 0.083775 0.997357 0.997974
O O4 0.000000 0.000000 0.000000
O O5 0.350489 0.620136 0.519136
O O6 0.104267 0.480568 0.749757
O O7 0.543410 0.953240 0.493756
O O8 0.500000 0.000000 0.000000
O O9 0.000000 0.500000 0.500000
O O10 0.199920 0.717449 0.713516
O O11 0.255466 0.608471 0.052960
O O12 0.686700 0.553827 0.542036
O O13 0.548490 0.528568 0.681204
O O14 0.000000 0.000000 0.500000
O O15 0.670312 0.001898 0.732521
O O16 0.711239 0.961059 0.785386
#
# Coordination Sequence:
#
# PCOD9097764 Si02
#       7
#     2   2   2   2   2   2   2
#     4  10  20  36  62  86 115 154 199 243 297 347
#     4  10  21  38  57  83 120 154 200 246 292 344
#     4  11  22  39  60  88 121 154 201 245 293 355
#     4   9  19  38  62  84 121 154 193 243 294 349
#     4  10  21  38  62  88 118 163 195 242 303 343
#     4   9  21  37  57  87 116 158 193 243 297 345
#     4  11  21  39  60  84 124 157 200 242 292 358
#
# _framework density 26.192788
#
# number of rings (size 3 to 8) (size 9 to 14) (size 15 to 20)
#    0.000    2.000    2.857    1.286    0.000    5.143 
#    2.571    0.000    6.286    0.000    0.000    0.000 
#    0.000    0.000    0.000    0.000    0.000    0.000 
#
# Total GULP energy -78159.362999 kJ/mol
# GULP energy per Si atom -5582.811643 kJ/mol
# Density = 2.613317 g / cm^3
# Si number density = 26.192788 Si / 1000 Ang^3
#
#
#
# Elastic Constant Matrix: (Units=GPa)
#
#
# Indices 1 2 3 4 5 6 
#
# 1 100.7703 33.9126 10.8021 -20.1984 5.6707 2.4896
# 2 33.9126 175.8852 40.3189 -35.5629 10.0817 4.5747
# 3 10.8021 40.3189 53.8347 -16.2551 2.8793 2.5184
# 4 -20.1984 -35.5629 -16.2551 28.9574 -15.3613 -4.2228
# 5 5.6707 10.0817 2.8793 -15.3613 31.2519 3.2304
# 6 2.4896 4.5747 2.5184 -4.2228 3.2304 65.9656
#
#
#
# Elastic Compliance Matrix: (Units=1/GPa)
#
#
# Indices 1 2 3 4 5 6 
#
# 1 0.011767 -0.000771 0.000810 0.009034 0.002476 0.000036
# 2 -0.000771 0.008299 -0.003517 0.008807 0.002111 0.000048
# 3 0.000810 -0.003517 0.024616 0.012675 0.004966 -0.000158
# 4 0.009034 0.008807 0.012675 0.075672 0.031353 0.001873
# 5 0.002476 0.002111 0.004966 0.031353 0.045891 -0.000670
# 6 0.000036 0.000048 -0.000158 0.001873 -0.000670 0.015313
#
#
# Mechanical properties :
#
#
# Convention : Reuss Voigt Hill
#
# Bulk Modulus (GPa) = 26.50652 55.61748 41.06200
# Shear Modulus (GPa) = 24.86489 41.59877 33.23183
#
# Velocity S-wave (km/s) = 3.08442 3.98952 3.56580
# Velocity P-wave (km/s) = 4.77772 6.51933 5.71525
#
# Compressibility (1/GPa) = 0.03772657
#
# Stress axis : x y z
#
# Youngs Moduli (GPa) = 84.98552 120.50134 40.62465
#
# Poissons Ratio (x) = 0.09285 -0.03290
# Poissons Ratio (y) = 0.06548 0.14286
# Poissons Ratio (z) = -0.06883 0.42375
#
# Static dielectric constant tensor:
#      x y z
#    x 2.104980 0.052270 0.058720 
#    y 0.052270 2.102580 0.103690 
#    z 0.058720 0.103690 2.222000 
# 
# From -- ./inp_files/313954.got.cif
#   From: 2010.05.17/outbox.cif.g08.bks.cpg/sg2_157_cif.got.tgz:313954.got - 2010.06.03 11:33:40.
