data_PCOD9097679
_publ_section_title
;
Structure prediction by ZEFSAII (Michael W. Deem and Ramdas Pophale) SiO2 
 PCOD9097679
Probable space group: P -1
;
_chemical_formula_sum "Si O2"
_cell_formula_units_Z 16
_cell_length_a 21.604154
_cell_length_b 12.061718
_cell_length_c 18.818460
_cell_angle_alpha 151.892072
_cell_angle_beta 16.855238
_cell_angle_gamma 144.439492
_cell_volume 652.794275
_symmetry_space_group_name_H-M "P -1"
_symmetry_group_IT_number 2
_symmetry_cell_setting 'triclinic'
loop_
_space_group_symop_operation_xyz
x,y,z
-x,-y,-z
loop_
_atom_site_type_symbol
_atom_site_label
_atom_site_fract_x
_atom_site_fract_y
_atom_site_fract_z
Si Si1 0.587447 0.785946 0.012071
Si Si2 0.966473 0.191069 0.957047
Si Si3 0.665193 0.103835 0.781428
Si Si4 0.805803 0.698360 0.861115
Si Si5 0.961826 0.433622 0.672891
Si Si6 0.613073 0.612009 0.626967
Si Si7 0.205042 0.439917 0.918923
Si Si8 0.726830 0.291608 0.132419
O O1 0.602549 0.723713 0.044073
O O2 0.791568 0.600139 0.645083
O O3 0.377970 0.818606 0.209549
O O4 0.655923 0.040795 0.072649
O O5 0.828624 0.405203 0.278117
O O6 0.896834 0.282580 0.005814
O O7 0.199207 0.205044 0.743709
O O8 0.889640 0.945336 0.910926
O O9 0.885730 0.180020 0.606283
O O10 0.646841 0.830860 0.662841
O O11 0.480778 0.262956 0.125739
O O12 0.794562 0.609827 0.903483
O O13 0.000000 0.500000 0.500000
O O14 0.923212 0.525190 0.846429
O O15 0.444688 0.464337 0.695991
O O16 0.155191 0.660936 0.042746
O O17 0.500000 0.500000 0.500000
#
# Coordination Sequence:
#
# PCOD9097679 Si02
#       8
#     2   2   2   2   2   2   2   2
#     4  10  20  39  63  85 118 160 198 245 295 352
#     4  11  22  39  65  85 120 164 198 243 308 350
#     4  10  20  36  61  93 126 158 190 244 306 354
#     4   9  22  45  60  85 119 156 210 254 285 356
#     4  10  23  40  62  88 120 159 207 245 292 352
#     4  10  21  37  58  95 131 150 192 248 301 364
#     4  11  22  38  60  93 122 153 197 246 302 359
#     4  11  21  39  57  88 129 152 191 248 298 363
#
# _framework density 24.510020000000001
#
# number of rings (size 3 to 8) (size 9 to 14) (size 15 to 20)
#    0.000    1.750    2.500    1.125    1.750    1.500 
#    9.000    5.000    0.000    0.000    0.000    0.000 
#    0.000    0.000    0.000    0.000    0.000    0.000 
#
# Total GULP energy -89408.683368 kJ/mol
# GULP energy per Si atom -5588.042710 kJ/mol
# Density = 2.445423 g / cm^3
# Si number density = 24.510020 Si / 1000 Ang^3
#
#
#
# Elastic Constant Matrix: (Units=GPa)
#
#
# Indices 1 2 3 4 5 6 
#
# 1 215.7573 44.4795 20.3591 4.0421 7.6712 -1.3538
# 2 44.4795 69.4935 9.9301 11.8145 4.0241 -5.1324
# 3 20.3591 9.9301 60.6201 9.3788 6.6057 -19.2930
# 4 4.0421 11.8145 9.3788 28.8605 -4.2369 -2.6381
# 5 7.6712 4.0241 6.6057 -4.2369 22.3126 -3.7850
# 6 -1.3538 -5.1324 -19.2930 -2.6381 -3.7850 39.1911
#
#
#
# Elastic Compliance Matrix: (Units=1/GPa)
#
#
# Indices 1 2 3 4 5 6 
#
# 1 0.005518 -0.003496 -0.001707 0.001000 -0.000760 -0.001114
# 2 -0.003496 0.018151 0.000180 -0.007337 -0.003257 0.001536
# 3 -0.001707 0.000180 0.021789 -0.006844 -0.005552 0.009694
# 4 0.001000 -0.007337 -0.006844 0.041273 0.010762 -0.000478
# 5 -0.000760 -0.003257 -0.005552 0.010762 0.049751 0.002344
# 6 -0.001114 0.001536 0.009694 -0.000478 0.002344 0.030645
#
#
# Mechanical properties :
#
#
# Convention : Reuss Voigt Hill
#
# Bulk Modulus (GPa) = 28.23866 55.04538 41.64202
# Shear Modulus (GPa) = 26.45814 36.14632 31.30223
#
# Velocity S-wave (km/s) = 3.28911 3.84442 3.57756
# Velocity P-wave (km/s) = 5.09614 6.49717 5.83883
#
# Compressibility (1/GPa) = 0.03541244
#
# Stress axis : x y z
#
# Youngs Moduli (GPa) = 181.22737 55.09263 45.89483
#
# Poissons Ratio (x) = 0.19261 0.07833
# Poissons Ratio (y) = 0.63358 -0.00826
# Poissons Ratio (z) = 0.30930 -0.00991
#
# Static dielectric constant tensor:
#      x y z
#    x 1.985190 0.061490 -0.073500 
#    y 0.061490 1.980490 -0.104500 
#    z -0.073500 -0.104500 2.092170 
# 
# From -- ./inp_files/454343.got.cif
#   From: 2010.05.17/outbox.cif.g08.bks.cpg/sg2_228_cif.got.tgz:454343.got - 2010.06.03 11:33:40.
