data_PCOD9097478
_publ_section_title
;
Structure prediction by ZEFSAII (Michael W. Deem and Ramdas Pophale) SiO2 
 PCOD9097478
Probable space group: P -1
;
_chemical_formula_sum "Si O2"
_cell_formula_units_Z 16
_cell_length_a 9.263336
_cell_length_b 9.331873
_cell_length_c 12.489647
_cell_angle_alpha 65.459716
_cell_angle_beta 100.367911
_cell_angle_gamma 137.117081
_cell_volume 654.716780
_symmetry_space_group_name_H-M "P -1"
_symmetry_group_IT_number 2
_symmetry_cell_setting 'triclinic'
loop_
_space_group_symop_operation_xyz
x,y,z
-x,-y,-z
loop_
_atom_site_type_symbol
_atom_site_label
_atom_site_fract_x
_atom_site_fract_y
_atom_site_fract_z
Si Si1 0.849391 0.259538 0.192023
Si Si2 0.261411 0.174184 0.667802
Si Si3 0.339856 0.013355 0.383307
Si Si4 0.289065 0.288137 0.413048
Si Si5 0.848614 0.708681 0.199219
Si Si6 0.658593 0.688172 0.812709
Si Si7 0.133310 0.386304 0.986490
Si Si8 0.168431 0.648901 0.623579
O O1 0.964462 0.383297 0.284712
O O2 0.981875 0.318912 0.084823
O O3 0.715561 0.994766 0.276622
O O4 0.762040 0.366383 0.117583
O O5 0.166792 0.176180 0.544416
O O6 0.499443 0.438904 0.624273
O O7 0.131621 0.128524 0.769872
O O8 0.351332 0.155586 0.434655
O O9 0.289829 0.083627 0.252391
O O10 0.580212 0.134287 0.370375
O O11 0.174145 0.751541 0.483462
O O12 0.215639 0.280176 0.286408
O O13 0.596600 0.518661 0.185384
O O14 0.868778 0.565992 0.316052
O O15 0.972556 0.776994 0.082942
O O16 0.711848 0.621205 0.938861
#
# Coordination Sequence:
#
# PCOD9097478 Si02
#       8
#     2   2   2   2   2   2   2   2
#     4  10  20  30  47  68  94 129 160 190 229 269
#     4  10  16  31  46  72  99 116 151 195 234 291
#     4   8  14  25  49  73  91 111 146 197 239 268
#     4   8  16  27  49  75  93 112 144 198 246 272
#     4   9  18  29  51  69  93 122 157 195 234 262
#     4   8  15  31  47  71  93 120 152 202 233 270
#     4  10  20  33  46  67  94 130 164 193 216 273
#     4   9  14  28  44  73  94 110 155 192 228 277
#
# _framework density 24.438048999999999
#
# number of rings (size 3 to 8) (size 9 to 14) (size 15 to 20)
#    0.750    2.250    2.500    0.375    0.000    0.500 
#    0.000    5.000    0.000    1.500    0.000    8.750 
#    0.000    0.000    0.000    0.000    0.000    0.000 
#
# Total GULP energy -89097.172994 kJ/mol
# GULP energy per Si atom -5568.573312 kJ/mol
# Density = 2.438243 g / cm^3
# Si number density = 24.438049 Si / 1000 Ang^3
#
#
#
# Elastic Constant Matrix: (Units=GPa)
#
#
# Indices 1 2 3 4 5 6 
#
# 1 66.2667 26.0557 37.2645 3.5266 6.3316 -20.4064
# 2 26.0557 101.4679 37.5488 -11.5208 19.6617 -19.8617
# 3 37.2645 37.5488 153.9001 12.1208 25.2910 -6.0272
# 4 3.5266 -11.5208 12.1208 42.6401 -12.3608 -0.3181
# 5 6.3316 19.6617 25.2910 -12.3608 48.9853 -0.3690
# 6 -20.4064 -19.8617 -6.0272 -0.3181 -0.3690 36.0101
#
#
#
# Elastic Compliance Matrix: (Units=1/GPa)
#
#
# Indices 1 2 3 4 5 6 
#
# 1 0.021513 -0.002065 -0.004225 -0.001046 0.000043 0.010336
# 2 -0.002065 0.013371 -0.002340 0.003643 -0.002929 0.005815
# 3 -0.004225 -0.002340 0.009019 -0.004086 -0.004219 -0.002255
# 4 -0.001046 0.003643 -0.004086 0.027967 0.007848 0.001060
# 5 0.000043 -0.002929 -0.004219 0.007848 0.025728 -0.001964
# 6 0.010336 0.005815 -0.002255 0.001060 -0.001964 0.036447
#
#
# Mechanical properties :
#
#
# Convention : Reuss Voigt Hill
#
# Bulk Modulus (GPa) = 37.53431 58.15253 47.84342
# Shear Modulus (GPa) = 31.21382 40.24481 35.72931
#
# Velocity S-wave (km/s) = 3.57776 4.06249 3.82781
# Velocity P-wave (km/s) = 5.69732 6.77146 6.25748
#
# Compressibility (1/GPa) = 0.02664229
#
# Stress axis : x y z
#
# Youngs Moduli (GPa) = 46.48384 74.78892 110.88192
#
# Poissons Ratio (x) = 0.15441 0.46850
# Poissons Ratio (y) = 0.09597 0.25949
# Poissons Ratio (z) = 0.19640 0.17503
#
# Static dielectric constant tensor:
#      x y z
#    x 2.023020 0.040540 -0.049040 
#    y 0.040540 1.946270 0.010140 
#    z -0.049040 0.010140 2.003810 
# 
# From -- ./inp_files/511690.got.cif
#   From: 2010.05.17/outbox.cif.g08.bks.cpg/sg2_256_cif.got.tgz:511690.got - 2010.06.03 11:33:40.
