data_PCOD9097920
_publ_section_title
;
Structure prediction by ZEFSAII (Michael W. Deem and Ramdas Pophale) SiO2 
 PCOD9097920
Probable space group: P -1
;
_chemical_formula_sum "Si O2"
_cell_formula_units_Z 16
_cell_length_a 18.150329
_cell_length_b 11.573678
_cell_length_c 11.930616
_cell_angle_alpha 102.291788
_cell_angle_beta 20.030316
_cell_angle_gamma 111.143493
_cell_volume 735.732013
_symmetry_space_group_name_H-M "P -1"
_symmetry_group_IT_number 2
_symmetry_cell_setting 'triclinic'
loop_
_space_group_symop_operation_xyz
x,y,z
-x,-y,-z
loop_
_atom_site_type_symbol
_atom_site_label
_atom_site_fract_x
_atom_site_fract_y
_atom_site_fract_z
Si Si1 0.829832 0.889262 0.380149
Si Si2 0.068600 0.343900 0.397156
Si Si3 0.096983 0.955826 0.459588
Si Si4 0.535978 0.616661 0.845112
Si Si5 0.946821 0.363251 0.824542
Si Si6 0.148414 0.644312 0.521858
Si Si7 0.311547 0.864692 0.680777
Si Si8 0.633513 0.076872 0.627222
O O1 0.603999 0.739724 0.688282
O O2 0.901006 0.965660 0.414820
O O3 0.751307 0.977812 0.433640
O O4 0.059975 0.869117 0.016115
O O5 0.923849 0.319373 0.717494
O O6 0.947563 0.379246 0.473003
O O7 0.059396 0.205073 0.346043
O O8 0.337598 0.469651 0.057293
O O9 0.000000 0.000000 0.500000
O O10 0.380853 0.997682 0.039563
O O11 0.791779 0.624006 0.511618
O O12 0.413036 0.650413 0.134107
O O13 0.976856 0.512800 0.811972
O O14 0.753737 0.258777 0.166564
O O15 0.184821 0.785489 0.541251
O O16 0.418068 0.872602 0.406783
O O17 0.500000 0.000000 0.500000
#
# Coordination Sequence:
#
# PCOD9097920 Si02
#       8
#     2   2   2   2   2   2   2   2
#     4  11  22  43  65  94 128 165 215 259 322 379
#     4  11  21  35  60  97 126 156 209 264 313 367
#     4  12  23  37  65 101 126 159 214 269 311 371
#     4  10  20  36  62  93 128 163 203 262 315 368
#     4  10  22  39  62  89 129 167 212 251 320 377
#     4  11  21  37  62  95 127 163 205 262 324 366
#     4  11  25  45  63  91 125 177 214 257 314 388
#     4  12  24  41  65  93 134 166 209 264 324 375
#
# _framework density 21.747047999999999
#
# number of rings (size 3 to 8) (size 9 to 14) (size 15 to 20)
#    0.000    1.000    2.500    7.500    1.750    1.500 
#    0.000    0.000    0.000    3.750    0.000    0.000 
#    0.000    0.000    0.000    0.000    0.000    0.000 
#
# Total GULP energy -89418.516422 kJ/mol
# GULP energy per Si atom -5588.657276 kJ/mol
# Density = 2.169755 g / cm^3
# Si number density = 21.747048 Si / 1000 Ang^3
#
#
#
# Elastic Constant Matrix: (Units=GPa)
#
#
# Indices 1 2 3 4 5 6 
#
# 1 99.4657 20.2474 1.6967 -24.1476 8.6496 -13.9980
# 2 20.2474 108.8638 17.3859 -38.9461 4.8248 -21.6526
# 3 1.6967 17.3859 39.1781 -23.7689 10.0063 -11.2091
# 4 -24.1476 -38.9461 -23.7689 34.7280 -8.1305 4.3749
# 5 8.6496 4.8248 10.0063 -8.1305 24.1203 -1.9743
# 6 -13.9980 -21.6526 -11.2091 4.3749 -1.9743 39.3449
#
#
#
# Elastic Compliance Matrix: (Units=1/GPa)
#
#
# Indices 1 2 3 4 5 6 
#
# 1 0.018246 0.007785 0.020394 0.032722 -0.004489 0.012722
# 2 0.007785 0.023327 0.020411 0.043474 0.000087 0.016593
# 3 0.020394 0.020411 0.078763 0.083986 -0.013230 0.030925
# 4 0.032722 0.043474 0.083986 0.152323 -0.000446 0.042534
# 5 -0.004489 0.000087 -0.013230 -0.000446 0.048156 -0.002852
# 6 0.012722 0.016593 0.030925 0.042534 -0.002852 0.043012
#
#
# Mechanical properties :
#
#
# Convention : Reuss Voigt Hill
#
# Bulk Modulus (GPa) = 4.59733 36.24087 20.41910
# Shear Modulus (GPa) = 14.74263 33.51716 24.12990
#
# Velocity S-wave (km/s) = 2.60650 3.93011 3.33464
# Velocity P-wave (km/s) = 3.34321 6.10698 4.92302
#
# Compressibility (1/GPa) = 0.21751737
#
# Stress axis : x y z
#
# Youngs Moduli (GPa) = 54.80676 42.86801 12.69625
#
# Poissons Ratio (x) = -0.33374 -0.25892
# Poissons Ratio (y) = -0.42668 -0.25915
# Poissons Ratio (z) = -1.11771 -0.87500
#
# Static dielectric constant tensor:
#      x y z
#    x 1.835560 -0.023970 0.016670 
#    y -0.023970 1.816240 0.006660 
#    z 0.016670 0.006660 1.809280 
# 
# From -- ./inp_files/239821.got.cif
#   From: 2010.05.17/outbox.cif.g08.bks.cpg/sg2_120_cif.got.tgz:239821.got - 2010.06.03 11:33:40.
