data_PCOD9097507
_publ_section_title
;
Structure prediction by ZEFSAII (Michael W. Deem and Ramdas Pophale) SiO2 
 PCOD9097507
Probable space group: P -1
;
_chemical_formula_sum "Si O2"
_cell_formula_units_Z 16
_cell_length_a 18.869013
_cell_length_b 10.397179
_cell_length_c 11.395703
_cell_angle_alpha 68.327609
_cell_angle_beta 133.613366
_cell_angle_gamma 147.860855
_cell_volume 714.759267
_symmetry_space_group_name_H-M "P -1"
_symmetry_group_IT_number 2
_symmetry_cell_setting 'triclinic'
loop_
_space_group_symop_operation_xyz
x,y,z
-x,-y,-z
loop_
_atom_site_type_symbol
_atom_site_label
_atom_site_fract_x
_atom_site_fract_y
_atom_site_fract_z
Si Si1 0.242012 0.273891 0.695007
Si Si2 0.213248 0.893469 0.156090
Si Si3 0.655688 0.898529 0.031832
Si Si4 0.522699 0.505850 0.343275
Si Si5 0.824145 0.731280 0.740211
Si Si6 0.269691 0.680789 0.213431
Si Si7 0.337482 0.800117 0.986729
Si Si8 0.780241 0.643937 0.995538
O O1 0.403191 0.575914 0.846008
O O2 0.342418 0.392113 0.641239
O O3 0.272503 0.159107 0.820305
O O4 0.000000 0.000000 0.500000
O O5 0.302338 0.848730 0.283415
O O6 0.251512 0.970798 0.036130
O O7 0.332267 0.165431 0.262741
O O8 0.971409 0.597314 0.006546
O O9 0.734028 0.129577 0.114121
O O10 0.679132 0.682018 0.569036
O O11 0.437994 0.547769 0.188585
O O12 0.730069 0.469722 0.676465
O O13 0.831593 0.711865 0.893410
O O14 0.051558 0.053213 0.848662
O O15 0.394508 0.846165 0.176479
O O16 0.207428 0.500856 0.908960
O O17 0.500000 0.000000 0.000000
#
# Coordination Sequence:
#
# PCOD9097507 Si02
#       8
#     2   2   2   2   2   2   2   2
#     4  10  22  36  58  87 115 149 190 233 288 348
#     4   9  18  34  59  83 114 145 191 239 292 335
#     4   9  20  39  59  82 116 153 187 238 288 337
#     4  11  21  34  58  87 114 150 194 239 285 340
#     4  10  21  35  60  83 116 150 190 237 289 334
#     4   9  18  35  57  85 112 149 188 236 290 344
#     4  10  20  36  61  82 110 156 193 228 284 343
#     4  10  21  39  56  84 117 151 194 233 281 344
#
# _framework density 22.385159999999999
#
# number of rings (size 3 to 8) (size 9 to 14) (size 15 to 20)
#    0.000    2.250    1.250    1.125    1.750    2.500 
#    0.000    1.250    0.000    3.000    0.000    0.000 
#    0.000    0.000    0.000    0.000    0.000    0.000 
#
# Total GULP energy -89148.681259 kJ/mol
# GULP energy per Si atom -5571.792579 kJ/mol
# Density = 2.233421 g / cm^3
# Si number density = 22.385160 Si / 1000 Ang^3
#
#
#
# Elastic Constant Matrix: (Units=GPa)
#
#
# Indices 1 2 3 4 5 6 
#
# 1 91.6272 31.4815 17.5047 -0.1779 11.8893 -12.4835
# 2 31.4815 97.8708 43.4909 2.9646 2.8425 -5.3293
# 3 17.5047 43.4909 65.1675 7.1262 24.1713 -9.3672
# 4 -0.1779 2.9646 7.1262 25.3855 3.0384 5.3971
# 5 11.8893 2.8425 24.1713 3.0384 21.4044 2.0109
# 6 -12.4835 -5.3293 -9.3672 5.3971 2.0109 32.1044
#
#
#
# Elastic Compliance Matrix: (Units=1/GPa)
#
#
# Indices 1 2 3 4 5 6 
#
# 1 0.015700 -0.008518 0.010322 -0.001361 -0.019916 0.009179
# 2 -0.008518 0.023606 -0.027576 0.003080 0.033243 -0.010040
# 3 0.010322 -0.027576 0.063139 -0.010726 -0.074134 0.024305
# 4 -0.001361 0.003080 -0.010726 0.043479 0.007313 -0.010915
# 5 -0.019916 0.033243 -0.074134 0.007313 0.139222 -0.033806
# 6 0.009179 -0.010040 0.024305 -0.010915 -0.033806 0.044095
#
#
# Mechanical properties :
#
#
# Convention : Reuss Voigt Hill
#
# Bulk Modulus (GPa) = 19.64532 48.84663 34.24597
# Shear Modulus (GPa) = 12.57061 26.59143 19.58102
#
# Velocity S-wave (km/s) = 2.37230 3.45034 2.96080
# Velocity P-wave (km/s) = 4.03718 6.14341 5.19809
#
# Compressibility (1/GPa) = 0.05090270
#
# Stress axis : x y z
#
# Youngs Moduli (GPa) = 63.69231 42.36211 15.83796
#
# Poissons Ratio (x) = 0.36083 -0.16349
# Poissons Ratio (y) = 0.54252 0.43675
# Poissons Ratio (z) = -0.65746 1.16819
#
# Static dielectric constant tensor:
#      x y z
#    x 1.916550 -0.033440 -0.023780 
#    y -0.033440 1.884500 0.005140 
#    z -0.023780 0.005140 1.888530 
# 
# From -- ./inp_files/471181.got.cif
#   From: 2010.05.17/outbox.cif.g08.bks.cpg/sg2_236_cif.got.tgz:471181.got - 2010.06.03 11:33:40.
