data_PCOD9097050
_publ_section_title
;
Structure prediction by ZEFSAII (Michael W. Deem and Ramdas Pophale) SiO2 
 PCOD9097050
Probable space group: P -1
;
_chemical_formula_sum "Si O2"
_cell_formula_units_Z 16
_cell_length_a 6.559905
_cell_length_b 22.809421
_cell_length_c 8.465438
_cell_angle_alpha 74.076634
_cell_angle_beta 72.396029
_cell_angle_gamma 132.115178
_cell_volume 660.902446
_symmetry_space_group_name_H-M "P -1"
_symmetry_group_IT_number 2
_symmetry_cell_setting 'triclinic'
loop_
_space_group_symop_operation_xyz
x,y,z
-x,-y,-z
loop_
_atom_site_type_symbol
_atom_site_label
_atom_site_fract_x
_atom_site_fract_y
_atom_site_fract_z
Si Si1 0.262067 0.222540 0.306766
Si Si2 0.469395 0.774172 0.442271
Si Si3 0.716160 0.477963 0.498716
Si Si4 0.067123 0.226852 0.817577
Si Si5 0.156819 0.909609 0.771706
Si Si6 0.509113 0.089974 0.757297
Si Si7 0.708968 0.545231 0.157526
Si Si8 0.315598 0.371761 0.153187
O O1 0.447868 0.227857 0.397294
O O2 0.425409 0.327564 0.161561
O O3 0.201962 0.170119 0.200656
O O4 0.863283 0.151238 0.523679
O O5 0.638645 0.758538 0.311752
O O6 0.648083 0.881521 0.280153
O O7 0.030700 0.690189 0.605805
O O8 0.326261 0.348400 0.655984
O O9 0.896296 0.549137 0.246843
O O10 0.643746 0.515530 0.609978
O O11 0.000000 0.500000 0.500000
O O12 0.709920 0.141719 0.843357
O O13 0.897063 0.168127 0.071210
O O14 0.500000 0.000000 0.500000
O O15 0.214951 0.969889 0.857840
O O16 0.656175 0.489435 0.061043
O O17 0.804372 0.631416 0.987476
#
# Coordination Sequence:
#
# PCOD9097050 Si02
#       8
#     2   2   2   2   2   2   2   2
#     4   9  19  36  58  84 116 149 190 238 290 348
#     4  10  20  36  59  85 115 155 198 236 289 350
#     4  11  23  39  59  88 122 156 197 246 294 345
#     4  11  22  39  62  85 117 159 199 240 293 354
#     4  10  21  39  61  88 120 154 194 245 298 347
#     4   9  20  38  60  83 114 156 195 239 290 345
#     4  10  22  37  58  85 117 154 201 245 290 349
#     4  10  20  38  59  84 117 157 197 243 292 343
#
# _framework density 24.209322
#
# number of rings (size 3 to 8) (size 9 to 14) (size 15 to 20)
#    0.000    2.000    0.000    4.125    0.000    4.000 
#    0.000    8.125    0.000    0.000    0.000    0.000 
#    0.000    0.000    0.000    0.000    0.000    0.000 
#
# Total GULP energy -89103.935643 kJ/mol
# GULP energy per Si atom -5568.995978 kJ/mol
# Density = 2.415422 g / cm^3
# Si number density = 24.209322 Si / 1000 Ang^3
#
#
#
# Elastic Constant Matrix: (Units=GPa)
#
#
# Indices 1 2 3 4 5 6 
#
# 1 107.8777 28.0314 36.2995 -0.5639 18.6975 6.1533
# 2 28.0314 107.0207 24.7151 -1.7677 6.8318 -0.8498
# 3 36.2995 24.7151 100.7057 13.9364 16.5600 2.8279
# 4 -0.5639 -1.7677 13.9364 23.2387 -0.4929 16.6118
# 5 18.6975 6.8318 16.5600 -0.4929 39.9909 0.8351
# 6 6.1533 -0.8498 2.8279 16.6118 0.8351 10.3457
#
#
#
# Elastic Compliance Matrix: (Units=1/GPa)
#
#
# Indices 1 2 3 4 5 6 
#
# 1 0.008646 -0.002183 0.000427 -0.022323 -0.004765 0.030789
# 2 -0.002183 0.010369 -0.001861 0.000342 -0.000020 0.002112
# 3 0.000427 -0.001861 0.008497 0.023379 -0.002275 -0.040085
# 4 -0.022323 0.000342 0.023379 -0.155837 -0.006604 0.257672
# 5 -0.004765 -0.000020 -0.002275 -0.006604 0.027851 0.011810
# 6 0.030789 0.002112 -0.040085 0.257672 0.011810 -0.325215
#
#
# Mechanical properties :
#
#
# Convention : Reuss Voigt Hill
#
# Bulk Modulus (GPa) = 49.31379 54.85510 52.08445
# Shear Modulus (GPa) = -12.14492 29.81894 8.83701
#
# Velocity S-wave (km/s) = -2.24221 3.51338 1.91264
# Velocity P-wave (km/s) = 3.70278 6.25830 5.14184
#
# Compressibility (1/GPa) = 0.02027830
#
# Stress axis : x y z
#
# Youngs Moduli (GPa) = 115.65776 96.43783 117.68807
#
# Poissons Ratio (x) = 0.21056 -0.05030
# Poissons Ratio (y) = 0.25253 0.21904
# Poissons Ratio (z) = -0.04944 0.17949
#
# Static dielectric constant tensor:
#      x y z
#    x 1.945400 0.033220 0.018820 
#    y 0.033220 2.038320 -0.077040 
#    z 0.018820 -0.077040 2.043750 
# 
# From -- ./inp_files/37612.got.cif
#   From: 2010.05.17/outbox.cif.g08.bks.cpg/sg2_19_cif.got.tgz:37612.got - 2010.06.03 11:33:40.
