data_PCOD9097874
_publ_section_title
;
Structure prediction by ZEFSAII (Michael W. Deem and Ramdas Pophale) SiO2 
 PCOD9097874
Probable space group: P -1
;
_chemical_formula_sum "Si O2"
_cell_formula_units_Z 16
_cell_length_a 6.409369
_cell_length_b 18.456421
_cell_length_c 8.651912
_cell_angle_alpha 129.203298
_cell_angle_beta 96.320996
_cell_angle_gamma 80.949691
_cell_volume 783.145006
_symmetry_space_group_name_H-M "P -1"
_symmetry_group_IT_number 2
_symmetry_cell_setting 'triclinic'
loop_
_space_group_symop_operation_xyz
x,y,z
-x,-y,-z
loop_
_atom_site_type_symbol
_atom_site_label
_atom_site_fract_x
_atom_site_fract_y
_atom_site_fract_z
Si Si1 0.423889 0.388808 0.191647
Si Si2 0.760584 0.408862 0.505945
Si Si3 0.375082 0.932916 0.006771
Si Si4 0.351263 0.079963 0.687778
Si Si5 0.935672 0.115821 0.859275
Si Si6 0.160801 0.279681 0.263904
Si Si7 0.565978 0.227913 0.771265
Si Si8 0.571381 0.240997 0.430493
O O1 0.625694 0.410028 0.337931
O O2 0.276535 0.486312 0.288572
O O3 0.298152 0.319932 0.192941
O O4 0.509274 0.332475 0.972099
O O5 0.659985 0.335682 0.509922
O O6 0.995834 0.364841 0.426667
O O7 0.326927 0.846346 0.780425
O O8 0.542155 0.903791 0.116531
O O9 0.164713 0.954897 0.125129
O O10 0.500000 0.000000 0.000000
O O11 0.363142 0.172575 0.712607
O O12 0.116645 0.064594 0.695753
O O13 0.500000 0.000000 0.500000
O O14 0.754326 0.172450 0.813846
O O15 0.036693 0.196312 0.074719
O O16 0.324892 0.247091 0.369586
O O17 0.612087 0.224283 0.590347
#
# Coordination Sequence:
#
# PCOD9097874 Si02
#       8
#     2   2   2   2   2   2   2   2
#     4  10  20  36  62  91 121 162 208 257 301 365
#     4  10  20  37  62  89 121 164 209 250 309 367
#     4  11  23  41  63  92 125 158 207 257 307 371
#     4  11  23  43  64  91 125 158 209 257 306 371
#     4  11  21  42  69  87 121 169 204 253 310 370
#     4  11  18  40  64  90 117 162 212 250 306 367
#     4  11  23  39  61  90 128 161 204 255 311 364
#     4  11  23  39  59  91 127 160 199 263 307 359
#
# _framework density 20.430443
#
# number of rings (size 3 to 8) (size 9 to 14) (size 15 to 20)
#    0.000    1.250    5.000    2.625    0.000    4.000 
#    0.000    0.625    0.000    0.000    0.000    0.000 
#    0.000    0.000    0.000    0.000    0.000    0.000 
#
# Total GULP energy -89295.894934 kJ/mol
# GULP energy per Si atom -5580.993433 kJ/mol
# Density = 2.038394 g / cm^3
# Si number density = 20.430443 Si / 1000 Ang^3
#
#
#
# Elastic Constant Matrix: (Units=GPa)
#
#
# Indices 1 2 3 4 5 6 
#
# 1 99.7050 10.4083 32.1854 -6.5195 -25.9051 3.9735
# 2 10.4083 66.1538 40.6304 -6.4768 -7.5866 9.2163
# 3 32.1854 40.6304 117.8170 -7.3552 -18.3584 4.2017
# 4 -6.5195 -6.4768 -7.3552 31.5191 0.3908 4.1333
# 5 -25.9051 -7.5866 -18.3584 0.3908 35.4449 1.5379
# 6 3.9735 9.2163 4.2017 4.1333 1.5379 19.2524
#
#
#
# Elastic Compliance Matrix: (Units=1/GPa)
#
#
# Indices 1 2 3 4 5 6 
#
# 1 0.013338 0.001232 -0.002345 0.002901 0.008946 -0.004168
# 2 0.001232 0.021071 -0.006606 0.004328 0.002376 -0.010019
# 3 -0.002345 -0.006606 0.011902 0.000815 0.003000 0.000634
# 4 0.002901 0.004328 0.000815 0.034751 0.003545 -0.010592
# 5 0.008946 0.002376 0.003000 0.003545 0.037094 -0.007363
# 6 -0.004168 -0.010019 0.000634 -0.010592 -0.007363 0.060322
#
#
# Mechanical properties :
#
#
# Convention : Reuss Voigt Hill
#
# Bulk Modulus (GPa) = 32.38828 50.01377 41.20102
# Shear Modulus (GPa) = 24.48496 30.60674 27.54585
#
# Velocity S-wave (km/s) = 3.46563 3.87472 3.67587
# Velocity P-wave (km/s) = 5.64814 6.67466 6.18274
#
# Compressibility (1/GPa) = 0.03087537
#
# Stress axis : x y z
#
# Youngs Moduli (GPa) = 74.97311 47.45764 84.01867
#
# Poissons Ratio (x) = -0.05849 0.19702
# Poissons Ratio (y) = -0.09239 0.55499
# Poissons Ratio (z) = 0.17581 0.31348
#
# Static dielectric constant tensor:
#      x y z
#    x 1.791560 0.013550 -0.007290 
#    y 0.013550 1.723630 0.034610 
#    z -0.007290 0.034610 1.735560 
# 
# From -- ./inp_files/46546.got.cif
#   From: 2010.05.17/outbox.cif.g08.bks.cpg/sg2_24_cif.got.tgz:46546.got - 2010.06.03 11:33:40.
