data_PCOD9097716
_publ_section_title
;
Structure prediction by ZEFSAII (Michael W. Deem and Ramdas Pophale) SiO2 
 PCOD9097716
Probable space group: P -1
;
_chemical_formula_sum "Si O2"
_cell_formula_units_Z 16
_cell_length_a 11.656502
_cell_length_b 16.781373
_cell_length_c 20.192505
_cell_angle_alpha 19.754430
_cell_angle_beta 29.708864
_cell_angle_gamma 34.909921
_cell_volume 661.548211
_symmetry_space_group_name_H-M "P -1"
_symmetry_group_IT_number 2
_symmetry_cell_setting 'triclinic'
loop_
_space_group_symop_operation_xyz
x,y,z
-x,-y,-z
loop_
_atom_site_type_symbol
_atom_site_label
_atom_site_fract_x
_atom_site_fract_y
_atom_site_fract_z
Si Si1 0.320201 0.369610 0.892806
Si Si2 0.889274 0.761595 0.267223
Si Si3 0.569777 0.272935 0.242446
Si Si4 0.940115 0.136378 0.356226
Si Si5 0.921048 0.876528 0.912280
Si Si6 0.275998 0.376427 0.679508
Si Si7 0.310421 0.456672 0.348233
Si Si8 0.880403 0.754957 0.573987
O O1 0.227855 0.639632 0.722495
O O2 0.582991 0.373663 0.782349
O O3 0.259680 0.237377 0.959238
O O4 0.167867 0.240463 0.125913
O O5 0.723639 0.679361 0.354990
O O6 0.764768 0.770992 0.393726
O O7 0.097617 0.575008 0.323632
O O8 0.000000 0.000000 0.000000
O O9 0.515718 0.399291 0.239796
O O10 0.365481 0.358837 0.229469
O O11 0.837917 0.276172 0.088520
O O12 0.500000 0.000000 0.500000
O O13 0.845693 0.952839 0.492917
O O14 0.000000 0.000000 0.500000
O O15 0.798188 0.854579 0.061482
O O16 0.008083 0.116641 0.647175
O O17 0.500000 0.500000 0.500000
O O18 0.070050 0.564205 0.648004
#
# Coordination Sequence:
#
# PCOD9097716 Si02
#       8
#     2   2   2   2   2   2   2   2
#     4  10  20  38  61  98 131 174 216 263 345 399
#     4  11  28  45  67  97 130 185 238 278 337 399
#     4  10  20  39  68  98 131 171 210 271 344 396
#     4  10  20  36  61  97 137 167 216 269 333 414
#     4  10  23  40  68 100 135 169 216 277 339 407
#     4  12  26  46  67  96 133 177 235 279 328 402
#     4  11  23  45  68  91 139 174 223 286 329 412
#     4  10  22  40  62  96 130 174 217 269 345 391
#
# _framework density 24.185690999999998
#
# number of rings (size 3 to 8) (size 9 to 14) (size 15 to 20)
#    0.000    1.500    1.250    4.500    3.500    4.000 
#    2.250    0.000    0.000    0.000    0.000    0.000 
#    0.000    0.000    0.000    0.000    0.000    0.000 
#
# Total GULP energy -89523.816320 kJ/mol
# GULP energy per Si atom -5595.238520 kJ/mol
# Density = 2.413064 g / cm^3
# Si number density = 24.185691 Si / 1000 Ang^3
#
#
#
# Elastic Constant Matrix: (Units=GPa)
#
#
# Indices 1 2 3 4 5 6 
#
# 1 161.3342 20.0656 68.0569 6.0424 -0.0744 -7.0441
# 2 20.0656 29.1481 19.0841 -3.7872 14.5000 1.2518
# 3 68.0569 19.0841 101.5797 9.0042 21.9669 2.1104
# 4 6.0424 -3.7872 9.0042 29.6189 1.3019 -1.5163
# 5 -0.0744 14.5000 21.9669 1.3019 53.0456 4.2223
# 6 -7.0441 1.2518 2.1104 -1.5163 4.2223 29.5095
#
#
#
# Elastic Compliance Matrix: (Units=1/GPa)
#
#
# Indices 1 2 3 4 5 6 
#
# 1 0.009563 -0.004433 -0.006366 -0.000623 0.003688 0.002366
# 2 -0.004433 0.046812 -0.004142 0.008608 -0.011243 -0.000697
# 3 -0.006366 -0.004142 0.016468 -0.004098 -0.005440 -0.001954
# 4 -0.000623 0.008608 -0.004098 0.036407 -0.001701 0.001893
# 5 0.003688 -0.011243 -0.005440 -0.001701 0.024370 -0.001828
# 6 0.002366 -0.000697 -0.001954 0.001893 -0.001828 0.034980
#
#
# Mechanical properties :
#
#
# Convention : Reuss Voigt Hill
#
# Bulk Modulus (GPa) = 23.27648 56.27504 39.77576
# Shear Modulus (GPa) = 23.49575 34.75850 29.12712
#
# Velocity S-wave (km/s) = 3.12023 3.79509 3.47409
# Velocity P-wave (km/s) = 4.75669 6.52089 5.70737
#
# Compressibility (1/GPa) = 0.04296182
#
# Stress axis : x y z
#
# Youngs Moduli (GPa) = 104.56462 21.36199 60.72321
#
# Poissons Ratio (x) = 0.09470 0.38657
# Poissons Ratio (y) = 0.46352 0.25152
# Poissons Ratio (z) = 0.66567 0.08848
#
# Static dielectric constant tensor:
#      x y z
#    x 1.987340 0.001480 0.007880 
#    y 0.001480 1.924980 -0.005670 
#    z 0.007880 -0.005670 1.934850 
# 
# From -- ./inp_files/595920.got.cif
#   From: 2010.05.17/outbox.cif.g08.bks.cpg/sg2_298_cif.got.tgz:595920.got - 2010.06.03 11:33:40.
