data_PCOD9097487
_publ_section_title
;
Structure prediction by ZEFSAII (Michael W. Deem and Ramdas Pophale) SiO2 
 PCOD9097487
Probable space group: P -1
;
_chemical_formula_sum "Si O2"
_cell_formula_units_Z 14
_cell_length_a 16.773316
_cell_length_b 9.363943
_cell_length_c 20.694673
_cell_angle_alpha 144.188515
_cell_angle_beta 17.847999
_cell_angle_gamma 142.221828
_cell_volume 579.810370
_symmetry_space_group_name_H-M "P -1"
_symmetry_group_IT_number 2
_symmetry_cell_setting 'triclinic'
loop_
_space_group_symop_operation_xyz
x,y,z
-x,-y,-z
loop_
_atom_site_type_symbol
_atom_site_label
_atom_site_fract_x
_atom_site_fract_y
_atom_site_fract_z
Si Si1 0.570430 0.222358 0.218417
Si Si2 0.059402 0.898519 0.486906
Si Si3 0.431901 0.259636 0.545153
Si Si4 0.053463 0.893004 0.213424
Si Si5 0.957449 0.895141 0.101538
Si Si6 0.885495 0.392687 0.482621
Si Si7 0.709349 0.800186 0.128155
O O1 0.458059 0.475462 0.416202
O O2 0.363216 0.986262 0.299626
O O3 0.693736 0.216661 0.049803
O O4 0.818313 0.215568 0.071445
O O5 0.979598 0.607755 0.439889
O O6 0.000000 0.000000 0.500000
O O7 0.926056 0.022777 0.697064
O O8 0.212706 0.273230 0.662857
O O9 0.287589 0.122315 0.667688
O O10 0.629072 0.078527 0.300464
O O11 0.010961 0.135574 0.291524
O O12 0.852051 0.748356 0.065281
O O13 0.087326 0.161569 0.073855
O O14 0.571295 0.352496 0.716601
O O15 0.000000 0.500000 0.500000
#
# Coordination Sequence:
#
# PCOD9097487 Si02
#       7
#     2   2   2   2   2   2   2
#     4  11  23  40  67  91 131 169 210 257 324 390
#     4  11  25  42  63  95 130 169 217 259 320 380
#     4  10  21  38  65  95 131 164 204 261 331 378
#     4   9  20  41  67  91 123 168 216 264 316 377
#     4  10  20  36  60  97 121 161 213 256 324 373
#     4   9  19  40  66  88 126 173 212 257 311 380
#     4  10  21  37  64  94 130 159 212 272 312 373
#
# _framework density 24.145826
#
# number of rings (size 3 to 8) (size 9 to 14) (size 15 to 20)
#    0.000    2.000    0.000    4.714    2.000    4.571 
#    0.000    4.286    6.286    0.000    0.000    0.000 
#    0.000    0.000    0.000    0.000    0.000    0.000 
#
# Total GULP energy -78173.621532 kJ/mol
# GULP energy per Si atom -5583.830109 kJ/mol
# Density = 2.409087 g / cm^3
# Si number density = 24.145826 Si / 1000 Ang^3
#
#
#
# Elastic Constant Matrix: (Units=GPa)
#
#
# Indices 1 2 3 4 5 6 
#
# 1 110.1980 34.8638 22.3395 -5.0690 13.1506 -4.1746
# 2 34.8638 118.9147 30.2204 -19.0583 4.7709 7.1184
# 3 22.3395 30.2204 51.9484 -25.1573 10.2170 1.3501
# 4 -5.0690 -19.0583 -25.1573 24.5899 4.9500 -1.8416
# 5 13.1506 4.7709 10.2170 4.9500 40.4752 -15.7174
# 6 -4.1746 7.1184 1.3501 -1.8416 -15.7174 40.5747
#
#
#
# Elastic Compliance Matrix: (Units=1/GPa)
#
#
# Indices 1 2 3 4 5 6 
#
# 1 0.010951 -0.002687 -0.005661 -0.005388 -0.000653 0.001289
# 2 -0.002687 0.010857 -0.001743 0.006232 -0.001699 -0.002498
# 3 -0.005661 -0.001743 0.055309 0.057918 -0.022130 -0.008061
# 4 -0.005388 0.006232 0.057918 0.109100 -0.031089 -0.010666
# 5 -0.000653 -0.001699 -0.022130 -0.031089 0.040414 0.015211
# 6 0.001289 -0.002498 -0.008061 -0.010666 0.015211 0.030893
#
#
# Mechanical properties :
#
#
# Convention : Reuss Voigt Hill
#
# Bulk Modulus (GPa) = 17.56404 50.65652 34.11028
# Shear Modulus (GPa) = 16.85293 34.03709 25.44501
#
# Velocity S-wave (km/s) = 2.64477 3.75860 3.24976
# Velocity P-wave (km/s) = 4.07631 6.31356 5.31401
#
# Compressibility (1/GPa) = 0.05693451
#
# Stress axis : x y z
#
# Youngs Moduli (GPa) = 91.31577 92.10993 18.08034
#
# Poissons Ratio (x) = 0.24746 0.10235
# Poissons Ratio (y) = 0.24533 0.03152
# Poissons Ratio (z) = 0.51694 0.16058
#
# Static dielectric constant tensor:
#      x y z
#    x 1.944090 -0.022200 0.040440 
#    y -0.022200 2.077400 0.014750 
#    z 0.040440 0.014750 1.965540 
# 
# From -- ./inp_files/599756.got.cif
#   From: 2010.05.17/outbox.cif.g08.bks.cpg/sg2_300_cif.got.tgz:599756.got - 2010.06.03 11:33:40.
