data_PCOD9097542
_publ_section_title
;
Structure prediction by ZEFSAII (Michael W. Deem and Ramdas Pophale) SiO2 
 PCOD9097542
Probable space group: P -1
;
_chemical_formula_sum "Si O2"
_cell_formula_units_Z 14
_cell_length_a 11.330931
_cell_length_b 7.028623
_cell_length_c 9.387127
_cell_angle_alpha 87.584387
_cell_angle_beta 50.782543
_cell_angle_gamma 80.120124
_cell_volume 568.454408
_symmetry_space_group_name_H-M "P -1"
_symmetry_group_IT_number 2
_symmetry_cell_setting 'triclinic'
loop_
_space_group_symop_operation_xyz
x,y,z
-x,-y,-z
loop_
_atom_site_type_symbol
_atom_site_label
_atom_site_fract_x
_atom_site_fract_y
_atom_site_fract_z
Si Si1 0.786252 0.806755 0.973504
Si Si2 0.520740 0.023333 0.649568
Si Si3 0.842261 0.139399 0.721226
Si Si4 0.874026 0.270405 0.184168
Si Si5 0.672005 0.409395 0.053834
Si Si6 0.396728 0.556632 0.436959
Si Si7 0.842245 0.951099 0.431985
O O1 0.941746 0.736835 0.951032
O O2 0.834903 0.930807 0.803042
O O3 0.644369 0.954028 0.151090
O O4 0.717807 0.618773 0.990773
O O5 0.573549 0.228558 0.626196
O O6 0.680484 0.879594 0.571658
O O7 0.500000 0.000000 0.500000
O O8 0.848285 0.104453 0.551113
O O9 0.702772 0.289718 0.889233
O O10 0.999935 0.199011 0.656932
O O11 0.788230 0.313370 0.096941
O O12 0.777312 0.422459 0.368375
O O13 0.853701 0.061231 0.270403
O O14 0.496139 0.428857 0.243559
O O15 0.500000 0.500000 0.500000
#
# Coordination Sequence:
#
# PCOD9097542 Si02
#       7
#     2   2   2   2   2   2   2
#     4  10  22  36  58  90 118 147 201 242 282 352
#     4  10  21  34  58  85 120 147 189 248 291 335
#     4  10  22  40  64  80 121 162 189 237 292 349
#     4   9  18  36  61  81 119 153 189 250 285 333
#     4  10  20  36  61  87 115 151 199 240 293 341
#     4   8  17  34  52  81 117 144 189 235 288 342
#     4   9  21  41  57  87 120 154 196 236 291 350
#
# _framework density 24.628184000000001
#
# number of rings (size 3 to 8) (size 9 to 14) (size 15 to 20)
#    0.000    2.571    0.000    0.429    8.000    1.714 
#    0.000   12.857    3.143    0.000    0.000    0.000 
#    0.000    0.000    0.000    0.000    0.000    0.000 
#
# Total GULP energy -78130.679924 kJ/mol
# GULP energy per Si atom -5580.762852 kJ/mol
# Density = 2.457213 g / cm^3
# Si number density = 24.628184 Si / 1000 Ang^3
#
#
#
# Elastic Constant Matrix: (Units=GPa)
#
#
# Indices 1 2 3 4 5 6 
#
# 1 79.4401 13.7118 30.0006 -9.1408 -28.7598 -9.5007
# 2 13.7118 50.0412 10.7464 -9.1284 -1.6806 7.8986
# 3 30.0006 10.7464 137.3902 18.8127 -23.0673 5.3767
# 4 -9.1408 -9.1284 18.8127 38.0620 -1.8760 -3.1449
# 5 -28.7598 -1.6806 -23.0673 -1.8760 46.5990 -1.2873
# 6 -9.5007 7.8986 5.3767 -3.1449 -1.2873 27.2172
#
#
#
# Elastic Compliance Matrix: (Units=1/GPa)
#
#
# Indices 1 2 3 4 5 6 
#
# 1 0.021227 -0.005053 -0.003694 0.007196 0.011684 0.010990
# 2 -0.005053 0.023662 -0.001558 0.004422 -0.003078 -0.007957
# 3 -0.003694 -0.001558 0.009520 -0.006141 0.002038 -0.003331
# 4 0.007196 0.004422 -0.006141 0.032774 0.003056 0.006373
# 5 0.011684 -0.003078 0.002038 0.003056 0.029866 0.006335
# 6 0.010990 -0.007957 -0.003331 0.006373 0.006335 0.044581
#
#
# Mechanical properties :
#
#
# Convention : Reuss Voigt Hill
#
# Bulk Modulus (GPa) = 29.58615 41.75433 35.67024
# Shear Modulus (GPa) = 25.83874 36.53650 31.18762
#
# Velocity S-wave (km/s) = 3.24258 3.85583 3.56243
# Velocity P-wave (km/s) = 5.10473 6.06745 5.60679
#
# Compressibility (1/GPa) = 0.03379960
#
# Stress axis : x y z
#
# Youngs Moduli (GPa) = 47.10908 42.26167 105.03789
#
# Poissons Ratio (x) = 0.21355 0.38798
# Poissons Ratio (y) = 0.23804 0.16370
# Poissons Ratio (z) = 0.17401 0.06586
#
# Static dielectric constant tensor:
#      x y z
#    x 1.797240 -0.041260 -0.035050 
#    y -0.041260 2.023680 0.049320 
#    z -0.035050 0.049320 1.958130 
# 
# From -- ./inp_files/154243.got.cif
#   From: 2010.05.17/outbox.cif.g08.bks.cpg/sg2_78_cif.got.tgz:154243.got - 2010.06.03 11:33:40.
