data_PCOD9097968
_publ_section_title
;
Structure prediction by ZEFSAII (Michael W. Deem and Ramdas Pophale) SiO2 
 PCOD9097968
Probable space group: P -1
;
_chemical_formula_sum "Si O2"
_cell_formula_units_Z 16
_cell_length_a 11.446981
_cell_length_b 20.130540
_cell_length_c 20.714990
_cell_angle_alpha 18.920623
_cell_angle_beta 149.535722
_cell_angle_gamma 151.674740
_cell_volume 721.021596
_symmetry_space_group_name_H-M "P -1"
_symmetry_group_IT_number 2
_symmetry_cell_setting 'triclinic'
loop_
_space_group_symop_operation_xyz
x,y,z
-x,-y,-z
loop_
_atom_site_type_symbol
_atom_site_label
_atom_site_fract_x
_atom_site_fract_y
_atom_site_fract_z
Si Si1 0.220188 0.521356 0.818798
Si Si2 0.523502 0.607458 0.546422
Si Si3 0.960956 0.735886 0.416674
Si Si4 0.458210 0.967198 0.609851
Si Si5 0.294988 0.346767 0.137726
Si Si6 0.337407 0.080886 0.798486
Si Si7 0.262472 0.964130 0.662058
Si Si8 0.858151 0.349621 0.990588
O O1 0.418065 0.495930 0.886568
O O2 0.002041 0.543637 0.654469
O O3 0.355440 0.752557 0.711293
O O4 0.157906 0.339428 0.011190
O O5 0.256482 0.396877 0.615623
O O6 0.561304 0.712006 0.395611
O O7 0.551262 0.808951 0.422734
O O8 0.735094 0.513827 0.753901
O O9 0.847055 0.859303 0.297925
O O10 0.240247 0.897250 0.377618
O O11 0.318443 0.121680 0.375645
O O12 0.370594 0.933350 0.673146
O O13 0.155011 0.432901 0.043816
O O14 0.231027 0.872744 0.891156
O O15 0.500000 0.000000 0.000000
O O16 0.215188 0.752387 0.879948
O O17 0.000000 0.000000 0.500000
#
# Coordination Sequence:
#
# PCOD9097968 Si02
#       8
#     2   2   2   2   2   2   2   2
#     4  10  22  37  63  97 130 158 205 259 329 378
#     4  11  26  42  63  99 127 168 216 255 319 379
#     4  11  22  42  66  95 133 165 202 266 323 384
#     4  11  23  44  63  90 131 169 213 264 309 369
#     4  10  20  36  62  97 122 163 205 259 320 379
#     4  11  22  38  65  98 131 162 199 254 327 384
#     4  11  26  45  64  90 125 174 224 263 306 369
#     4  11  22  40  66  92 129 163 214 264 314 373
#
# _framework density 22.190736000000001
#
# number of rings (size 3 to 8) (size 9 to 14) (size 15 to 20)
#    0.000    1.250    2.500    4.125    5.250    2.000 
#    2.250    0.625    0.000    0.000    0.000    0.000 
#    0.000    0.000    0.000    0.000    0.000    0.000 
#
# Total GULP energy -89346.594633 kJ/mol
# GULP energy per Si atom -5584.162165 kJ/mol
# Density = 2.214023 g / cm^3
# Si number density = 22.190736 Si / 1000 Ang^3
#
#
#
# Elastic Constant Matrix: (Units=GPa)
#
#
# Indices 1 2 3 4 5 6 
#
# 1 156.6996 59.1115 52.3024 7.9739 -9.9362 8.0838
# 2 59.1115 94.1149 19.8684 -8.9019 9.6338 0.3516
# 3 52.3024 19.8684 149.1713 15.0126 -9.2384 21.0375
# 4 7.9739 -8.9019 15.0126 34.0859 3.9532 6.2377
# 5 -9.9362 9.6338 -9.2384 3.9532 38.4158 0.7183
# 6 8.0838 0.3516 21.0375 6.2377 0.7183 24.8781
#
#
#
# Elastic Compliance Matrix: (Units=1/GPa)
#
#
# Indices 1 2 3 4 5 6 
#
# 1 0.010012 -0.006654 -0.001894 -0.003589 0.004187 -0.000779
# 2 -0.006654 0.016398 -0.001164 0.006893 -0.006848 0.001384
# 3 -0.001894 -0.001164 0.008830 -0.002891 0.002338 -0.006178
# 4 -0.003589 0.006893 -0.002891 0.034971 -0.006856 -0.005057
# 5 0.004187 -0.006848 0.002338 -0.006856 0.030144 -0.002392
# 6 -0.000779 0.001384 -0.006178 -0.005057 -0.002392 0.046990
#
#
# Mechanical properties :
#
#
# Convention : Reuss Voigt Hill
#
# Bulk Modulus (GPa) = 63.22638 73.61673 68.42155
# Shear Modulus (GPa) = 29.06299 37.38953 33.22626
#
# Velocity S-wave (km/s) = 3.62289 4.10923 3.87370
# Velocity P-wave (km/s) = 6.78635 7.46732 7.13496
#
# Compressibility (1/GPa) = 0.01581618
#
# Stress axis : x y z
#
# Youngs Moduli (GPa) = 99.88086 60.98379 113.25334
#
# Poissons Ratio (x) = 0.40576 0.21449
# Poissons Ratio (y) = 0.66456 0.13185
# Poissons Ratio (z) = 0.18917 0.07100
#
# Static dielectric constant tensor:
#      x y z
#    x 1.807860 0.037890 -0.038810 
#    y 0.037890 1.875590 -0.027170 
#    z -0.038810 -0.027170 1.857410 
# 
# From -- ./inp_files/596233.got.cif
#   From: 2010.05.17/outbox.cif.g08.bks.cpg/sg2_299_cif.got.tgz:596233.got - 2010.06.03 11:33:40.
