data_PCOD9097039
_publ_section_title
;
Structure prediction by ZEFSAII (Michael W. Deem and Ramdas Pophale) SiO2 
 PCOD9097039
Probable space group: P -1
;
_chemical_formula_sum "Si O2"
_cell_formula_units_Z 14
_cell_length_a 28.443719
_cell_length_b 5.961213
_cell_length_c 9.762259
_cell_angle_alpha 50.058603
_cell_angle_beta 153.487592
_cell_angle_gamma 129.342649
_cell_volume 557.900584
_symmetry_space_group_name_H-M "P -1"
_symmetry_group_IT_number 2
_symmetry_cell_setting 'triclinic'
loop_
_space_group_symop_operation_xyz
x,y,z
-x,-y,-z
loop_
_atom_site_type_symbol
_atom_site_label
_atom_site_fract_x
_atom_site_fract_y
_atom_site_fract_z
Si Si1 0.004599 0.691042 0.269132
Si Si2 0.828082 0.325921 0.504967
Si Si3 0.081145 0.143560 0.771320
Si Si4 0.503789 0.927309 0.202775
Si Si5 0.343257 0.217043 0.824165
Si Si6 0.656467 0.693085 0.898666
Si Si7 0.800440 0.337647 0.737304
O O1 0.068757 0.742417 0.276650
O O2 0.082298 0.492259 0.624789
O O3 0.982010 0.936649 0.219634
O O4 0.887943 0.506855 0.002159
O O5 0.841850 0.422522 0.659240
O O6 0.744453 0.020381 0.389860
O O7 0.766316 0.583687 0.185682
O O8 0.000000 0.000000 0.500000
O O9 0.187338 0.005434 0.094613
O O10 0.608145 0.865615 0.583290
O O11 0.424039 0.612108 0.149007
O O12 0.500000 0.000000 0.000000
O O13 0.453888 0.170712 0.064687
O O14 0.309162 0.537485 0.585427
O O15 0.333859 0.143659 0.991453
#
# Coordination Sequence:
#
# PCOD9097039 Si02
#       7
#     2   2   2   2   2   2   2
#     4  10  20  37  58  82 119 163 206 244 296 344
#     4  10  21  37  59  88 117 157 201 245 302 356
#     4   9  20  36  52  78 116 158 200 251 292 345
#     4  10  21  42  69  91 119 159 203 253 310 374
#     4  10  21  38  62  89 126 158 195 252 314 361
#     4   9  21  42  62  92 128 154 200 258 304 372
#     4  10  20  36  59  84 118 160 202 252 292 354
#
# _framework density 25.094079000000001
#
# number of rings (size 3 to 8) (size 9 to 14) (size 15 to 20)
#    0.000    2.286    0.000    1.714    0.000    7.429 
#   15.429    0.000    3.143    0.000    0.000    0.000 
#    0.000    0.000    0.000    0.000    0.000    0.000 
#
# Total GULP energy -78134.235560 kJ/mol
# GULP energy per Si atom -5581.016826 kJ/mol
# Density = 2.503696 g / cm^3
# Si number density = 25.094079 Si / 1000 Ang^3
#
#
#
# Elastic Constant Matrix: (Units=GPa)
#
#
# Indices 1 2 3 4 5 6 
#
# 1 152.0553 35.3641 78.6756 -18.3147 -9.9592 -35.7074
# 2 35.3641 46.7028 39.9109 -11.6987 -4.8511 -25.1439
# 3 78.6756 39.9109 178.6378 -39.5260 -11.6473 -23.5962
# 4 -18.3147 -11.6987 -39.5260 49.6058 -9.2450 -2.7110
# 5 -9.9592 -4.8511 -11.6473 -9.2450 56.5074 -9.0886
# 6 -35.7074 -25.1439 -23.5962 -2.7110 -9.0886 45.6323
#
#
#
# Elastic Compliance Matrix: (Units=1/GPa)
#
#
# Indices 1 2 3 4 5 6 
#
# 1 0.010233 -0.000972 -0.002747 0.002210 0.002593 0.006699
# 2 -0.000972 0.039276 -0.003040 0.009043 0.007485 0.021337
# 3 -0.002747 -0.003040 0.009264 0.006212 0.002475 0.001828
# 4 0.002210 0.009043 0.006212 0.030602 0.009650 0.013664
# 5 0.002593 0.007485 0.002475 0.009650 0.022907 0.012569
# 6 0.006699 0.021337 0.001828 0.013664 0.012569 0.043174
#
#
# Mechanical properties :
#
#
# Convention : Reuss Voigt Hill
#
# Bulk Modulus (GPa) = 22.09631 76.14412 49.12022
# Shear Modulus (GPa) = 27.16548 45.24546 36.20547
#
# Velocity S-wave (km/s) = 3.29378 4.25082 3.80253
# Velocity P-wave (km/s) = 4.82595 7.38254 6.23666
#
# Compressibility (1/GPa) = 0.04525642
#
# Stress axis : x y z
#
# Youngs Moduli (GPa) = 97.72348 25.46111 107.94425
#
# Poissons Ratio (x) = 0.02474 0.29651
# Poissons Ratio (y) = 0.09495 0.32811
# Poissons Ratio (z) = 0.26843 0.07739
#
# Static dielectric constant tensor:
#      x y z
#    x 2.103240 0.099040 -0.059060 
#    y 0.099040 2.063630 -0.059680 
#    z -0.059060 -0.059680 2.040470 
# 
# From -- ./inp_files/105714.got.cif
#   From: 2010.05.17/outbox.cif.g08.bks.cpg/sg2_53_cif.got.tgz:105714.got - 2010.06.03 11:33:40.
