data_PCOD9097378
_publ_section_title
;
Structure prediction by ZEFSAII (Michael W. Deem and Ramdas Pophale) SiO2 
 PCOD9097378
Probable space group: P -1
;
_chemical_formula_sum "Si O2"
_cell_formula_units_Z 16
_cell_length_a 10.723649
_cell_length_b 8.426036
_cell_length_c 8.844451
_cell_angle_alpha 67.648572
_cell_angle_beta 101.925182
_cell_angle_gamma 107.795614
_cell_volume 700.039497
_symmetry_space_group_name_H-M "P -1"
_symmetry_group_IT_number 2
_symmetry_cell_setting 'triclinic'
loop_
_space_group_symop_operation_xyz
x,y,z
-x,-y,-z
loop_
_atom_site_type_symbol
_atom_site_label
_atom_site_fract_x
_atom_site_fract_y
_atom_site_fract_z
Si Si1 0.445831 0.651729 0.275812
Si Si2 0.296147 0.486710 0.551893
Si Si3 0.227045 0.697261 0.734545
Si Si4 0.437564 0.295875 0.009819
Si Si5 0.007030 0.872570 0.689705
Si Si6 0.900401 0.613617 0.993537
Si Si7 0.519924 0.023543 0.321016
Si Si8 0.849748 0.810927 0.184401
O O1 0.314000 0.537868 0.362389
O O2 0.561435 0.547181 0.354949
O O3 0.482228 0.828638 0.317497
O O4 0.457633 0.723804 0.084418
O O5 0.266699 0.631582 0.606565
O O6 0.184374 0.314591 0.630875
O O7 0.087314 0.740671 0.688406
O O8 0.332244 0.880009 0.724622
O O9 0.219015 0.540412 0.911411
O O10 0.439230 0.159989 0.193027
O O11 0.500000 0.500000 0.000000
O O12 0.292359 0.228833 0.922412
O O13 0.888312 0.745393 0.804437
O O14 0.087843 0.997365 0.799756
O O15 0.000000 0.000000 0.500000
O O16 0.937593 0.736879 0.109915
O O17 0.000000 0.500000 0.000000
O O18 0.500000 0.000000 0.500000
#
# Coordination Sequence:
#
# PCOD9097378 Si02
#       8
#     2   2   2   2   2   2   2   2
#     4  10  20  36  60  89 136 175 221 253 324 378
#     4   9  18  36  61  89 126 177 208 269 315 394
#     4  10  20  41  65  94 129 174 218 265 341 399
#     4  11  24  41  65  97 138 183 219 262 326 417
#     4  11  24  43  70  99 129 166 227 298 336 381
#     4   9  20  41  69  90 126 176 224 280 335 392
#     4  12  23  38  65 101 138 173 219 273 320 405
#     4  10  21  43  68  94 133 176 222 268 344 396
#
# _framework density 22.855853
#
# number of rings (size 3 to 8) (size 9 to 14) (size 15 to 20)
#    0.000    1.750    1.250    4.500    1.750    1.000 
#    4.500    5.625    5.500    0.000    0.000    0.000 
#    0.000    0.000    0.000    0.000    0.000    0.000 
#
# Total GULP energy -89131.394935 kJ/mol
# GULP energy per Si atom -5570.712183 kJ/mol
# Density = 2.280383 g / cm^3
# Si number density = 22.855853 Si / 1000 Ang^3
#
#
#
# Elastic Constant Matrix: (Units=GPa)
#
#
# Indices 1 2 3 4 5 6 
#
# 1 59.4948 30.5879 44.0454 4.8006 -23.1997 -13.9151
# 2 30.5879 92.8957 55.8556 12.2735 -13.6120 -16.8980
# 3 44.0454 55.8556 162.9249 -21.7626 -32.9478 2.6154
# 4 4.8006 12.2735 -21.7626 43.0135 2.6606 -9.4399
# 5 -23.1997 -13.6120 -32.9478 2.6606 39.8997 0.6638
# 6 -13.9151 -16.8980 2.6154 -9.4399 0.6638 34.4192
#
#
#
# Elastic Compliance Matrix: (Units=1/GPa)
#
#
# Indices 1 2 3 4 5 6 
#
# 1 0.029214 -0.002367 -0.005368 -0.003891 0.011844 0.009761
# 2 -0.002367 0.017284 -0.006327 -0.006476 -0.000376 0.006241
# 3 -0.005368 -0.006327 0.011551 0.007069 0.003859 -0.004290
# 4 -0.003891 -0.006476 0.007069 0.029783 -0.000669 0.002892
# 5 0.011844 -0.000376 0.003859 -0.000669 0.034995 0.003452
# 6 0.009761 0.006241 -0.004290 0.002892 0.003452 0.037116
#
#
# Mechanical properties :
#
#
# Convention : Reuss Voigt Hill
#
# Bulk Modulus (GPa) = 33.41481 64.03258 48.72369
# Shear Modulus (GPa) = 25.24713 35.78826 30.51770
#
# Velocity S-wave (km/s) = 3.32719 3.96134 3.65804
# Velocity P-wave (km/s) = 5.42327 6.99997 6.26145
#
# Compressibility (1/GPa) = 0.02992685
#
# Stress axis : x y z
#
# Youngs Moduli (GPa) = 34.22979 57.85739 86.56890
#
# Poissons Ratio (x) = 0.13693 0.46469
# Poissons Ratio (y) = 0.08101 0.54771
# Poissons Ratio (z) = 0.18374 0.36606
#
# Static dielectric constant tensor:
#      x y z
#    x 1.950470 -0.092570 0.065200 
#    y -0.092570 2.023750 -0.085310 
#    z 0.065200 -0.085310 1.968220 
# 
# From -- ./inp_files/243059.got.cif
#   From: 2010.05.17/outbox.cif.g08.bks.cpg/sg2_122_cif.got.tgz:243059.got - 2010.06.03 11:33:40.
