data_PCOD9097599
_publ_section_title
;
Structure prediction by ZEFSAII (Michael W. Deem and Ramdas Pophale) SiO2 
 PCOD9097599
Probable space group: P -1
;
_chemical_formula_sum "Si O2"
_cell_formula_units_Z 16
_cell_length_a 12.501179
_cell_length_b 8.809337
_cell_length_c 8.301357
_cell_angle_alpha 133.153083
_cell_angle_beta 68.604437
_cell_angle_gamma 103.127977
_cell_volume 620.638653
_symmetry_space_group_name_H-M "P -1"
_symmetry_group_IT_number 2
_symmetry_cell_setting 'triclinic'
loop_
_space_group_symop_operation_xyz
x,y,z
-x,-y,-z
loop_
_atom_site_type_symbol
_atom_site_label
_atom_site_fract_x
_atom_site_fract_y
_atom_site_fract_z
Si Si1 0.973454 0.584592 0.751956
Si Si2 0.273622 0.609014 0.006710
Si Si3 0.849685 0.119723 0.977393
Si Si4 0.606454 0.469232 0.796827
Si Si5 0.226555 0.177902 0.791457
Si Si6 0.383772 0.928983 0.728038
Si Si7 0.495641 0.296792 0.240868
Si Si8 0.954498 0.124357 0.463880
O O1 0.000000 0.500000 0.500000
O O2 0.083208 0.700542 0.839116
O O3 0.952519 0.364462 0.687499
O O4 0.865446 0.734269 0.963618
O O5 0.190361 0.782806 0.100424
O O6 0.243647 0.371571 0.801397
O O7 0.392928 0.677018 0.912156
O O8 0.292439 0.581057 0.167764
O O9 0.734795 0.083729 0.115350
O O10 0.943459 0.932835 0.763762
O O11 0.598066 0.266437 0.543064
O O12 0.607085 0.657934 0.800066
O O13 0.500000 0.500000 0.000000
O O14 0.162016 0.981236 0.610378
O O15 0.349543 0.115429 0.758493
O O16 0.484785 0.896284 0.783863
O O17 0.500000 0.500000 0.500000
O O18 0.000000 0.000000 0.500000
#
# Coordination Sequence:
#
# PCOD9097599 Si02
#       8
#     2   2   2   2   2   2   2   2
#     4  11  23  39  60  84 131 169 205 251 302 351
#     4  10  20  36  61  89 124 152 205 254 293 371
#     4  10  22  39  58  93 122 169 214 246 295 363
#     4   9  19  37  64  90 114 158 196 246 320 369
#     4  11  24  37  57  99 122 158 213 252 296 360
#     4  10  20  37  63  87 128 156 202 260 298 365
#     4   8  17  38  62  86 116 157 191 248 317 363
#     4  11  23  39  60  84 132 169 204 253 303 348
#
# _framework density 25.779896999999998
#
# number of rings (size 3 to 8) (size 9 to 14) (size 15 to 20)
#    0.000    2.000    0.000    3.000    5.250    4.000 
#    0.000    6.250    0.000    0.000    0.000    0.000 
#    0.000    0.000    0.000    0.000    0.000    0.000 
#
# Total GULP energy -89352.103602 kJ/mol
# GULP energy per Si atom -5584.506475 kJ/mol
# Density = 2.572122 g / cm^3
# Si number density = 25.779897 Si / 1000 Ang^3
#
#
#
# Elastic Constant Matrix: (Units=GPa)
#
#
# Indices 1 2 3 4 5 6 
#
# 1 86.0682 15.2722 34.0623 3.7537 7.1444 -22.4072
# 2 15.2722 94.0078 13.9312 13.2204 -10.8336 -21.8455
# 3 34.0623 13.9312 102.6737 13.8696 -2.8217 -12.4294
# 4 3.7537 13.2204 13.8696 45.6969 -13.5909 -5.5578
# 5 7.1444 -10.8336 -2.8217 -13.5909 32.1375 -0.2830
# 6 -22.4072 -21.8455 -12.4294 -5.5578 -0.2830 57.3891
#
#
#
# Elastic Compliance Matrix: (Units=1/GPa)
#
#
# Indices 1 2 3 4 5 6 
#
# 1 0.015085 -0.001221 -0.004382 -0.000275 -0.004227 0.004429
# 2 -0.001221 0.012523 -0.000462 -0.001781 0.003735 0.004036
# 3 -0.004382 -0.000462 0.011700 -0.002816 0.000658 0.000378
# 4 -0.000275 -0.001781 -0.002816 0.026531 0.010444 0.001226
# 5 -0.004227 0.003735 0.000658 0.010444 0.037799 0.001112
# 6 0.004429 0.004036 0.000378 0.001226 0.001112 0.020897
#
#
# Mechanical properties :
#
#
# Convention : Reuss Voigt Hill
#
# Bulk Modulus (GPa) = 36.79375 45.47568 41.13472
# Shear Modulus (GPa) = 34.31120 41.67696 37.99408
#
# Velocity S-wave (km/s) = 3.65215 4.02512 3.84316
# Velocity P-wave (km/s) = 5.66458 6.26740 5.97360
#
# Compressibility (1/GPa) = 0.02717853
#
# Stress axis : x y z
#
# Youngs Moduli (GPa) = 66.28956 79.85306 85.46845
#
# Poissons Ratio (x) = 0.09748 0.37452
# Poissons Ratio (y) = 0.08092 0.03952
# Poissons Ratio (z) = 0.29048 0.03693
#
# Static dielectric constant tensor:
#      x y z
#    x 2.116090 0.040240 -0.075930 
#    y 0.040240 2.155790 -0.049210 
#    z -0.075930 -0.049210 2.129410 
# 
# From -- ./inp_files/299826.got.cif
#   From: 2010.05.17/outbox.cif.g08.bks.cpg/sg2_150_cif.got.tgz:299826.got - 2010.06.03 11:33:40.
