data_PCOD9097440
_publ_section_title
;
Structure prediction by ZEFSAII (Michael W. Deem and Ramdas Pophale) SiO2 
 PCOD9097440
Probable space group: P -1
;
_chemical_formula_sum "Si O2"
_cell_formula_units_Z 16
_cell_length_a 5.211117
_cell_length_b 9.228592
_cell_length_c 19.000738
_cell_angle_alpha 59.928668
_cell_angle_beta 74.972192
_cell_angle_gamma 54.102393
_cell_volume 639.805941
_symmetry_space_group_name_H-M "P -1"
_symmetry_group_IT_number 2
_symmetry_cell_setting 'triclinic'
loop_
_space_group_symop_operation_xyz
x,y,z
-x,-y,-z
loop_
_atom_site_type_symbol
_atom_site_label
_atom_site_fract_x
_atom_site_fract_y
_atom_site_fract_z
Si Si1 0.634871 0.307434 0.349108
Si Si2 0.603578 0.825326 0.957799
Si Si3 0.078736 0.508117 0.780466
Si Si4 0.751579 0.506266 0.930166
Si Si5 0.007255 0.266743 0.736320
Si Si6 0.725864 0.268733 0.516824
Si Si7 0.341209 0.063679 0.618682
Si Si8 0.331845 0.814426 0.109062
O O1 0.921961 0.299593 0.288919
O O2 0.326125 0.534954 0.313067
O O3 0.740245 0.256020 0.434585
O O4 0.544391 0.162376 0.355018
O O5 0.671273 0.725915 0.902006
O O6 0.571898 0.032710 0.911328
O O7 0.324014 0.830882 0.021039
O O8 0.919792 0.670676 0.016973
O O9 0.370202 0.401444 0.839615
O O10 0.802177 0.504259 0.843128
O O11 0.168271 0.367924 0.739819
O O12 0.500000 0.500000 0.000000
O O13 0.950932 0.150656 0.830691
O O14 0.185408 0.127697 0.691576
O O15 0.500000 0.500000 0.500000
O O16 0.577893 0.139805 0.579771
O O17 0.060520 0.186178 0.551008
#
# Coordination Sequence:
#
# PCOD9097440 Si02
#       8
#     2   2   2   2   2   2   2   2
#     4  11  26  45  69  99 138 177 229 285 344 415
#     4   9  19  37  61  84 125 166 223 275 336 402
#     4  10  23  41  64  91 136 173 221 284 347 404
#     4  10  20  36  60  92 125 170 224 279 339 402
#     4  11  24  43  65  96 141 175 224 285 348 407
#     4  12  25  49  76 104 142 183 234 289 345 413
#     4  12  28  45  76 105 138 188 235 281 352 417
#     4   9  20  39  60  88 123 174 217 279 340 403
#
# _framework density 25.007584000000001
#
# number of rings (size 3 to 8) (size 9 to 14) (size 15 to 20)
#    0.000    1.500    1.250    2.625    7.000    2.000 
#    2.250    3.750    0.000    0.000    0.000    0.000 
#    0.000    0.000    0.000    0.000    0.000    0.000 
#
# Total GULP energy -89427.590891 kJ/mol
# GULP energy per Si atom -5589.224431 kJ/mol
# Density = 2.495067 g / cm^3
# Si number density = 25.007584 Si / 1000 Ang^3
#
#
#
# Elastic Constant Matrix: (Units=GPa)
#
#
# Indices 1 2 3 4 5 6 
#
# 1 80.8348 18.8361 18.8779 -0.0121 -5.5180 4.6880
# 2 18.8361 120.9704 58.8853 17.4724 -7.0138 19.0776
# 3 18.8779 58.8853 114.7887 10.1403 -28.0776 11.1354
# 4 -0.0121 17.4724 10.1403 37.0480 7.7653 5.0582
# 5 -5.5180 -7.0138 -28.0776 7.7653 34.3533 0.0706
# 6 4.6880 19.0776 11.1354 5.0582 0.0706 40.4195
#
#
#
# Elastic Compliance Matrix: (Units=1/GPa)
#
#
# Indices 1 2 3 4 5 6 
#
# 1 0.013081 -0.001406 -0.001340 0.001015 0.000490 -0.000612
# 2 -0.001406 0.012282 -0.005851 -0.003335 -0.001739 -0.003602
# 3 -0.001340 -0.005851 0.015269 -0.003808 0.011933 -0.000834
# 4 0.001015 -0.003335 -0.003808 0.032092 -0.010881 -0.001492
# 5 0.000490 -0.001739 0.011933 -0.010881 0.041048 -0.001234
# 6 -0.000612 -0.003602 -0.000834 -0.001492 -0.001234 0.026930
#
#
# Mechanical properties :
#
#
# Convention : Reuss Voigt Hill
#
# Bulk Modulus (GPa) = 42.66482 56.64359 49.65421
# Shear Modulus (GPa) = 30.17331 37.03048 33.60189
#
# Velocity S-wave (km/s) = 3.47733 3.85225 3.66958
# Velocity P-wave (km/s) = 5.76370 6.51814 6.15250
#
# Compressibility (1/GPa) = 0.02343851
#
# Stress axis : x y z
#
# Youngs Moduli (GPa) = 76.44871 81.41762 65.49009
#
# Poissons Ratio (x) = 0.11447 0.08778
# Poissons Ratio (y) = 0.10748 0.38317
# Poissons Ratio (z) = 0.10246 0.47635
#
# Static dielectric constant tensor:
#      x y z
#    x 2.057820 -0.025550 -0.039010 
#    y -0.025550 2.000960 -0.015390 
#    z -0.039010 -0.015390 2.006300 
# 
# From -- ./inp_files/47363.got.cif
#   From: 2010.05.17/outbox.cif.g08.bks.cpg/sg2_24_cif.got.tgz:47363.got - 2010.06.03 11:33:40.
