data_PCOD9097931
_publ_section_title
;
Structure prediction by ZEFSAII (Michael W. Deem and Ramdas Pophale) SiO2 
 PCOD9097931
Probable space group: P -1
;
_chemical_formula_sum "Si O2"
_cell_formula_units_Z 13
_cell_length_a 7.926583
_cell_length_b 18.878921
_cell_length_c 9.733797
_cell_angle_alpha 28.852592
_cell_angle_beta 48.210707
_cell_angle_gamma 47.447169
_cell_volume 506.429571
_symmetry_space_group_name_H-M "P -1"
_symmetry_group_IT_number 2
_symmetry_cell_setting 'triclinic'
loop_
_space_group_symop_operation_xyz
x,y,z
-x,-y,-z
loop_
_atom_site_type_symbol
_atom_site_label
_atom_site_fract_x
_atom_site_fract_y
_atom_site_fract_z
Si Si1 0.248951 0.807826 0.632569
Si Si2 0.315449 0.531371 0.880571
Si Si3 0.557909 0.963584 0.374016
Si Si4 0.307496 0.542977 0.411813
Si Si5 0.990736 0.708553 0.512161
Si Si6 0.500000 0.000000 0.000000
Si Si7 0.237236 0.221900 0.939221
O O1 0.338370 0.640566 0.806173
O O2 0.400092 0.856197 0.588288
O O3 0.985551 0.823257 0.800180
O O4 0.290036 0.923958 0.295705
O O5 0.553758 0.447105 0.818049
O O6 0.166807 0.647579 0.647258
O O7 0.166063 0.413247 0.198079
O O8 0.822999 0.872932 0.355056
O O9 0.500000 0.000000 0.500000
O O10 0.469406 0.113145 0.073228
O O11 0.500000 0.500000 0.500000
O O12 0.127910 0.687209 0.329787
O O13 0.204783 0.397577 0.690862
O O14 0.317768 0.172029 0.826365
#
# Coordination Sequence:
#
# PCOD9097931 Si02
#       7
#     2   2   2   2   2   1   2
#     4  11  22  42  69  93 125 176 213 262 317 384
#     4  10  20  40  72  89 121 172 217 260 310 386
#     4  11  25  40  63  97 133 165 210 271 327 375
#     4  10  21  39  68  95 120 166 221 256 306 386
#     4  10  22  41  65  94 130 163 215 262 321 375
#     4  10  20  36  62  94 122 158 220 256 306 374
#     4  11  22  43  69  93 127 171 216 259 321 381
#
# _framework density 25.669906999999998
#
# number of rings (size 3 to 8) (size 9 to 14) (size 15 to 20)
#    0.000    1.538    3.077    2.769    4.308    0.615 
#    0.000   10.000    0.000    0.000    0.000    0.000 
#    0.000    0.000    0.000    0.000    0.000    0.000 
#
# Total GULP energy -72544.414695 kJ/mol
# GULP energy per Si atom -5580.339592 kJ/mol
# Density = 2.561148 g / cm^3
# Si number density = 25.669907 Si / 1000 Ang^3
#
#
#
# Elastic Constant Matrix: (Units=GPa)
#
#
# Indices 1 2 3 4 5 6 
#
# 1 85.3114 40.3750 17.6912 -4.2321 4.9176 16.6488
# 2 40.3750 224.3683 11.3107 19.7114 10.3410 8.8722
# 3 17.6912 11.3107 62.1413 20.9310 -12.3882 8.5122
# 4 -4.2321 19.7114 20.9310 46.5860 -10.5889 -7.3480
# 5 4.9176 10.3410 -12.3882 -10.5889 26.7704 -18.6904
# 6 16.6488 8.8722 8.5122 -7.3480 -18.6904 38.6262
#
#
#
# Elastic Compliance Matrix: (Units=1/GPa)
#
#
# Indices 1 2 3 4 5 6 
#
# 1 0.016804 -0.001566 -0.005377 -0.000546 -0.013950 -0.012553
# 2 -0.001566 0.005765 0.000430 -0.005398 -0.007720 -0.005506
# 3 -0.005377 0.000430 0.022170 -0.009378 0.006439 -0.001335
# 4 -0.000546 -0.005398 -0.009378 0.039325 0.031860 0.026439
# 5 -0.013950 -0.007720 0.006439 0.031860 0.101421 0.061503
# 6 -0.012553 -0.005506 -0.001335 0.026439 0.061503 0.067648
#
#
# Mechanical properties :
#
#
# Convention : Reuss Voigt Hill
#
# Bulk Modulus (GPa) = 31.53144 56.73055 44.13100
# Shear Modulus (GPa) = 18.06808 42.55945 30.31376
#
# Velocity S-wave (km/s) = 2.65592 4.07621 3.44016
# Velocity P-wave (km/s) = 4.65997 6.65598 5.74532
#
# Compressibility (1/GPa) = 0.03171438
#
# Stress axis : x y z
#
# Youngs Moduli (GPa) = 59.50811 173.46780 45.10520
#
# Poissons Ratio (x) = 0.27158 0.24252
# Poissons Ratio (y) = 0.09317 -0.01939
# Poissons Ratio (z) = 0.31996 -0.07456
#
# Static dielectric constant tensor:
#      x y z
#    x 1.948470 -0.103690 -0.036650 
#    y -0.103690 1.996760 -0.083440 
#    z -0.036650 -0.083440 1.935610 
# 
# From -- ./inp_files/251255.got.cif
#   From: 2010.05.17/outbox.cif.g08.bks.cpg/sg2_126_cif.got.tgz:251255.got - 2010.06.03 11:33:40.
