data_PCOD9097827
_publ_section_title
;
Structure prediction by ZEFSAII (Michael W. Deem and Ramdas Pophale) SiO2 
 PCOD9097827
Probable space group: P -1
;
_chemical_formula_sum "Si O2"
_cell_formula_units_Z 16
_cell_length_a 14.627750
_cell_length_b 16.215176
_cell_length_c 22.989860
_cell_angle_alpha 154.845436
_cell_angle_beta 155.502493
_cell_angle_gamma 40.344606
_cell_volume 900.669688
_symmetry_space_group_name_H-M "P -1"
_symmetry_group_IT_number 2
_symmetry_cell_setting 'triclinic'
loop_
_space_group_symop_operation_xyz
x,y,z
-x,-y,-z
loop_
_atom_site_type_symbol
_atom_site_label
_atom_site_fract_x
_atom_site_fract_y
_atom_site_fract_z
Si Si1 0.417165 0.909017 0.146839
Si Si2 0.105783 0.339475 0.316591
Si Si3 0.168786 0.662420 0.156762
Si Si4 0.689217 0.694572 0.460484
Si Si5 0.892332 0.171059 0.889423
Si Si6 0.652135 0.708455 0.689912
Si Si7 0.416578 0.114167 0.643599
Si Si8 0.234692 0.465445 0.716748
O O1 0.550316 0.921286 0.291973
O O2 0.477975 0.124095 0.285541
O O3 0.414933 0.701525 0.980318
O O4 0.136182 0.849994 0.958085
O O5 0.214045 0.314243 0.424824
O O6 0.279702 0.350591 0.372083
O O7 0.004191 0.525131 0.386585
O O8 0.406852 0.616470 0.250500
O O9 0.049449 0.678698 0.036493
O O10 0.264113 0.892178 0.386859
O O11 0.000000 0.500000 0.000000
O O12 0.778469 0.581031 0.389093
O O13 0.786299 0.936595 0.654802
O O14 0.675822 0.191400 0.813895
O O15 0.112334 0.198476 0.075624
O O16 0.500000 0.500000 0.500000
O O17 0.311930 0.292786 0.682993
#
# Coordination Sequence:
#
# PCOD9097827 Si02
#       8
#     2   2   2   2   2   2   2   2
#     4  10  22  36  61  86 111 147 199 237 284 337
#     4  10  22  36  61  86 111 147 199 237 284 337
#     4  11  24  35  57  89 119 153 189 235 297 334
#     4  11  19  39  62  84 116 150 196 244 275 339
#     4  11  19  37  62  82 111 156 201 230 279 340
#     4  12  24  39  58  87 122 148 188 244 293 341
#     4  11  19  39  62  84 116 150 196 244 275 339
#     4  10  20  36  62  90 110 148 202 236 284 332
#
# _framework density 17.764559999999999
#
# number of rings (size 3 to 8) (size 9 to 14) (size 15 to 20)
#    0.750    0.500    5.000    3.375    3.500    0.000 
#    0.000    1.250    0.000    4.500    0.000    0.000 
#    0.000    0.000    0.000    0.000    0.000    0.000 
#
# Total GULP energy -89175.384034 kJ/mol
# GULP energy per Si atom -5573.461502 kJ/mol
# Density = 1.772413 g / cm^3
# Si number density = 17.764560 Si / 1000 Ang^3
#
#
#
# Elastic Constant Matrix: (Units=GPa)
#
#
# Indices 1 2 3 4 5 6 
#
# 1 57.4952 25.2550 21.1313 5.0924 -8.7555 16.9112
# 2 25.2550 98.6040 23.9528 10.6312 -1.7375 17.6761
# 3 21.1313 23.9528 44.3480 11.0422 6.4302 8.6398
# 4 5.0924 10.6312 11.0422 26.7816 9.7182 -5.1134
# 5 -8.7555 -1.7375 6.4302 9.7182 20.4872 1.6700
# 6 16.9112 17.6761 8.6398 -5.1134 1.6700 39.1226
#
#
#
# Elastic Compliance Matrix: (Units=1/GPa)
#
#
# Indices 1 2 3 4 5 6 
#
# 1 0.030441 -0.001020 -0.012092 -0.011128 0.023013 -0.012464
# 2 -0.001020 0.013361 -0.004925 -0.006183 0.005629 -0.005557
# 3 -0.012092 -0.004925 0.034224 -0.004785 -0.014046 -0.000132
# 4 -0.011128 -0.006183 -0.004785 0.059418 -0.033419 0.017853
# 5 0.023013 0.005629 -0.014046 -0.033419 0.080787 -0.017205
# 6 -0.012464 -0.005557 -0.000132 0.017853 -0.017205 0.036556
#
#
# Mechanical properties :
#
#
# Convention : Reuss Voigt Hill
#
# Bulk Modulus (GPa) = 23.83555 37.90283 30.86919
# Shear Modulus (GPa) = 16.40187 25.95214 21.17700
#
# Velocity S-wave (km/s) = 3.04187 3.82631 3.45642
# Velocity P-wave (km/s) = 5.07778 6.39558 5.77440
#
# Compressibility (1/GPa) = 0.04195413
#
# Stress axis : x y z
#
# Youngs Moduli (GPa) = 32.85041 74.84501 29.21920
#
# Poissons Ratio (x) = 0.07632 0.35331
# Poissons Ratio (y) = 0.03350 0.14389
# Poissons Ratio (z) = 0.39721 0.36858
#
# Static dielectric constant tensor:
#      x y z
#    x 1.600120 0.002420 -0.016280 
#    y 0.002420 1.634820 0.002350 
#    z -0.016280 0.002350 1.601960 
# 
# From -- ./inp_files/387997.got.cif
#   From: 2010.05.17/outbox.cif.g08.bks.cpg/sg2_194_cif.got.tgz:387997.got - 2010.06.03 11:33:40.
