data_PCOD9097637
_publ_section_title
;
Structure prediction by ZEFSAII (Michael W. Deem and Ramdas Pophale) SiO2 
 PCOD9097637
Probable space group: P -1
;
_chemical_formula_sum "Si O2"
_cell_formula_units_Z 14
_cell_length_a 10.738152
_cell_length_b 8.197995
_cell_length_c 22.281979
_cell_angle_alpha 37.864883
_cell_angle_beta 154.551380
_cell_angle_gamma 132.034846
_cell_volume 510.339563
_symmetry_space_group_name_H-M "P -1"
_symmetry_group_IT_number 2
_symmetry_cell_setting 'triclinic'
loop_
_space_group_symop_operation_xyz
x,y,z
-x,-y,-z
loop_
_atom_site_type_symbol
_atom_site_label
_atom_site_fract_x
_atom_site_fract_y
_atom_site_fract_z
Si Si1 0.204287 0.715744 0.959995
Si Si2 0.989183 0.850001 0.456447
Si Si3 0.332595 0.397724 0.308136
Si Si4 0.533552 0.121306 0.850793
Si Si5 0.057773 0.697399 0.210722
Si Si6 0.042486 0.723202 0.338781
Si Si7 0.501940 0.114310 0.261427
O O1 0.866629 0.698375 0.802496
O O2 0.316406 0.751316 0.065156
O O3 0.372038 0.423283 0.099494
O O4 0.205747 0.012005 0.846936
O O5 0.813995 0.873644 0.311351
O O6 0.040980 0.541878 0.590698
O O7 0.309045 0.923590 0.583513
O O8 0.750172 0.017073 0.348270
O O9 0.393380 0.687801 0.226994
O O10 0.158572 0.456325 0.278292
O O11 0.652898 0.237755 0.508971
O O12 0.719363 0.823276 0.014652
O O13 0.098506 0.645668 0.314645
O O14 0.249505 0.932610 0.210369
#
# Coordination Sequence:
#
# PCOD9097637 Si02
#       7
#     2   2   2   2   2   2   2
#     4  11  23  36  61  91 125 157 202 248 305 353
#     4  10  23  43  63  87 124 161 201 247 302 361
#     4  11  19  35  59  94 119 159 193 258 289 359
#     4  10  20  36  61  91 123 154 202 249 295 357
#     4  11  20  37  68  92 118 154 210 250 296 352
#     4  10  23  38  60  93 129 150 196 259 307 347
#     4  11  22  39  67  88 119 161 208 242 298 365
#
# _framework density 27.432718000000001
#
# number of rings (size 3 to 8) (size 9 to 14) (size 15 to 20)
#    0.000    1.429    4.286    2.571    2.000    1.143 
#    0.000    0.000    6.286    7.714    0.000    0.000 
#    0.000    0.000    0.000    0.000    0.000    0.000 
#
# Total GULP energy -78394.767517 kJ/mol
# GULP energy per Si atom -5599.626251 kJ/mol
# Density = 2.737028 g / cm^3
# Si number density = 27.432718 Si / 1000 Ang^3
#
#
#
# Elastic Constant Matrix: (Units=GPa)
#
#
# Indices 1 2 3 4 5 6 
#
# 1 71.6093 24.2781 47.3449 6.3254 -14.1780 -18.0699
# 2 24.2781 86.0638 65.1794 11.0075 2.5800 -14.1723
# 3 47.3449 65.1794 230.1194 24.6863 -4.0541 -5.7123
# 4 6.3254 11.0075 24.6863 52.6672 -9.7897 -4.9216
# 5 -14.1780 2.5800 -4.0541 -9.7897 48.3807 4.5838
# 6 -18.0699 -14.1723 -5.7123 -4.9216 4.5838 13.6702
#
#
#
# Elastic Compliance Matrix: (Units=1/GPa)
#
#
# Indices 1 2 3 4 5 6 
#
# 1 0.025869 0.001587 -0.005183 0.002933 0.004508 0.033219
# 2 0.001587 0.018418 -0.005063 -0.000344 -0.002899 0.019925
# 3 -0.005183 -0.005063 0.006862 -0.002519 -0.000230 -0.010062
# 4 0.002933 -0.000344 -0.002519 0.021487 0.004181 0.008802
# 5 0.004508 -0.002899 -0.000230 0.004181 0.023298 -0.003449
# 6 0.033219 0.019925 -0.010062 0.008802 -0.003449 0.137840
#
#
# Mechanical properties :
#
#
# Convention : Reuss Voigt Hill
#
# Bulk Modulus (GPa) = 29.55681 73.48858 51.52270
# Shear Modulus (GPa) = 19.05718 39.67630 29.36674
#
# Velocity S-wave (km/s) = 2.63855 3.80717 3.27540
# Velocity P-wave (km/s) = 4.48110 6.79506 5.75557
#
# Compressibility (1/GPa) = 0.03383315
#
# Stress axis : x y z
#
# Youngs Moduli (GPa) = 38.65631 54.29550 145.72482
#
# Poissons Ratio (x) = -0.08619 0.75522
# Poissons Ratio (y) = -0.06137 0.73778
# Poissons Ratio (z) = 0.20034 0.27489
#
# Static dielectric constant tensor:
#      x y z
#    x 2.207710 -0.058190 0.003750 
#    y -0.058190 2.231770 0.006080 
#    z 0.003750 0.006080 2.060150 
# 
# From -- ./inp_files/181366.got.cif
#   From: 2010.05.17/outbox.cif.g08.bks.cpg/sg2_91_cif.got.tgz:181366.got - 2010.06.03 11:33:40.
