data_PCOD9097403
_publ_section_title
;
Structure prediction by ZEFSAII (Michael W. Deem and Ramdas Pophale) SiO2 
 PCOD9097403
Probable space group: P -1
;
_chemical_formula_sum "Si O2"
_cell_formula_units_Z 16
_cell_length_a 10.233698
_cell_length_b 15.295420
_cell_length_c 13.768710
_cell_angle_alpha 122.717406
_cell_angle_beta 141.886628
_cell_angle_gamma 37.142414
_cell_volume 781.161344
_symmetry_space_group_name_H-M "P -1"
_symmetry_group_IT_number 2
_symmetry_cell_setting 'triclinic'
loop_
_space_group_symop_operation_xyz
x,y,z
-x,-y,-z
loop_
_atom_site_type_symbol
_atom_site_label
_atom_site_fract_x
_atom_site_fract_y
_atom_site_fract_z
Si Si1 0.160530 0.906849 0.942113
Si Si2 0.832922 0.660503 0.184806
Si Si3 0.286145 0.327498 0.285014
Si Si4 0.072800 0.184321 0.403490
Si Si5 0.254372 0.239560 0.016894
Si Si6 0.260307 0.666314 0.508649
Si Si7 0.491123 0.142857 0.479710
Si Si8 0.089470 0.064019 0.817560
O O1 0.030389 0.860947 0.768740
O O2 0.164546 0.008327 0.938753
O O3 0.495878 0.757121 0.077350
O O4 0.000000 0.000000 0.000000
O O5 0.055082 0.503022 0.273630
O O6 0.944535 0.736622 0.323343
O O7 0.823795 0.662429 0.062962
O O8 0.151683 0.322367 0.107419
O O9 0.605187 0.271300 0.409713
O O10 0.327038 0.233988 0.340209
O O11 0.249646 0.214560 0.469483
O O12 0.805167 0.307266 0.397096
O O13 0.326885 0.030166 0.519444
O O14 0.618084 0.093631 0.155092
O O15 0.109013 0.178321 0.878208
O O16 0.500000 0.500000 0.500000
O O17 0.761220 0.131571 0.645172
#
# Coordination Sequence:
#
# PCOD9097403 Si02
#       8
#     2   2   2   2   2   2   2   2
#     4  10  22  39  65  88 124 160 208 255 314 376
#     4  10  22  38  60  89 122 162 207 256 311 372
#     4  11  22  38  62  91 124 168 210 252 314 378
#     4  10  23  41  64  93 129 164 209 264 317 365
#     4  10  20  36  60  90 129 158 206 264 312 366
#     4  10  22  40  64  92 125 167 211 254 310 373
#     4  10  22  38  62  95 128 162 207 262 315 376
#     4   9  20  36  56  93 121 160 202 261 311 362
#
# _framework density 20.482323000000001
#
# number of rings (size 3 to 8) (size 9 to 14) (size 15 to 20)
#    0.000    2.000    0.000    3.375    7.000    5.000 
#    0.000    3.125    5.500    0.000    0.000    0.000 
#    0.000    0.000    0.000    0.000    0.000    0.000 
#
# Total GULP energy -89141.034677 kJ/mol
# GULP energy per Si atom -5571.314667 kJ/mol
# Density = 2.043570 g / cm^3
# Si number density = 20.482323 Si / 1000 Ang^3
#
#
#
# Elastic Constant Matrix: (Units=GPa)
#
#
# Indices 1 2 3 4 5 6 
#
# 1 114.0953 45.8699 30.7739 5.9081 -0.1833 -10.4082
# 2 45.8699 46.8536 31.2607 11.1124 -9.4623 -7.2692
# 3 30.7739 31.2607 81.9673 -0.3075 1.4820 -3.9251
# 4 5.9081 11.1124 -0.3075 20.5348 -8.6614 -4.8978
# 5 -0.1833 -9.4623 1.4820 -8.6614 21.8270 1.2866
# 6 -10.4082 -7.2692 -3.9251 -4.8978 1.2866 29.5495
#
#
#
# Elastic Compliance Matrix: (Units=1/GPa)
#
#
# Indices 1 2 3 4 5 6 
#
# 1 0.015621 -0.017735 0.001127 0.002806 -0.006641 0.002043
# 2 -0.017735 0.057363 -0.015524 -0.017855 0.018568 0.002035
# 3 0.001127 -0.015524 0.017829 0.006052 -0.005541 0.000191
# 4 0.002806 -0.017855 0.006052 0.067099 0.018042 0.007736
# 5 -0.006641 0.018568 -0.005541 0.018042 0.061237 0.001817
# 6 0.002043 0.002035 0.000191 0.007736 0.001817 0.036290
#
#
# Mechanical properties :
#
#
# Convention : Reuss Voigt Hill
#
# Bulk Modulus (GPa) = 37.66384 50.96946 44.31665
# Shear Modulus (GPa) = 15.21825 23.38303 19.30064
#
# Velocity S-wave (km/s) = 2.72875 3.38245 3.07303
# Velocity P-wave (km/s) = 5.32508 6.33982 5.85448
#
# Compressibility (1/GPa) = 0.02655067
#
# Stress axis : x y z
#
# Youngs Moduli (GPa) = 64.01703 17.43273 56.08732
#
# Poissons Ratio (x) = 0.30916 -0.06323
# Poissons Ratio (y) = 1.13532 0.87071
# Poissons Ratio (z) = -0.07217 0.27063
#
# Static dielectric constant tensor:
#      x y z
#    x 1.940380 -0.187370 0.083140 
#    y -0.187370 1.919920 -0.034800 
#    z 0.083140 -0.034800 1.786800 
# 
# From -- ./inp_files/263460.got.cif
#   From: 2010.05.17/outbox.cif.g08.bks.cpg/sg2_132_cif.got.tgz:263460.got - 2010.06.03 11:33:40.
