data_PCOD9097678
_publ_section_title
;
Structure prediction by ZEFSAII (Michael W. Deem and Ramdas Pophale) SiO2 
 PCOD9097678
Probable space group: P -1
;
_chemical_formula_sum "Si O2"
_cell_formula_units_Z 12
_cell_length_a 7.890632
_cell_length_b 6.582482
_cell_length_c 9.660686
_cell_angle_alpha 104.028011
_cell_angle_beta 87.040097
_cell_angle_gamma 72.260425
_cell_volume 459.368166
_symmetry_space_group_name_H-M "P -1"
_symmetry_group_IT_number 2
_symmetry_cell_setting 'triclinic'
loop_
_space_group_symop_operation_xyz
x,y,z
-x,-y,-z
loop_
_atom_site_type_symbol
_atom_site_label
_atom_site_fract_x
_atom_site_fract_y
_atom_site_fract_z
Si Si1 0.407352 0.691046 0.840410
Si Si2 0.122899 0.218020 0.356179
Si Si3 0.558209 0.712838 0.564904
Si Si4 0.819063 0.042111 0.337072
Si Si5 0.050684 0.554567 0.161241
Si Si6 0.627146 0.253106 0.836825
O O1 0.551422 0.727975 0.735389
O O2 0.230339 0.832137 0.789504
O O3 0.449191 0.424489 0.803044
O O4 0.413378 0.778322 0.007435
O O5 0.235485 0.317234 0.474501
O O6 0.068587 0.368158 0.245919
O O7 0.952203 0.161818 0.415311
O O8 0.265556 0.975617 0.275483
O O9 0.500000 0.500000 0.500000
O O10 0.372631 0.907705 0.568937
O O11 0.913157 0.787546 0.257958
O O12 0.237065 0.605608 0.144786
O O13 0.000000 0.500000 0.000000
#
# Coordination Sequence:
#
# PCOD9097678 Si02
#       6
#     2   2   2   2   2   2
#     4   9  19  39  58  88 127 150 200 251 292 363
#     4  11  22  38  64  90 124 159 196 250 311 353
#     4  10  23  44  62  84 120 164 213 250 289 350
#     4   9  22  39  59  92 120 154 209 240 297 365
#     4  11  20  34  61  95 129 159 187 245 313 370
#     4  10  20  36  61  93 126 155 195 250 308 371
#
# _framework density 26.122838000000002
#
# number of rings (size 3 to 8) (size 9 to 14) (size 15 to 20)
#    1.000    1.000    1.667    2.000    0.000    8.000 
#    0.000    1.667    0.000    0.000    0.000    0.000 
#    0.000    0.000    0.000    0.000    0.000    0.000 
#
# Total GULP energy -67027.217837 kJ/mol
# GULP energy per Si atom -5585.601486 kJ/mol
# Density = 2.606338 g / cm^3
# Si number density = 26.122838 Si / 1000 Ang^3
#
#
#
# Elastic Constant Matrix: (Units=GPa)
#
#
# Indices 1 2 3 4 5 6 
#
# 1 132.1043 41.3230 51.0284 -4.5313 23.9664 12.0996
# 2 41.3230 146.0143 59.4051 -17.8441 18.3384 -25.4406
# 3 51.0284 59.4051 81.0882 -24.8399 3.9263 2.5394
# 4 -4.5313 -17.8441 -24.8399 51.1054 0.0923 -4.3364
# 5 23.9664 18.3384 3.9263 0.0923 35.1128 9.8771
# 6 12.0996 -25.4406 2.5394 -4.3364 9.8771 45.2240
#
#
#
# Elastic Compliance Matrix: (Units=1/GPa)
#
#
# Indices 1 2 3 4 5 6 
#
# 1 0.011963 0.000240 -0.008230 -0.002959 -0.006980 -0.001363
# 2 0.000240 0.013923 -0.009937 0.000956 -0.009264 0.010441
# 3 -0.008230 -0.009937 0.027109 0.008436 0.009490 -0.006174
# 4 -0.002959 0.000956 0.008436 0.024015 -0.000399 0.003245
# 5 -0.006980 -0.009264 0.009490 -0.000399 0.040618 -0.012786
# 6 -0.001363 0.010441 -0.006174 0.003245 -0.012786 0.031801
#
#
# Mechanical properties :
#
#
# Convention : Reuss Voigt Hill
#
# Bulk Modulus (GPa) = 58.33619 73.63552 65.98585
# Shear Modulus (GPa) = 26.17851 40.11847 33.14849
#
# Velocity S-wave (km/s) = 3.16908 3.92313 3.56609
# Velocity P-wave (km/s) = 5.98086 6.98360 6.50159
#
# Compressibility (1/GPa) = 0.01714202
#
# Stress axis : x y z
#
# Youngs Moduli (GPa) = 83.58890 71.82540 36.88796
#
# Poissons Ratio (x) = -0.01726 0.30360
# Poissons Ratio (y) = -0.02009 0.36654
# Poissons Ratio (z) = 0.68795 0.71370
#
# Static dielectric constant tensor:
#      x y z
#    x 2.119650 -0.018250 0.035890 
#    y -0.018250 2.114050 -0.001850 
#    z 0.035890 -0.001850 2.028250 
# 
# From -- ./inp_files/86949.got.cif
#   From: 2010.05.17/outbox.cif.g08.bks.cpg/sg2_44_cif.got.tgz:86949.got - 2010.06.03 11:33:40.
