data_PCOD9097936
_publ_section_title
;
Structure prediction by ZEFSAII (Michael W. Deem and Ramdas Pophale) SiO2 
 PCOD9097936
Probable space group: P -1
;
_chemical_formula_sum "Si O2"
_cell_formula_units_Z 16
_cell_length_a 15.140960
_cell_length_b 8.093200
_cell_length_c 13.639180
_cell_angle_alpha 27.345591
_cell_angle_beta 54.804423
_cell_angle_gamma 56.987257
_cell_volume 624.976521
_symmetry_space_group_name_H-M "P -1"
_symmetry_group_IT_number 2
_symmetry_cell_setting 'triclinic'
loop_
_space_group_symop_operation_xyz
x,y,z
-x,-y,-z
loop_
_atom_site_type_symbol
_atom_site_label
_atom_site_fract_x
_atom_site_fract_y
_atom_site_fract_z
Si Si1 0.686880 0.646731 0.618691
Si Si2 0.108268 0.288081 0.415620
Si Si3 0.597799 0.462449 0.566707
Si Si4 0.084899 0.212670 0.772768
Si Si5 0.785016 0.394284 0.354526
Si Si6 0.406179 0.801341 0.926960
Si Si7 0.635337 0.510582 0.220458
Si Si8 0.767335 0.437428 0.988342
O O1 0.804934 0.596092 0.621602
O O2 0.669005 0.581163 0.550366
O O3 0.640706 0.065149 0.449368
O O4 0.622979 0.338314 0.873536
O O5 0.989663 0.486742 0.396810
O O6 0.125000 0.858458 0.627471
O O7 0.150984 0.357330 0.239645
O O8 0.683416 0.229257 0.564273
O O9 0.487082 0.350770 0.745169
O O10 0.562986 0.811914 0.335940
O O11 0.155024 0.394708 0.713685
O O12 0.159314 0.902958 0.831815
O O13 0.000000 0.000000 0.000000
O O14 0.718851 0.614518 0.195905
O O15 0.306705 0.725581 0.960325
O O16 0.500000 0.500000 0.000000
O O17 0.687439 0.613698 0.029592
#
# Coordination Sequence:
#
# PCOD9097936 Si02
#       8
#     2   2   2   2   2   2   2   2
#     4  10  20  36  62  94 124 169 222 260 306 380
#     4   9  22  40  64  95 127 167 215 270 331 373
#     4  12  22  40  62  95 138 177 210 258 313 388
#     4  10  20  42  70  91 120 169 220 276 323 375
#     4  11  23  41  60  93 136 167 209 267 326 385
#     4  11  19  33  63  93 124 166 221 261 304 368
#     4  11  21  38  61  90 134 175 202 257 327 374
#     4  10  20  40  64  94 127 167 220 266 307 387
#
# _framework density 25.600963
#
# number of rings (size 3 to 8) (size 9 to 14) (size 15 to 20)
#    0.000    1.500    3.750    1.875    0.000    0.000 
#    2.250   10.000    0.000    0.000    0.000    0.000 
#    0.000    0.000    0.000    0.000    0.000    0.000 
#
# Total GULP energy -89361.374866 kJ/mol
# GULP energy per Si atom -5585.085929 kJ/mol
# Density = 2.554269 g / cm^3
# Si number density = 25.600963 Si / 1000 Ang^3
#
#
#
# Elastic Constant Matrix: (Units=GPa)
#
#
# Indices 1 2 3 4 5 6 
#
# 1 103.1301 25.3092 6.2219 3.8177 8.1914 9.6609
# 2 25.3092 87.8437 11.7656 15.1252 13.5834 -13.0437
# 3 6.2219 11.7656 91.9526 19.6967 13.4473 4.8104
# 4 3.8177 15.1252 19.6967 45.6215 -2.9383 15.3252
# 5 8.1914 13.5834 13.4473 -2.9383 36.7420 -1.1767
# 6 9.6609 -13.0437 4.8104 15.3252 -1.1767 38.5556
#
#
#
# Elastic Compliance Matrix: (Units=1/GPa)
#
#
# Indices 1 2 3 4 5 6 
#
# 1 0.011209 -0.004211 -0.000318 0.002263 -0.000809 -0.005118
# 2 -0.004211 0.016453 0.000419 -0.009000 -0.005697 0.009973
# 3 -0.000318 0.000419 0.012929 -0.006363 -0.005294 0.000976
# 4 0.002263 -0.009000 -0.006363 0.033242 0.007304 -0.015808
# 5 -0.000809 -0.005697 -0.005294 0.007304 0.031929 -0.002993
# 6 -0.005118 0.009973 0.000976 -0.015808 -0.002993 0.036663
#
#
# Mechanical properties :
#
#
# Convention : Reuss Voigt Hill
#
# Bulk Modulus (GPa) = 30.89317 41.05778 35.97547
# Shear Modulus (GPa) = 30.97206 40.15914 35.56560
#
# Velocity S-wave (km/s) = 3.48199 3.96492 3.73128
# Velocity P-wave (km/s) = 5.31593 6.08549 5.71368
#
# Compressibility (1/GPa) = 0.03236961
#
# Stress axis : x y z
#
# Youngs Moduli (GPa) = 89.21329 60.78095 77.34443
#
# Poissons Ratio (x) = 0.25597 0.02462
# Poissons Ratio (y) = 0.37571 -0.03242
# Poissons Ratio (z) = 0.02840 -0.02548
#
# Static dielectric constant tensor:
#      x y z
#    x 2.039380 -0.075340 0.062370 
#    y -0.075340 2.091450 -0.019560 
#    z 0.062370 -0.019560 2.205900 
# 
# From -- ./inp_files/528023.got.cif
#   From: 2010.05.17/outbox.cif.g08.bks.cpg/sg2_265_cif.got.tgz:528023.got - 2010.06.03 11:33:40.
