data_PCOD9097157
_publ_section_title
;
Structure prediction by ZEFSAII (Michael W. Deem and Ramdas Pophale) SiO2 
 PCOD9097157
Probable space group: P -1
;
_chemical_formula_sum "Si O2"
_cell_formula_units_Z 14
_cell_length_a 18.047690
_cell_length_b 9.435684
_cell_length_c 12.584260
_cell_angle_alpha 34.335443
_cell_angle_beta 153.415708
_cell_angle_gamma 142.064412
_cell_volume 530.095871
_symmetry_space_group_name_H-M "P -1"
_symmetry_group_IT_number 2
_symmetry_cell_setting 'triclinic'
loop_
_space_group_symop_operation_xyz
x,y,z
-x,-y,-z
loop_
_atom_site_type_symbol
_atom_site_label
_atom_site_fract_x
_atom_site_fract_y
_atom_site_fract_z
Si Si1 0.439108 0.099683 0.495756
Si Si2 0.728084 0.871710 0.947754
Si Si3 0.646223 0.865880 0.217685
Si Si4 0.709985 0.731190 0.616397
Si Si5 0.898099 0.327054 0.210427
Si Si6 0.078611 0.785023 0.456138
Si Si7 0.301155 0.489920 0.665829
O O1 0.632189 0.099098 0.711868
O O2 0.366365 0.791302 0.581535
O O3 0.326279 0.202806 0.197023
O O4 0.449874 0.272084 0.509630
O O5 0.685693 0.649536 0.118784
O O6 0.928727 0.942377 0.173459
O O7 0.710681 0.746318 0.481188
O O8 0.593957 0.633558 0.211660
O O9 0.788356 0.047788 0.211019
O O10 0.500000 0.000000 0.000000
O O11 0.792508 0.030837 0.565957
O O12 0.817968 0.538388 0.919485
O O13 0.844347 0.271866 0.298392
O O14 0.101184 0.419455 0.417598
O O15 0.000000 0.500000 0.500000
#
# Coordination Sequence:
#
# PCOD9097157 Si02
#       7
#     2   2   2   2   2   2   2
#     4  11  23  38  63  94 123 159 201 250 305 359
#     4  10  22  37  58  90 124 157 198 246 301 358
#     4  11  26  43  63  90 122 162 205 253 308 362
#     4  11  23  41  64  93 124 159 204 252 304 363
#     4  10  23  40  62  88 122 163 204 249 302 363
#     4  10  20  36  59  89 124 159 199 247 299 357
#     4  11  23  42  64  88 123 163 204 249 301 362
#
# _framework density 26.410316000000002
#
# number of rings (size 3 to 8) (size 9 to 14) (size 15 to 20)
#    0.000    1.429    0.000    5.143    0.000    9.714 
#    0.000    0.000    0.000    0.000    0.000    0.000 
#    0.000    0.000    0.000    0.000    0.000    0.000 
#
# Total GULP energy -78113.678297 kJ/mol
# GULP energy per Si atom -5579.548450 kJ/mol
# Density = 2.635020 g / cm^3
# Si number density = 26.410316 Si / 1000 Ang^3
#
#
#
# Elastic Constant Matrix: (Units=GPa)
#
#
# Indices 1 2 3 4 5 6 
#
# 1 69.7879 16.8879 33.5849 -9.1327 -3.3243 -25.9937
# 2 16.8879 86.3914 22.3916 -14.3210 -0.1979 -2.6677
# 3 33.5849 22.3916 165.5988 0.5077 -19.7382 -6.9565
# 4 -9.1327 -14.3210 0.5077 33.5280 10.0501 0.8288
# 5 -3.3243 -0.1979 -19.7382 10.0501 49.4458 -0.1289
# 6 -25.9937 -2.6677 -6.9565 0.8288 -0.1289 45.7522
#
#
#
# Elastic Compliance Matrix: (Units=1/GPa)
#
#
# Indices 1 2 3 4 5 6 
#
# 1 0.021496 -0.002039 -0.003746 0.005076 -0.001060 0.011429
# 2 -0.002039 0.013333 -0.001667 0.005759 -0.001922 -0.000744
# 3 -0.003746 -0.001667 0.007376 -0.002793 0.003251 -0.001044
# 4 0.005076 0.005759 -0.002793 0.036080 -0.008078 0.002119
# 5 -0.001060 -0.001922 0.003251 -0.008078 0.023085 -0.000009
# 6 0.011429 -0.000744 -0.001044 0.002119 -0.000009 0.028110
#
#
# Mechanical properties :
#
#
# Convention : Reuss Voigt Hill
#
# Bulk Modulus (GPa) = 36.62876 51.94523 44.28699
# Shear Modulus (GPa) = 32.57649 42.33945 37.45797
#
# Velocity S-wave (km/s) = 3.51590 4.00827 3.77013
# Velocity P-wave (km/s) = 5.51192 6.41349 5.97972
#
# Compressibility (1/GPa) = 0.02730095
#
# Stress axis : x y z
#
# Youngs Moduli (GPa) = 46.52013 74.99984 135.57541
#
# Poissons Ratio (x) = 0.15294 0.50782
# Poissons Ratio (y) = 0.09487 0.22605
# Poissons Ratio (z) = 0.17425 0.12505
#
# Static dielectric constant tensor:
#      x y z
#    x 2.179870 0.039840 0.087810 
#    y 0.039840 3.042150 0.266820 
#    z 0.087810 0.266820 2.092930 
# 
# From -- ./inp_files/461837.got.cif
#   From: 2010.05.17/outbox.cif.g08.bks.cpg/sg2_231_cif.got.tgz:461837.got - 2010.06.03 11:33:40.
