data_PCOD9097702
_publ_section_title
;
Structure prediction by ZEFSAII (Michael W. Deem and Ramdas Pophale) SiO2 
 PCOD9097702
Probable space group: P -1
;
_chemical_formula_sum "Si O2"
_cell_formula_units_Z 16
_cell_length_a 20.090394
_cell_length_b 9.646415
_cell_length_c 9.704407
_cell_angle_alpha 46.737106
_cell_angle_beta 26.559842
_cell_angle_gamma 53.930858
_cell_volume 610.676673
_symmetry_space_group_name_H-M "P -1"
_symmetry_group_IT_number 2
_symmetry_cell_setting 'triclinic'
loop_
_space_group_symop_operation_xyz
x,y,z
-x,-y,-z
loop_
_atom_site_type_symbol
_atom_site_label
_atom_site_fract_x
_atom_site_fract_y
_atom_site_fract_z
Si Si1 0.918828 0.794593 0.758393
Si Si2 0.431892 0.606168 0.188501
Si Si3 0.150672 0.178784 0.845843
Si Si4 0.877507 0.119111 0.230240
Si Si5 0.784988 0.403920 0.621081
Si Si6 0.382710 0.995524 0.381531
Si Si7 0.849919 0.517249 0.854222
Si Si8 0.581373 0.358990 0.279897
O O1 0.852368 0.720321 0.788400
O O2 0.050785 0.656179 0.625203
O O3 0.807630 0.772669 0.107661
O O4 0.000000 0.000000 0.500000
O O5 0.517071 0.809855 0.921677
O O6 0.453099 0.478652 0.370738
O O7 0.500000 0.500000 0.000000
O O8 0.272339 0.639232 0.397667
O O9 0.202438 0.367850 0.535235
O O10 0.243174 0.010174 0.735805
O O11 0.973875 0.138735 0.178094
O O12 0.710197 0.023292 0.577164
O O13 0.855164 0.331609 0.069625
O O14 0.000000 0.000000 0.000000
O O15 0.673630 0.304918 0.007876
O O16 0.461345 0.816176 0.419578
O O17 0.704487 0.488426 0.048531
O O18 0.000000 0.500000 0.500000
#
# Coordination Sequence:
#
# PCOD9097702 Si02
#       8
#     2   2   2   2   2   2   2   2
#     4  12  26  38  59  95 128 167 201 254 327 373
#     4  10  21  37  59  91 123 164 207 255 308 354
#     4  11  20  38  58  89 128 161 197 253 319 371
#     4   9  20  32  59  89 117 157 200 253 307 362
#     4  11  21  40  60  88 123 165 204 252 308 371
#     4  10  20  36  61  96 121 161 210 256 303 369
#     4  11  21  37  60  88 124 157 203 266 305 364
#     4  10  20  37  62  91 119 155 209 261 303 353
#
# _framework density 26.200447
#
# number of rings (size 3 to 8) (size 9 to 14) (size 15 to 20)
#    0.000    1.500    5.000    1.125    5.250    2.000 
#    2.250    0.000    0.000    3.750    0.000    0.000 
#    0.000    0.000    0.000    0.000    0.000    0.000 
#
# Total GULP energy -89436.408080 kJ/mol
# GULP energy per Si atom -5589.775505 kJ/mol
# Density = 2.614081 g / cm^3
# Si number density = 26.200447 Si / 1000 Ang^3
#
#
#
# Elastic Constant Matrix: (Units=GPa)
#
#
# Indices 1 2 3 4 5 6 
#
# 1 155.6494 37.3058 47.4150 -17.8795 -34.4776 -6.0033
# 2 37.3058 92.1908 31.3469 -11.4288 -1.4228 4.7673
# 3 47.4150 31.3469 68.2772 -35.4112 -21.5567 0.7942
# 4 -17.8795 -11.4288 -35.4112 51.0953 10.8664 3.5621
# 5 -34.4776 -1.4228 -21.5567 10.8664 51.1722 0.9310
# 6 -6.0033 4.7673 0.7942 3.5621 0.9310 44.4949
#
#
#
# Elastic Compliance Matrix: (Units=1/GPa)
#
#
# Indices 1 2 3 4 5 6 
#
# 1 0.009342 -0.002342 -0.004907 -0.001727 0.004499 0.001643
# 2 -0.002342 0.013892 -0.006626 -0.001423 -0.003653 -0.001496
# 3 -0.004907 -0.006626 0.032557 0.018149 0.006409 -0.002120
# 4 -0.001727 -0.001423 0.018149 0.031470 -0.000187 -0.002920
# 5 0.004499 -0.003653 0.006409 -0.000187 0.025204 0.000372
# 6 0.001643 -0.001496 -0.002120 -0.002920 0.000372 0.023120
#
#
# Mechanical properties :
#
#
# Convention : Reuss Voigt Hill
#
# Bulk Modulus (GPa) = 35.66037 60.91699 48.28868
# Shear Modulus (GPa) = 28.95493 42.68912 35.82202
#
# Velocity S-wave (km/s) = 3.32796 4.04087 3.70162
# Velocity P-wave (km/s) = 5.32984 6.71360 6.06134
#
# Compressibility (1/GPa) = 0.02804233
#
# Stress axis : x y z
#
# Youngs Moduli (GPa) = 107.04011 71.98314 30.71563
#
# Poissons Ratio (x) = 0.16855 0.15072
# Poissons Ratio (y) = 0.25064 0.20352
# Poissons Ratio (z) = 0.52524 0.47696
#
# Static dielectric constant tensor:
#      x y z
#    x 2.375330 0.210740 0.480170 
#    y 0.210740 2.166570 0.280540 
#    z 0.480170 0.280540 2.931600 
# 
# From -- ./inp_files/469210.got.cif
#   From: 2010.05.17/outbox.cif.g08.bks.cpg/sg2_235_cif.got.tgz:469210.got - 2010.06.03 11:33:40.
