data_PCOD9097033
_publ_section_title
;
Structure prediction by ZEFSAII (Michael W. Deem and Ramdas Pophale) SiO2 
 PCOD9097033
Probable space group: P -1
;
_chemical_formula_sum "Si O2"
_cell_formula_units_Z 16
_cell_length_a 18.093426
_cell_length_b 7.118189
_cell_length_c 19.463773
_cell_angle_alpha 86.503907
_cell_angle_beta 18.269778
_cell_angle_gamma 92.109292
_cell_volume 747.598902
_symmetry_space_group_name_H-M "P -1"
_symmetry_group_IT_number 2
_symmetry_cell_setting 'triclinic'
loop_
_space_group_symop_operation_xyz
x,y,z
-x,-y,-z
loop_
_atom_site_type_symbol
_atom_site_label
_atom_site_fract_x
_atom_site_fract_y
_atom_site_fract_z
Si Si1 0.283327 0.609241 0.765698
Si Si2 0.138171 0.886975 0.972796
Si Si3 0.527419 0.783689 0.992753
Si Si4 0.925090 0.118522 0.434057
Si Si5 0.844573 0.016510 0.888416
Si Si6 0.500131 0.745756 0.865443
Si Si7 0.391569 0.635947 0.262343
Si Si8 0.377633 0.228290 0.653517
O O1 0.268848 0.717865 0.846989
O O2 0.422598 0.444571 0.642694
O O3 0.403780 0.758692 0.593816
O O4 0.000000 0.500000 0.000000
O O5 0.092850 0.932063 0.089476
O O6 0.320571 0.074317 0.768785
O O7 0.875413 0.825522 0.166594
O O8 0.367364 0.680642 0.201463
O O9 0.464675 0.678076 0.977462
O O10 0.500000 0.000000 0.000000
O O11 0.810080 0.819952 0.764937
O O12 0.729784 0.946668 0.652975
O O13 0.946646 0.017479 0.344378
O O14 0.834482 0.311554 0.503166
O O15 0.731449 0.184151 0.955364
O O16 0.628835 0.807238 0.077099
O O17 0.563219 0.575167 0.769947
#
# Coordination Sequence:
#
# PCOD9097033 Si02
#       8
#     2   2   2   2   2   2   2   2
#     4   9  18  35  58  88 117 144 184 240 292 347
#     4  10  20  36  59  84 114 160 192 237 295 347
#     4  11  19  38  61  84 115 146 191 250 300 343
#     4  10  21  38  57  82 116 151 191 245 288 352
#     4  10  23  40  56  80 122 155 194 239 288 351
#     4  11  22  38  59  83 113 154 196 241 300 348
#     4  10  23  38  57  85 113 150 198 244 290 353
#     4   9  19  35  59  90 117 144 195 243 288 350
#
# _framework density 21.401852000000002
#
# number of rings (size 3 to 8) (size 9 to 14) (size 15 to 20)
#    0.000    2.000    3.750    1.125    0.000    5.500 
#    0.000    2.500    0.000    0.000    0.000    0.000 
#    0.000    0.000    0.000    0.000    0.000    0.000 
#
# Total GULP energy -89304.063973 kJ/mol
# GULP energy per Si atom -5581.503998 kJ/mol
# Density = 2.135314 g / cm^3
# Si number density = 21.401852 Si / 1000 Ang^3
#
#
#
# Elastic Constant Matrix: (Units=GPa)
#
#
# Indices 1 2 3 4 5 6 
#
# 1 71.1402 28.5106 6.8918 11.3805 23.4473 23.3755
# 2 28.5106 140.6906 14.3234 28.0841 6.4424 11.1165
# 3 6.8918 14.3234 72.9558 15.2303 19.1075 1.9628
# 4 11.3805 28.0841 15.2303 37.4178 4.6240 7.2149
# 5 23.4473 6.4424 19.1075 4.6240 17.5405 8.5021
# 6 23.3755 11.1165 1.9628 7.2149 8.5021 17.4817
#
#
#
# Elastic Compliance Matrix: (Units=1/GPa)
#
#
# Indices 1 2 3 4 5 6 
#
# 1 0.041653 -0.004626 0.012199 -0.002316 -0.053500 -0.027150
# 2 -0.004626 0.009032 -0.001920 -0.005336 0.006513 -0.000308
# 3 0.012199 -0.001920 0.026704 -0.008988 -0.046257 0.008117
# 4 -0.002316 -0.005336 -0.008988 0.036179 0.011660 -0.013103
# 5 -0.053500 0.006513 -0.046257 0.011660 0.183965 -0.021694
# 6 -0.027150 -0.000308 0.008117 -0.013103 -0.021694 0.108749
#
#
# Mechanical properties :
#
#
# Convention : Reuss Voigt Hill
#
# Bulk Modulus (GPa) = 11.27439 42.69313 26.98376
# Shear Modulus (GPa) = 11.77746 30.15874 20.96810
#
# Velocity S-wave (km/s) = 2.34839 3.75796 3.13346
# Velocity P-wave (km/s) = 3.55425 6.23067 5.07218
#
# Compressibility (1/GPa) = 0.08869661
#
# Stress axis : x y z
#
# Youngs Moduli (GPa) = 24.00771 110.71893 37.44728
#
# Poissons Ratio (x) = 0.51214 -0.45682
# Poissons Ratio (y) = 0.11105 0.07190
# Poissons Ratio (z) = -0.29287 0.21257
#
# Static dielectric constant tensor:
#      x y z
#    x 1.751170 0.005430 0.023070 
#    y 0.005430 1.857760 0.013910 
#    z 0.023070 0.013910 1.801080 
# 
# From -- ./inp_files/125342.got.cif
#   From: 2010.05.17/outbox.cif.g08.bks.cpg/sg2_63_cif.got.tgz:125342.got - 2010.06.03 11:33:40.
