data_PCOD9097324
_publ_section_title
;
Structure prediction by ZEFSAII (Michael W. Deem and Ramdas Pophale) SiO2 
 PCOD9097324
Probable space group: P -1
;
_chemical_formula_sum "Si O2"
_cell_formula_units_Z 14
_cell_length_a 20.045545
_cell_length_b 18.866894
_cell_length_c 5.295305
_cell_angle_alpha 43.768399
_cell_angle_beta 128.356955
_cell_angle_gamma 157.740996
_cell_volume 515.963168
_symmetry_space_group_name_H-M "P -1"
_symmetry_group_IT_number 2
_symmetry_cell_setting 'triclinic'
loop_
_space_group_symop_operation_xyz
x,y,z
-x,-y,-z
loop_
_atom_site_type_symbol
_atom_site_label
_atom_site_fract_x
_atom_site_fract_y
_atom_site_fract_z
Si Si1 0.300602 0.334160 0.457742
Si Si2 0.292575 0.756092 0.587215
Si Si3 0.014084 0.614750 0.487049
Si Si4 0.956417 0.213633 0.393903
Si Si5 0.437917 0.212406 0.549694
Si Si6 0.429663 0.699923 0.867560
Si Si7 0.204894 0.279287 0.876536
O O1 0.500000 0.500000 0.500000
O O2 0.323524 0.482187 0.138762
O O3 0.193364 0.200407 0.802574
O O4 0.191750 0.195611 0.307823
O O5 0.172294 0.698193 0.636151
O O6 0.174947 0.645296 0.339149
O O7 0.500000 0.000000 0.500000
O O8 0.313114 0.655227 0.869957
O O9 0.011123 0.678061 0.568592
O O10 0.035449 0.711225 0.041134
O O11 0.087439 0.256383 0.631582
O O12 0.750680 0.958511 0.569077
O O13 0.414614 0.154065 0.936659
O O14 0.586241 0.458914 0.288010
O O15 0.511975 0.211338 0.509810
#
# Coordination Sequence:
#
# PCOD9097324 Si02
#       7
#     2   2   2   2   2   2   2
#     4  10  20  38  65  92 119 155 198 249 302 352
#     4  11  23  42  61  87 125 162 202 248 298 348
#     4  11  26  38  58  90 120 158 208 248 286 360
#     4  12  22  41  63  89 124 160 201 247 300 350
#     4  10  20  36  60  87 117 158 198 244 295 349
#     4  10  21  38  61  86 118 160 202 243 299 362
#     4  10  21  36  62  91 120 157 199 241 298 367
#
# _framework density 27.13372
#
# number of rings (size 3 to 8) (size 9 to 14) (size 15 to 20)
#    0.000    1.429    0.000    7.286    0.000    3.429 
#    0.000    5.000    0.000   20.571    0.000    0.000 
#    0.000    0.000    0.000    0.000    0.000    0.000 
#
# Total GULP energy -78193.169735 kJ/mol
# GULP energy per Si atom -5585.226410 kJ/mol
# Density = 2.707196 g / cm^3
# Si number density = 27.133720 Si / 1000 Ang^3
#
#
#
# Elastic Constant Matrix: (Units=GPa)
#
#
# Indices 1 2 3 4 5 6 
#
# 1 148.9750 21.8397 85.5081 18.9224 -21.0330 4.3941
# 2 21.8397 171.3008 11.5137 22.3872 2.7631 5.7897
# 3 85.5081 11.5137 113.4920 25.6590 -32.3127 -5.5422
# 4 18.9224 22.3872 25.6590 32.8500 -19.3235 7.1898
# 5 -21.0330 2.7631 -32.3127 -19.3235 68.1291 19.9008
# 6 4.3941 5.7897 -5.5422 7.1898 19.9008 37.8394
#
#
#
# Elastic Compliance Matrix: (Units=1/GPa)
#
#
# Indices 1 2 3 4 5 6 
#
# 1 0.012365 -0.001177 -0.009672 0.002761 0.001175 -0.003815
# 2 -0.001177 0.006770 0.001073 -0.006708 -0.002584 0.001892
# 3 -0.009672 0.001073 0.018978 -0.009972 0.001769 0.004703
# 4 0.002761 -0.006708 -0.009972 0.056998 0.018839 -0.021493
# 5 0.001175 -0.002584 0.001769 0.018839 0.026256 -0.016870
# 6 -0.003815 0.001892 0.004703 -0.021493 -0.016870 0.040226
#
#
# Mechanical properties :
#
#
# Convention : Reuss Voigt Hill
#
# Bulk Modulus (GPa) = 53.87979 74.61009 64.24494
# Shear Modulus (GPa) = 26.69069 48.75744 37.72407
#
# Velocity S-wave (km/s) = 3.13976 4.24362 3.73272
# Velocity P-wave (km/s) = 5.74842 7.18108 6.50432
#
# Compressibility (1/GPa) = 0.01855984
#
# Stress axis : x y z
#
# Youngs Moduli (GPa) = 80.87648 147.70930 52.69357
#
# Poissons Ratio (x) = 0.17388 0.50967
# Poissons Ratio (y) = 0.09520 -0.05656
# Poissons Ratio (z) = 0.78227 -0.15854
#
# Static dielectric constant tensor:
#      x y z
#    x 2.148190 0.038620 -0.052110 
#    y 0.038620 2.233030 -0.024900 
#    z -0.052110 -0.024900 2.370590 
# 
# From -- ./inp_files/120227.got.cif
#   From: 2010.05.17/outbox.cif.g08.bks.cpg/sg2_61_cif.got.tgz:120227.got - 2010.06.03 11:33:40.
