data_PCOD9097288
_publ_section_title
;
Structure prediction by ZEFSAII (Michael W. Deem and Ramdas Pophale) SiO2 
 PCOD9097288
Probable space group: P -1
;
_chemical_formula_sum "Si O2"
_cell_formula_units_Z 13
_cell_length_a 22.300212
_cell_length_b 13.539430
_cell_length_c 14.181619
_cell_angle_alpha 152.172412
_cell_angle_beta 20.498569
_cell_angle_gamma 161.680026
_cell_volume 470.853966
_symmetry_space_group_name_H-M "P -1"
_symmetry_group_IT_number 2
_symmetry_cell_setting 'triclinic'
loop_
_space_group_symop_operation_xyz
x,y,z
-x,-y,-z
loop_
_atom_site_type_symbol
_atom_site_label
_atom_site_fract_x
_atom_site_fract_y
_atom_site_fract_z
Si Si1 0.146905 0.150812 0.535396
Si Si2 0.259088 0.551497 0.381545
Si Si3 0.000000 0.500000 0.000000
Si Si4 0.082248 0.481177 0.035946
Si Si5 0.127646 0.270141 0.142144
Si Si6 0.550158 0.346517 0.626655
Si Si7 0.314006 0.440860 0.818576
O O1 0.251728 0.288582 0.392733
O O2 0.403476 0.347372 0.384360
O O3 0.036488 0.285208 0.844707
O O4 0.952756 0.810304 0.576604
O O5 0.245707 0.513296 0.258094
O O6 0.478870 0.694217 0.252285
O O7 0.146597 0.668912 0.684792
O O8 0.864742 0.281496 0.913720
O O9 0.302823 0.719115 0.689394
O O10 0.288347 0.572287 0.878278
O O11 0.291983 0.202279 0.843103
O O12 0.175347 0.414144 0.091935
O O13 0.843901 0.918840 0.275345
#
# Coordination Sequence:
#
# PCOD9097288 Si02
#       7
#     2   2   1   2   2   2   2
#     4  10  20  38  61  85 114 155 194 238 283 340
#     4  11  21  35  61  88 114 151 195 238 289 335
#     4   8  18  36  58  88 108 144 194 234 280 342
#     4  10  20  36  60  85 117 147 194 240 282 337
#     4  10  21  37  60  84 117 160 189 231 290 348
#     4   9  19  37  62  84 118 149 192 242 288 336
#     4  10  21  39  59  83 118 160 192 228 292 339
#
# _framework density 27.609411000000001
#
# number of rings (size 3 to 8) (size 9 to 14) (size 15 to 20)
#    0.000    2.154    1.538    1.385    0.000    1.231 
#    0.000    3.077   27.077    0.000    0.000    0.000 
#    0.000    0.000    0.000    0.000    0.000    0.000 
#
# Total GULP energy -72371.199908 kJ/mol
# GULP energy per Si atom -5567.015378 kJ/mol
# Density = 2.754657 g / cm^3
# Si number density = 27.609411 Si / 1000 Ang^3
#
#
#
# Elastic Constant Matrix: (Units=GPa)
#
#
# Indices 1 2 3 4 5 6 
#
# 1 226.7486 0.1124 29.2720 -0.9072 29.4599 8.2960
# 2 0.1124 73.5149 -5.7516 -7.0278 -7.8524 -1.5374
# 3 29.2720 -5.7516 84.3250 -12.9732 12.3828 3.7775
# 4 -0.9072 -7.0278 -12.9732 29.7922 13.9483 -8.6796
# 5 29.4599 -7.8524 12.3828 13.9483 63.1082 1.8922
# 6 8.2960 -1.5374 3.7775 -8.6796 1.8922 29.1430
#
#
#
# Elastic Compliance Matrix: (Units=1/GPa)
#
#
# Indices 1 2 3 4 5 6 
#
# 1 0.004892 -0.000342 -0.001351 0.000135 -0.002059 -0.001062
# 2 -0.000342 0.014242 0.001576 0.004296 0.000617 0.001884
# 3 -0.001351 0.001576 0.014319 0.008875 -0.003990 0.001514
# 4 0.000135 0.004296 0.008875 0.048406 -0.012396 0.014259
# 5 -0.002059 0.000617 -0.003990 -0.012396 0.020523 -0.003889
# 6 -0.001062 0.001884 0.001514 0.014259 -0.003889 0.039018
#
#
# Mechanical properties :
#
#
# Convention : Reuss Voigt Hill
#
# Bulk Modulus (GPa) = 30.10329 47.98379 39.04354
# Shear Modulus (GPa) = 32.74243 48.47238 40.60741
#
# Velocity S-wave (km/s) = 3.44745 4.19459 3.83924
# Velocity P-wave (km/s) = 5.17431 6.39349 5.81593
#
# Compressibility (1/GPa) = 0.03321896
#
# Stress axis : x y z
#
# Youngs Moduli (GPa) = 204.43183 70.21255 69.83844
#
# Poissons Ratio (x) = 0.02404 0.09434
# Poissons Ratio (y) = 0.07000 -0.11008
# Poissons Ratio (z) = 0.27614 -0.11067
#
# Static dielectric constant tensor:
#      x y z
#    x 2.258370 -0.111540 -0.055340 
#    y -0.111540 2.435080 0.112650 
#    z -0.055340 0.112650 2.281390 
# 
# From -- ./inp_files/153884.got.cif
#   From: 2010.05.17/outbox.cif.g08.bks.cpg/sg2_77_cif.got.tgz:153884.got - 2010.06.03 11:33:40.
