data_PCOD9097333
_publ_section_title
;
Structure prediction by ZEFSAII (Michael W. Deem and Ramdas Pophale) SiO2 
 PCOD9097333
Probable space group: P -1
;
_chemical_formula_sum "Si O2"
_cell_formula_units_Z 16
_cell_length_a 8.864166
_cell_length_b 11.635610
_cell_length_c 9.587053
_cell_angle_alpha 58.880622
_cell_angle_beta 79.820691
_cell_angle_gamma 65.331793
_cell_volume 768.292732
_symmetry_space_group_name_H-M "P -1"
_symmetry_group_IT_number 2
_symmetry_cell_setting 'triclinic'
loop_
_space_group_symop_operation_xyz
x,y,z
-x,-y,-z
loop_
_atom_site_type_symbol
_atom_site_label
_atom_site_fract_x
_atom_site_fract_y
_atom_site_fract_z
Si Si1 0.121959 0.423190 0.749208
Si Si2 0.683666 0.149395 0.739565
Si Si3 0.802424 0.700631 0.670867
Si Si4 0.792868 0.818576 0.889006
Si Si5 0.640267 0.410356 0.419536
Si Si6 0.595763 0.139661 0.066383
Si Si7 0.487318 0.638828 0.827414
Si Si8 0.677922 0.823268 0.329483
O O1 0.261004 0.490902 0.704640
O O2 0.185618 0.318563 0.672390
O O3 0.954412 0.563051 0.675427
O O4 0.111594 0.316762 0.941043
O O5 0.744902 0.259571 0.577834
O O6 0.504626 0.171032 0.685397
O O7 0.793069 0.977019 0.821826
O O8 0.648047 0.191427 0.881456
O O9 0.849131 0.775330 0.748482
O O10 0.668867 0.640610 0.786663
O O11 0.709534 0.814105 0.494232
O O12 0.599120 0.837267 0.926210
O O13 0.500000 0.500000 0.500000
O O14 0.572080 0.369039 0.314326
O O15 0.617850 0.222081 0.148102
O O16 0.689927 0.967189 0.174333
O O17 0.500000 0.500000 0.000000
#
# Coordination Sequence:
#
# PCOD9097333 Si02
#       8
#     2   2   2   2   2   2   2   2
#     4  12  22  41  61  90 126 167 197 242 308 376
#     4  11  19  37  63  91 116 157 207 261 295 352
#     4  11  24  37  61  92 125 157 203 250 301 369
#     4  10  20  36  60  87 119 161 203 246 302 359
#     4  12  22  37  64  94 123 156 206 250 306 357
#     4  10  20  36  64  89 120 152 211 260 296 348
#     4  11  23  39  62  95 121 156 201 261 304 349
#     4  11  20  37  63  91 117 159 208 252 300 353
#
# _framework density 20.825395
#
# number of rings (size 3 to 8) (size 9 to 14) (size 15 to 20)
#    0.000    1.000    5.000    3.750    1.750    1.500 
#    0.000    0.625    2.750    1.500    0.000    0.000 
#    0.000    0.000    0.000    0.000    0.000    0.000 
#
# Total GULP energy -89381.269110 kJ/mol
# GULP energy per Si atom -5586.329319 kJ/mol
# Density = 2.077800 g / cm^3
# Si number density = 20.825395 Si / 1000 Ang^3
#
#
#
# Elastic Constant Matrix: (Units=GPa)
#
#
# Indices 1 2 3 4 5 6 
#
# 1 5.5046 19.5971 10.6316 0.5745 3.6902 4.0664
# 2 19.5971 89.9109 6.7732 -6.3713 6.8927 13.4257
# 3 10.6316 6.7732 58.7242 -8.7038 7.6311 5.9846
# 4 0.5745 -6.3713 -8.7038 31.0406 9.3269 4.5284
# 5 3.6902 6.8927 7.6311 9.3269 18.0265 -3.2315
# 6 4.0664 13.4257 5.9846 4.5284 -3.2315 24.8268
#
#
#
# Elastic Compliance Matrix: (Units=1/GPa)
#
#
# Indices 1 2 3 4 5 6 
#
# 1 -1.731109 0.378242 0.310991 0.214896 -0.040338 -0.040414
# 2 0.378242 -0.068178 -0.065145 -0.037259 -0.005086 -0.003247
# 3 0.310991 -0.065145 -0.032948 -0.023523 -0.013574 -0.005243
# 4 0.214896 -0.037259 -0.023523 0.028212 -0.037871 -0.019454
# 5 -0.040338 -0.005086 -0.013574 -0.037871 0.096778 0.032134
# 6 -0.040414 -0.003247 -0.005243 -0.019454 0.032134 0.057649
#
#
# Mechanical properties :
#
#
# Convention : Reuss Voigt Hill
#
# Bulk Modulus (GPa) = -1.71215 25.34928 11.81857
# Shear Modulus (GPa) = -1.61684 22.58796 10.48556
#
# Velocity S-wave (km/s) = -0.88208 3.29695 2.24631
# Velocity P-wave (km/s) = 1.36431 5.16642 3.52353
#
# Compressibility (1/GPa) = -0.58406082
#
# Stress axis : x y z
#
# Youngs Moduli (GPa) = -0.57766 -14.66753 -30.35053
#
# Poissons Ratio (x) = 5.54787 9.43874
# Poissons Ratio (y) = 0.21850 -1.97719
# Poissons Ratio (z) = 0.17965 -0.95552
#
# Static dielectric constant tensor:
#      x y z
#    x 1.748130 0.012020 0.014330 
#    y 0.012020 1.778800 0.009200 
#    z 0.014330 0.009200 1.761770 
# 
# From -- ./inp_files/185052.got.cif
#   From: 2010.05.17/outbox.cif.g08.bks.cpg/sg2_93_cif.got.tgz:185052.got - 2010.06.03 11:33:40.
