data_PCOD9097551
_publ_section_title
;
Structure prediction by ZEFSAII (Michael W. Deem and Ramdas Pophale) SiO2 
 PCOD9097551
Probable space group: P -1
;
_chemical_formula_sum "Si O2"
_cell_formula_units_Z 16
_cell_length_a 20.576808
_cell_length_b 12.317539
_cell_length_c 8.310053
_cell_angle_alpha 114.535036
_cell_angle_beta 99.983072
_cell_angle_gamma 138.225224
_cell_volume 770.927378
_symmetry_space_group_name_H-M "P -1"
_symmetry_group_IT_number 2
_symmetry_cell_setting 'triclinic'
loop_
_space_group_symop_operation_xyz
x,y,z
-x,-y,-z
loop_
_atom_site_type_symbol
_atom_site_label
_atom_site_fract_x
_atom_site_fract_y
_atom_site_fract_z
Si Si1 0.364209 0.914136 0.485668
Si Si2 0.152776 0.979459 0.703082
Si Si3 0.849696 0.193263 0.147678
Si Si4 0.740393 0.597382 0.073848
Si Si5 0.731950 0.496291 0.659160
Si Si6 0.368749 0.943841 0.129624
Si Si7 0.166465 0.402608 0.581265
Si Si8 0.911160 0.371533 0.719036
O O1 0.554543 0.249545 0.784546
O O2 0.316201 0.716208 0.436654
O O3 0.323725 0.839323 0.231835
O O4 0.260175 0.848447 0.475626
O O5 0.230863 0.044964 0.932827
O O6 0.112108 0.799481 0.465005
O O7 0.988622 0.770319 0.564319
O O8 0.249492 0.242928 0.819098
O O9 0.000000 0.500000 0.500000
O O10 0.958644 0.329434 0.131647
O O11 0.728114 0.097832 0.989811
O O12 0.803317 0.667312 0.962667
O O13 0.823679 0.672575 0.309484
O O14 0.826610 0.644355 0.622017
O O15 0.561119 0.279159 0.415350
O O16 0.314744 0.741669 0.875014
O O17 0.000000 0.500000 0.000000
#
# Coordination Sequence:
#
# PCOD9097551 Si02
#       8
#     2   2   2   2   2   2   2   2
#     4  11  21  39  66  92 126 164 210 262 309 368
#     4  11  25  42  59  91 133 166 203 258 312 378
#     4  10  20  36  61  87 121 162 202 253 307 363
#     4  11  25  44  60  93 134 164 205 257 319 375
#     4  11  24  38  68  96 119 166 213 262 310 367
#     4  11  19  39  61  96 125 152 212 270 306 358
#     4  12  21  41  66  92 125 162 211 263 311 366
#     4  11  21  38  65  92 118 160 211 255 305 366
#
# _framework density 20.754224000000001
#
# number of rings (size 3 to 8) (size 9 to 14) (size 15 to 20)
#    0.000    1.000    6.250    2.250    1.750    1.000 
#    2.250    2.500    0.000    0.000    0.000    0.000 
#    0.000    0.000    0.000    0.000    0.000    0.000 
#
# Total GULP energy -89261.290849 kJ/mol
# GULP energy per Si atom -5578.830678 kJ/mol
# Density = 2.070699 g / cm^3
# Si number density = 20.754224 Si / 1000 Ang^3
#
#
#
# Elastic Constant Matrix: (Units=GPa)
#
#
# Indices 1 2 3 4 5 6 
#
# 1 118.7989 52.1108 38.6770 -13.6203 9.5622 1.3481
# 2 52.1108 86.3847 29.3749 -26.0097 -4.2343 -9.3223
# 3 38.6770 29.3749 54.1130 -20.4155 3.4935 -4.5268
# 4 -13.6203 -26.0097 -20.4155 26.3349 -7.1043 0.4028
# 5 9.5622 -4.2343 3.4935 -7.1043 37.6829 -2.5993
# 6 1.3481 -9.3223 -4.5268 0.4028 -2.5993 40.5085
#
#
#
# Elastic Compliance Matrix: (Units=1/GPa)
#
#
# Indices 1 2 3 4 5 6 
#
# 1 0.015248 -0.010084 -0.009578 -0.011192 -0.006514 -0.004205
# 2 -0.010084 0.025425 0.002588 0.024571 0.010284 0.006892
# 3 -0.009578 0.002588 0.033288 0.024575 0.004592 0.004685
# 4 -0.011192 0.024571 0.024575 0.080526 0.019139 0.009201
# 5 -0.006514 0.010284 0.004592 0.019139 0.032874 0.005016
# 6 -0.004205 0.006892 0.004685 0.009201 0.005016 0.027166
#
#
# Mechanical properties :
#
#
# Convention : Reuss Voigt Hill
#
# Bulk Modulus (GPa) = 25.11713 55.51355 40.31534
# Shear Modulus (GPa) = 19.08795 30.18084 24.63440
#
# Velocity S-wave (km/s) = 3.03597 3.81754 3.44896
# Velocity P-wave (km/s) = 4.94145 6.79982 5.94372
#
# Compressibility (1/GPa) = 0.03981346
#
# Stress axis : x y z
#
# Youngs Moduli (GPa) = 65.58137 39.33129 30.04121
#
# Poissons Ratio (x) = 0.39662 0.28773
# Poissons Ratio (y) = 0.66134 -0.07776
# Poissons Ratio (z) = 0.62814 -0.10181
#
# Static dielectric constant tensor:
#      x y z
#    x 1.742800 0.011570 -0.008580 
#    y 0.011570 1.830360 -0.033160 
#    z -0.008580 -0.033160 1.770190 
# 
# From -- ./inp_files/333624.got.cif
#   From: 2010.05.17/outbox.cif.g08.bks.cpg/sg2_167_cif.got.tgz:333624.got - 2010.06.03 11:33:40.
