data_PCOD9097965
_publ_section_title
;
Structure prediction by ZEFSAII (Michael W. Deem and Ramdas Pophale) SiO2 
 PCOD9097965
Probable space group: P -1
;
_chemical_formula_sum "Si O2"
_cell_formula_units_Z 16
_cell_length_a 7.889571
_cell_length_b 15.624441
_cell_length_c 27.195307
_cell_angle_alpha 18.424053
_cell_angle_beta 134.658664
_cell_angle_gamma 128.033294
_cell_volume 734.191523
_symmetry_space_group_name_H-M "P -1"
_symmetry_group_IT_number 2
_symmetry_cell_setting 'triclinic'
loop_
_space_group_symop_operation_xyz
x,y,z
-x,-y,-z
loop_
_atom_site_type_symbol
_atom_site_label
_atom_site_fract_x
_atom_site_fract_y
_atom_site_fract_z
Si Si1 0.396959 0.539418 0.040753
Si Si2 0.043746 0.135013 0.808874
Si Si3 0.898956 0.712664 0.514606
Si Si4 0.326642 0.409169 0.634905
Si Si5 0.382788 0.117267 0.185087
Si Si6 0.936327 0.910101 0.310754
Si Si7 0.851092 0.231399 0.880437
Si Si8 0.864865 0.303433 0.325052
O O1 0.317527 0.319726 0.108104
O O2 0.588956 0.386279 0.203881
O O3 0.532681 0.712719 0.936108
O O4 0.180707 0.768161 0.896854
O O5 0.208847 0.243555 0.743033
O O6 0.909482 0.404021 0.665818
O O7 0.841382 0.001139 0.815222
O O8 0.193241 0.918501 0.996513
O O9 0.985106 0.871739 0.399468
O O10 0.082691 0.694717 0.607189
O O11 0.623689 0.881412 0.376940
O O12 0.270107 0.259906 0.654832
O O13 0.604360 0.373850 0.724739
O O14 0.175276 0.727023 0.433079
O O15 0.004039 0.461188 0.797143
O O16 0.000000 0.000000 0.000000
O O17 0.000000 0.000000 0.500000
#
# Coordination Sequence:
#
# PCOD9097965 Si02
#       8
#     2   2   2   2   2   2   2   2
#     4  10  20  38  63  91 131 173 220 263 320 388
#     4  11  22  39  65 100 132 172 217 269 335 386
#     4  10  21  35  63  98 131 167 220 269 327 377
#     4  10  23  42  64  96 136 168 214 274 330 390
#     4  10  20  36  62  96 131 169 217 275 311 384
#     4   9  21  41  64  88 130 174 216 266 324 386
#     4  12  24  40  68  99 131 169 218 273 326 388
#     4  12  23  39  62 102 136 170 213 276 332 384
#
# _framework density 21.792677999999999
#
# number of rings (size 3 to 8) (size 9 to 14) (size 15 to 20)
#    0.000    1.500    3.750    1.500    1.750    3.000 
#    0.000    0.625    2.750    3.750    0.000    0.000 
#    0.000    0.000    0.000    0.000    0.000    0.000 
#
# Total GULP energy -89489.883274 kJ/mol
# GULP energy per Si atom -5593.117705 kJ/mol
# Density = 2.174308 g / cm^3
# Si number density = 21.792678 Si / 1000 Ang^3
#
#
#
# Elastic Constant Matrix: (Units=GPa)
#
#
# Indices 1 2 3 4 5 6 
#
# 1 45.5012 22.1366 13.8724 1.3954 -5.4025 -8.5366
# 2 22.1366 142.0988 61.1149 0.7191 16.8066 -15.7610
# 3 13.8724 61.1149 143.8212 5.9248 13.5268 -14.9897
# 4 1.3954 0.7191 5.9248 54.3759 -9.3840 -6.1695
# 5 -5.4025 16.8066 13.5268 -9.3840 39.7772 5.7210
# 6 -8.5366 -15.7610 -14.9897 -6.1695 5.7210 23.0626
#
#
#
# Elastic Compliance Matrix: (Units=1/GPa)
#
#
# Indices 1 2 3 4 5 6 
#
# 1 0.025535 -0.003553 -0.000852 0.000922 0.004678 0.005556
# 2 -0.003553 0.009889 -0.002980 0.000065 -0.004292 0.004588
# 3 -0.000852 -0.002980 0.009003 -0.000942 -0.002704 0.003918
# 4 0.000922 0.000065 -0.000942 0.019690 0.004499 0.003925
# 5 0.004678 -0.004292 -0.002704 0.004499 0.030925 -0.009427
# 6 0.005556 0.004588 0.003918 0.003925 -0.009427 0.054488
#
#
# Mechanical properties :
#
#
# Convention : Reuss Voigt Hill
#
# Bulk Modulus (GPa) = 33.71943 58.40767 46.06355
# Shear Modulus (GPa) = 28.70479 39.06295 33.88387
#
# Velocity S-wave (km/s) = 3.63323 4.23836 3.94741
# Velocity P-wave (km/s) = 5.75386 7.12821 6.47758
#
# Compressibility (1/GPa) = 0.02965649
#
# Stress axis : x y z
#
# Youngs Moduli (GPa) = 39.16138 101.12456 111.07191
#
# Poissons Ratio (x) = 0.35931 0.09463
# Poissons Ratio (y) = 0.13915 0.33102
# Poissons Ratio (z) = 0.03337 0.30138
#
# Static dielectric constant tensor:
#      x y z
#    x 1.840510 -0.013160 -0.035940 
#    y -0.013160 1.750960 -0.005360 
#    z -0.035940 -0.005360 1.798050 
# 
# From -- ./inp_files/273900.got.cif
#   From: 2010.05.17/outbox.cif.g08.bks.cpg/sg2_137_cif.got.tgz:273900.got - 2010.06.03 11:33:40.
