data_PCOD9097227
_publ_section_title
;
Structure prediction by ZEFSAII (Michael W. Deem and Ramdas Pophale) SiO2 
 PCOD9097227
Probable space group: P -1
;
_chemical_formula_sum "Si O2"
_cell_formula_units_Z 14
_cell_length_a 10.812019
_cell_length_b 5.281877
_cell_length_c 21.574585
_cell_angle_alpha 103.894961
_cell_angle_beta 149.539513
_cell_angle_gamma 83.591509
_cell_volume 594.818759
_symmetry_space_group_name_H-M "P -1"
_symmetry_group_IT_number 2
_symmetry_cell_setting 'triclinic'
loop_
_space_group_symop_operation_xyz
x,y,z
-x,-y,-z
loop_
_atom_site_type_symbol
_atom_site_label
_atom_site_fract_x
_atom_site_fract_y
_atom_site_fract_z
Si Si1 0.490575 0.923365 0.173088
Si Si2 0.484920 0.458809 0.571426
Si Si3 0.647206 0.061442 0.472808
Si Si4 0.899806 0.237530 0.777915
Si Si5 0.784326 0.288794 0.425544
Si Si6 0.628869 0.810640 0.087544
Si Si7 0.804127 0.630850 0.960793
O O1 0.659349 0.094107 0.307183
O O2 0.598226 0.897002 0.149834
O O3 0.270497 0.096509 0.079049
O O4 0.424396 0.618280 0.149390
O O5 0.326251 0.162204 0.480796
O O6 0.775080 0.464953 0.705752
O O7 0.401820 0.549195 0.609888
O O8 0.374145 0.656782 0.491263
O O9 0.355301 0.955414 0.320777
O O10 0.828371 0.113388 0.495232
O O11 0.081718 0.144061 0.802293
O O12 0.075600 0.321833 0.916816
O O13 0.000000 0.500000 0.500000
O O14 0.500000 0.500000 0.000000
O O15 0.500000 0.000000 0.000000
O O16 0.000000 0.500000 0.000000
#
# Coordination Sequence:
#
# PCOD9097227 Si02
#       7
#     2   2   2   2   2   2   2
#     4  12  25  40  54  94 118 153 211 227 297 365
#     4   8  19  34  56  86 108 149 193 229 295 353
#     4   8  19  34  56  86 108 149 193 229 295 353
#     4  10  20  36  60  76 125 153 190 230 293 336
#     4  10  22  40  63  85 120 148 194 259 306 339
#     4  12  24  40  58  84 122 169 197 237 285 350
#     4  12  24  36  59  85 127 155 188 243 294 363
#
# _framework density 23.536581000000002
#
# number of rings (size 3 to 8) (size 9 to 14) (size 15 to 20)
#    1.714    0.000    2.857    2.143    6.000    0.571 
#    0.000    0.000    0.000    1.714    0.000    0.000 
#    0.000    0.000    0.000    0.000    0.000    0.000 
#
# Total GULP energy -78026.227833 kJ/mol
# GULP energy per Si atom -5573.301988 kJ/mol
# Density = 2.348301 g / cm^3
# Si number density = 23.536581 Si / 1000 Ang^3
#
#
#
# Elastic Constant Matrix: (Units=GPa)
#
#
# Indices 1 2 3 4 5 6 
#
# 1 98.0051 4.0718 -3.7374 -4.6607 15.7402 -10.9609
# 2 4.0718 130.7157 6.3880 -2.7862 0.8308 6.2736
# 3 -3.7374 6.3880 69.2736 11.1527 2.5311 -2.1378
# 4 -4.6607 -2.7862 11.1527 25.3662 0.5269 12.0638
# 5 15.7402 0.8308 2.5311 0.5269 31.2117 -0.5207
# 6 -10.9609 6.2736 -2.1378 12.0638 -0.5207 49.2745
#
#
#
# Elastic Compliance Matrix: (Units=1/GPa)
#
#
# Indices 1 2 3 4 5 6 
#
# 1 0.011493 -0.000465 0.000845 0.000654 -0.005823 0.002431
# 2 -0.000465 0.007843 -0.001133 0.002060 0.000055 -0.001655
# 3 0.000845 -0.001133 0.016103 -0.008489 -0.001507 0.003093
# 4 0.000654 0.002060 -0.008489 0.049517 -0.000743 -0.012616
# 5 -0.005823 0.000055 -0.001507 -0.000743 0.035095 -0.000815
# 6 0.002431 -0.001655 0.003093 -0.012616 -0.000815 0.024260
#
#
# Mechanical properties :
#
#
# Convention : Reuss Voigt Hill
#
# Bulk Modulus (GPa) = 29.46917 34.60434 32.03675
# Shear Modulus (GPa) = 31.82111 40.58859 36.20485
#
# Velocity S-wave (km/s) = 3.68092 4.15720 3.92629
# Velocity P-wave (km/s) = 5.53293 6.14633 5.84768
#
# Compressibility (1/GPa) = 0.03393377
#
# Stress axis : x y z
#
# Youngs Moduli (GPa) = 87.00757 127.50152 62.10089
#
# Poissons Ratio (x) = 0.05930 -0.05250
# Poissons Ratio (y) = 0.04046 0.07037
# Poissons Ratio (z) = -0.07356 0.14447
#
# Static dielectric constant tensor:
#      x y z
#    x 1.995130 0.038970 0.005960 
#    y 0.038970 2.115410 0.003330 
#    z 0.005960 0.003330 1.767440 
# 
# From -- ./inp_files/609107.got.cif
#   From: 2010.05.17/outbox.cif.g08.bks.cpg/sg2_305_cif.got.tgz:609107.got - 2010.06.03 11:33:40.
