data_PCOD9097149
_publ_section_title
;
Structure prediction by ZEFSAII (Michael W. Deem and Ramdas Pophale) SiO2 
 PCOD9097149
Probable space group: P -1
;
_chemical_formula_sum "Si O2"
_cell_formula_units_Z 16
_cell_length_a 16.215218
_cell_length_b 10.255753
_cell_length_c 13.144711
_cell_angle_alpha 81.113201
_cell_angle_beta 154.719775
_cell_angle_gamma 113.375951
_cell_volume 731.327254
_symmetry_space_group_name_H-M "P -1"
_symmetry_group_IT_number 2
_symmetry_cell_setting 'triclinic'
loop_
_space_group_symop_operation_xyz
x,y,z
-x,-y,-z
loop_
_atom_site_type_symbol
_atom_site_label
_atom_site_fract_x
_atom_site_fract_y
_atom_site_fract_z
Si Si1 0.811407 0.310227 0.352260
Si Si2 0.926689 0.442372 0.070992
Si Si3 0.358362 0.967003 0.451380
Si Si4 0.434063 0.270024 0.617117
Si Si5 0.422638 0.296222 0.824465
Si Si6 0.581167 0.259999 0.321300
Si Si7 0.904296 0.675343 0.874311
Si Si8 0.768485 0.701988 0.175440
O O1 0.701833 0.300430 0.340092
O O2 0.000000 0.500000 0.500000
O O3 0.958821 0.237188 0.536648
O O4 0.585534 0.233960 0.034037
O O5 0.206435 0.579954 0.397052
O O6 0.928844 0.300969 0.038076
O O7 0.728800 0.387291 0.944060
O O8 0.847711 0.516645 0.889434
O O9 0.445310 0.891144 0.636371
O O10 0.500000 0.000000 0.500000
O O11 0.382473 0.117583 0.513507
O O12 0.074168 0.827338 0.122056
O O13 0.316252 0.234655 0.601243
O O14 0.327518 0.345168 0.423154
O O15 0.258366 0.251043 0.746084
O O16 0.591287 0.499596 0.989397
O O17 0.334139 0.238245 0.029218
#
# Coordination Sequence:
#
# PCOD9097149 Si02
#       8
#     2   2   2   2   2   2   2   2
#     4   9  17  34  59  90 122 148 184 244 306 356
#     4  10  20  36  59  89 119 143 203 259 296 342
#     4  11  24  46  57  81 126 170 200 250 295 348
#     4  12  22  38  62  86 118 163 203 239 305 361
#     4   9  19  31  57  91 117 147 189 245 299 359
#     4  10  21  37  62  90 120 158 200 241 299 358
#     4  10  22  39  59  84 114 157 203 254 296 349
#     4   9  17  36  58  89 123 148 187 243 306 355
#
# _framework density 21.878032000000001
#
# number of rings (size 3 to 8) (size 9 to 14) (size 15 to 20)
#    0.000    2.000    1.250    3.750    0.000    1.000 
#    9.000    2.500    0.000    1.500    0.000    0.000 
#    0.000    0.000    0.000    0.000    0.000    0.000 
#
# Total GULP energy -89248.612099 kJ/mol
# GULP energy per Si atom -5578.038256 kJ/mol
# Density = 2.182824 g / cm^3
# Si number density = 21.878032 Si / 1000 Ang^3
#
#
#
# Elastic Constant Matrix: (Units=GPa)
#
#
# Indices 1 2 3 4 5 6 
#
# 1 70.8892 28.7956 30.1362 -11.4651 -18.3462 -12.5873
# 2 28.7956 55.4920 27.9624 -21.5959 -4.9620 -10.4750
# 3 30.1362 27.9624 80.9830 -38.0289 -0.8086 -14.8283
# 4 -11.4651 -21.5959 -38.0289 32.1565 1.7822 -2.2279
# 5 -18.3462 -4.9620 -0.8086 1.7822 31.0690 -7.1592
# 6 -12.5873 -10.4750 -14.8283 -2.2279 -7.1592 29.3715
#
#
#
# Elastic Compliance Matrix: (Units=1/GPa)
#
#
# Indices 1 2 3 4 5 6 
#
# 1 0.025287 -0.009265 -0.008478 -0.007631 0.015135 0.006363
# 2 -0.009265 0.033313 0.009488 0.031262 0.001882 0.015530
# 3 -0.008478 0.009488 0.043756 0.056891 0.000436 0.026262
# 4 -0.007631 0.031262 0.056891 0.119586 0.005967 0.047125
# 5 0.015135 0.001882 0.000436 0.005967 0.045451 0.018909
# 6 0.006363 0.015530 0.026262 0.047125 0.018909 0.063754
#
#
# Mechanical properties :
#
#
# Convention : Reuss Voigt Hill
#
# Bulk Modulus (GPa) = 11.64889 42.35028 26.99958
# Shear Modulus (GPa) = 13.28822 26.55073 19.91948
#
# Velocity S-wave (km/s) = 2.46718 3.48743 3.02069
# Velocity P-wave (km/s) = 3.66769 5.96789 4.95316
#
# Compressibility (1/GPa) = 0.08584511
#
# Stress axis : x y z
#
# Youngs Moduli (GPa) = 39.54615 30.01790 22.85418
#
# Poissons Ratio (x) = 0.27811 0.19376
# Poissons Ratio (y) = 0.36639 -0.21683
# Poissons Ratio (z) = 0.33528 -0.28480
#
# Static dielectric constant tensor:
#      x y z
#    x 1.831990 0.026000 0.025570 
#    y 0.026000 1.814920 0.027540 
#    z 0.025570 0.027540 1.832760 
# 
# From -- ./inp_files/447426.got.cif
#   From: 2010.05.17/outbox.cif.g08.bks.cpg/sg2_224_cif.got.tgz:447426.got - 2010.06.03 11:33:40.
