data_PCOD9097497
_publ_section_title
;
Structure prediction by ZEFSAII (Michael W. Deem and Ramdas Pophale) SiO2 
 PCOD9097497
Probable space group: P -1
;
_chemical_formula_sum "Si O2"
_cell_formula_units_Z 14
_cell_length_a 9.254532
_cell_length_b 12.802532
_cell_length_c 19.167845
_cell_angle_alpha 17.457722
_cell_angle_beta 62.779906
_cell_angle_gamma 60.986003
_cell_volume 595.690190
_symmetry_space_group_name_H-M "P -1"
_symmetry_group_IT_number 2
_symmetry_cell_setting 'triclinic'
loop_
_space_group_symop_operation_xyz
x,y,z
-x,-y,-z
loop_
_atom_site_type_symbol
_atom_site_label
_atom_site_fract_x
_atom_site_fract_y
_atom_site_fract_z
Si Si1 0.940128 0.303922 0.232861
Si Si2 0.946219 0.485024 0.275616
Si Si3 0.507305 0.916906 0.633466
Si Si4 0.269061 0.390131 0.034372
Si Si5 0.419969 0.101025 0.877589
Si Si6 0.453199 0.247235 0.575817
Si Si7 0.736871 0.230800 0.996715
O O1 0.106039 0.425693 0.093570
O O2 0.915773 0.362556 0.282073
O O3 0.966574 0.887353 0.471257
O O4 0.791560 0.549731 0.069692
O O5 0.765969 0.663152 0.228142
O O6 0.075377 0.754997 0.073660
O O7 0.671727 0.619480 0.796418
O O8 0.500000 0.000000 0.500000
O O9 0.483237 0.226278 0.498487
O O10 0.366660 0.705258 0.823540
O O11 0.389749 0.029422 0.254554
O O12 0.536685 0.356798 0.657230
O O13 0.500000 0.000000 0.000000
O O14 0.382094 0.801192 0.023461
O O15 0.299476 0.083314 0.744403
#
# Coordination Sequence:
#
# PCOD9097497 Si02
#       7
#     2   2   2   2   2   2   2
#     4  10  21  37  67  99 129 167 220 280 324 384
#     4  11  23  42  68  94 135 172 224 270 330 381
#     4  11  22  37  68  97 133 168 225 269 330 388
#     4  10  20  36  61 101 132 166 212 276 336 381
#     4  12  27  44  66  95 135 181 223 264 333 401
#     4  11  23  43  67  95 134 173 222 273 327 394
#     4  11  24  43  66  94 135 176 216 273 333 384
#
# _framework density 23.50215
#
# number of rings (size 3 to 8) (size 9 to 14) (size 15 to 20)
#    0.000    1.143    1.429    6.000    8.000    0.000 
#    0.000    0.714    0.000    0.000    0.000    0.000 
#    0.000    0.000    0.000    0.000    0.000    0.000 
#
# Total GULP energy -78229.625665 kJ/mol
# GULP energy per Si atom -5587.830405 kJ/mol
# Density = 2.344866 g / cm^3
# Si number density = 23.502150 Si / 1000 Ang^3
#
#
#
# Elastic Constant Matrix: (Units=GPa)
#
#
# Indices 1 2 3 4 5 6 
#
# 1 70.1685 8.9543 30.0651 6.3976 -8.8231 2.0172
# 2 8.9543 80.5121 17.7178 1.8056 -3.2305 13.0962
# 3 30.0651 17.7178 104.6155 9.2920 -5.8707 -0.3187
# 4 6.3976 1.8056 9.2920 33.4739 5.7724 -3.1994
# 5 -8.8231 -3.2305 -5.8707 5.7724 32.6763 18.1018
# 6 2.0172 13.0962 -0.3187 -3.1994 18.1018 40.8578
#
#
#
# Elastic Compliance Matrix: (Units=1/GPa)
#
#
# Indices 1 2 3 4 5 6 
#
# 1 0.017434 0.000076 -0.004310 -0.003758 0.006992 -0.004311
# 2 0.000076 0.014259 -0.001998 -0.001824 0.005321 -0.007090
# 3 -0.004310 -0.001998 0.011397 -0.002354 0.000904 0.000357
# 4 -0.003758 -0.001824 -0.002354 0.034408 -0.012729 0.009086
# 5 0.006992 0.005321 0.000904 -0.012729 0.049184 -0.024831
# 6 -0.004311 -0.007090 0.000357 0.009086 -0.024831 0.038676
#
#
# Mechanical properties :
#
#
# Convention : Reuss Voigt Hill
#
# Bulk Modulus (GPa) = 32.65202 40.97450 36.81326
# Shear Modulus (GPa) = 26.59122 34.63888 30.61505
#
# Velocity S-wave (km/s) = 3.36733 3.84325 3.61314
# Velocity P-wave (km/s) = 5.38906 6.09642 5.75362
#
# Compressibility (1/GPa) = 0.03062598
#
# Stress axis : x y z
#
# Youngs Moduli (GPa) = 57.35814 70.12889 87.74447
#
# Poissons Ratio (x) = -0.00530 0.37819
# Poissons Ratio (y) = -0.00433 0.17528
# Poissons Ratio (z) = 0.24722 0.14009
#
# Static dielectric constant tensor:
#      x y z
#    x 1.909050 0.047430 -0.000260 
#    y 0.047430 1.942250 0.010190 
#    z -0.000260 0.010190 1.896740 
# 
# From -- ./inp_files/243155.got.cif
#   From: 2010.05.17/outbox.cif.g08.bks.cpg/sg2_122_cif.got.tgz:243155.got - 2010.06.03 11:33:40.
