data_PCOD9097172
_publ_section_title
;
Structure prediction by ZEFSAII (Michael W. Deem and Ramdas Pophale) SiO2 
 PCOD9097172
Probable space group: P -1
;
_chemical_formula_sum "Si O2"
_cell_formula_units_Z 16
_cell_length_a 10.950115
_cell_length_b 14.092434
_cell_length_c 12.144869
_cell_angle_alpha 54.017937
_cell_angle_beta 107.026783
_cell_angle_gamma 148.214213
_cell_volume 698.723534
_symmetry_space_group_name_H-M "P -1"
_symmetry_group_IT_number 2
_symmetry_cell_setting 'triclinic'
loop_
_space_group_symop_operation_xyz
x,y,z
-x,-y,-z
loop_
_atom_site_type_symbol
_atom_site_label
_atom_site_fract_x
_atom_site_fract_y
_atom_site_fract_z
Si Si1 0.327210 0.453318 0.371410
Si Si2 0.293693 0.272814 0.923014
Si Si3 0.980558 0.235545 0.232324
Si Si4 0.052388 0.030938 0.363523
Si Si5 0.464056 0.131380 0.791526
Si Si6 0.637296 0.414631 0.228422
Si Si7 0.426302 0.730416 0.912344
Si Si8 0.807483 0.190605 0.843438
O O1 0.529098 0.571422 0.248063
O O2 0.456274 0.669562 0.313523
O O3 0.073608 0.296396 0.340481
O O4 0.197397 0.247784 0.553182
O O5 0.290139 0.390683 0.907577
O O6 0.415790 0.264795 0.029453
O O7 0.000000 0.000000 0.000000
O O8 0.683070 0.010276 0.266266
O O9 0.059926 0.174284 0.234671
O O10 0.150999 0.483480 0.068847
O O11 0.326898 0.182824 0.326160
O O12 0.000000 0.000000 0.500000
O O13 0.717078 0.251481 0.789842
O O14 0.268680 0.936451 0.974317
O O15 0.644639 0.324583 0.195879
O O16 0.883118 0.577394 0.260696
O O17 0.611479 0.975515 0.848607
#
# Coordination Sequence:
#
# PCOD9097172 Si02
#       8
#     2   2   2   2   2   2   2   2
#     4  10  21  41  59  89 117 157 197 244 296 347
#     4  11  19  33  59  88 121 149 183 244 308 355
#     4  10  20  36  59  90 120 153 193 244 292 359
#     4  10  21  39  62  88 118 159 198 239 299 356
#     4  11  22  40  61  84 124 157 203 238 297 345
#     4  12  21  37  60  88 126 152 193 246 301 355
#     4  11  21  34  56  95 120 151 195 240 310 342
#     4  11  24  38  58  91 120 161 194 247 291 354
#
# _framework density 22.898899
#
# number of rings (size 3 to 8) (size 9 to 14) (size 15 to 20)
#    0.000    1.250    8.750    0.375    0.000    2.000 
#    0.000    3.125    0.000    3.750    0.000    0.000 
#    0.000    0.000    0.000    0.000    0.000    0.000 
#
# Total GULP energy -89225.764945 kJ/mol
# GULP energy per Si atom -5576.610309 kJ/mol
# Density = 2.284678 g / cm^3
# Si number density = 22.898899 Si / 1000 Ang^3
#
#
#
# Elastic Constant Matrix: (Units=GPa)
#
#
# Indices 1 2 3 4 5 6 
#
# 1 76.1716 9.6991 17.9317 -7.5095 7.3547 13.4724
# 2 9.6991 93.3304 23.3147 -21.9979 12.9250 -5.4290
# 3 17.9317 23.3147 59.2526 -26.2678 0.5616 3.6132
# 4 -7.5095 -21.9979 -26.2678 30.0169 -1.2886 -6.2533
# 5 7.3547 12.9250 0.5616 -1.2886 14.7647 -3.3700
# 6 13.4724 -5.4290 3.6132 -6.2533 -3.3700 32.6169
#
#
#
# Elastic Compliance Matrix: (Units=1/GPa)
#
#
# Indices 1 2 3 4 5 6 
#
# 1 0.016540 -0.000056 -0.005732 -0.002976 -0.010014 -0.007811
# 2 -0.000056 0.015300 -0.001702 0.009930 -0.011645 0.003459
# 3 -0.005732 -0.001702 0.029871 0.024592 0.006300 0.004141
# 4 -0.002976 0.009930 0.024592 0.063974 0.000280 0.012452
# 5 -0.010014 -0.011645 0.006300 0.000280 0.085056 0.010342
# 6 -0.007811 0.003459 0.004141 0.012452 0.010342 0.037458
#
#
# Mechanical properties :
#
#
# Convention : Reuss Voigt Hill
#
# Bulk Modulus (GPa) = 21.39841 36.73839 29.06840
# Shear Modulus (GPa) = 17.93688 27.33364 22.63526
#
# Velocity S-wave (km/s) = 2.80180 3.45870 3.14743
# Velocity P-wave (km/s) = 4.45329 5.65939 5.09217
#
# Compressibility (1/GPa) = 0.04673244
#
# Stress axis : x y z
#
# Youngs Moduli (GPa) = 60.46028 65.36008 33.47725
#
# Poissons Ratio (x) = 0.00366 0.19188
# Poissons Ratio (y) = 0.00339 0.05696
# Poissons Ratio (z) = 0.34653 0.11121
#
# Static dielectric constant tensor:
#      x y z
#    x 1.864040 -0.000980 -0.007530 
#    y -0.000980 1.915590 -0.017480 
#    z -0.007530 -0.017480 1.945900 
# 
# From -- ./inp_files/520822.got.cif
#   From: 2010.05.17/outbox.cif.g08.bks.cpg/sg2_261_cif.got.tgz:520822.got - 2010.06.03 11:33:40.
