data_PCOD9097322
_publ_section_title
;
Structure prediction by ZEFSAII (Michael W. Deem and Ramdas Pophale) SiO2 
 PCOD9097322
Probable space group: P -1
;
_chemical_formula_sum "Si O2"
_cell_formula_units_Z 12
_cell_length_a 14.370936
_cell_length_b 7.878857
_cell_length_c 9.111838
_cell_angle_alpha 109.200510
_cell_angle_beta 132.837273
_cell_angle_gamma 38.893094
_cell_volume 427.688497
_symmetry_space_group_name_H-M "P -1"
_symmetry_group_IT_number 2
_symmetry_cell_setting 'triclinic'
loop_
_space_group_symop_operation_xyz
x,y,z
-x,-y,-z
loop_
_atom_site_type_symbol
_atom_site_label
_atom_site_fract_x
_atom_site_fract_y
_atom_site_fract_z
Si Si1 0.176179 0.886562 0.806764
Si Si2 0.758224 0.542716 0.064347
Si Si3 0.293213 0.146780 0.676287
Si Si4 0.365924 0.819793 0.392937
Si Si5 0.963625 0.329421 0.925003
Si Si6 0.399748 0.397941 0.700593
O O1 0.158457 0.725023 0.838340
O O2 0.231436 0.747281 0.664224
O O3 0.383154 0.768883 0.040338
O O4 0.979334 0.230547 0.750419
O O5 0.839136 0.631985 0.260884
O O6 0.786884 0.508654 0.910536
O O7 0.504893 0.828146 0.888138
O O8 0.339667 0.281452 0.681317
O O9 0.265766 0.038806 0.484169
O O10 0.500000 0.500000 0.500000
O O11 0.526154 0.728780 0.421980
O O12 0.159979 0.011985 0.129846
O O13 0.000000 0.500000 0.000000
#
# Coordination Sequence:
#
# PCOD9097322 Si02
#       6
#     2   2   2   2   2   2
#     4   9  18  34  56  82 112 149 193 237 284 341
#     4  10  20  36  60  87 117 155 197 241 291 349
#     4  10  20  36  60  87 117 155 197 241 291 349
#     4  11  23  38  59  87 119 156 195 241 292 346
#     4  11  23  38  59  87 119 156 195 241 292 346
#     4   9  18  34  56  82 112 149 193 237 284 341
#
# _framework density 28.057804000000001
#
# number of rings (size 3 to 8) (size 9 to 14) (size 15 to 20)
#    0.000    2.000    0.000    5.000    0.000    4.667 
#    0.000    0.000    0.000    5.000    0.000    0.000 
#    0.000    0.000    0.000    0.000    0.000    0.000 
#
# Total GULP energy -67098.571448 kJ/mol
# GULP energy per Si atom -5591.547621 kJ/mol
# Density = 2.799394 g / cm^3
# Si number density = 28.057804 Si / 1000 Ang^3
#
#
#
# Elastic Constant Matrix: (Units=GPa)
#
#
# Indices 1 2 3 4 5 6 
#
# 1 100.0032 49.1667 7.8308 9.7926 -29.1202 -9.6641
# 2 49.1667 206.2037 47.3274 45.3267 -8.6467 -26.3659
# 3 7.8308 47.3274 123.5233 50.1790 -22.5578 -2.5566
# 4 9.7926 45.3267 50.1790 67.5035 -0.2978 -10.0515
# 5 -29.1202 -8.6467 -22.5578 -0.2978 32.3788 4.5283
# 6 -9.6641 -26.3659 -2.5566 -10.0515 4.5283 53.4764
#
#
#
# Elastic Compliance Matrix: (Units=1/GPa)
#
#
# Indices 1 2 3 4 5 6 
#
# 1 0.016948 -0.003732 0.005167 -0.003829 0.017918 -0.000767
# 2 -0.003732 0.006872 -0.002067 -0.002181 -0.003329 0.002487
# 3 0.005167 -0.002067 0.016093 -0.011678 0.015596 -0.002831
# 4 -0.003829 -0.002181 -0.011678 0.025997 -0.012428 0.003614
# 5 0.017918 -0.003329 0.015596 -0.012428 0.057542 -0.004866
# 6 -0.000767 0.002487 -0.002831 0.003614 -0.004866 0.020743
#
#
# Mechanical properties :
#
#
# Convention : Reuss Voigt Hill
#
# Bulk Modulus (GPa) = 25.87359 70.93113 48.40236
# Shear Modulus (GPa) = 31.57715 52.36543 41.97129
#
# Velocity S-wave (km/s) = 3.35839 4.32480 3.87187
# Velocity P-wave (km/s) = 4.92746 7.09040 6.10548
#
# Compressibility (1/GPa) = 0.03864946
#
# Stress axis : x y z
#
# Youngs Moduli (GPa) = 59.00260 145.52784 62.13782
#
# Poissons Ratio (x) = 0.54314 -0.32108
# Poissons Ratio (y) = 0.22021 0.12843
# Poissons Ratio (z) = -0.30488 0.30079
#
# Static dielectric constant tensor:
#      x y z
#    x 2.194640 -0.125510 0.083390 
#    y -0.125510 2.222410 0.040870 
#    z 0.083390 0.040870 2.444200 
# 
# From -- ./inp_files/166570.got.cif
#   From: 2010.05.17/outbox.cif.g08.bks.cpg/sg2_84_cif.got.tgz:166570.got - 2010.06.03 11:33:40.
