data_PCOD9097556
_publ_section_title
;
Structure prediction by ZEFSAII (Michael W. Deem and Ramdas Pophale) SiO2 
 PCOD9097556
Probable space group: P -1
;
_chemical_formula_sum "Si O2"
_cell_formula_units_Z 16
_cell_length_a 18.055931
_cell_length_b 15.054560
_cell_length_c 8.633617
_cell_angle_alpha 34.753679
_cell_angle_beta 39.513449
_cell_angle_gamma 38.270724
_cell_volume 773.658901
_symmetry_space_group_name_H-M "P -1"
_symmetry_group_IT_number 2
_symmetry_cell_setting 'triclinic'
loop_
_space_group_symop_operation_xyz
x,y,z
-x,-y,-z
loop_
_atom_site_type_symbol
_atom_site_label
_atom_site_fract_x
_atom_site_fract_y
_atom_site_fract_z
Si Si1 0.373866 0.373276 0.772753
Si Si2 0.176031 0.307720 0.398085
Si Si3 0.578043 0.353798 0.850460
Si Si4 0.394178 0.918846 0.259550
Si Si5 0.644164 0.967579 0.287301
Si Si6 0.096966 0.550934 0.478093
Si Si7 0.746348 0.742338 0.142162
Si Si8 0.669183 0.354737 0.052246
O O1 0.376243 0.554213 0.486997
O O2 0.514841 0.230320 0.790441
O O3 0.337350 0.329688 0.721738
O O4 0.267582 0.366282 0.066270
O O5 0.264280 0.121059 0.589005
O O6 0.128797 0.426932 0.454719
O O7 0.052922 0.327997 0.467813
O O8 0.425315 0.471862 0.951138
O O9 0.628334 0.369412 0.918400
O O10 0.636479 0.154387 0.007717
O O11 0.355025 0.804603 0.607767
O O12 0.500000 0.000000 0.000000
O O13 0.267309 0.087765 0.176319
O O14 0.685713 0.838394 0.261338
O O15 0.500000 0.000000 0.500000
O O16 0.132983 0.425600 0.750613
O O17 0.189660 0.648592 0.172512
#
# Coordination Sequence:
#
# PCOD9097556 Si02
#       8
#     2   2   2   2   2   2   2   2
#     4  10  20  37  60  89 120 151 200 249 297 348
#     4  10  23  39  63  86 122 158 201 248 290 363
#     4  10  21  35  60  91 121 152 195 251 304 346
#     4   9  20  32  58  90 119 146 194 250 298 342
#     4  11  23  36  61  90 120 154 198 248 304 353
#     4  10  21  42  60  86 119 166 200 235 305 360
#     4  10  20  37  57  86 116 155 199 238 293 356
#     4  10  20  36  61  87 124 158 193 246 300 360
#
# _framework density 20.680947
#
# number of rings (size 3 to 8) (size 9 to 14) (size 15 to 20)
#    0.000    2.000    1.250    2.250   10.500    1.500 
#    0.000    5.000    0.000    4.500    0.000    0.000 
#    0.000    0.000    0.000    0.000    0.000    0.000 
#
# Total GULP energy -89099.572620 kJ/mol
# GULP energy per Si atom -5568.723289 kJ/mol
# Density = 2.063388 g / cm^3
# Si number density = 20.680947 Si / 1000 Ang^3
#
#
#
# Elastic Constant Matrix: (Units=GPa)
#
#
# Indices 1 2 3 4 5 6 
#
# 1 105.3630 39.6258 43.5419 -12.3781 8.1266 -31.4249
# 2 39.6258 67.6327 46.8026 -14.4487 5.4562 -23.8148
# 3 43.5419 46.8026 138.7385 -20.9683 16.7294 -40.3923
# 4 -12.3781 -14.4487 -20.9683 29.2485 -2.3523 7.0181
# 5 8.1266 5.4562 16.7294 -2.3523 24.4700 -5.9093
# 6 -31.4249 -23.8148 -40.3923 7.0181 -5.9093 21.1580
#
#
#
# Elastic Compliance Matrix: (Units=1/GPa)
#
#
# Indices 1 2 3 4 5 6 
#
# 1 0.018758 -0.001764 0.005417 0.002444 -0.000809 0.035180
# 2 -0.001764 0.025702 -0.000421 0.006028 0.001500 0.023924
# 3 0.005417 -0.000421 0.018733 0.005497 -0.004246 0.040325
# 4 0.002444 0.006028 0.005497 0.040333 -0.000234 0.007466
# 5 -0.000809 0.001500 -0.004246 -0.000234 0.044887 0.004995
# 6 0.035180 0.023924 0.040325 0.007466 0.004995 0.202345
#
#
# Mechanical properties :
#
#
# Convention : Reuss Voigt Hill
#
# Bulk Modulus (GPa) = 14.35617 63.51942 38.93779
# Shear Modulus (GPa) = 13.60503 27.09289 20.34896
#
# Velocity S-wave (km/s) = 2.56765 3.62338 3.14020
# Velocity P-wave (km/s) = 3.96828 6.94880 5.65831
#
# Compressibility (1/GPa) = 0.06965646
#
# Stress axis : x y z
#
# Youngs Moduli (GPa) = 53.31133 38.90775 53.38279
#
# Poissons Ratio (x) = 0.06864 -0.28919
# Poissons Ratio (y) = 0.09404 0.02248
# Poissons Ratio (z) = -0.28881 0.01639
#
# Static dielectric constant tensor:
#      x y z
#    x 1.821540 0.002780 0.028720 
#    y 0.002780 1.778510 -0.016050 
#    z 0.028720 -0.016050 1.752810 
# 
# From -- ./inp_files/335580.got.cif
#   From: 2010.05.17/outbox.cif.g08.bks.cpg/sg2_168_cif.got.tgz:335580.got - 2010.06.03 11:33:40.
