data_PCOD9097107
_publ_section_title
;
Structure prediction by ZEFSAII (Michael W. Deem and Ramdas Pophale) SiO2 
 PCOD9097107
Probable space group: P -1
;
_chemical_formula_sum "Si O2"
_cell_formula_units_Z 16
_cell_length_a 12.281363
_cell_length_b 16.150475
_cell_length_c 16.263968
_cell_angle_alpha 34.347741
_cell_angle_beta 24.220998
_cell_angle_gamma 44.582112
_cell_volume 735.086237
_symmetry_space_group_name_H-M "P -1"
_symmetry_group_IT_number 2
_symmetry_cell_setting 'triclinic'
loop_
_space_group_symop_operation_xyz
x,y,z
-x,-y,-z
loop_
_atom_site_type_symbol
_atom_site_label
_atom_site_fract_x
_atom_site_fract_y
_atom_site_fract_z
Si Si1 0.190898 0.609382 0.059973
Si Si2 0.365479 0.952221 0.297221
Si Si3 0.823384 0.432719 0.081399
Si Si4 0.638381 0.698051 0.175721
Si Si5 0.952385 0.013879 0.659046
Si Si6 0.612749 0.700451 0.375189
Si Si7 0.627524 0.699402 0.817554
Si Si8 0.441644 0.304851 0.947247
O O1 0.263150 0.632740 0.895153
O O2 0.407498 0.699350 0.898479
O O3 0.210517 0.435201 0.203110
O O4 0.899063 0.655008 0.233256
O O5 0.601550 0.876008 0.232615
O O6 0.233558 0.903700 0.339485
O O7 0.126601 0.928566 0.547697
O O8 0.430825 0.129135 0.098689
O O9 0.601385 0.364395 0.356015
O O10 0.815756 0.609753 0.940707
O O11 0.107786 0.386621 0.939246
O O12 0.523380 0.653818 0.381384
O O13 0.466841 0.662502 0.238651
O O14 0.769836 0.875871 0.943350
O O15 0.163094 0.144325 0.449505
O O16 0.469491 0.661681 0.045507
#
# Coordination Sequence:
#
# PCOD9097107 Si02
#       8
#     2   2   2   2   2   2   2   2
#     4   9  21  41  61  84 112 157 196 241 284 331
#     4   9  18  35  58  86 120 148 189 236 289 349
#     4  10  20  38  60  82 120 154 190 238 287 339
#     4  10  20  36  59  87 119 152 186 235 298 343
#     4   9  17  34  62  83 111 162 187 228 297 343
#     4  11  22  37  59  86 122 151 189 243 287 338
#     4   9  18  39  65  82 114 153 200 236 282 348
#     4   9  19  35  60  86 112 155 191 231 288 345
#
# _framework density 21.766154
#
# number of rings (size 3 to 8) (size 9 to 14) (size 15 to 20)
#    0.000    2.500    1.250    1.125    0.000    2.500 
#    4.500   10.625    2.750    0.000    0.000    0.000 
#    0.000    0.000    0.000    0.000    0.000    0.000 
#
# Total GULP energy -89075.098824 kJ/mol
# GULP energy per Si atom -5567.193677 kJ/mol
# Density = 2.171661 g / cm^3
# Si number density = 21.766154 Si / 1000 Ang^3
#
#
#
# Elastic Constant Matrix: (Units=GPa)
#
#
# Indices 1 2 3 4 5 6 
#
# 1 163.9408 55.3786 61.3471 5.1524 2.1828 8.4533
# 2 55.3786 113.0920 54.4724 -3.9257 -10.3274 -22.2684
# 3 61.3471 54.4724 99.9275 9.3036 8.6854 -4.1845
# 4 5.1524 -3.9257 9.3036 38.5095 13.5723 1.7809
# 5 2.1828 -10.3274 8.6854 13.5723 23.4404 -3.0082
# 6 8.4533 -22.2684 -4.1845 1.7809 -3.0082 35.6005
#
#
#
# Elastic Compliance Matrix: (Units=1/GPa)
#
#
# Indices 1 2 3 4 5 6 
#
# 1 0.009015 -0.003983 -0.003417 0.000200 -0.002114 -0.005222
# 2 -0.003983 0.018473 -0.008191 -0.001056 0.013793 0.012756
# 3 -0.003417 -0.008191 0.017369 -0.001093 -0.009481 -0.003017
# 4 0.000200 -0.001056 -0.001093 0.033304 -0.019899 -0.004184
# 5 -0.002114 0.013793 -0.009481 -0.019899 0.065841 0.014574
# 6 -0.005222 0.012756 -0.003017 -0.004184 0.014574 0.038395
#
#
# Mechanical properties :
#
#
# Convention : Reuss Voigt Hill
#
# Bulk Modulus (GPa) = 73.12300 79.92850 76.52575
# Shear Modulus (GPa) = 22.92144 33.22757 28.07451
#
# Velocity S-wave (km/s) = 3.24864 3.91137 3.59531
# Velocity P-wave (km/s) = 6.90936 7.56304 7.24358
#
# Compressibility (1/GPa) = 0.01367559
#
# Stress axis : x y z
#
# Youngs Moduli (GPa) = 110.92706 54.13367 57.57300
#
# Poissons Ratio (x) = 0.21563 0.19671
# Poissons Ratio (y) = 0.44184 0.47157
# Poissons Ratio (z) = 0.37900 0.44340
#
# Static dielectric constant tensor:
#      x y z
#    x 1.809350 0.023310 0.054340 
#    y 0.023310 1.878750 -0.011090 
#    z 0.054340 -0.011090 1.854460 
# 
# From -- ./inp_files/522228.got.cif
#   From: 2010.05.17/outbox.cif.g08.bks.cpg/sg2_262_cif.got.tgz:522228.got - 2010.06.03 11:33:40.
