data_PCOD9097997
_publ_section_title
;
Structure prediction by ZEFSAII (Michael W. Deem and Ramdas Pophale) SiO2 
 PCOD9097997
Probable space group: P -1
;
_chemical_formula_sum "Si O2"
_cell_formula_units_Z 12
_cell_length_a 11.539172
_cell_length_b 9.401570
_cell_length_c 5.498582
_cell_angle_alpha 77.457286
_cell_angle_beta 92.360889
_cell_angle_gamma 127.363295
_cell_volume 459.635615
_symmetry_space_group_name_H-M "P -1"
_symmetry_group_IT_number 2
_symmetry_cell_setting 'triclinic'
loop_
_space_group_symop_operation_xyz
x,y,z
-x,-y,-z
loop_
_atom_site_type_symbol
_atom_site_label
_atom_site_fract_x
_atom_site_fract_y
_atom_site_fract_z
Si Si1 0.668871 0.168353 0.910763
Si Si2 0.200267 0.170121 0.352546
Si Si3 0.126255 0.579331 0.781322
Si Si4 0.072445 0.793102 0.318860
Si Si5 0.364240 0.305092 0.810357
Si Si6 0.324425 0.534247 0.406274
O O1 0.786125 0.130652 0.873804
O O2 0.694358 0.308371 0.649003
O O3 0.723676 0.291405 0.111043
O O4 0.500000 0.000000 0.000000
O O5 0.272212 0.172879 0.615082
O O6 0.196846 0.341744 0.333929
O O7 0.071761 0.960094 0.341145
O O8 0.302331 0.235887 0.097751
O O9 0.102845 0.703884 0.570239
O O10 0.078568 0.387117 0.735536
O O11 0.000000 0.500000 0.000000
O O12 0.364671 0.476510 0.673747
O O13 0.527736 0.372563 0.774332
#
# Coordination Sequence:
#
# PCOD9097997 Si02
#       6
#     2   2   2   2   2   2
#     4  11  23  38  61  98 129 158 203 270 319 371
#     4  10  20  36  63  85 117 168 214 250 304 380
#     4   9  22  41  62  85 127 164 215 253 315 380
#     4  10  22  40  65  89 119 175 209 257 311 385
#     4   9  20  35  58  85 127 166 207 249 313 379
#     4   9  21  34  56  88 127 163 202 258 313 373
#
# _framework density 26.107638000000001
#
# number of rings (size 3 to 8) (size 9 to 14) (size 15 to 20)
#    1.000    1.333    0.000    1.500    7.000    2.000 
#    0.000    0.833    0.000   10.000    0.000    0.000 
#    0.000    0.000    0.000    0.000    0.000    0.000 
#
# Total GULP energy -67013.042213 kJ/mol
# GULP energy per Si atom -5584.420184 kJ/mol
# Density = 2.604822 g / cm^3
# Si number density = 26.107638 Si / 1000 Ang^3
#
#
#
# Elastic Constant Matrix: (Units=GPa)
#
#
# Indices 1 2 3 4 5 6 
#
# 1 99.6150 39.1438 10.7609 1.6337 -2.3504 -13.9402
# 2 39.1438 205.0453 22.4954 18.9025 -2.4726 1.8091
# 3 10.7609 22.4954 99.3192 16.6394 -16.9980 2.9720
# 4 1.6337 18.9025 16.6394 40.0350 2.9332 -0.8534
# 5 -2.3504 -2.4726 -16.9980 2.9332 32.9052 3.5925
# 6 -13.9402 1.8091 2.9720 -0.8534 3.5925 54.1349
#
#
#
# Elastic Compliance Matrix: (Units=1/GPa)
#
#
# Indices 1 2 3 4 5 6 
#
# 1 0.011428 -0.002197 -0.001079 0.001111 -0.000346 0.003116
# 2 -0.002197 0.005585 -0.000565 -0.002348 0.000265 -0.000776
# 3 -0.001079 -0.000565 0.012455 -0.005407 0.006959 -0.001490
# 4 0.001111 -0.002348 -0.005407 0.028732 -0.005614 0.001487
# 5 -0.000346 0.000265 0.006959 -0.005614 0.034795 -0.002877
# 6 0.003116 -0.000776 -0.001490 0.001487 -0.002877 0.019597
#
#
# Mechanical properties :
#
#
# Convention : Reuss Voigt Hill
#
# Bulk Modulus (GPa) = 45.90211 60.97552 53.43881
# Shear Modulus (GPa) = 39.20436 47.52033 43.36234
#
# Velocity S-wave (km/s) = 3.87931 4.27097 4.07984
# Velocity P-wave (km/s) = 6.13884 6.90853 6.53503
#
# Compressibility (1/GPa) = 0.02178549
#
# Stress axis : x y z
#
# Youngs Moduli (GPa) = 87.50146 179.05161 80.28954
#
# Poissons Ratio (x) = 0.39346 0.08664
# Poissons Ratio (y) = 0.19228 0.04535
# Poissons Ratio (z) = 0.09442 0.10114
#
# Static dielectric constant tensor:
#      x y z
#    x 2.149360 -0.074200 -0.134590 
#    y -0.074200 2.110360 0.020350 
#    z -0.134590 0.020350 2.104620 
# 
# From -- ./inp_files/94685.got.cif
#   From: 2010.05.17/outbox.cif.g08.bks.cpg/sg2_48_cif.got.tgz:94685.got - 2010.06.03 11:33:40.
