data_PCOD9097401
_publ_section_title
;
Structure prediction by ZEFSAII (Michael W. Deem and Ramdas Pophale) SiO2 
 PCOD9097401
Probable space group: P -1
;
_chemical_formula_sum "Si O2"
_cell_formula_units_Z 15
_cell_length_a 10.845177
_cell_length_b 13.943149
_cell_length_c 24.695783
_cell_angle_alpha 24.389511
_cell_angle_beta 30.240704
_cell_angle_gamma 43.155382
_cell_volume 746.559599
_symmetry_space_group_name_H-M "P -1"
_symmetry_group_IT_number 2
_symmetry_cell_setting 'triclinic'
loop_
_space_group_symop_operation_xyz
x,y,z
-x,-y,-z
loop_
_atom_site_type_symbol
_atom_site_label
_atom_site_fract_x
_atom_site_fract_y
_atom_site_fract_z
Si Si1 0.956041 0.812763 0.982706
Si Si2 0.500000 0.000000 0.500000
Si Si3 0.722696 0.920527 0.789831
Si Si4 0.768229 0.419141 0.482675
Si Si5 0.488398 0.199121 0.594613
Si Si6 0.844549 0.123004 0.953939
Si Si7 0.128659 0.745181 0.672767
Si Si8 0.979929 0.773819 0.869789
O O1 0.897069 0.817030 0.939474
O O2 0.248858 0.966799 0.801445
O O3 0.793214 0.943482 0.014298
O O4 0.920850 0.540453 0.154486
O O5 0.700765 0.125793 0.407738
O O6 0.741068 0.054871 0.337333
O O7 0.787226 0.812066 0.877575
O O8 0.865472 0.816095 0.742266
O O9 0.842675 0.211652 0.594582
O O10 0.419656 0.857695 0.931881
O O11 0.587136 0.266593 0.583141
O O12 0.620154 0.571334 0.496327
O O13 0.985151 0.620003 0.265376
O O14 0.715510 0.180521 0.479529
O O15 0.000000 0.000000 0.000000
O O16 0.000000 0.500000 0.000000
#
# Coordination Sequence:
#
# PCOD9097401 Si02
#       8
#     2   1   2   2   2   2   2   2
#     4  11  21  39  68  95 122 175 211 254 317 380
#     4  10  20  36  60  90 126 162 200 256 314 366
#     4  11  24  39  63  96 131 164 211 264 317 374
#     4  10  22  42  62  91 125 168 215 264 313 371
#     4  10  21  40  67  87 123 170 214 257 319 379
#     4  11  24  45  68  90 130 173 212 262 317 375
#     4  11  22  37  65  96 124 167 213 258 315 380
#     4  11  22  41  64  95 131 166 206 263 320 378
#
# _framework density 20.092167
#
# number of rings (size 3 to 8) (size 9 to 14) (size 15 to 20)
#    0.000    1.333    4.000    4.000    0.000    4.267 
#    0.000    7.333    0.000    0.000    0.000    0.000 
#    0.000    0.000    0.000    0.000    0.000    0.000 
#
# Total GULP energy -83511.228709 kJ/mol
# GULP energy per Si atom -5567.415247 kJ/mol
# Density = 2.004644 g / cm^3
# Si number density = 20.092167 Si / 1000 Ang^3
#
#
#
# Elastic Constant Matrix: (Units=GPa)
#
#
# Indices 1 2 3 4 5 6 
#
# 1 55.9346 16.5268 19.3888 -7.5956 0.5059 -4.1047
# 2 16.5268 86.7784 20.9291 18.8708 -4.0713 -7.7814
# 3 19.3888 20.9291 62.8256 5.8938 3.8036 -24.0944
# 4 -7.5956 18.8708 5.8938 36.0003 -4.8295 1.9347
# 5 0.5059 -4.0713 3.8036 -4.8295 27.1990 -2.1275
# 6 -4.1047 -7.7814 -24.0944 1.9347 -2.1275 34.2913
#
#
#
# Elastic Compliance Matrix: (Units=1/GPa)
#
#
# Indices 1 2 3 4 5 6 
#
# 1 0.023001 -0.004727 -0.008178 0.009082 0.001269 -0.004499
# 2 -0.004727 0.014996 -0.002081 -0.008450 0.001274 0.001931
# 3 -0.008178 -0.002081 0.026629 -0.006420 -0.003663 0.017395
# 4 0.009082 -0.008450 -0.006420 0.036272 0.005353 -0.007056
# 5 0.001269 0.001274 -0.003663 0.005353 0.038392 -0.000053
# 6 -0.004499 0.001931 0.017395 -0.007056 -0.000053 0.041678
#
#
# Mechanical properties :
#
#
# Convention : Reuss Voigt Hill
#
# Bulk Modulus (GPa) = 28.85589 35.46978 32.16284
# Shear Modulus (GPa) = 22.47280 29.41105 25.94192
#
# Velocity S-wave (km/s) = 3.34800 3.83012 3.59715
# Velocity P-wave (km/s) = 5.41650 6.10341 5.77019
#
# Compressibility (1/GPa) = 0.03465497
#
# Stress axis : x y z
#
# Youngs Moduli (GPa) = 43.47634 66.68352 37.55272
#
# Poissons Ratio (x) = 0.31521 0.30711
# Poissons Ratio (y) = 0.20551 0.07814
# Poissons Ratio (z) = 0.35555 0.13876
#
# Static dielectric constant tensor:
#      x y z
#    x 1.720860 -0.009160 0.028460 
#    y -0.009160 1.741160 0.005890 
#    z 0.028460 0.005890 1.730100 
# 
# From -- ./inp_files/618535.got.cif
#   From: 2010.05.17/outbox.cif.g08.bks.cpg/sg2_310_cif.got.tgz:618535.got - 2010.06.03 11:33:40.
