data_PCOD9097121
_publ_section_title
;
Structure prediction by ZEFSAII (Michael W. Deem and Ramdas Pophale) SiO2 
 PCOD9097121
Probable space group: P -1
;
_chemical_formula_sum "Si O2"
_cell_formula_units_Z 14
_cell_length_a 7.751217
_cell_length_b 5.837424
_cell_length_c 14.982338
_cell_angle_alpha 107.641147
_cell_angle_beta 69.231439
_cell_angle_gamma 110.935176
_cell_volume 579.816996
_symmetry_space_group_name_H-M "P -1"
_symmetry_group_IT_number 2
_symmetry_cell_setting 'triclinic'
loop_
_space_group_symop_operation_xyz
x,y,z
-x,-y,-z
loop_
_atom_site_type_symbol
_atom_site_label
_atom_site_fract_x
_atom_site_fract_y
_atom_site_fract_z
Si Si1 0.654534 0.921957 0.259047
Si Si2 0.399306 0.448200 0.914898
Si Si3 0.364097 0.077108 0.110380
Si Si4 0.771598 0.469824 0.388490
Si Si5 0.074718 0.267126 0.063119
Si Si6 0.991469 0.293276 0.775508
Si Si7 0.436349 0.725876 0.436031
O O1 0.610294 0.825233 0.154436
O O2 0.844680 0.834297 0.238384
O O3 0.463995 0.775328 0.331951
O O4 0.708252 0.205617 0.316150
O O5 0.487439 0.663851 0.852426
O O6 0.500000 0.500000 0.000000
O O7 0.187755 0.440946 0.983150
O O8 0.210461 0.196246 0.104578
O O9 0.223172 0.868869 0.174526
O O10 0.500000 0.000000 0.000000
O O11 0.966458 0.642020 0.329206
O O12 0.603923 0.598495 0.413384
O O13 0.754528 0.418071 0.491881
O O14 0.965407 0.436777 0.153050
O O15 0.000000 0.000000 0.000000
O O16 0.500000 0.000000 0.500000
#
# Coordination Sequence:
#
# PCOD9097121 Si02
#       7
#     2   2   2   2   2   2   2
#     4  10  20  36  59  88 114 152 199 242 294 348
#     4  10  22  39  53  77 118 159 199 239 284 340
#     4  11  23  38  53  75 114 161 203 234 291 343
#     4   9  17  33  56  91 117 141 189 247 299 346
#     4  11  23  37  55  80 111 150 204 254 286 336
#     4  11  21  34  57  82 113 152 197 246 289 348
#     4   8  16  32  58  87 119 144 179 246 303 352
#
# _framework density 24.145553
#
# number of rings (size 3 to 8) (size 9 to 14) (size 15 to 20)
#    0.000    2.000    1.429    2.571    2.000    1.143 
#    2.571    0.000    0.000    0.857    0.000   50.000 
#    0.000    0.000    0.000    0.000    0.000    0.286 
#
# Total GULP energy -77940.215178 kJ/mol
# GULP energy per Si atom -5567.158227 kJ/mol
# Density = 2.409060 g / cm^3
# Si number density = 24.145553 Si / 1000 Ang^3
#
#
#
# Elastic Constant Matrix: (Units=GPa)
#
#
# Indices 1 2 3 4 5 6 
#
# 1 50.3276 16.0074 24.4576 -1.2184 -20.1412 -7.0757
# 2 16.0074 123.2348 66.3628 -6.9455 -34.5719 4.1419
# 3 24.4576 66.3628 174.5251 -28.3946 -23.5627 7.1480
# 4 -1.2184 -6.9455 -28.3946 86.5624 -3.4469 -23.9647
# 5 -20.1412 -34.5719 -23.5627 -3.4469 25.4060 0.5480
# 6 -7.0757 4.1419 7.1480 -23.9647 0.5480 28.3363
#
#
#
# Elastic Compliance Matrix: (Units=1/GPa)
#
#
# Indices 1 2 3 4 5 6 
#
# 1 0.034330 0.006145 -0.002269 0.004808 0.033874 0.011658
# 2 0.006145 0.015793 -0.003544 0.001339 0.023240 0.000803
# 3 -0.002269 -0.003544 0.007911 0.002283 0.001028 -0.000134
# 4 0.004808 0.001339 0.002283 0.016883 0.009728 0.014520
# 5 0.033874 0.023240 0.001028 0.009728 0.099874 0.011098
# 6 0.011658 0.000803 -0.000134 0.014520 0.011098 0.050183
#
#
# Mechanical properties :
#
#
# Convention : Reuss Voigt Hill
#
# Bulk Modulus (GPa) = 17.03653 62.41590 39.72622
# Shear Modulus (GPa) = 20.50222 44.14490 32.32356
#
# Velocity S-wave (km/s) = 2.91711 4.28048 3.66279
# Velocity P-wave (km/s) = 4.29152 7.09479 5.86315
#
# Compressibility (1/GPa) = 0.05869740
#
# Stress axis : x y z
#
# Youngs Moduli (GPa) = 29.12900 63.31978 126.40528
#
# Poissons Ratio (x) = -0.38909 0.28686
# Poissons Ratio (y) = -0.17899 0.44795
# Poissons Ratio (z) = 0.06611 0.22439
#
# Static dielectric constant tensor:
#      x y z
#    x 1.838870 -0.095240 -0.038780 
#    y -0.095240 2.024810 -0.118240 
#    z -0.038780 -0.118240 1.951440 
# 
# From -- ./inp_files/43633.got.cif
#   From: 2010.05.17/outbox.cif.g08.bks.cpg/sg2_22_cif.got.tgz:43633.got - 2010.06.03 11:33:40.
