data_PCOD9097270
_publ_section_title
;
Structure prediction by ZEFSAII (Michael W. Deem and Ramdas Pophale) SiO2 
 PCOD9097270
Probable space group: P -1
;
_chemical_formula_sum "Si O2"
_cell_formula_units_Z 14
_cell_length_a 9.081661
_cell_length_b 15.569127
_cell_length_c 12.345359
_cell_angle_alpha 139.500893
_cell_angle_beta 137.998237
_cell_angle_gamma 39.621753
_cell_volume 668.689137
_symmetry_space_group_name_H-M "P -1"
_symmetry_group_IT_number 2
_symmetry_cell_setting 'triclinic'
loop_
_space_group_symop_operation_xyz
x,y,z
-x,-y,-z
loop_
_atom_site_type_symbol
_atom_site_label
_atom_site_fract_x
_atom_site_fract_y
_atom_site_fract_z
Si Si1 0.509236 0.663947 0.089937
Si Si2 0.910593 0.086656 0.420544
Si Si3 0.214317 0.124377 0.972240
Si Si4 0.379066 0.210978 0.344127
Si Si5 0.068614 0.589160 0.036949
Si Si6 0.414716 0.062818 0.634462
Si Si7 0.447436 0.420554 0.724845
O O1 0.492181 0.814409 0.177703
O O2 0.472633 0.669336 0.203659
O O3 0.791813 0.528712 0.096517
O O4 0.356116 0.592696 0.874914
O O5 0.615520 0.191094 0.379620
O O6 0.112206 0.141200 0.554203
O O7 0.000000 0.000000 0.500000
O O8 0.936542 0.964290 0.226340
O O9 0.186677 0.196232 0.143749
O O10 0.148083 0.255988 0.975457
O O11 0.500000 0.000000 0.000000
O O12 0.297219 0.361299 0.513077
O O13 0.476637 0.072543 0.349455
O O14 0.000000 0.500000 0.000000
O O15 0.290212 0.621064 0.231015
O O16 0.500000 0.000000 0.500000
#
# Coordination Sequence:
#
# PCOD9097270 Si02
#       7
#     2   2   2   2   2   2   2
#     4   9  21  34  60  84 119 146 206 242 287 339
#     4   9  20  33  61  83 112 154 203 238 291 348
#     4  10  22  38  58  89 126 153 189 252 310 344
#     4  10  20  36  60  84 120 155 196 244 302 344
#     4  10  21  35  64  84 113 153 209 239 289 352
#     4  11  20  34  63  89 114 152 212 244 279 356
#     4   9  19  37  59  85 114 163 192 241 296 359
#
# _framework density 20.936485000000001
#
# number of rings (size 3 to 8) (size 9 to 14) (size 15 to 20)
#    0.857    1.429    1.429    1.714    8.000    0.000 
#    0.000    2.143    3.143    0.000    0.000    0.000 
#    0.000    0.000    0.000    0.000    0.000    0.000 
#
# Total GULP energy -77958.258141 kJ/mol
# GULP energy per Si atom -5568.447010 kJ/mol
# Density = 2.088883 g / cm^3
# Si number density = 20.936485 Si / 1000 Ang^3
#
#
#
# Elastic Constant Matrix: (Units=GPa)
#
#
# Indices 1 2 3 4 5 6 
#
# 1 85.1569 17.8020 15.7871 10.5498 6.0789 11.2071
# 2 17.8020 64.1406 15.6841 17.5154 7.7683 2.4571
# 3 15.7871 15.6841 182.8178 13.4993 -8.9634 18.9072
# 4 10.5498 17.5154 13.4993 26.9248 8.0334 1.5804
# 5 6.0789 7.7683 -8.9634 8.0334 21.0315 8.2449
# 6 11.2071 2.4571 18.9072 1.5804 8.2449 28.3343
#
#
#
# Elastic Compliance Matrix: (Units=1/GPa)
#
#
# Indices 1 2 3 4 5 6 
#
# 1 0.013341 -0.002618 -0.000193 -0.003182 0.000117 -0.004778
# 2 -0.002618 0.019776 -0.001070 -0.010287 -0.003740 0.001696
# 3 -0.000193 -0.001070 0.006971 -0.004652 0.007737 -0.006474
# 4 -0.003182 -0.010287 -0.004652 0.053138 -0.020835 0.008354
# 5 0.000117 -0.003740 0.007737 -0.020835 0.069543 -0.023959
# 6 -0.004778 0.001696 -0.006474 0.008354 -0.023959 0.047862
#
#
# Mechanical properties :
#
#
# Convention : Reuss Voigt Hill
#
# Bulk Modulus (GPa) = 30.93377 47.85130 39.39254
# Shear Modulus (GPa) = 21.81826 34.11423 27.96625
#
# Velocity S-wave (km/s) = 3.23169 4.04098 3.65878
# Velocity P-wave (km/s) = 5.36024 6.68414 6.05846
#
# Compressibility (1/GPa) = 0.03232713
#
# Stress axis : x y z
#
# Youngs Moduli (GPa) = 74.95906 50.56673 143.45680
#
# Poissons Ratio (x) = 0.13237 0.02763
# Poissons Ratio (y) = 0.19622 0.15346
# Poissons Ratio (z) = 0.01443 0.05409
#
# Static dielectric constant tensor:
#      x y z
#    x 1.798190 -0.063980 -0.021840 
#    y -0.063980 1.745830 0.022210 
#    z -0.021840 0.022210 1.835030 
# 
# From -- ./inp_files/399861.got.cif
#   From: 2010.05.17/outbox.cif.g08.bks.cpg/sg2_200_cif.got.tgz:399861.got - 2010.06.03 11:33:40.
