data_PCOD9097371
_publ_section_title
;
Structure prediction by ZEFSAII (Michael W. Deem and Ramdas Pophale) SiO2 
 PCOD9097371
Probable space group: P -1
;
_chemical_formula_sum "Si O2"
_cell_formula_units_Z 12
_cell_length_a 10.904739
_cell_length_b 9.674699
_cell_length_c 8.157961
_cell_angle_alpha 93.961201
_cell_angle_beta 126.043484
_cell_angle_gamma 117.800889
_cell_volume 539.939371
_symmetry_space_group_name_H-M "P -1"
_symmetry_group_IT_number 2
_symmetry_cell_setting 'triclinic'
loop_
_space_group_symop_operation_xyz
x,y,z
-x,-y,-z
loop_
_atom_site_type_symbol
_atom_site_label
_atom_site_fract_x
_atom_site_fract_y
_atom_site_fract_z
Si Si1 0.386794 0.345781 0.029872
Si Si2 0.321396 0.998818 0.898487
Si Si3 0.049407 0.865620 0.994514
Si Si4 0.118092 0.650628 0.242223
Si Si5 0.052726 0.305729 0.611668
Si Si6 0.708198 0.508619 0.520274
O O1 0.795091 0.068294 0.025366
O O2 0.490523 0.428707 0.292569
O O3 0.500000 0.500000 0.000000
O O4 0.408315 0.201300 0.980632
O O5 0.151610 0.874039 0.622902
O O6 0.500000 0.000000 0.000000
O O7 0.845387 0.678992 0.759092
O O8 0.139030 0.818822 0.204936
O O9 0.166234 0.264769 0.817338
O O10 0.000000 0.000000 0.000000
O O11 0.989453 0.586700 0.299940
O O12 0.295251 0.651070 0.428446
O O13 0.000000 0.500000 0.000000
O O14 0.177034 0.414854 0.557812
#
# Coordination Sequence:
#
# PCOD9097371 Si02
#       6
#     2   2   2   2   2   2
#     4  10  21  37  61  91 118 157 211 261 302 359
#     4  11  23  41  64  93 125 164 211 258 309 377
#     4  10  22  41  64  93 130 167 204 258 319 369
#     4  10  20  36  60  89 121 160 203 258 315 363
#     4  10  20  38  64  89 123 167 211 257 307 372
#     4   9  20  39  63  91 121 163 212 258 306 372
#
# _framework density 22.224716000000001
#
# number of rings (size 3 to 8) (size 9 to 14) (size 15 to 20)
#    0.000    2.000    0.000    3.000    0.000    9.333 
#    0.000   12.500    0.000    2.000    0.000    0.000 
#    0.000    0.000    0.000    0.000    0.000    0.000 
#
# Total GULP energy -66920.627441 kJ/mol
# GULP energy per Si atom -5576.718953 kJ/mol
# Density = 2.217413 g / cm^3
# Si number density = 22.224716 Si / 1000 Ang^3
#
#
#
# Elastic Constant Matrix: (Units=GPa)
#
#
# Indices 1 2 3 4 5 6 
#
# 1 114.4930 50.0747 36.6413 1.7323 9.3654 -3.9337
# 2 50.0747 129.7884 46.8032 -13.4036 17.1129 -17.5661
# 3 36.6413 46.8032 137.7275 -11.3247 29.8511 -3.8288
# 4 1.7323 -13.4036 -11.3247 35.8617 -7.5617 4.2813
# 5 9.3654 17.1129 29.8511 -7.5617 43.2734 -6.5570
# 6 -3.9337 -17.5661 -3.8288 4.2813 -6.5570 24.5578
#
#
#
# Elastic Compliance Matrix: (Units=1/GPa)
#
#
# Indices 1 2 3 4 5 6 
#
# 1 0.011072 -0.003997 -0.001784 -0.002512 -0.000171 -0.000971
# 2 -0.003997 0.011293 -0.002236 0.002814 -0.000591 0.006441
# 3 -0.001784 -0.002236 0.009751 0.001414 -0.005525 -0.002087
# 4 -0.002512 0.002814 0.001414 0.030530 0.003399 -0.002584
# 5 -0.000171 -0.000591 -0.005525 0.003399 0.028656 0.005747
# 6 -0.000971 0.006441 -0.002087 -0.002584 0.005747 0.046831
#
#
# Mechanical properties :
#
#
# Convention : Reuss Voigt Hill
#
# Bulk Modulus (GPa) = 62.17680 72.11636 67.14658
# Shear Modulus (GPa) = 31.34267 37.30457 34.32362
#
# Velocity S-wave (km/s) = 3.75942 4.10142 3.93414
# Velocity P-wave (km/s) = 6.84700 7.41269 7.13546
#
# Compressibility (1/GPa) = 0.01608317
#
# Stress axis : x y z
#
# Youngs Moduli (GPa) = 90.32066 88.54684 102.55468
#
# Poissons Ratio (x) = 0.35389 0.18294
# Poissons Ratio (y) = 0.36098 0.22931
# Poissons Ratio (z) = 0.16111 0.19799
#
# Static dielectric constant tensor:
#      x y z
#    x 1.958170 0.015870 0.006180 
#    y 0.015870 1.826150 -0.052010 
#    z 0.006180 -0.052010 1.904010 
# 
# From -- ./inp_files/173015.got.cif
#   From: 2010.05.17/outbox.cif.g08.bks.cpg/sg2_87_cif.got.tgz:173015.got - 2010.06.03 11:33:40.
