data_PCOD9097103
_publ_section_title
;
Structure prediction by ZEFSAII (Michael W. Deem and Ramdas Pophale) SiO2 
 PCOD9097103
Probable space group: P -1
;
_chemical_formula_sum "Si O2"
_cell_formula_units_Z 14
_cell_length_a 8.089158
_cell_length_b 9.376480
_cell_length_c 16.627772
_cell_angle_alpha 74.453832
_cell_angle_beta 34.307102
_cell_angle_gamma 60.785942
_cell_volume 596.547988
_symmetry_space_group_name_H-M "P -1"
_symmetry_group_IT_number 2
_symmetry_cell_setting 'triclinic'
loop_
_space_group_symop_operation_xyz
x,y,z
-x,-y,-z
loop_
_atom_site_type_symbol
_atom_site_label
_atom_site_fract_x
_atom_site_fract_y
_atom_site_fract_z
Si Si1 0.164158 0.766451 0.571161
Si Si2 0.921241 0.379620 0.993980
Si Si3 0.779038 0.994028 0.828810
Si Si4 0.779594 0.554000 0.480716
Si Si5 0.376324 0.793581 0.743344
Si Si6 0.239205 0.669476 0.188065
Si Si7 0.366286 0.131714 0.724503
O O1 0.455854 0.652872 0.536067
O O2 0.113071 0.640558 0.551720
O O3 0.324053 0.863440 0.443712
O O4 0.846679 0.890090 0.734937
O O5 0.245914 0.246361 0.834837
O O6 0.792141 0.273327 0.114488
O O7 0.607295 0.512836 0.045119
O O8 0.000000 0.500000 0.000000
O O9 0.714241 0.182560 0.811975
O O10 0.115282 0.895565 0.761398
O O11 0.500000 0.000000 0.000000
O O12 0.661555 0.632816 0.604539
O O13 0.056401 0.598839 0.330149
O O14 0.445416 0.938684 0.729650
O O15 0.970822 0.764794 0.210738
#
# Coordination Sequence:
#
# PCOD9097103 Si02
#       7
#     2   2   2   2   2   2   2
#     4   9  18  34  60  88 115 150 194 244 287 335
#     4  12  24  38  58  87 123 156 190 241 297 343
#     4  10  20  36  59  87 117 151 195 241 286 343
#     4   9  18  35  59  88 117 150 195 241 289 342
#     4  10  21  37  59  84 117 156 192 239 294 344
#     4  10  22  38  61  86 115 153 198 240 283 344
#     4  10  21  40  62  85 115 156 201 236 283 349
#
# _framework density 23.468353
#
# number of rings (size 3 to 8) (size 9 to 14) (size 15 to 20)
#    0.000    2.000    0.000    3.429    0.000   10.857 
#    0.000    1.429    0.000    6.000    0.000    0.000 
#    0.000    0.000    0.000    0.000    0.000    0.000 
#
# Total GULP energy -78310.421403 kJ/mol
# GULP energy per Si atom -5593.601529 kJ/mol
# Density = 2.341494 g / cm^3
# Si number density = 23.468353 Si / 1000 Ang^3
#
#
#
# Elastic Constant Matrix: (Units=GPa)
#
#
# Indices 1 2 3 4 5 6 
#
# 1 104.6786 58.4245 34.9328 7.4517 13.7015 15.1323
# 2 58.4245 174.2337 66.4476 -1.6864 7.4788 33.0579
# 3 34.9328 66.4476 129.0301 18.8735 20.0784 37.9759
# 4 7.4517 -1.6864 18.8735 43.2454 6.6843 -8.9225
# 5 13.7015 7.4788 20.0784 6.6843 21.3937 16.0919
# 6 15.1323 33.0579 37.9759 -8.9225 16.0919 52.2010
#
#
#
# Elastic Compliance Matrix: (Units=1/GPa)
#
#
# Indices 1 2 3 4 5 6 
#
# 1 0.012764 -0.004013 -0.000566 -0.000774 -0.006948 0.001263
# 2 -0.004013 0.008798 -0.003406 0.001127 0.004747 -0.003202
# 3 -0.000566 -0.003406 0.013426 -0.007009 -0.003066 -0.007699
# 4 -0.000774 0.001127 -0.007009 0.031447 -0.013872 0.014262
# 5 -0.006948 0.004747 -0.003066 -0.013872 0.074984 -0.024248
# 6 0.001263 -0.003202 -0.007699 0.014262 -0.024248 0.036332
#
#
# Mechanical properties :
#
#
# Convention : Reuss Voigt Hill
#
# Bulk Modulus (GPa) = 52.58130 80.83913 66.71022
# Shear Modulus (GPa) = 24.99259 39.91052 32.45156
#
# Velocity S-wave (km/s) = 3.26690 4.12832 3.72261
# Velocity P-wave (km/s) = 6.05673 7.56603 6.85306
#
# Compressibility (1/GPa) = 0.01901817
#
# Stress axis : x y z
#
# Youngs Moduli (GPa) = 78.34687 113.65582 74.48449
#
# Poissons Ratio (x) = 0.45608 0.04218
# Poissons Ratio (y) = 0.31440 0.25367
# Poissons Ratio (z) = 0.04436 0.38708
#
# Static dielectric constant tensor:
#      x y z
#    x 1.930840 -0.037700 -0.008820 
#    y -0.037700 1.843360 0.034200 
#    z -0.008820 0.034200 1.804400 
# 
# From -- ./inp_files/184465.got.cif
#   From: 2010.05.17/outbox.cif.g08.bks.cpg/sg2_93_cif.got.tgz:184465.got - 2010.06.03 11:33:40.
