data_PCOD9097538
_publ_section_title
;
Structure prediction by ZEFSAII (Michael W. Deem and Ramdas Pophale) SiO2 
 PCOD9097538
Probable space group: P -1
;
_chemical_formula_sum "Si O2"
_cell_formula_units_Z 14
_cell_length_a 13.001247
_cell_length_b 7.669280
_cell_length_c 11.740054
_cell_angle_alpha 126.324255
_cell_angle_beta 58.261581
_cell_angle_gamma 133.986393
_cell_volume 665.179122
_symmetry_space_group_name_H-M "P -1"
_symmetry_group_IT_number 2
_symmetry_cell_setting 'triclinic'
loop_
_space_group_symop_operation_xyz
x,y,z
-x,-y,-z
loop_
_atom_site_type_symbol
_atom_site_label
_atom_site_fract_x
_atom_site_fract_y
_atom_site_fract_z
Si Si1 0.091690 0.781202 0.640500
Si Si2 0.235744 0.322708 0.846698
Si Si3 0.323544 0.050221 0.424983
Si Si4 0.033602 0.243821 0.722609
Si Si5 0.171425 0.362177 0.444045
Si Si6 0.162475 0.560277 0.183851
Si Si7 0.472397 0.554993 0.374245
O O1 0.117680 0.551504 0.526655
O O2 0.933507 0.640153 0.736639
O O3 0.182787 0.020277 0.768461
O O4 0.169738 0.935990 0.536368
O O5 0.402362 0.463509 0.763554
O O6 0.130752 0.327438 0.812898
O O7 0.217179 0.437709 0.016372
O O8 0.384299 0.307319 0.413954
O O9 0.444263 0.169847 0.500498
O O10 0.291349 0.822084 0.271214
O O11 0.940178 0.367537 0.796365
O O12 0.139872 0.322549 0.582910
O O13 0.917873 0.929667 0.667139
O O14 0.338435 0.515502 0.366525
#
# Coordination Sequence:
#
# PCOD9097538 Si02
#       7
#     2   2   2   2   2   2   2
#     4  10  23  36  63  89 116 151 199 249 288 333
#     4  11  24  38  60  88 125 155 190 234 300 359
#     4  10  20  36  61  87 113 152 200 240 284 337
#     4  10  21  36  61  88 113 154 203 245 281 337
#     4  10  20  37  62  87 116 149 203 249 283 332
#     4  11  22  39  59  90 122 154 190 242 298 347
#     4  10  21  39  60  89 118 152 197 243 287 348
#
# _framework density 21.046961
#
# number of rings (size 3 to 8) (size 9 to 14) (size 15 to 20)
#    0.000    1.714    1.429    3.857   10.000    2.857 
#    0.000    0.000    0.000    1.714    0.000    0.000 
#    0.000    0.000    0.000    0.000    0.000    0.000 
#
# Total GULP energy -77991.278265 kJ/mol
# GULP energy per Si atom -5570.805590 kJ/mol
# Density = 2.099906 g / cm^3
# Si number density = 21.046961 Si / 1000 Ang^3
#
#
#
# Elastic Constant Matrix: (Units=GPa)
#
#
# Indices 1 2 3 4 5 6 
#
# 1 53.1592 26.3009 43.3910 -14.8220 -6.6650 17.3601
# 2 26.3009 119.5591 57.3042 -9.5817 -1.2211 10.6587
# 3 43.3910 57.3042 176.9046 8.6877 0.0975 18.6409
# 4 -14.8220 -9.5817 8.6877 21.9648 3.7883 1.0255
# 5 -6.6650 -1.2211 0.0975 3.7883 25.7700 -4.2568
# 6 17.3601 10.6587 18.6409 1.0255 -4.2568 40.0880
#
#
#
# Elastic Compliance Matrix: (Units=1/GPa)
#
#
# Indices 1 2 3 4 5 6 
#
# 1 0.040642 -0.000454 -0.009957 0.031136 0.003763 -0.013246
# 2 -0.000454 0.010735 -0.003527 0.005946 -0.000674 -0.001241
# 3 -0.009957 -0.003527 0.009728 -0.012001 -0.000859 0.000942
# 4 0.031136 0.005946 -0.012001 0.075236 -0.004646 -0.011902
# 5 0.003763 -0.000674 -0.000859 -0.004646 0.040997 0.003422
# 6 -0.013246 -0.001241 0.000942 -0.011902 0.003422 0.031241
#
#
# Mechanical properties :
#
#
# Convention : Reuss Voigt Hill
#
# Bulk Modulus (GPa) = 30.09337 67.06833 48.58085
# Shear Modulus (GPa) = 20.19954 32.40634 26.30294
#
# Velocity S-wave (km/s) = 3.10132 3.92818 3.53898
# Velocity P-wave (km/s) = 5.21090 7.24633 6.31121
#
# Compressibility (1/GPa) = 0.03322991
#
# Stress axis : x y z
#
# Youngs Moduli (GPa) = 24.60502 93.15747 102.79567
#
# Poissons Ratio (x) = 0.04225 1.02354
# Poissons Ratio (y) = 0.01116 0.36254
# Poissons Ratio (z) = 0.24499 0.32854
#
# Static dielectric constant tensor:
#      x y z
#    x 1.971270 -0.002950 0.040150 
#    y -0.002950 1.764950 0.012080 
#    z 0.040150 0.012080 1.718990 
# 
# From -- ./inp_files/183217.got.cif
#   From: 2010.05.17/outbox.cif.g08.bks.cpg/sg2_92_cif.got.tgz:183217.got - 2010.06.03 11:33:40.
