data_PCOD9097755
_publ_section_title
;
Structure prediction by ZEFSAII (Michael W. Deem and Ramdas Pophale) SiO2 
 PCOD9097755
Probable space group: P -1
;
_chemical_formula_sum "Si O2"
_cell_formula_units_Z 12
_cell_length_a 13.058227
_cell_length_b 15.229109
_cell_length_c 9.491536
_cell_angle_alpha 35.983000
_cell_angle_beta 41.883502
_cell_angle_gamma 31.370964
_cell_volume 568.391094
_symmetry_space_group_name_H-M "P -1"
_symmetry_group_IT_number 2
_symmetry_cell_setting 'triclinic'
loop_
_space_group_symop_operation_xyz
x,y,z
-x,-y,-z
loop_
_atom_site_type_symbol
_atom_site_label
_atom_site_fract_x
_atom_site_fract_y
_atom_site_fract_z
Si Si1 0.819231 0.308759 0.654836
Si Si2 0.040572 0.652916 0.249784
Si Si3 0.281374 0.076244 0.995727
Si Si4 0.619719 0.459514 0.156159
Si Si5 0.953770 0.187374 0.377753
Si Si6 0.532148 0.741056 0.359765
O O1 0.935374 0.275784 0.720408
O O2 0.611639 0.348164 0.843537
O O3 0.733659 0.523381 0.412260
O O4 0.940952 0.172286 0.576235
O O5 0.000000 0.500000 0.500000
O O6 0.863151 0.836623 0.101819
O O7 0.247583 0.547283 0.089569
O O8 0.417833 0.137180 0.772648
O O9 0.133011 0.179672 0.148824
O O10 0.419983 0.850501 0.187773
O O11 0.595027 0.295701 0.369159
O O12 0.748615 0.380614 0.270569
O O13 0.000000 0.000000 0.500000
#
# Coordination Sequence:
#
# PCOD9097755 Si02
#       6
#     2   2   2   2   2   2
#     4  10  21  36  59  92 118 155 201 239 298 356
#     4  11  20  37  59  94 124 152 190 250 308 349
#     4  10  20  36  62  84 122 158 192 247 292 355
#     4   9  20  36  60  83 122 156 194 242 297 357
#     4  11  20  37  60  87 119 156 206 248 286 340
#     4   9  19  37  61  87 115 160 202 230 302 347
#
# _framework density 21.112224000000001
#
# number of rings (size 3 to 8) (size 9 to 14) (size 15 to 20)
#    1.000    1.000    3.333    1.000    0.000    0.667 
#    0.000    3.333    0.000    8.000    0.000    0.000 
#    0.000    0.000    0.000    0.000    0.000    0.000 
#
# Total GULP energy -66861.184379 kJ/mol
# GULP energy per Si atom -5571.765365 kJ/mol
# Density = 2.106417 g / cm^3
# Si number density = 21.112224 Si / 1000 Ang^3
#
#
#
# Elastic Constant Matrix: (Units=GPa)
#
#
# Indices 1 2 3 4 5 6 
#
# 1 123.0985 47.1690 46.1555 27.7243 29.9746 -7.2751
# 2 47.1690 46.2641 26.8860 5.2201 20.3470 -2.6710
# 3 46.1555 26.8860 111.0893 22.7820 -9.6285 0.9287
# 4 27.7243 5.2201 22.7820 30.9771 -6.1569 8.1801
# 5 29.9746 20.3470 -9.6285 -6.1569 43.9881 3.3503
# 6 -7.2751 -2.6710 0.9287 8.1801 3.3503 32.2878
#
#
#
# Elastic Compliance Matrix: (Units=1/GPa)
#
#
# Indices 1 2 3 4 5 6 
#
# 1 0.023637 -0.011872 -0.003758 -0.022582 -0.015496 0.011781
# 2 -0.011872 0.043362 -0.008002 0.006417 -0.012886 0.000854
# 3 -0.003758 -0.008002 0.013960 -0.003227 0.009021 -0.002029
# 4 -0.022582 0.006417 -0.003227 0.064352 0.022480 -0.023101
# 5 -0.015496 -0.012886 0.009021 0.022480 0.045534 -0.015237
# 6 0.011781 0.000854 -0.002029 -0.023101 -0.015237 0.041188
#
#
# Mechanical properties :
#
#
# Convention : Reuss Voigt Hill
#
# Bulk Modulus (GPa) = 29.67778 57.87476 43.77627
# Shear Modulus (GPa) = 17.20987 32.13336 24.67161
#
# Velocity S-wave (km/s) = 2.85820 3.90555 3.42218
# Velocity P-wave (km/s) = 4.99801 6.91449 6.03284
#
# Compressibility (1/GPa) = 0.03369525
#
# Stress axis : x y z
#
# Youngs Moduli (GPa) = 42.30609 23.06154 71.63186
#
# Poissons Ratio (x) = 0.27380 0.26919
# Poissons Ratio (y) = 0.50228 0.57318
# Poissons Ratio (z) = 0.15899 0.18453
#
# Static dielectric constant tensor:
#      x y z
#    x 1.815750 -0.031190 -0.014690 
#    y -0.031190 1.782760 -0.013880 
#    z -0.014690 -0.013880 1.797620 
# 
# From -- ./inp_files/266361.got.cif
#   From: 2010.05.17/outbox.cif.g08.bks.cpg/sg2_134_cif.got.tgz:266361.got - 2010.06.03 11:33:40.
