data_PCOD9097017
_publ_section_title
;
Structure prediction by ZEFSAII (Michael W. Deem and Ramdas Pophale) SiO2 
 PCOD9097017
Probable space group: P -1
;
_chemical_formula_sum "Si O2"
_cell_formula_units_Z 16
_cell_length_a 13.598547
_cell_length_b 9.787058
_cell_length_c 9.218268
_cell_angle_alpha 43.707654
_cell_angle_beta 107.653492
_cell_angle_gamma 120.574042
_cell_volume 725.581167
_symmetry_space_group_name_H-M "P -1"
_symmetry_group_IT_number 2
_symmetry_cell_setting 'triclinic'
loop_
_space_group_symop_operation_xyz
x,y,z
-x,-y,-z
loop_
_atom_site_type_symbol
_atom_site_label
_atom_site_fract_x
_atom_site_fract_y
_atom_site_fract_z
Si Si1 0.875283 0.437797 0.065251
Si Si2 0.228607 0.214569 0.226187
Si Si3 0.958295 0.610057 0.272728
Si Si4 0.146928 0.064555 0.003461
Si Si5 0.442636 0.785640 0.506161
Si Si6 0.561427 0.790576 0.838910
Si Si7 0.614965 0.691945 0.223236
Si Si8 0.316024 0.038238 0.663458
O O1 0.894851 0.441063 0.245762
O O2 0.775560 0.205230 0.147477
O O3 0.823013 0.614583 0.891890
O O4 0.000000 0.500000 0.000000
O O5 0.350719 0.288846 0.138632
O O6 0.247385 0.118084 0.458637
O O7 0.145839 0.055000 0.186102
O O8 0.884902 0.735039 0.201621
O O9 0.000000 0.500000 0.500000
O O10 0.064988 0.825782 0.090254
O O11 0.270738 0.143641 0.933264
O O12 0.459778 0.735274 0.719089
O O13 0.394546 0.552262 0.585028
O O14 0.570838 0.938523 0.387944
O O15 0.379487 0.940592 0.339995
O O16 0.525633 0.697167 0.057459
O O17 0.627119 0.797197 0.303849
#
# Coordination Sequence:
#
# PCOD9097017 Si02
#       8
#     2   2   2   2   2   2   2   2
#     4  11  24  40  60  86 118 157 194 236 294 350
#     4   9  21  40  60  84 120 154 190 241 291 340
#     4  10  20  36  59  83 111 146 193 244 285 331
#     4   9  20  36  56  84 111 147 194 237 285 339
#     4  10  22  39  61  88 116 154 195 236 292 347
#     4   9  21  39  62  87 115 151 197 240 285 344
#     4  11  22  37  59  86 120 153 190 240 288 340
#     4  11  24  39  58  87 121 156 195 235 287 353
#
# _framework density 22.051290000000002
#
# number of rings (size 3 to 8) (size 9 to 14) (size 15 to 20)
#    0.000    2.000    0.000    2.250    0.000   16.000 
#    0.000    0.000    0.000    0.000    0.000    0.000 
#    0.000    0.000    0.000    0.000    0.000    0.000 
#
# Total GULP energy -89192.029816 kJ/mol
# GULP energy per Si atom -5574.501864 kJ/mol
# Density = 2.200110 g / cm^3
# Si number density = 22.051290 Si / 1000 Ang^3
#
#
#
# Elastic Constant Matrix: (Units=GPa)
#
#
# Indices 1 2 3 4 5 6 
#
# 1 77.7111 23.5975 38.2291 -4.9658 14.9728 -10.2236
# 2 23.5975 126.2449 25.9191 -15.3147 0.5302 -8.9678
# 3 38.2291 25.9191 67.1442 -0.7674 15.5071 -17.3323
# 4 -4.9658 -15.3147 -0.7674 32.5840 4.0575 1.1034
# 5 14.9728 0.5302 15.5071 4.0575 26.7789 -4.3891
# 6 -10.2236 -8.9678 -17.3323 1.1034 -4.3891 24.2382
#
#
#
# Elastic Compliance Matrix: (Units=1/GPa)
#
#
# Indices 1 2 3 4 5 6 
#
# 1 0.018955 -0.001359 -0.008901 0.002770 -0.005847 -0.000057
# 2 -0.001359 0.009307 -0.002971 0.003834 0.001864 0.000909
# 3 -0.008901 -0.002971 0.026112 -0.001589 -0.007800 0.012479
# 4 0.002770 0.003834 -0.001589 0.033663 -0.005997 -0.001167
# 5 -0.005847 0.001864 -0.007800 -0.005997 0.046211 0.001287
# 6 -0.000057 0.000909 0.012479 -0.001167 0.001287 0.050779
#
#
# Mechanical properties :
#
#
# Convention : Reuss Voigt Hill
#
# Bulk Modulus (GPa) = 35.82522 49.62129 42.72325
# Shear Modulus (GPa) = 22.64560 28.94386 25.79473
#
# Velocity S-wave (km/s) = 3.20808 3.62687 3.42389
# Velocity P-wave (km/s) = 5.47759 6.33170 5.92007
#
# Compressibility (1/GPa) = 0.02791330
#
# Stress axis : x y z
#
# Youngs Moduli (GPa) = 52.75536 107.44615 38.29630
#
# Poissons Ratio (x) = 0.14604 0.34086
# Poissons Ratio (y) = 0.07171 0.11378
# Poissons Ratio (z) = 0.46955 0.31922
#
# Static dielectric constant tensor:
#      x y z
#    x 1.878300 0.069750 0.048830 
#    y 0.069750 1.905540 0.048830 
#    z 0.048830 0.048830 1.867500 
# 
# From -- ./inp_files/297308.got.cif
#   From: 2010.05.17/outbox.cif.g08.bks.cpg/sg2_149_cif.got.tgz:297308.got - 2010.06.03 11:33:40.
