data_PCOD9097896
_publ_section_title
;
Structure prediction by ZEFSAII (Michael W. Deem and Ramdas Pophale) SiO2 
 PCOD9097896
Probable space group: P -1
;
_chemical_formula_sum "Si O2"
_cell_formula_units_Z 15
_cell_length_a 17.438014
_cell_length_b 12.127260
_cell_length_c 10.078951
_cell_angle_alpha 124.330615
_cell_angle_beta 31.948373
_cell_angle_gamma 144.735400
_cell_volume 590.430484
_symmetry_space_group_name_H-M "P -1"
_symmetry_group_IT_number 2
_symmetry_cell_setting 'triclinic'
loop_
_space_group_symop_operation_xyz
x,y,z
-x,-y,-z
loop_
_atom_site_type_symbol
_atom_site_label
_atom_site_fract_x
_atom_site_fract_y
_atom_site_fract_z
Si Si1 0.766133 0.301938 0.834597
Si Si2 0.453424 0.753077 0.143061
Si Si3 0.669191 0.384305 0.493466
Si Si4 0.500000 0.500000 0.500000
Si Si5 0.045555 0.808761 0.373648
Si Si6 0.290982 0.343344 0.042385
Si Si7 0.555662 0.846384 0.583692
Si Si8 0.938475 0.713324 0.929991
O O1 0.700493 0.290562 0.774163
O O2 0.906620 0.269791 0.636775
O O3 0.896536 0.525925 0.850493
O O4 0.534961 0.130813 0.145767
O O5 0.377190 0.737935 0.391721
O O6 0.420029 0.569274 0.053712
O O7 0.715274 0.971706 0.881045
O O8 0.636413 0.283165 0.337010
O O9 0.897494 0.629268 0.356895
O O10 0.462741 0.345391 0.769119
O O11 0.568724 0.706901 0.529656
O O12 0.228958 0.348340 0.753262
O O13 0.899074 0.813865 0.672631
O O14 0.189100 0.309020 0.025303
O O15 0.798615 0.060412 0.311201
#
# Coordination Sequence:
#
# PCOD9097896 Si02
#       8
#     2   2   2   1   2   2   2   2
#     4  10  24  42  66  95 122 166 227 254 306 384
#     4  10  22  41  64  92 120 170 210 262 318 367
#     4  11  25  40  61  96 133 161 212 260 320 382
#     4  10  20  36  62  92 124 160 210 240 308 380
#     4  11  23  42  64  90 129 171 210 268 308 371
#     4  10  22  40  60  95 128 158 215 261 314 380
#     4  11  23  42  64  96 131 166 206 262 316 376
#     4  10  21  40  66  94 126 167 205 266 311 367
#
# _framework density 25.405192
#
# number of rings (size 3 to 8) (size 9 to 14) (size 15 to 20)
#    0.000    1.600    1.333    3.200    0.000   11.733 
#    0.000    1.333    0.000    0.000    0.000    0.000 
#    0.000    0.000    0.000    0.000    0.000    0.000 
#
# Total GULP energy -83813.305506 kJ/mol
# GULP energy per Si atom -5587.553700 kJ/mol
# Density = 2.534737 g / cm^3
# Si number density = 25.405192 Si / 1000 Ang^3
#
#
#
# Elastic Constant Matrix: (Units=GPa)
#
#
# Indices 1 2 3 4 5 6 
#
# 1 115.6425 4.5271 5.7588 8.0361 -0.4594 20.2930
# 2 4.5271 66.7671 24.2106 -15.1801 2.2814 -5.7620
# 3 5.7588 24.2106 106.1786 -10.9665 -9.1745 -7.6154
# 4 8.0361 -15.1801 -10.9665 44.9701 0.3682 -2.6849
# 5 -0.4594 2.2814 -9.1745 0.3682 26.3337 -7.6107
# 6 20.2930 -5.7620 -7.6154 -2.6849 -7.6107 20.8788
#
#
#
# Elastic Compliance Matrix: (Units=1/GPa)
#
#
# Indices 1 2 3 4 5 6 
#
# 1 0.011726 -0.002133 -0.002048 -0.004169 -0.004583 -0.014939
# 2 -0.002133 0.018209 -0.003008 0.006188 -0.000877 0.006477
# 3 -0.002048 -0.003008 0.011640 0.002622 0.006599 0.008148
# 4 -0.004169 0.006188 0.002622 0.026357 0.003193 0.011269
# 5 -0.004583 -0.000877 0.006599 0.003193 0.047232 0.024247
# 6 -0.014939 0.006477 0.008148 0.011269 0.024247 0.077463
#
#
# Mechanical properties :
#
#
# Convention : Reuss Voigt Hill
#
# Bulk Modulus (GPa) = 36.76913 39.73124 38.25019
# Shear Modulus (GPa) = 23.14059 35.37598 29.25828
#
# Velocity S-wave (km/s) = 3.02132 3.73563 3.39730
# Velocity P-wave (km/s) = 5.16485 5.85487 5.52065
#
# Compressibility (1/GPa) = 0.02719673
#
# Stress axis : x y z
#
# Youngs Moduli (GPa) = 85.28136 54.91856 85.90722
#
# Poissons Ratio (x) = 0.11715 0.17591
# Poissons Ratio (y) = 0.18191 0.25844
# Poissons Ratio (z) = 0.17463 0.16522
#
# Static dielectric constant tensor:
#      x y z
#    x 1.814790 0.055950 -0.275790 
#    y 0.055950 1.986520 0.059310 
#    z -0.275790 0.059310 1.635460 
# 
# From -- ./inp_files/464724.got.cif
#   From: 2010.05.17/outbox.cif.g08.bks.cpg/sg2_233_cif.got.tgz:464724.got - 2010.06.03 11:33:40.
