data_PCOD9097012
_publ_section_title
;
Structure prediction by ZEFSAII (Michael W. Deem and Ramdas Pophale) SiO2 
 PCOD9097012
Probable space group: P -1
;
_chemical_formula_sum "Si O2"
_cell_formula_units_Z 13
_cell_length_a 11.344940
_cell_length_b 14.846457
_cell_length_c 7.392226
_cell_angle_alpha 133.791379
_cell_angle_beta 80.673026
_cell_angle_gamma 131.713118
_cell_volume 558.657630
_symmetry_space_group_name_H-M "P -1"
_symmetry_group_IT_number 2
_symmetry_cell_setting 'triclinic'
loop_
_space_group_symop_operation_xyz
x,y,z
-x,-y,-z
loop_
_atom_site_type_symbol
_atom_site_label
_atom_site_fract_x
_atom_site_fract_y
_atom_site_fract_z
Si Si1 0.940468 0.182005 0.027644
Si Si2 0.319164 0.803996 0.881521
Si Si3 0.500000 0.000000 0.500000
Si Si4 0.413642 0.215761 0.849666
Si Si5 0.005384 0.133672 0.570790
Si Si6 0.661481 0.469017 0.486506
Si Si7 0.653538 0.720940 0.424997
O O1 0.131820 0.301985 0.251275
O O2 0.853330 0.243995 0.189936
O O3 0.998310 0.229762 0.865648
O O4 0.779619 0.945775 0.760778
O O5 0.370621 0.860988 0.158426
O O6 0.296161 0.639748 0.615759
O O7 0.500000 0.000000 0.000000
O O8 0.526311 0.871692 0.354636
O O9 0.411445 0.303118 0.797493
O O10 0.543833 0.363594 0.185988
O O11 0.193547 0.021828 0.699937
O O12 0.197870 0.273209 0.607221
O O13 0.000000 0.000000 0.500000
O O14 0.525335 0.424618 0.602389
#
# Coordination Sequence:
#
# PCOD9097012 Si02
#       7
#     2   2   1   2   2   2   2
#     4  10  19  37  55  83 112 141 185 225 272 326
#     4  11  19  35  57  79 110 148 177 222 278 324
#     4  10  16  30  58  80 106 140 184 222 264 330
#     4   9  18  34  54  84 108 143 184 225 268 323
#     4   8  17  36  59  74 110 154 177 220 275 319
#     4  11  22  32  59  86 108 142 185 229 272 321
#     4  10  20  41  57  76 114 152 180 220 276 324
#
# _framework density 23.270066
#
# number of rings (size 3 to 8) (size 9 to 14) (size 15 to 20)
#    0.000    2.462    4.615    0.462    0.000    1.231 
#    0.000   11.538    0.000    5.538    0.000    0.000 
#    0.000    0.000    0.000    0.000    0.000    0.000 
#
# Total GULP energy -72427.667630 kJ/mol
# GULP energy per Si atom -5571.359048 kJ/mol
# Density = 2.321710 g / cm^3
# Si number density = 23.270066 Si / 1000 Ang^3
#
#
#
# Elastic Constant Matrix: (Units=GPa)
#
#
# Indices 1 2 3 4 5 6 
#
# 1 86.2170 50.3131 28.9533 1.7157 -8.6604 18.0789
# 2 50.3131 77.4343 29.3885 8.2794 7.2156 26.9016
# 3 28.9533 29.3885 118.8799 7.6371 22.1263 12.3126
# 4 1.7157 8.2794 7.6371 26.0418 11.9469 1.5116
# 5 -8.6604 7.2156 22.1263 11.9469 42.3958 -2.3766
# 6 18.0789 26.9016 12.3126 1.5116 -2.3766 26.6267
#
#
#
# Elastic Compliance Matrix: (Units=1/GPa)
#
#
# Indices 1 2 3 4 5 6 
#
# 1 0.021518 -0.014193 -0.003598 -0.000022 0.008817 0.002181
# 2 -0.014193 0.031095 -0.000139 -0.003816 -0.008290 -0.022239
# 3 -0.003598 -0.000139 0.010852 0.000320 -0.006636 -0.003046
# 4 -0.000022 -0.003816 0.000320 0.045130 -0.012235 0.000068
# 5 0.008817 -0.008290 -0.006636 -0.012235 0.034227 0.009207
# 6 0.002181 -0.022239 -0.003046 0.000068 0.009207 0.060770
#
#
# Mechanical properties :
#
#
# Convention : Reuss Voigt Hill
#
# Bulk Modulus (GPa) = 36.22315 55.53787 45.88051
# Shear Modulus (GPa) = 20.10828 30.60462 25.35645
#
# Velocity S-wave (km/s) = 2.94279 3.63049 3.30458
# Velocity P-wave (km/s) = 5.21027 6.44146 5.85830
#
# Compressibility (1/GPa) = 0.02760665
#
# Stress axis : x y z
#
# Youngs Moduli (GPa) = 46.47252 32.15911 92.14532
#
# Poissons Ratio (x) = 0.45644 0.33151
# Poissons Ratio (y) = 0.65959 0.01280
# Poissons Ratio (z) = 0.16719 0.00447
#
# Static dielectric constant tensor:
#      x y z
#    x 1.895390 0.004870 0.005370 
#    y 0.004870 1.926570 0.021000 
#    z 0.005370 0.021000 1.906520 
# 
# From -- ./inp_files/280722.got.cif
#   From: 2010.05.17/outbox.cif.g08.bks.cpg/sg2_141_cif.got.tgz:280722.got - 2010.06.03 11:33:40.
