data_PCOD9097910
_publ_section_title
;
Structure prediction by ZEFSAII (Michael W. Deem and Ramdas Pophale) SiO2 
 PCOD9097910
Probable space group: P -1
;
_chemical_formula_sum "Si O2"
_cell_formula_units_Z 16
_cell_length_a 9.170028
_cell_length_b 12.996144
_cell_length_c 6.815468
_cell_angle_alpha 92.011450
_cell_angle_beta 71.146079
_cell_angle_gamma 120.072298
_cell_volume 657.162451
_symmetry_space_group_name_H-M "P -1"
_symmetry_group_IT_number 2
_symmetry_cell_setting 'triclinic'
loop_
_space_group_symop_operation_xyz
x,y,z
-x,-y,-z
loop_
_atom_site_type_symbol
_atom_site_label
_atom_site_fract_x
_atom_site_fract_y
_atom_site_fract_z
Si Si1 0.717241 0.733943 0.142732
Si Si2 0.670322 0.443977 0.574276
Si Si3 0.591436 0.900949 0.329980
Si Si4 0.499217 0.726711 0.723377
Si Si5 0.979456 0.651215 0.938288
Si Si6 0.836953 0.726148 0.527960
Si Si7 0.192202 0.621312 0.148389
Si Si8 0.216358 0.843069 0.561619
O O1 0.520042 0.613302 0.232571
O O2 0.675766 0.841510 0.152450
O O3 0.853927 0.706933 0.969832
O O4 0.801625 0.754616 0.326491
O O5 0.375266 0.709240 0.959422
O O6 0.776120 0.586175 0.551619
O O7 0.776892 0.390207 0.637526
O O8 0.552549 0.835629 0.556848
O O9 0.392425 0.873706 0.360733
O O10 0.722540 0.040959 0.320504
O O11 0.683818 0.737224 0.713032
O O12 0.149512 0.730884 0.730779
O O13 0.388124 0.608319 0.622793
O O14 0.049932 0.653718 0.128063
O O15 0.877437 0.513646 0.907038
O O16 0.041589 0.810656 0.509173
#
# Coordination Sequence:
#
# PCOD9097910 Si02
#       8
#     2   2   2   2   2   2   2   2
#     4  10  23  40  60  90 133 157 204 259 314 370
#     4  10  20  37  62  93 129 167 198 254 322 374
#     4   9  22  43  63  85 125 168 207 260 306 374
#     4  10  21  39  61  92 129 161 206 255 314 375
#     4  11  23  38  59  97 124 160 211 262 299 380
#     4  10  20  36  62  93 120 162 208 249 310 381
#     4  11  22  38  62  93 134 163 204 258 320 368
#     4  11  21  40  69  87 120 165 216 253 308 371
#
# _framework density 24.347100999999999
#
# number of rings (size 3 to 8) (size 9 to 14) (size 15 to 20)
#    0.000    2.000    2.500    3.000    1.750    5.500 
#    0.000    4.375    5.500    4.500    0.000    0.000 
#    0.000    0.000    0.000    0.000    0.000    0.000 
#
# Total GULP energy -89498.052115 kJ/mol
# GULP energy per Si atom -5593.628257 kJ/mol
# Density = 2.429169 g / cm^3
# Si number density = 24.347101 Si / 1000 Ang^3
#
#
#
# Elastic Constant Matrix: (Units=GPa)
#
#
# Indices 1 2 3 4 5 6 
#
# 1 187.3579 32.0087 35.8127 14.6266 3.2463 15.8985
# 2 32.0087 72.7846 14.5207 10.0115 -14.9400 13.2271
# 3 35.8127 14.5207 53.7225 7.5775 -17.2611 -4.5346
# 4 14.6266 10.0115 7.5775 22.9930 -6.0291 -1.5506
# 5 3.2463 -14.9400 -17.2611 -6.0291 34.2161 5.9727
# 6 15.8985 13.2271 -4.5346 -1.5506 5.9727 33.7460
#
#
#
# Elastic Compliance Matrix: (Units=1/GPa)
#
#
# Indices 1 2 3 4 5 6 
#
# 1 0.007316 -0.002092 -0.005523 -0.003286 -0.004497 -0.002724
# 2 -0.002092 0.018752 -0.000958 -0.004848 0.008483 -0.008217
# 3 -0.005523 -0.000958 0.027244 -0.001387 0.012854 0.004300
# 4 -0.003286 -0.004848 -0.001387 0.049898 0.005487 0.004584
# 5 -0.004497 0.008483 0.012854 0.005487 0.041970 -0.006655
# 6 -0.002724 -0.008217 0.004300 0.004584 -0.006655 0.036104
#
#
# Mechanical properties :
#
#
# Convention : Reuss Voigt Hill
#
# Bulk Modulus (GPa) = 27.65080 53.17214 40.41147
# Shear Modulus (GPa) = 23.75475 33.62587 28.69031
#
# Velocity S-wave (km/s) = 3.12696 3.72035 3.43649
# Velocity P-wave (km/s) = 4.94153 6.35148 5.69035
#
# Compressibility (1/GPa) = 0.03616532
#
# Stress axis : x y z
#
# Youngs Moduli (GPa) = 136.68586 53.32882 36.70566
#
# Poissons Ratio (x) = 0.11154 0.20273
# Poissons Ratio (y) = 0.28589 0.03518
# Poissons Ratio (z) = 0.75493 0.05111
#
# Static dielectric constant tensor:
#      x y z
#    x 2.012060 -0.013290 -0.005190 
#    y -0.013290 1.870300 0.033460 
#    z -0.005190 0.033460 2.007030 
# 
# From -- ./inp_files/387792.got.cif
#   From: 2010.05.17/outbox.cif.g08.bks.cpg/sg2_194_cif.got.tgz:387792.got - 2010.06.03 11:33:40.
