data_PCOD9097757
_publ_section_title
;
Structure prediction by ZEFSAII (Michael W. Deem and Ramdas Pophale) SiO2 
 PCOD9097757
Probable space group: P -1
;
_chemical_formula_sum "Si O2"
_cell_formula_units_Z 16
_cell_length_a 14.297500
_cell_length_b 12.667302
_cell_length_c 9.271177
_cell_angle_alpha 144.054538
_cell_angle_beta 102.998826
_cell_angle_gamma 59.385904
_cell_volume 787.791635
_symmetry_space_group_name_H-M "P -1"
_symmetry_group_IT_number 2
_symmetry_cell_setting 'triclinic'
loop_
_space_group_symop_operation_xyz
x,y,z
-x,-y,-z
loop_
_atom_site_type_symbol
_atom_site_label
_atom_site_fract_x
_atom_site_fract_y
_atom_site_fract_z
Si Si1 0.958870 0.226872 0.149599
Si Si2 0.856270 0.270621 0.847534
Si Si3 0.934102 0.789615 0.290142
Si Si4 0.778305 0.872682 0.569855
Si Si5 0.712439 0.875809 0.157811
Si Si6 0.416341 0.759157 0.253180
Si Si7 0.833823 0.719826 0.744745
Si Si8 0.357383 0.300554 0.831585
O O1 0.885906 0.459328 0.469897
O O2 0.068152 0.231673 0.138047
O O3 0.887783 0.249550 0.004841
O O4 0.000000 0.000000 0.000000
O O5 0.935637 0.335324 0.863347
O O6 0.891038 0.040545 0.543943
O O7 0.722679 0.443558 0.950254
O O8 0.903722 0.767313 0.419299
O O9 0.845197 0.765514 0.139481
O O10 0.792978 0.816285 0.677714
O O11 0.710125 0.778441 0.371980
O O12 0.692384 0.126009 0.769770
O O13 0.660232 0.749638 0.067511
O O14 0.636437 0.113502 0.472276
O O15 0.728983 0.850584 0.966204
O O16 0.510578 0.804146 0.279736
O O17 0.500000 0.500000 0.000000
#
# Coordination Sequence:
#
# PCOD9097757 Si02
#       8
#     2   2   2   2   2   2   2   2
#     4  11  24  39  60  90 136 173 202 249 311 383
#     4  11  19  35  59  89 121 157 211 253 303 369
#     4   9  20  33  58  90 117 155 207 258 297 364
#     4  10  20  38  61  85 119 162 203 248 314 372
#     4  10  21  39  60  91 122 161 209 259 307 375
#     4  10  21  41  65  90 118 154 213 268 313 357
#     4  11  23  42  61  90 132 171 203 248 321 373
#     4  10  20  36  62  85 115 156 208 252 307 359
#
# _framework density 20.309939
#
# number of rings (size 3 to 8) (size 9 to 14) (size 15 to 20)
#    0.000    2.000    2.500    3.750    0.000    6.000 
#    2.250    3.125    0.000    0.000    0.000    0.000 
#    0.000    0.000    0.000    0.000    0.000    0.000 
#
# Total GULP energy -89166.695096 kJ/mol
# GULP energy per Si atom -5572.918444 kJ/mol
# Density = 2.026371 g / cm^3
# Si number density = 20.309939 Si / 1000 Ang^3
#
#
#
# Elastic Constant Matrix: (Units=GPa)
#
#
# Indices 1 2 3 4 5 6 
#
# 1 105.4191 19.6978 27.3500 -8.5554 -22.1010 13.5117
# 2 19.6978 100.4480 56.2718 1.7914 -17.7708 25.0032
# 3 27.3500 56.2718 77.7411 28.6149 -16.0827 17.5828
# 4 -8.5554 1.7914 28.6149 40.4553 13.4355 -5.8118
# 5 -22.1010 -17.7708 -16.0827 13.4355 38.7661 -0.7107
# 6 13.5117 25.0032 17.5828 -5.8118 -0.7107 30.7108
#
#
#
# Elastic Compliance Matrix: (Units=1/GPa)
#
#
# Indices 1 2 3 4 5 6 
#
# 1 0.012407 0.002935 -0.008355 0.007387 0.002363 -0.001612
# 2 0.002935 0.022449 -0.024120 0.017735 -0.004235 -0.002501
# 3 -0.008355 -0.024120 0.075132 -0.071633 0.039583 -0.032341
# 4 0.007387 0.017735 -0.071633 0.098945 -0.050920 0.040869
# 5 0.002363 -0.004235 0.039583 -0.050920 0.058747 -0.028531
# 6 -0.001612 -0.002501 -0.032341 0.040869 -0.028531 0.060897
#
#
# Mechanical properties :
#
#
# Convention : Reuss Voigt Hill
#
# Bulk Modulus (GPa) = 19.64368 54.47193 37.05780
# Shear Modulus (GPa) = 12.35707 34.00569 23.18138
#
# Velocity S-wave (km/s) = 2.46930 4.09631 3.38210
# Velocity P-wave (km/s) = 4.22172 7.01794 5.79113
#
# Compressibility (1/GPa) = 0.05090697
#
# Stress axis : x y z
#
# Youngs Moduli (GPa) = 80.60231 44.54478 13.30997
#
# Poissons Ratio (x) = -0.13074 0.11120
# Poissons Ratio (y) = -0.23658 0.32104
# Poissons Ratio (z) = 0.67343 1.07444
#
# Static dielectric constant tensor:
#      x y z
#    x 1.759540 0.048410 0.040380 
#    y 0.048410 1.783990 0.058130 
#    z 0.040380 0.058130 1.789780 
# 
# From -- ./inp_files/308813.got.cif
#   From: 2010.05.17/outbox.cif.g08.bks.cpg/sg2_155_cif.got.tgz:308813.got - 2010.06.03 11:33:40.
