data_PCOD9097338
_publ_section_title
;
Structure prediction by ZEFSAII (Michael W. Deem and Ramdas Pophale) SiO2 
 PCOD9097338
Probable space group: P -1
;
_chemical_formula_sum "Si O2"
_cell_formula_units_Z 16
_cell_length_a 22.013793
_cell_length_b 8.757373
_cell_length_c 11.986454
_cell_angle_alpha 120.671615
_cell_angle_beta 152.752214
_cell_angle_gamma 40.095895
_cell_volume 556.826724
_symmetry_space_group_name_H-M "P -1"
_symmetry_group_IT_number 2
_symmetry_cell_setting 'triclinic'
loop_
_space_group_symop_operation_xyz
x,y,z
-x,-y,-z
loop_
_atom_site_type_symbol
_atom_site_label
_atom_site_fract_x
_atom_site_fract_y
_atom_site_fract_z
Si Si1 0.586701 0.854038 0.719958
Si Si2 0.380974 0.418118 0.517048
Si Si3 0.459241 0.392183 0.025609
Si Si4 0.111821 0.045033 0.058939
Si Si5 0.032782 0.326329 0.802483
Si Si6 0.127990 0.646970 0.857804
Si Si7 0.274897 0.072436 0.547080
Si Si8 0.172113 0.962554 0.683378
O O1 0.514048 0.757553 0.494585
O O2 0.429831 0.188847 0.585384
O O3 0.798743 0.686366 0.929934
O O4 0.687572 0.692019 0.941726
O O5 0.472886 0.496579 0.755721
O O6 0.130651 0.729472 0.204596
O O7 0.627453 0.188282 0.122671
O O8 0.511667 0.190382 0.129280
O O9 0.234994 0.692795 0.714140
O O10 0.049740 0.219372 0.910237
O O11 0.201808 0.758812 0.065631
O O12 0.252311 0.994480 0.363104
O O13 0.802412 0.647981 0.506199
O O14 0.141866 0.098597 0.797855
O O15 0.917199 0.801600 0.639653
O O16 0.039382 0.779704 0.640066
#
# Coordination Sequence:
#
# PCOD9097338 Si02
#       8
#     2   2   2   2   2   2   2   2
#     4  10  22  36  63  89 115 146 192 250 279 338
#     4  11  19  37  61  87 115 146 195 237 288 330
#     4  10  20  37  62  86 109 154 199 243 270 333
#     4  12  21  37  62  87 119 152 184 240 297 342
#     4  11  23  37  55  91 122 152 182 233 304 340
#     4  10  20  37  60  87 108 156 201 234 269 345
#     4  10  20  36  60  88 112 149 197 237 284 343
#     4  10  21  38  57  85 117 155 193 236 280 339
#
# _framework density 28.734252000000001
#
# number of rings (size 3 to 8) (size 9 to 14) (size 15 to 20)
#    0.000    1.500    6.250    1.500    0.000    5.000 
#    0.000    1.875    0.000    1.500    0.000    0.000 
#    0.000    0.000    0.000    0.000    0.000    0.000 
#
# Total GULP energy -89683.079131 kJ/mol
# GULP energy per Si atom -5605.192446 kJ/mol
# Density = 2.866885 g / cm^3
# Si number density = 28.734252 Si / 1000 Ang^3
#
#
#
# Elastic Constant Matrix: (Units=GPa)
#
#
# Indices 1 2 3 4 5 6 
#
# 1 134.0871 8.8342 35.1769 -3.8003 -46.3899 0.7014
# 2 8.8342 91.6704 26.8903 -19.6404 -6.8034 10.6420
# 3 35.1769 26.8903 176.6459 -51.2946 -36.3930 1.6675
# 4 -3.8003 -19.6404 -51.2946 58.8539 9.9544 -20.0369
# 5 -46.3899 -6.8034 -36.3930 9.9544 54.3176 -8.2787
# 6 0.7014 10.6420 1.6675 -20.0369 -8.2787 35.7673
#
#
#
# Elastic Compliance Matrix: (Units=1/GPa)
#
#
# Indices 1 2 3 4 5 6 
#
# 1 0.010777 -0.000608 -0.000416 -0.000877 0.009260 0.001641
# 2 -0.000608 0.012022 -0.001145 0.002261 -0.000556 -0.002374
# 3 -0.000416 -0.001145 0.009609 0.009220 0.005205 0.006271
# 4 -0.000877 0.002261 0.009220 0.031041 0.002600 0.016906
# 5 0.009260 -0.000556 0.005205 0.002600 0.030520 0.008262
# 6 0.001641 -0.002374 0.006271 0.016906 0.008262 0.039723
#
#
# Mechanical properties :
#
#
# Convention : Reuss Voigt Hill
#
# Bulk Modulus (GPa) = 35.62413 60.46736 48.04574
# Shear Modulus (GPa) = 33.92473 51.88790 42.90632
#
# Velocity S-wave (km/s) = 3.43977 4.25406 3.86840
# Velocity P-wave (km/s) = 5.31043 6.72449 6.05886
#
# Compressibility (1/GPa) = 0.02807086
#
# Stress axis : x y z
#
# Youngs Moduli (GPa) = 92.78700 83.18318 104.07228
#
# Poissons Ratio (x) = 0.05055 0.04329
# Poissons Ratio (y) = 0.05639 0.11913
# Poissons Ratio (z) = 0.03860 0.09522
#
# Static dielectric constant tensor:
#      x y z
#    x 2.244160 0.057450 0.061350 
#    y 0.057450 2.215170 0.059600 
#    z 0.061350 0.059600 2.316210 
# 
# From -- ./inp_files/354588.got.cif
#   From: 2010.05.17/outbox.cif.g08.bks.cpg/sg2_178_cif.got.tgz:354588.got - 2010.06.03 11:33:40.
