data_PCOD9097685
_publ_section_title
;
Structure prediction by ZEFSAII (Michael W. Deem and Ramdas Pophale) SiO2 
 PCOD9097685
Probable space group: P -1
;
_chemical_formula_sum "Si O2"
_cell_formula_units_Z 14
_cell_length_a 13.540859
_cell_length_b 11.623292
_cell_length_c 18.438958
_cell_angle_alpha 29.648734
_cell_angle_beta 158.061213
_cell_angle_gamma 137.855849
_cell_volume 502.449736
_symmetry_space_group_name_H-M "P -1"
_symmetry_group_IT_number 2
_symmetry_cell_setting 'triclinic'
loop_
_space_group_symop_operation_xyz
x,y,z
-x,-y,-z
loop_
_atom_site_type_symbol
_atom_site_label
_atom_site_fract_x
_atom_site_fract_y
_atom_site_fract_z
Si Si1 0.414192 0.153462 0.985789
Si Si2 0.688060 0.323989 0.875865
Si Si3 0.688822 0.195953 0.683247
Si Si4 0.868741 0.486090 0.765985
Si Si5 0.489555 0.155545 0.334107
Si Si6 0.008127 0.058941 0.383141
Si Si7 0.101981 0.624193 0.585901
O O1 0.261197 0.327517 0.853829
O O2 0.215908 0.299489 0.702789
O O3 0.740276 0.122718 0.219444
O O4 0.396030 0.885575 0.107168
O O5 0.421033 0.571994 0.574035
O O6 0.866675 0.408665 0.890894
O O7 0.855217 0.199569 0.128249
O O8 0.697217 0.347647 0.678507
O O9 0.507488 0.028454 0.629352
O O10 0.000000 0.000000 0.000000
O O11 0.797515 0.781155 0.551992
O O12 0.186076 0.370357 0.014502
O O13 0.731272 0.265824 0.420072
O O14 0.500000 0.000000 0.500000
O O15 0.109919 0.771244 0.584555
#
# Coordination Sequence:
#
# PCOD9097685 Si02
#       7
#     2   2   2   2   2   2   2
#     4  10  22  39  60  97 135 159 207 269 319 371
#     4  11  21  39  63  93 123 169 216 259 316 374
#     4  10  24  40  60  92 129 166 209 264 320 371
#     4  11  22  39  62  88 131 166 207 265 314 371
#     4  11  20  37  65  99 121 160 216 265 311 374
#     4  11  21  40  66  96 127 166 212 262 317 372
#     4  10  20  36  61  93 133 158 203 262 323 361
#
# _framework density 27.863482999999999
#
# number of rings (size 3 to 8) (size 9 to 14) (size 15 to 20)
#    0.000    1.429    1.429    6.000    0.000    0.000 
#    7.714    0.714    0.000    3.429    0.000    0.000 
#    0.000    0.000    0.000    0.000    0.000    0.000 
#
# Total GULP energy -78399.087043 kJ/mol
# GULP energy per Si atom -5599.934789 kJ/mol
# Density = 2.780006 g / cm^3
# Si number density = 27.863483 Si / 1000 Ang^3
#
#
#
# Elastic Constant Matrix: (Units=GPa)
#
#
# Indices 1 2 3 4 5 6 
#
# 1 76.6459 14.1708 -0.8645 -10.9221 12.7134 -7.6148
# 2 14.1708 209.4106 33.6731 -28.7926 19.2450 -23.0842
# 3 -0.8645 33.6731 91.4281 -17.4915 25.1082 -13.6771
# 4 -10.9221 -28.7926 -17.4915 62.4882 -10.1205 9.7676
# 5 12.7134 19.2450 25.1082 -10.1205 43.1948 -5.0009
# 6 -7.6148 -23.0842 -13.6771 9.7676 -5.0009 50.4086
#
#
#
# Elastic Compliance Matrix: (Units=1/GPa)
#
#
# Indices 1 2 3 4 5 6 
#
# 1 0.014371 -0.000446 0.002204 0.001896 -0.004667 0.001734
# 2 -0.000446 0.005511 -0.001165 0.001698 -0.001051 0.001707
# 3 0.002204 -0.001165 0.014277 0.002222 -0.007620 0.002487
# 4 0.001896 0.001698 0.002222 0.018246 0.001469 -0.001723
# 5 -0.004667 -0.001051 -0.007620 0.001469 0.029698 -0.000592
# 6 0.001734 0.001707 0.002487 -0.001723 -0.000592 0.021831
#
#
# Mechanical properties :
#
#
# Convention : Reuss Voigt Hill
#
# Bulk Modulus (GPa) = 28.29218 52.38260 40.33739
# Shear Modulus (GPa) = 43.65640 53.25200 48.45420
#
# Velocity S-wave (km/s) = 3.96257 4.37644 4.17464
# Velocity P-wave (km/s) = 5.57780 6.66170 6.14370
#
# Compressibility (1/GPa) = 0.03534546
#
# Stress axis : x y z
#
# Youngs Moduli (GPa) = 69.58446 181.45194 70.04146
#
# Poissons Ratio (x) = 0.08094 -0.15438
# Poissons Ratio (y) = 0.03104 0.08160
# Poissons Ratio (z) = -0.15337 0.21139
#
# Static dielectric constant tensor:
#      x y z
#    x 2.333220 -0.045180 -0.132950 
#    y -0.045180 2.109930 0.034170 
#    z -0.132950 0.034170 2.382620 
# 
# From -- ./inp_files/279264.got.cif
#   From: 2010.05.17/outbox.cif.g08.bks.cpg/sg2_140_cif.got.tgz:279264.got - 2010.06.03 11:33:40.
