data_PCOD9097809
_publ_section_title
;
Structure prediction by ZEFSAII (Michael W. Deem and Ramdas Pophale) SiO2 
 PCOD9097809
Probable space group: P -1
;
_chemical_formula_sum "Si O2"
_cell_formula_units_Z 12
_cell_length_a 14.366775
_cell_length_b 9.728447
_cell_length_c 8.581748
_cell_angle_alpha 59.346994
_cell_angle_beta 46.050760
_cell_angle_gamma 40.912480
_cell_volume 565.266152
_symmetry_space_group_name_H-M "P -1"
_symmetry_group_IT_number 2
_symmetry_cell_setting 'triclinic'
loop_
_space_group_symop_operation_xyz
x,y,z
-x,-y,-z
loop_
_atom_site_type_symbol
_atom_site_label
_atom_site_fract_x
_atom_site_fract_y
_atom_site_fract_z
Si Si1 0.256203 0.088658 0.783123
Si Si2 0.409700 0.912769 0.213389
Si Si3 0.068482 0.266550 0.564934
Si Si4 0.484013 0.531742 0.185461
Si Si5 0.407207 0.285544 0.558968
Si Si6 0.144059 0.851253 0.046333
O O1 0.156940 0.182819 0.680650
O O2 0.268646 0.255020 0.744918
O O3 0.450252 0.882791 0.636443
O O4 0.175813 0.996125 0.010658
O O5 0.430939 0.751650 0.162763
O O6 0.216351 0.110419 0.361660
O O7 0.500580 0.783898 0.342046
O O8 0.500000 0.000000 0.000000
O O9 0.000000 0.500000 0.500000
O O10 0.362826 0.497796 0.427783
O O11 0.500000 0.500000 0.000000
O O12 0.676866 0.340451 0.129926
O O13 0.077088 0.750662 0.273297
O O14 0.000000 0.000000 0.000000
#
# Coordination Sequence:
#
# PCOD9097809 Si02
#       6
#     2   2   2   2   2   2
#     4   8  17  33  60  88 112 165 201 248 308 373
#     4  11  24  39  63  95 124 164 216 256 307 380
#     4  10  20  36  62  88 128 164 199 259 321 370
#     4  11  24  39  68  95 123 167 213 261 309 376
#     4   9  19  36  61  87 125 152 211 256 306 360
#     4   9  19  37  61  87 123 167 203 248 322 373
#
# _framework density 21.228937999999999
#
# number of rings (size 3 to 8) (size 9 to 14) (size 15 to 20)
#    0.000    2.333    0.000    2.500   11.667    0.000 
#    0.000    0.833    3.667    4.000    0.000    0.000 
#    0.000    0.000    0.000    0.000    0.000    0.000 
#
# Total GULP energy -66932.541658 kJ/mol
# GULP energy per Si atom -5577.711805 kJ/mol
# Density = 2.118062 g / cm^3
# Si number density = 21.228938 Si / 1000 Ang^3
#
#
#
# Elastic Constant Matrix: (Units=GPa)
#
#
# Indices 1 2 3 4 5 6 
#
# 1 72.1997 44.5050 39.4595 -10.2971 -12.5293 26.0435
# 2 44.5050 130.4961 57.9417 -27.6157 -15.0521 33.0304
# 3 39.4595 57.9417 130.7273 -40.9685 -33.2471 35.7339
# 4 -10.2971 -27.6157 -40.9685 42.6097 8.6030 -13.0633
# 5 -12.5293 -15.0521 -33.2471 8.6030 37.4215 -10.0376
# 6 26.0435 33.0304 35.7339 -13.0633 -10.0376 38.7163
#
#
#
# Elastic Compliance Matrix: (Units=1/GPa)
#
#
# Indices 1 2 3 4 5 6 
#
# 1 0.020837 -0.004246 -0.002750 -0.003261 0.001260 -0.008630
# 2 -0.004246 0.011705 -0.001554 0.003724 -0.000151 -0.004479
# 3 -0.002750 -0.001554 0.016377 0.010390 0.008978 -0.006107
# 4 -0.003261 0.003724 0.010390 0.035239 0.002030 0.001843
# 5 0.001260 -0.000151 0.008978 0.002030 0.034780 0.000697
# 6 -0.008630 -0.004479 -0.006107 0.001843 0.000697 0.041894
#
#
# Mechanical properties :
#
#
# Convention : Reuss Voigt Hill
#
# Bulk Modulus (GPa) = 31.42689 68.58172 50.00431
# Shear Modulus (GPa) = 26.51989 36.51732 31.51860
#
# Velocity S-wave (km/s) = 3.53828 4.15199 3.85736
# Velocity P-wave (km/s) = 5.61503 7.44051 6.59127
#
# Compressibility (1/GPa) = 0.03181988
#
# Stress axis : x y z
#
# Youngs Moduli (GPa) = 47.99127 85.43277 61.06229
#
# Poissons Ratio (x) = 0.36271 0.16794
# Poissons Ratio (y) = 0.20375 0.09487
# Poissons Ratio (z) = 0.13199 0.13273
#
# Static dielectric constant tensor:
#      x y z
#    x 1.791810 -0.016510 -0.026060 
#    y -0.016510 1.809870 -0.054720 
#    z -0.026060 -0.054720 1.817150 
# 
# From -- ./inp_files/463543.got.cif
#   From: 2010.05.17/outbox.cif.g08.bks.cpg/sg2_232_cif.got.tgz:463543.got - 2010.06.03 11:33:40.
