data_PCOD9097508
_publ_section_title
;
Structure prediction by ZEFSAII (Michael W. Deem and Ramdas Pophale) SiO2 
 PCOD9097508
Probable space group: P -1
;
_chemical_formula_sum "Si O2"
_cell_formula_units_Z 14
_cell_length_a 8.127587
_cell_length_b 14.892381
_cell_length_c 9.043789
_cell_angle_alpha 61.905875
_cell_angle_beta 73.364914
_cell_angle_gamma 41.057159
_cell_volume 629.776158
_symmetry_space_group_name_H-M "P -1"
_symmetry_group_IT_number 2
_symmetry_cell_setting 'triclinic'
loop_
_space_group_symop_operation_xyz
x,y,z
-x,-y,-z
loop_
_atom_site_type_symbol
_atom_site_label
_atom_site_fract_x
_atom_site_fract_y
_atom_site_fract_z
Si Si1 0.851949 0.119644 0.577116
Si Si2 0.414386 0.667874 0.766604
Si Si3 0.987229 0.084037 0.077202
Si Si4 0.326920 0.267954 0.018611
Si Si5 0.677818 0.960560 0.352758
Si Si6 0.264256 0.157832 0.859850
Si Si7 0.770880 0.481393 0.062991
O O1 0.618459 0.268547 0.434527
O O2 0.000000 0.000000 0.500000
O O3 0.797996 0.058774 0.761759
O O4 0.056154 0.110150 0.601831
O O5 0.237460 0.800941 0.833368
O O6 0.685833 0.545912 0.867283
O O7 0.315945 0.595413 0.830916
O O8 0.041300 0.173669 0.937269
O O9 0.000000 0.000000 0.000000
O O10 0.536835 0.109407 0.173625
O O11 0.369639 0.370040 0.923020
O O12 0.255104 0.261311 0.879575
O O13 0.068090 0.361627 0.103100
O O14 0.500000 0.000000 0.500000
O O15 0.710616 0.853532 0.312910
O O16 0.500000 0.000000 0.000000
#
# Coordination Sequence:
#
# PCOD9097508 Si02
#       7
#     2   2   2   2   2   2   2
#     4  10  21  34  58  88 120 144 192 244 299 340
#     4  10  21  37  59  90 116 157 198 237 289 349
#     4  11  20  37  60  88 119 152 191 252 300 347
#     4  10  20  38  59  85 113 161 199 233 288 352
#     4  11  22  37  60  91 120 147 190 256 306 344
#     4  10  22  36  57  89 116 152 192 244 303 345
#     4  10  20  36  61  82 118 162 205 228 275 362
#
# _framework density 22.230121
#
# number of rings (size 3 to 8) (size 9 to 14) (size 15 to 20)
#    0.000    1.714    2.857    2.571    8.000    0.000 
#    0.000    0.000    0.000   18.857    0.000    0.000 
#    0.000    0.000    0.000    0.000    0.000    0.000 
#
# Total GULP energy -78007.242943 kJ/mol
# GULP energy per Si atom -5571.945924 kJ/mol
# Density = 2.217952 g / cm^3
# Si number density = 22.230121 Si / 1000 Ang^3
#
#
#
# Elastic Constant Matrix: (Units=GPa)
#
#
# Indices 1 2 3 4 5 6 
#
# 1 76.7321 27.0922 16.1183 5.2408 11.1503 30.1502
# 2 27.0922 73.3839 24.2393 4.7894 5.1050 34.5726
# 3 16.1183 24.2393 112.8458 12.4242 13.5362 12.1655
# 4 5.2408 4.7894 12.4242 37.5533 -2.0629 10.5886
# 5 11.1503 5.1050 13.5362 -2.0629 28.3514 3.6823
# 6 30.1502 34.5726 12.1655 10.5886 3.6823 55.1681
#
#
#
# Elastic Compliance Matrix: (Units=1/GPa)
#
#
# Indices 1 2 3 4 5 6 
#
# 1 0.017809 -0.002362 -0.000551 -0.000107 -0.005316 -0.007756
# 2 -0.002362 0.020774 -0.003147 0.001962 0.000318 -0.011431
# 3 -0.000551 -0.003147 0.010449 -0.003497 -0.004583 0.000946
# 4 -0.000107 0.001962 -0.003497 0.029584 0.004338 -0.006368
# 5 -0.005316 0.000318 -0.004583 0.004338 0.039779 0.000229
# 6 -0.007756 -0.011431 0.000946 -0.006368 0.000229 0.030527
#
#
# Mechanical properties :
#
#
# Convention : Reuss Voigt Hill
#
# Bulk Modulus (GPa) = 27.09070 44.20682 35.64876
# Shear Modulus (GPa) = 28.84393 37.24869 33.04631
#
# Velocity S-wave (km/s) = 3.60601 4.09784 3.85977
# Velocity P-wave (km/s) = 5.43606 6.50530 5.99457
#
# Compressibility (1/GPa) = 0.03691304
#
# Stress axis : x y z
#
# Youngs Moduli (GPa) = 56.14982 48.13756 95.70272
#
# Poissons Ratio (x) = 0.11371 0.05271
# Poissons Ratio (y) = 0.13264 0.30114
# Poissons Ratio (z) = 0.03092 0.15147
#
# Static dielectric constant tensor:
#      x y z
#    x 1.918540 -0.002170 -0.010770 
#    y -0.002170 1.899950 -0.008200 
#    z -0.010770 -0.008200 1.839950 
# 
# From -- ./inp_files/179043.got.cif
#   From: 2010.05.17/outbox.cif.g08.bks.cpg/sg2_90_cif.got.tgz:179043.got - 2010.06.03 11:33:40.
