data_PCOD9097145
_publ_section_title
;
Structure prediction by ZEFSAII (Michael W. Deem and Ramdas Pophale) SiO2 
 PCOD9097145
Probable space group: P -1
;
_chemical_formula_sum "Si O2"
_cell_formula_units_Z 15
_cell_length_a 6.635950
_cell_length_b 15.388618
_cell_length_c 8.556452
_cell_angle_alpha 129.898707
_cell_angle_beta 57.325940
_cell_angle_gamma 122.859547
_cell_volume 537.559862
_symmetry_space_group_name_H-M "P -1"
_symmetry_group_IT_number 2
_symmetry_cell_setting 'triclinic'
loop_
_space_group_symop_operation_xyz
x,y,z
-x,-y,-z
loop_
_atom_site_type_symbol
_atom_site_label
_atom_site_fract_x
_atom_site_fract_y
_atom_site_fract_z
Si Si1 0.115886 0.265883 0.794851
Si Si2 0.708224 0.196989 0.137520
Si Si3 0.000000 0.000000 0.500000
Si Si4 0.718347 0.284297 0.734723
Si Si5 0.550692 0.407555 0.591775
Si Si6 0.591268 0.043632 0.307090
Si Si7 0.132788 0.373775 0.453910
Si Si8 0.694880 0.817922 0.983228
O O1 0.382708 0.364584 0.767449
O O2 0.916626 0.302442 0.813597
O O3 0.136151 0.141908 0.575386
O O4 0.974737 0.227314 0.973501
O O5 0.680831 0.310320 0.370950
O O6 0.657158 0.090053 0.156829
O O7 0.496029 0.175418 0.068768
O O8 0.711512 0.017147 0.628959
O O9 0.662234 0.156929 0.523681
O O10 0.464255 0.270213 0.919174
O O11 0.878152 0.378683 0.650348
O O12 0.338078 0.399744 0.537418
O O13 0.751244 0.534589 0.626262
O O14 0.751865 0.952763 0.178613
O O15 0.118101 0.242409 0.246930
#
# Coordination Sequence:
#
# PCOD9097145 Si02
#       8
#     2   2   1   2   2   2   2   2
#     4  10  21  37  64  88 119 158 196 244 293 352
#     4  10  20  36  59  89 115 155 199 237 292 356
#     4  12  22  36  64  86 124 162 192 246 296 354
#     4  10  22  40  57  89 123 158 194 245 299 346
#     4   9  18  37  61  89 116 151 202 246 290 345
#     4  12  23  38  60  90 126 157 193 245 300 357
#     4   9  20  37  61  87 120 154 198 251 291 342
#     4  10  21  37  60  89 120 154 201 241 292 359
#
# _framework density 27.903867000000002
#
# number of rings (size 3 to 8) (size 9 to 14) (size 15 to 20)
#    0.000    1.867    4.000    0.800    0.000    1.600 
#    2.400    6.000    0.000    2.400    0.000    0.000 
#    0.000    0.000    0.000    0.000    0.000    0.000 
#
# Total GULP energy -83764.437163 kJ/mol
# GULP energy per Si atom -5584.295811 kJ/mol
# Density = 2.784036 g / cm^3
# Si number density = 27.903867 Si / 1000 Ang^3
#
#
#
# Elastic Constant Matrix: (Units=GPa)
#
#
# Indices 1 2 3 4 5 6 
#
# 1 86.2470 32.5626 22.9270 -21.9730 -24.8668 25.6796
# 2 32.5626 169.3364 41.0152 -53.3515 -12.1887 -0.8491
# 3 22.9270 41.0152 81.5230 -36.2170 -9.1059 6.7996
# 4 -21.9730 -53.3515 -36.2170 54.4857 -1.5953 2.9257
# 5 -24.8668 -12.1887 -9.1059 -1.5953 52.6093 -11.6754
# 6 25.6796 -0.8491 6.7996 2.9257 -11.6754 45.6105
#
#
#
# Elastic Compliance Matrix: (Units=1/GPa)
#
#
# Indices 1 2 3 4 5 6 
#
# 1 0.018422 -0.000791 -0.000013 0.007333 0.006717 -0.009136
# 2 -0.000791 0.008860 -0.000493 0.008051 0.001988 0.000676
# 3 -0.000013 -0.000493 0.018377 0.011960 0.002804 -0.002791
# 4 0.007333 0.008051 0.011960 0.037693 0.007134 -0.006353
# 5 0.006717 0.001988 0.002804 0.007134 0.023664 0.001437
# 6 -0.009136 0.000676 -0.002791 -0.006353 0.001437 0.028272
#
#
# Mechanical properties :
#
#
# Convention : Reuss Voigt Hill
#
# Bulk Modulus (GPa) = 23.22087 58.90179 41.06133
# Shear Modulus (GPa) = 32.84357 46.58122 39.71240
#
# Velocity S-wave (km/s) = 3.43450 4.09020 3.77661
# Velocity P-wave (km/s) = 4.90587 6.59249 5.81070
#
# Compressibility (1/GPa) = 0.04306471
#
# Stress axis : x y z
#
# Youngs Moduli (GPa) = 54.28418 112.86908 54.41552
#
# Poissons Ratio (x) = 0.08931 0.00069
# Poissons Ratio (y) = 0.04296 0.02682
# Poissons Ratio (z) = 0.00069 0.05563
#
# Static dielectric constant tensor:
#      x y z
#    x 2.293620 -0.032930 -0.005350 
#    y -0.032930 2.122430 -0.058330 
#    z -0.005350 -0.058330 1.835330 
# 
# From -- ./inp_files/213450.got.cif
#   From: 2010.05.17/outbox.cif.g08.bks.cpg/sg2_107_cif.got.tgz:213450.got - 2010.06.03 11:33:40.
