data_PCOD9097897
_publ_section_title
;
Structure prediction by ZEFSAII (Michael W. Deem and Ramdas Pophale) SiO2 
 PCOD9097897
Probable space group: P -1
;
_chemical_formula_sum "Si O2"
_cell_formula_units_Z 16
_cell_length_a 25.769961
_cell_length_b 7.175321
_cell_length_c 19.364574
_cell_angle_alpha 29.831665
_cell_angle_beta 160.747969
_cell_angle_gamma 148.830527
_cell_volume 572.449449
_symmetry_space_group_name_H-M "P -1"
_symmetry_group_IT_number 2
_symmetry_cell_setting 'triclinic'
loop_
_space_group_symop_operation_xyz
x,y,z
-x,-y,-z
loop_
_atom_site_type_symbol
_atom_site_label
_atom_site_fract_x
_atom_site_fract_y
_atom_site_fract_z
Si Si1 0.919407 0.882642 0.203842
Si Si2 0.412542 0.061469 0.800678
Si Si3 0.281425 0.186591 0.364959
Si Si4 0.281692 0.989821 0.883371
Si Si5 0.110810 0.962011 0.540049
Si Si6 0.661153 0.307254 0.586116
Si Si7 0.067327 0.128278 0.924972
Si Si8 0.376896 0.981804 0.155020
O O1 0.964165 0.469918 0.391590
O O2 0.979817 0.059789 0.150067
O O3 0.986690 0.104375 0.287332
O O4 0.724773 0.833141 0.976430
O O5 0.381587 0.458487 0.606873
O O6 0.234831 0.888291 0.661030
O O7 0.537902 0.978774 0.928439
O O8 0.500000 0.000000 0.000000
O O9 0.305976 0.419157 0.393564
O O10 0.310892 0.524160 0.235385
O O11 0.430402 0.973688 0.616353
O O12 0.099100 0.931835 0.222248
O O13 0.189746 0.147007 0.652251
O O14 0.171634 0.561202 0.899567
O O15 0.324103 0.145886 0.963706
O O16 0.500000 0.000000 0.500000
O O17 0.805478 0.106386 0.812686
#
# Coordination Sequence:
#
# PCOD9097897 Si02
#       8
#     2   2   2   2   2   2   2   2
#     4  10  21  39  67  94 126 163 223 269 323 377
#     4  10  20  36  62  92 125 164 210 266 313 376
#     4  11  24  38  63  94 136 168 209 269 336 383
#     4  10  21  41  63  90 133 168 213 268 327 377
#     4   9  21  39  66  93 123 172 220 269 309 394
#     4  12  21  38  68 100 123 164 222 270 314 377
#     4  11  22  40  68  94 123 170 223 267 312 387
#     4  11  23  40  61  93 134 171 205 272 336 384
#
# _framework density 27.950064000000001
#
# number of rings (size 3 to 8) (size 9 to 14) (size 15 to 20)
#    0.000    1.500    3.750    1.125    1.750    1.000 
#    0.000    0.625   11.000    0.000    0.000    0.000 
#    0.000    0.000    0.000    0.000    0.000    0.000 
#
# Total GULP energy -89352.168872 kJ/mol
# GULP energy per Si atom -5584.510555 kJ/mol
# Density = 2.788645 g / cm^3
# Si number density = 27.950064 Si / 1000 Ang^3
#
#
#
# Elastic Constant Matrix: (Units=GPa)
#
#
# Indices 1 2 3 4 5 6 
#
# 1 155.7450 27.4636 50.1166 13.0854 7.2532 21.1933
# 2 27.4636 81.1387 25.5822 8.2378 -7.8083 23.7865
# 3 50.1166 25.5822 153.6364 14.4882 -8.4623 28.6986
# 4 13.0854 8.2378 14.4882 39.3339 26.4821 6.5829
# 5 7.2532 -7.8083 -8.4623 26.4821 49.0501 8.2614
# 6 21.1933 23.7865 28.6986 6.5829 8.2614 48.1637
#
#
#
# Elastic Compliance Matrix: (Units=1/GPa)
#
#
# Indices 1 2 3 4 5 6 
#
# 1 0.007617 -0.001757 -0.002068 -0.000260 -0.001460 -0.000966
# 2 -0.001757 0.016721 0.000471 -0.007338 0.008345 -0.008194
# 3 -0.002068 0.000471 0.008879 -0.005826 0.005871 -0.004824
# 4 -0.000260 -0.007338 -0.005826 0.047644 -0.028808 0.005639
# 5 -0.001460 0.008345 0.005871 -0.028808 0.040170 -0.009930
# 6 -0.000966 -0.008194 -0.004824 0.005639 -0.009930 0.029041
#
#
# Mechanical properties :
#
#
# Convention : Reuss Voigt Hill
#
# Bulk Modulus (GPa) = 37.72232 66.31610 52.01921
# Shear Modulus (GPa) = 30.19031 46.46671 38.32851
#
# Velocity S-wave (km/s) = 3.29013 4.08179 3.70715
# Velocity P-wave (km/s) = 5.28762 6.78180 6.08078
#
# Compressibility (1/GPa) = 0.02650950
#
# Stress axis : x y z
#
# Youngs Moduli (GPa) = 131.28149 59.80537 112.62810
#
# Poissons Ratio (x) = 0.10509 0.23287
# Poissons Ratio (y) = 0.23069 -0.05306
# Poissons Ratio (z) = 0.27144 -0.02818
#
# Static dielectric constant tensor:
#      x y z
#    x 2.188700 -0.056930 -0.083890 
#    y -0.056930 2.326780 0.085320 
#    z -0.083890 0.085320 2.434170 
# 
# From -- ./inp_files/602268.got.cif
#   From: 2010.05.17/outbox.cif.g08.bks.cpg/sg2_302_cif.got.tgz:602268.got - 2010.06.03 11:33:40.
