data_PCOD9097366
_publ_section_title
;
Structure prediction by ZEFSAII (Michael W. Deem and Ramdas Pophale) SiO2 
 PCOD9097366
Probable space group: P -1
;
_chemical_formula_sum "Si O2"
_cell_formula_units_Z 16
_cell_length_a 4.869122
_cell_length_b 7.667792
_cell_length_c 17.960809
_cell_angle_alpha 72.658015
_cell_angle_beta 101.681256
_cell_angle_gamma 80.051173
_cell_volume 607.029568
_symmetry_space_group_name_H-M "P -1"
_symmetry_group_IT_number 2
_symmetry_cell_setting 'triclinic'
loop_
_space_group_symop_operation_xyz
x,y,z
-x,-y,-z
loop_
_atom_site_type_symbol
_atom_site_label
_atom_site_fract_x
_atom_site_fract_y
_atom_site_fract_z
Si Si1 0.995722 0.506683 0.657253
Si Si2 0.648669 0.743155 0.932380
Si Si3 0.402331 0.961487 0.317510
Si Si4 0.570212 0.150461 0.427476
Si Si5 0.781533 0.324810 0.541840
Si Si6 0.590136 0.342949 0.756076
Si Si7 0.483515 0.389629 0.910180
Si Si8 0.925841 0.224430 0.164040
O O1 0.731911 0.691216 0.616373
O O2 0.014520 0.406480 0.589322
O O3 0.870747 0.379550 0.726537
O O4 0.311756 0.516281 0.700151
O O5 0.675793 0.520204 0.942208
O O6 0.911562 0.804262 0.902630
O O7 0.365508 0.841585 0.856127
O O8 0.584365 0.753277 0.014766
O O9 0.293160 0.829184 0.387393
O O10 0.494844 0.828969 0.268554
O O11 0.629563 0.049404 0.363667
O O12 0.139082 0.126286 0.251764
O O13 0.809433 0.234004 0.472715
O O14 0.500000 0.000000 0.500000
O O15 0.500000 0.500000 0.500000
O O16 0.616647 0.312845 0.849027
O O17 0.811166 0.448402 0.142418
#
# Coordination Sequence:
#
# PCOD9097366 Si02
#       8
#     2   2   2   2   2   2   2   2
#     4  10  22  41  61  88 118 161 202 246 294 361
#     4   9  21  36  63  87 117 156 204 245 286 367
#     4  10  21  36  58  93 126 155 201 253 303 351
#     4   9  18  38  64  89 118 158 199 251 302 356
#     4   8  17  38  61  85 120 158 201 241 296 356
#     4  11  24  38  61  89 122 159 198 246 297 361
#     4   9  21  37  63  85 121 157 206 235 301 352
#     4  10  20  36  60  89 120 152 200 252 297 343
#
# _framework density 26.357859000000001
#
# number of rings (size 3 to 8) (size 9 to 14) (size 15 to 20)
#    0.750    1.750    0.000    1.125    3.500    2.000 
#    0.000   28.750    0.000    0.000    0.000    0.000 
#    0.000    0.000    0.000    0.000    0.000    0.000 
#
# Total GULP energy -89503.891092 kJ/mol
# GULP energy per Si atom -5593.993193 kJ/mol
# Density = 2.629787 g / cm^3
# Si number density = 26.357859 Si / 1000 Ang^3
#
#
#
# Elastic Constant Matrix: (Units=GPa)
#
#
# Indices 1 2 3 4 5 6 
#
# 1 94.8937 13.3232 16.1741 -0.4253 -8.6961 -7.2448
# 2 13.3232 78.4027 48.4332 19.5854 -5.6175 8.5966
# 3 16.1741 48.4332 146.7622 19.3519 2.7982 -1.3552
# 4 -0.4253 19.5854 19.3519 47.2178 -5.2080 -1.0545
# 5 -8.6961 -5.6175 2.7982 -5.2080 34.7776 2.4208
# 6 -7.2448 8.5966 -1.3552 -1.0545 2.4208 21.1053
#
#
#
# Elastic Compliance Matrix: (Units=1/GPa)
#
#
# Indices 1 2 3 4 5 6 
#
# 1 0.011579 -0.002256 -0.000766 0.001737 0.002530 0.004641
# 2 -0.002256 0.019175 -0.005478 -0.005634 0.002794 -0.009539
# 3 -0.000766 -0.005478 0.008985 -0.001602 -0.002229 0.002721
# 4 0.001737 -0.005634 -0.001602 0.024609 0.003083 0.003664
# 5 0.002530 0.002794 -0.002229 0.003083 0.030742 -0.003785
# 6 0.004641 -0.009539 0.002721 0.003664 -0.003785 0.053652
#
#
# Mechanical properties :
#
#
# Convention : Reuss Voigt Hill
#
# Bulk Modulus (GPa) = 43.97590 52.87997 48.42794
# Shear Modulus (GPa) = 28.84784 36.76202 32.80493
#
# Velocity S-wave (km/s) = 3.31186 3.73866 3.53171
# Velocity P-wave (km/s) = 5.59866 6.22436 5.91978
#
# Compressibility (1/GPa) = 0.02273973
#
# Stress axis : x y z
#
# Youngs Moduli (GPa) = 86.36069 52.14990 111.29868
#
# Poissons Ratio (x) = 0.11765 0.08525
# Poissons Ratio (y) = 0.19483 0.60969
# Poissons Ratio (z) = 0.06615 0.28568
#
# Static dielectric constant tensor:
#      x y z
#    x 2.007600 0.002490 0.024030 
#    y 0.002490 2.166810 -0.019070 
#    z 0.024030 -0.019070 2.059460 
# 
# From -- ./inp_files/547076.got.cif
#   From: 2010.05.17/outbox.cif.g08.bks.cpg/sg2_274_cif.got.tgz:547076.got - 2010.06.03 11:33:40.
