data_PCOD9097026
_publ_section_title
;
Structure prediction by ZEFSAII (Michael W. Deem and Ramdas Pophale) SiO2 
 PCOD9097026
Probable space group: P -1
;
_chemical_formula_sum "Si O2"
_cell_formula_units_Z 16
_cell_length_a 14.875172
_cell_length_b 9.979917
_cell_length_c 8.943395
_cell_angle_alpha 80.279137
_cell_angle_beta 39.298640
_cell_angle_gamma 68.234457
_cell_volume 765.046171
_symmetry_space_group_name_H-M "P -1"
_symmetry_group_IT_number 2
_symmetry_cell_setting 'triclinic'
loop_
_space_group_symop_operation_xyz
x,y,z
-x,-y,-z
loop_
_atom_site_type_symbol
_atom_site_label
_atom_site_fract_x
_atom_site_fract_y
_atom_site_fract_z
Si Si1 0.919525 0.555143 0.434952
Si Si2 0.107852 0.911275 0.741820
Si Si3 0.561445 0.624696 0.947641
Si Si4 0.942158 0.747865 0.813977
Si Si5 0.628973 0.836132 0.372031
Si Si6 0.430047 0.104049 0.235690
Si Si7 0.875720 0.848333 0.536047
Si Si8 0.529807 0.214736 0.664132
O O1 0.741290 0.575972 0.681868
O O2 0.943381 0.707334 0.365339
O O3 0.000000 0.500000 0.500000
O O4 0.003204 0.427737 0.235052
O O5 0.286164 0.845902 0.572301
O O6 0.061790 0.785844 0.752848
O O7 0.086676 0.022641 0.609239
O O8 0.000000 0.000000 0.000000
O O9 0.481635 0.790971 0.947383
O O10 0.500000 0.500000 0.000000
O O11 0.535043 0.660318 0.150950
O O12 0.922808 0.808938 0.655369
O O13 0.781404 0.819894 0.092029
O O14 0.655363 0.814319 0.518076
O O15 0.553621 0.739570 0.396324
O O16 0.500000 0.000000 0.500000
O O17 0.305427 0.111910 0.267876
O O18 0.502102 0.931018 0.216134
#
# Coordination Sequence:
#
# PCOD9097026 Si02
#       8
#     2   2   2   2   2   2   2   2
#     4   9  19  36  55  79 108 142 182 224 266 324
#     4  11  22  37  54  84 117 143 179 231 276 319
#     4  11  21  36  56  82 111 143 184 230 270 319
#     4  11  20  36  60  84 109 144 185 227 273 322
#     4  10  20  36  59  84 109 144 185 227 271 327
#     4   9  19  36  57  83 109 142 184 227 272 325
#     4   9  19  36  58  83 109 144 184 224 271 328
#     4  10  20  37  58  79 109 150 184 222 274 328
#
# _framework density 20.913771000000001
#
# number of rings (size 3 to 8) (size 9 to 14) (size 15 to 20)
#    0.000    2.000    0.000    6.000    0.000    3.000 
#    0.000   16.250    0.000    0.000    0.000    0.000 
#    0.000    0.000    0.000    0.000    0.000    0.000 
#
# Total GULP energy -89140.253233 kJ/mol
# GULP energy per Si atom -5571.265827 kJ/mol
# Density = 2.086617 g / cm^3
# Si number density = 20.913771 Si / 1000 Ang^3
#
#
#
# Elastic Constant Matrix: (Units=GPa)
#
#
# Indices 1 2 3 4 5 6 
#
# 1 88.9365 10.9003 18.4766 -5.6100 15.4311 20.9808
# 2 10.9003 70.4025 14.0682 10.0527 -0.6571 34.5107
# 3 18.4766 14.0682 95.9108 9.3607 14.0099 11.4914
# 4 -5.6100 10.0527 9.3607 18.7454 9.8407 2.2586
# 5 15.4311 -0.6571 14.0099 9.8407 32.5436 10.4969
# 6 20.9808 34.5107 11.4914 2.2586 10.4969 32.8019
#
#
#
# Elastic Compliance Matrix: (Units=1/GPa)
#
#
# Indices 1 2 3 4 5 6 
#
# 1 0.015313 0.000678 -0.002031 0.009713 -0.006617 -0.008348
# 2 0.000678 0.047233 -0.001333 -0.033130 0.029557 -0.056838
# 3 -0.002031 -0.001333 0.011874 -0.004331 -0.002779 -0.000271
# 4 0.009713 -0.033130 -0.004331 0.094880 -0.044293 0.037801
# 5 -0.006617 0.029557 -0.002779 -0.044293 0.062913 -0.042973
# 6 -0.008348 -0.056838 -0.000271 0.037801 -0.042973 0.106868
#
#
# Mechanical properties :
#
#
# Convention : Reuss Voigt Hill
#
# Bulk Modulus (GPa) = 14.48230 38.01555 26.24893
# Shear Modulus (GPa) = 13.60659 30.93850 22.27255
#
# Velocity S-wave (km/s) = 2.55346 3.85039 3.26693
# Velocity P-wave (km/s) = 3.95390 6.16312 5.17771
#
# Compressibility (1/GPa) = 0.06904979
#
# Stress axis : x y z
#
# Youngs Moduli (GPa) = 65.30474 21.17153 84.21676
#
# Poissons Ratio (x) = -0.01436 0.17101
# Poissons Ratio (y) = -0.04430 0.11226
# Poissons Ratio (z) = 0.13260 0.02822
#
# Static dielectric constant tensor:
#      x y z
#    x 1.813380 -0.033580 0.005560 
#    y -0.033580 1.817710 0.031640 
#    z 0.005560 0.031640 1.785610 
# 
# From -- ./inp_files/298466.got.cif
#   From: 2010.05.17/outbox.cif.g08.bks.cpg/sg2_150_cif.got.tgz:298466.got - 2010.06.03 11:33:40.
