data_PCOD9097278
_publ_section_title
;
Structure prediction by ZEFSAII (Michael W. Deem and Ramdas Pophale) SiO2 
 PCOD9097278
Probable space group: P -1
;
_chemical_formula_sum "Si O2"
_cell_formula_units_Z 12
_cell_length_a 12.702295
_cell_length_b 9.007393
_cell_length_c 9.104645
_cell_angle_alpha 30.922988
_cell_angle_beta 81.506410
_cell_angle_gamma 71.833090
_cell_volume 493.092821
_symmetry_space_group_name_H-M "P -1"
_symmetry_group_IT_number 2
_symmetry_cell_setting 'triclinic'
loop_
_space_group_symop_operation_xyz
x,y,z
-x,-y,-z
loop_
_atom_site_type_symbol
_atom_site_label
_atom_site_fract_x
_atom_site_fract_y
_atom_site_fract_z
Si Si1 0.070460 0.323241 0.327358
Si Si2 0.547749 0.147478 0.238211
Si Si3 0.781275 0.861324 0.283280
Si Si4 0.623500 0.797687 0.021928
Si Si5 0.152044 0.635972 0.803900
Si Si6 0.300458 0.644659 0.375120
O O1 0.103392 0.243365 0.556871
O O2 0.936449 0.448647 0.210900
O O3 0.119825 0.002199 0.498981
O O4 0.127797 0.542639 0.052000
O O5 0.500000 0.000000 0.500000
O O6 0.681525 0.961190 0.343546
O O7 0.500000 0.500000 0.000000
O O8 0.488198 0.120796 0.121547
O O9 0.781734 0.560967 0.446162
O O10 0.738727 0.170609 0.929248
O O11 0.721852 0.530658 0.138833
O O12 0.604786 0.638110 0.312503
O O13 0.673976 0.070879 0.793532
#
# Coordination Sequence:
#
# PCOD9097278 Si02
#       6
#     2   2   2   2   2   2
#     4  10  20  36  60  85 112 146 183 234 288 329
#     4  12  24  37  62  89 112 144 180 238 290 322
#     4  11  22  40  57  84 116 145 193 226 272 338
#     4  11  22  40  57  84 116 145 193 226 272 338
#     4  10  20  36  60  85 112 146 183 234 288 329
#     4  10  24  39  59  80 112 162 185 223 274 324
#
# _framework density 24.336186000000001
#
# number of rings (size 3 to 8) (size 9 to 14) (size 15 to 20)
#    0.000    1.333    0.000    6.000    0.000    4.000 
#    0.000    5.000    0.000    0.000    0.000    0.000 
#    0.000    0.000    0.000    0.000    0.000    0.000 
#
# Total GULP energy -66810.616865 kJ/mol
# GULP energy per Si atom -5567.551405 kJ/mol
# Density = 2.428080 g / cm^3
# Si number density = 24.336186 Si / 1000 Ang^3
#
#
#
# Elastic Constant Matrix: (Units=GPa)
#
#
# Indices 1 2 3 4 5 6 
#
# 1 39.4181 6.7746 11.6117 6.6880 9.9371 7.3519
# 2 6.7746 43.0535 29.8567 0.2506 -0.8324 18.2225
# 3 11.6117 29.8567 173.8613 15.9227 -15.3593 13.4433
# 4 6.6880 0.2506 15.9227 52.6424 20.1393 10.7859
# 5 9.9371 -0.8324 -15.3593 20.1393 30.9828 11.4388
# 6 7.3519 18.2225 13.4433 10.7859 11.4388 44.6089
#
#
#
# Elastic Compliance Matrix: (Units=1/GPa)
#
#
# Indices 1 2 3 4 5 6 
#
# 1 0.029386 -0.002944 -0.002631 0.001631 -0.011787 -0.000219
# 2 -0.002944 0.032170 -0.004476 0.003377 0.002066 -0.012654
# 3 -0.002631 -0.004476 0.007976 -0.005029 0.008339 -0.001064
# 4 0.001631 0.003377 -0.005029 0.028644 -0.020919 -0.001694
# 5 -0.011787 0.002066 0.008339 -0.020919 0.057988 -0.011226
# 6 -0.000219 -0.012654 -0.001064 -0.001694 -0.011226 0.031231
#
#
# Mechanical properties :
#
#
# Convention : Reuss Voigt Hill
#
# Bulk Modulus (GPa) = 20.23085 39.20212 29.71648
# Shear Modulus (GPa) = 22.32407 39.51947 30.92177
#
# Velocity S-wave (km/s) = 3.03201 4.03413 3.56843
# Velocity P-wave (km/s) = 4.53747 6.15163 5.40514
#
# Compressibility (1/GPa) = 0.04942947
#
# Stress axis : x y z
#
# Youngs Moduli (GPa) = 34.03021 31.08454 125.38205
#
# Poissons Ratio (x) = 0.09152 0.32984
# Poissons Ratio (y) = 0.10019 0.56124
# Poissons Ratio (z) = 0.08952 0.13914
#
# Static dielectric constant tensor:
#      x y z
#    x 1.880010 0.150820 0.081290 
#    y 0.150820 1.635990 -0.164800 
#    z 0.081290 -0.164800 1.745340 
# 
# From -- ./inp_files/208859.got.cif
#   From: 2010.05.17/outbox.cif.g08.bks.cpg/sg2_105_cif.got.tgz:208859.got - 2010.06.03 11:33:40.
