data_PCOD9097430
_publ_section_title
;
Structure prediction by ZEFSAII (Michael W. Deem and Ramdas Pophale) SiO2 
 PCOD9097430
Probable space group: P -1
;
_chemical_formula_sum "Si O2"
_cell_formula_units_Z 12
_cell_length_a 9.965970
_cell_length_b 10.388488
_cell_length_c 7.426442
_cell_angle_alpha 135.243240
_cell_angle_beta 69.708306
_cell_angle_gamma 125.390971
_cell_volume 438.535428
_symmetry_space_group_name_H-M "P -1"
_symmetry_group_IT_number 2
_symmetry_cell_setting 'triclinic'
loop_
_space_group_symop_operation_xyz
x,y,z
-x,-y,-z
loop_
_atom_site_type_symbol
_atom_site_label
_atom_site_fract_x
_atom_site_fract_y
_atom_site_fract_z
Si Si1 0.170806 0.817984 0.932194
Si Si2 0.786428 0.953943 0.225187
Si Si3 0.404221 0.680324 0.717887
Si Si4 0.547844 0.235823 0.648345
Si Si5 0.235361 0.226217 0.282004
Si Si6 0.094881 0.607772 0.245326
O O1 0.325583 0.819042 0.957457
O O2 0.022845 0.582331 0.755357
O O3 0.230762 0.906773 0.791335
O O4 0.142775 0.002869 0.207114
O O5 0.620162 0.774478 0.217291
O O6 0.886695 0.158972 0.509834
O O7 0.838828 0.821794 0.933825
O O8 0.433374 0.712874 0.521403
O O9 0.261455 0.436591 0.566971
O O10 0.572795 0.720941 0.767913
O O11 0.724326 0.369199 0.796472
O O12 0.500000 0.000000 0.500000
O O13 0.000000 0.500000 0.000000
#
# Coordination Sequence:
#
# PCOD9097430 Si02
#       6
#     2   2   2   2   2   2
#     4  10  21  38  61  86 121 160 197 249 298 358
#     4   9  21  38  59  91 116 157 205 238 297 355
#     4  11  20  38  64  90 125 154 204 250 297 363
#     4  10  20  36  60  92 117 159 200 245 295 352
#     4   9  23  36  62  95 115 163 201 248 299 358
#     4  11  23  35  61  93 122 158 206 244 304 358
#
# _framework density 27.363809
#
# number of rings (size 3 to 8) (size 9 to 14) (size 15 to 20)
#    1.000    1.000    3.333    1.000    7.000    0.667 
#    0.000    3.333    0.000    2.000    0.000    0.000 
#    0.000    0.000    0.000    0.000    0.000    0.000 
#
# Total GULP energy -66914.973146 kJ/mol
# GULP energy per Si atom -5576.247762 kJ/mol
# Density = 2.730153 g / cm^3
# Si number density = 27.363809 Si / 1000 Ang^3
#
#
#
# Elastic Constant Matrix: (Units=GPa)
#
#
# Indices 1 2 3 4 5 6 
#
# 1 83.9484 25.7875 33.2273 16.8517 10.9069 3.0932
# 2 25.7875 115.9763 34.6386 21.5113 22.6404 9.5635
# 3 33.2273 34.6386 155.9716 25.9184 27.1907 -6.9343
# 4 16.8517 21.5113 25.9184 41.6118 3.1678 15.4848
# 5 10.9069 22.6404 27.1907 3.1678 44.8699 18.5899
# 6 3.0932 9.5635 -6.9343 15.4848 18.5899 33.9074
#
#
#
# Elastic Compliance Matrix: (Units=1/GPa)
#
#
# Indices 1 2 3 4 5 6 
#
# 1 0.014116 -0.001563 -0.001305 -0.004827 -0.002540 0.002483
# 2 -0.001563 0.010938 0.000010 -0.005655 -0.005949 0.002903
# 3 -0.001305 0.000010 0.010887 -0.010279 -0.010966 0.013049
# 4 -0.004827 -0.005655 -0.010279 0.045702 0.020319 -0.032078
# 5 -0.002540 -0.005949 -0.010966 0.020319 0.045414 -0.034511
# 6 0.002483 0.002903 0.013049 -0.032078 -0.034511 0.064685
#
#
# Mechanical properties :
#
#
# Convention : Reuss Voigt Hill
#
# Bulk Modulus (GPa) = 33.08507 60.35588 46.72047
# Shear Modulus (GPa) = 24.09250 41.56068 32.82659
#
# Velocity S-wave (km/s) = 2.97046 3.90143 3.46733
# Velocity P-wave (km/s) = 4.88691 6.51150 5.75680
#
# Compressibility (1/GPa) = 0.03022512
#
# Stress axis : x y z
#
# Youngs Moduli (GPa) = 70.84164 91.42631 91.85160
#
# Poissons Ratio (x) = 0.14287 0.11986
# Poissons Ratio (y) = 0.11070 -0.00089
# Poissons Ratio (z) = 0.09244 -0.00088
#
# Static dielectric constant tensor:
#      x y z
#    x 2.306390 0.006090 -0.094920 
#    y 0.006090 2.354230 0.038920 
#    z -0.094920 0.038920 2.263260 
# 
# From -- ./inp_files/254955.got.cif
#   From: 2010.05.17/outbox.cif.g08.bks.cpg/sg2_128_cif.got.tgz:254955.got - 2010.06.03 11:33:40.
