data_PCOD9097150
_publ_section_title
;
Structure prediction by ZEFSAII (Michael W. Deem and Ramdas Pophale) SiO2 
 PCOD9097150
Probable space group: P -1
;
_chemical_formula_sum "Si O2"
_cell_formula_units_Z 16
_cell_length_a 16.967627
_cell_length_b 12.955958
_cell_length_c 23.079196
_cell_angle_alpha 31.204426
_cell_angle_beta 161.388300
_cell_angle_gamma 139.201061
_cell_volume 793.639106
_symmetry_space_group_name_H-M "P -1"
_symmetry_group_IT_number 2
_symmetry_cell_setting 'triclinic'
loop_
_space_group_symop_operation_xyz
x,y,z
-x,-y,-z
loop_
_atom_site_type_symbol
_atom_site_label
_atom_site_fract_x
_atom_site_fract_y
_atom_site_fract_z
Si Si1 0.708558 0.583324 0.070917
Si Si2 0.008606 0.110513 0.190234
Si Si3 0.741874 0.802513 0.784735
Si Si4 0.220915 0.796972 0.773635
Si Si5 0.466270 0.274906 0.574112
Si Si6 0.587249 0.958456 0.718123
Si Si7 0.143330 0.663356 0.906773
Si Si8 0.284293 0.117891 0.976518
O O1 0.841959 0.396501 0.209106
O O2 0.500000 0.500000 0.000000
O O3 0.586611 0.782348 0.848920
O O4 0.850185 0.687190 0.167116
O O5 0.035736 0.237490 0.090080
O O6 0.848147 0.241341 0.069384
O O7 0.300818 0.020119 0.461204
O O8 0.901494 0.932879 0.175735
O O9 0.794063 0.869844 0.853361
O O10 0.500000 0.000000 0.500000
O O11 0.689509 0.582790 0.859123
O O12 0.228236 0.774863 0.858385
O O13 0.491085 0.815919 0.930134
O O14 0.000000 0.000000 0.500000
O O15 0.500000 0.500000 0.500000
O O16 0.158771 0.311675 0.331236
O O17 0.608192 0.160159 0.669630
O O18 0.579091 0.098721 0.787631
#
# Coordination Sequence:
#
# PCOD9097150 Si02
#       8
#     2   2   2   2   2   2   2   2
#     4   9  19  37  63  80 113 154 195 241 291 343
#     4  10  22  37  59  85 123 151 195 234 304 347
#     4  10  20  37  58  84 116 156 198 237 286 355
#     4  11  21  39  64  88 114 150 204 244 290 349
#     4  10  20  36  59  89 119 153 198 239 292 348
#     4   9  19  38  60  85 116 160 194 236 294 352
#     4  11  21  38  63  84 117 162 192 241 301 347
#     4  10  21  39  57  88 120 153 191 248 289 347
#
# _framework density 20.160295999999999
#
# number of rings (size 3 to 8) (size 9 to 14) (size 15 to 20)
#    0.000    2.000    2.500    1.125    1.750    2.500 
#    2.250    6.875    0.000    0.000    0.000    0.000 
#    0.000    0.000    0.000    0.000    0.000    0.000 
#
# Total GULP energy -89150.719445 kJ/mol
# GULP energy per Si atom -5571.919965 kJ/mol
# Density = 2.011441 g / cm^3
# Si number density = 20.160296 Si / 1000 Ang^3
#
#
#
# Elastic Constant Matrix: (Units=GPa)
#
#
# Indices 1 2 3 4 5 6 
#
# 1 154.9415 52.9087 16.2930 -19.1908 -6.1849 -24.5832
# 2 52.9087 132.7422 23.8039 -15.6439 -5.9522 -32.7111
# 3 16.2930 23.8039 41.1795 -15.4243 -8.9620 -11.6166
# 4 -19.1908 -15.6439 -15.4243 34.0990 -0.1059 3.1315
# 5 -6.1849 -5.9522 -8.9620 -0.1059 15.7757 -9.8065
# 6 -24.5832 -32.7111 -11.6166 3.1315 -9.8065 33.9247
#
#
#
# Elastic Compliance Matrix: (Units=1/GPa)
#
#
# Indices 1 2 3 4 5 6 
#
# 1 0.009153 -0.000479 0.004991 0.006209 0.013199 0.011122
# 2 -0.000479 0.013091 0.004158 0.005972 0.018685 0.018550
# 3 0.004991 0.004158 0.054212 0.025642 0.060104 0.041197
# 4 0.006209 0.005972 0.025642 0.044969 0.035122 0.025040
# 5 0.013199 0.018685 0.060104 0.035122 0.168127 0.093520
# 6 0.011122 0.018550 0.041197 0.025040 0.093520 0.094252
#
#
# Mechanical properties :
#
#
# Convention : Reuss Voigt Hill
#
# Bulk Modulus (GPa) = 10.66133 57.20827 33.93480
# Shear Modulus (GPa) = 12.57131 32.48371 22.52751
#
# Velocity S-wave (km/s) = 2.49984 4.01842 3.34641
# Velocity P-wave (km/s) = 3.69216 7.06884 5.63918
#
# Compressibility (1/GPa) = 0.09379696
#
# Stress axis : x y z
#
# Youngs Moduli (GPa) = 109.24978 76.38565 18.44604
#
# Poissons Ratio (x) = 0.03659 -0.09206
# Poissons Ratio (y) = 0.05233 -0.07670
# Poissons Ratio (z) = -0.54525 -0.31762
#
# Static dielectric constant tensor:
#      x y z
#    x 1.788790 -0.017200 0.017720 
#    y -0.017200 1.734740 -0.019280 
#    z 0.017720 -0.019280 1.721020 
# 
# From -- ./inp_files/205948.got.cif
#   From: 2010.05.17/outbox.cif.g08.bks.cpg/sg2_103_cif.got.tgz:205948.got - 2010.06.03 11:33:40.
