data_PCOD9097417
_publ_section_title
;
Structure prediction by ZEFSAII (Michael W. Deem and Ramdas Pophale) SiO2 
 PCOD9097417
Probable space group: P -1
;
_chemical_formula_sum "Si O2"
_cell_formula_units_Z 16
_cell_length_a 13.217797
_cell_length_b 14.517901
_cell_length_c 7.996035
_cell_angle_alpha 138.988707
_cell_angle_beta 114.109961
_cell_angle_gamma 48.367953
_cell_volume 738.973958
_symmetry_space_group_name_H-M "P -1"
_symmetry_group_IT_number 2
_symmetry_cell_setting 'triclinic'
loop_
_space_group_symop_operation_xyz
x,y,z
-x,-y,-z
loop_
_atom_site_type_symbol
_atom_site_label
_atom_site_fract_x
_atom_site_fract_y
_atom_site_fract_z
Si Si1 0.153437 0.051525 0.125300
Si Si2 0.554197 0.619150 0.023736
Si Si3 0.445157 0.445378 0.537779
Si Si4 0.846716 0.277802 0.824478
Si Si5 0.559299 0.041633 0.754023
Si Si6 0.449654 0.875177 0.622355
Si Si7 0.847497 0.949954 0.278065
Si Si8 0.152358 0.725949 0.777477
O O1 0.171838 0.873799 0.940509
O O2 0.157520 0.061746 0.941522
O O3 0.279570 0.045245 0.272686
O O4 0.999177 0.206335 0.290937
O O5 0.500000 0.500000 0.500000
O O6 0.470027 0.538647 0.833788
O O7 0.518422 0.751523 0.028811
O O8 0.715355 0.461488 0.923081
O O9 0.523618 0.244672 0.364398
O O10 0.282470 0.543727 0.547437
O O11 0.999920 0.209551 0.778664
O O12 0.832497 0.126604 0.552022
O O13 0.845801 0.283142 0.032686
O O14 0.495828 0.261732 0.682052
O O15 0.500000 0.000000 0.500000
O O16 0.529751 0.961203 0.778596
O O17 0.286320 0.022737 0.698820
#
# Coordination Sequence:
#
# PCOD9097417 Si02
#       8
#     2   2   2   2   2   2   2   2
#     4  10  21  39  58  90 124 157 203 251 302 362
#     4  11  21  39  61  86 122 161 207 248 290 367
#     4  12  22  35  60  96 121 149 207 260 300 350
#     4  10  20  36  60  91 123 157 199 253 309 353
#     4  10  24  40  61  88 122 167 206 244 299 375
#     4  11  22  39  61  87 119 164 203 247 307 357
#     4  10  21  35  59  94 122 153 201 255 307 353
#     4  10  20  36  63  86 121 160 200 251 306 348
#
# _framework density 21.651643
#
# number of rings (size 3 to 8) (size 9 to 14) (size 15 to 20)
#    0.000    1.500    3.750    1.875    1.750    0.500 
#    0.000    1.250    0.000    0.000    0.000    0.000 
#    0.000    0.000    0.000    0.000    0.000    0.000 
#
# Total GULP energy -89413.958313 kJ/mol
# GULP energy per Si atom -5588.372395 kJ/mol
# Density = 2.160236 g / cm^3
# Si number density = 21.651643 Si / 1000 Ang^3
#
#
#
# Elastic Constant Matrix: (Units=GPa)
#
#
# Indices 1 2 3 4 5 6 
#
# 1 150.0367 68.5523 25.0147 10.3925 13.5465 -38.1755
# 2 68.5523 110.1778 11.3223 3.6925 3.8078 -26.3979
# 3 25.0147 11.3223 33.0729 -1.9659 -2.6268 -1.5923
# 4 10.3925 3.6925 -1.9659 26.5048 -1.6654 -4.6157
# 5 13.5465 3.8078 -2.6268 -1.6654 33.9883 4.6536
# 6 -38.1755 -26.3979 -1.5923 -4.6157 4.6536 59.6292
#
#
#
# Elastic Compliance Matrix: (Units=1/GPa)
#
#
# Indices 1 2 3 4 5 6 
#
# 1 0.012835 -0.005395 -0.008327 -0.004283 -0.006152 0.005755
# 2 -0.005395 0.012965 -0.000172 0.000723 0.000404 0.002305
# 3 -0.008327 -0.000172 0.037280 0.005713 0.007119 -0.004525
# 4 -0.004283 0.000723 0.005713 0.040071 0.003959 0.000524
# 5 -0.006152 0.000404 0.007119 0.003959 0.033376 -0.005868
# 6 0.005755 0.002305 -0.004525 0.000524 -0.005868 0.021853
#
#
# Mechanical properties :
#
#
# Convention : Reuss Voigt Hill
#
# Bulk Modulus (GPa) = 28.33459 55.89622 42.11540
# Shear Modulus (GPa) = 25.26125 36.58432 30.92279
#
# Velocity S-wave (km/s) = 3.41942 4.11503 3.78325
# Velocity P-wave (km/s) = 5.35770 6.96061 6.21108
#
# Compressibility (1/GPa) = 0.03529255
#
# Stress axis : x y z
#
# Youngs Moduli (GPa) = 77.91349 77.13175 26.82393
#
# Poissons Ratio (x) = 0.41613 0.22336
# Poissons Ratio (y) = 0.42035 0.00461
# Poissons Ratio (z) = 0.64877 0.01325
#
# Static dielectric constant tensor:
#      x y z
#    x 1.819000 0.025190 -0.079630 
#    y 0.025190 1.856160 -0.103100 
#    z -0.079630 -0.103100 1.926270 
# 
# From -- ./inp_files/314141.got.cif
#   From: 2010.05.17/outbox.cif.g08.bks.cpg/sg2_158_cif.got.tgz:314141.got - 2010.06.03 11:33:40.
