data_PCOD9097582
_publ_section_title
;
Structure prediction by ZEFSAII (Michael W. Deem and Ramdas Pophale) SiO2 
 PCOD9097582
Probable space group: P -1
;
_chemical_formula_sum "Si O2"
_cell_formula_units_Z 14
_cell_length_a 11.246433
_cell_length_b 8.273198
_cell_length_c 9.004315
_cell_angle_alpha 132.624475
_cell_angle_beta 89.371307
_cell_angle_gamma 84.864707
_cell_volume 611.047144
_symmetry_space_group_name_H-M "P -1"
_symmetry_group_IT_number 2
_symmetry_cell_setting 'triclinic'
loop_
_space_group_symop_operation_xyz
x,y,z
-x,-y,-z
loop_
_atom_site_type_symbol
_atom_site_label
_atom_site_fract_x
_atom_site_fract_y
_atom_site_fract_z
Si Si1 0.980987 0.239622 0.720848
Si Si2 0.318796 0.449776 0.566461
Si Si3 0.603029 0.696036 0.039526
Si Si4 0.469368 0.711813 0.346724
Si Si5 0.296191 0.873099 0.681567
Si Si6 0.183826 0.531601 0.919092
Si Si7 0.884590 0.437610 0.548877
O O1 0.836600 0.200979 0.361649
O O2 0.106422 0.327308 0.806310
O O3 0.900074 0.261005 0.882091
O O4 0.000000 0.000000 0.500000
O O5 0.419384 0.280091 0.537146
O O6 0.369854 0.666225 0.638196
O O7 0.226979 0.537634 0.754502
O O8 0.915595 0.411063 0.705234
O O9 0.507360 0.774335 0.219800
O O10 0.699505 0.522532 0.016135
O O11 0.671409 0.898035 0.115362
O O12 0.548232 0.547731 0.827114
O O13 0.349020 0.846822 0.497261
O O14 0.231345 0.393450 0.398745
O O15 0.000000 0.500000 0.500000
#
# Coordination Sequence:
#
# PCOD9097582 Si02
#       7
#     2   2   2   2   2   2   2
#     4  11  21  37  62  83 112 157 204 238 292 353
#     4   9  21  38  60  85 126 155 199 243 304 354
#     4  10  21  36  60  90 120 152 204 244 300 354
#     4  10  20  38  60  86 123 161 189 254 302 345
#     4  10  20  36  61  89 117 157 204 242 290 362
#     4  10  21  39  56  84 118 156 192 250 291 351
#     4  10  20  38  61  86 122 158 194 246 300 351
#
# _framework density 22.911491000000002
#
# number of rings (size 3 to 8) (size 9 to 14) (size 15 to 20)
#    0.857    1.143    1.429    2.571    0.000    0.571 
#    0.000    9.286    0.000    0.000    0.000    0.000 
#    0.000    0.000    0.000    0.000    0.000    0.000 
#
# Total GULP energy -78038.726198 kJ/mol
# GULP energy per Si atom -5574.194728 kJ/mol
# Density = 2.285934 g / cm^3
# Si number density = 22.911491 Si / 1000 Ang^3
#
#
#
# Elastic Constant Matrix: (Units=GPa)
#
#
# Indices 1 2 3 4 5 6 
#
# 1 101.2859 25.2322 37.1229 -0.4428 12.0347 15.1323
# 2 25.2322 35.4633 21.6150 2.9744 6.4432 12.2632
# 3 37.1229 21.6150 68.9374 10.7040 -8.8957 9.9136
# 4 -0.4428 2.9744 10.7040 34.4571 5.6567 12.2534
# 5 12.0347 6.4432 -8.8957 5.6567 42.7411 -12.4076
# 6 15.1323 12.2632 9.9136 12.2534 -12.4076 39.8377
#
#
#
# Elastic Compliance Matrix: (Units=1/GPa)
#
#
# Indices 1 2 3 4 5 6 
#
# 1 0.016348 -0.001524 -0.009600 0.008178 -0.010067 -0.009002
# 2 -0.001524 0.046737 -0.014822 0.009675 -0.016253 -0.018158
# 3 -0.009600 -0.014822 0.026886 -0.013420 0.015335 0.010422
# 4 0.008178 0.009675 -0.013420 0.043294 -0.018631 -0.021865
# 5 -0.010067 -0.016253 0.015335 -0.018631 0.041180 0.023567
# 6 -0.009002 -0.018158 0.010422 -0.021865 0.023567 0.045583
#
#
# Mechanical properties :
#
#
# Convention : Reuss Voigt Hill
#
# Bulk Modulus (GPa) = 26.26065 41.51408 33.88736
# Shear Modulus (GPa) = 17.56767 31.52163 24.54465
#
# Velocity S-wave (km/s) = 2.77205 3.71320 3.27659
# Velocity P-wave (km/s) = 4.66180 6.04504 5.39791
#
# Compressibility (1/GPa) = 0.03807979
#
# Stress axis : x y z
#
# Youngs Moduli (GPa) = 61.16884 21.39638 37.19350
#
# Poissons Ratio (x) = 0.03262 0.35705
# Poissons Ratio (y) = 0.09325 0.55127
# Poissons Ratio (z) = 0.58721 0.31713
#
# Static dielectric constant tensor:
#      x y z
#    x 1.897900 -0.007610 -0.008190 
#    y -0.007610 1.903090 -0.016040 
#    z -0.008190 -0.016040 1.862180 
# 
# From -- ./inp_files/245961.got.cif
#   From: 2010.05.17/outbox.cif.g08.bks.cpg/sg2_123_cif.got.tgz:245961.got - 2010.06.03 11:33:40.
