data_PCOD9097028
_publ_section_title
;
Structure prediction by ZEFSAII (Michael W. Deem and Ramdas Pophale) SiO2 
 PCOD9097028
Probable space group: P -1
;
_chemical_formula_sum "Si O2"
_cell_formula_units_Z 16
_cell_length_a 19.420605
_cell_length_b 9.040538
_cell_length_c 6.216522
_cell_angle_alpha 51.929448
_cell_angle_beta 119.027923
_cell_angle_gamma 101.948967
_cell_volume 744.546097
_symmetry_space_group_name_H-M "P -1"
_symmetry_group_IT_number 2
_symmetry_cell_setting 'triclinic'
loop_
_space_group_symop_operation_xyz
x,y,z
-x,-y,-z
loop_
_atom_site_type_symbol
_atom_site_label
_atom_site_fract_x
_atom_site_fract_y
_atom_site_fract_z
Si Si1 0.246537 0.041361 0.575401
Si Si2 0.707642 0.680844 0.939006
Si Si3 0.381148 0.103537 0.034157
Si Si4 0.828948 0.333524 0.295480
Si Si5 0.457093 0.790270 0.735258
Si Si6 0.039347 0.608611 0.274557
Si Si7 0.115241 0.367589 0.225523
Si Si8 0.555933 0.551872 0.725875
O O1 0.254642 0.145224 0.265051
O O2 0.184764 0.193304 0.475780
O O3 0.213178 0.842943 0.683589
O O4 0.330535 0.022599 0.845040
O O5 0.671783 0.720265 0.087170
O O6 0.632127 0.651139 0.699574
O O7 0.767999 0.490324 0.185173
O O8 0.469633 0.147429 0.071743
O O9 0.400029 0.959589 0.392436
O O10 0.901920 0.267911 0.626949
O O11 0.859922 0.457293 0.036453
O O12 0.501781 0.679810 0.699966
O O13 0.413511 0.645132 0.932069
O O14 0.091549 0.454252 0.343127
O O15 0.000000 0.500000 0.500000
O O16 0.965005 0.697577 0.938885
O O17 0.500000 0.500000 0.500000
#
# Coordination Sequence:
#
# PCOD9097028 Si02
#       8
#     2   2   2   2   2   2   2   2
#     4  11  23  38  59  88 121 154 197 240 291 349
#     4  10  23  38  56  85 116 155 198 241 297 347
#     4  10  21  39  56  81 120 156 195 252 294 351
#     4  10  22  37  57  90 118 153 197 236 290 346
#     4   9  21  37  56  83 113 154 202 241 305 349
#     4   9  18  39  66  86 120 154 189 238 281 344
#     4   9  20  40  61  88 119 156 190 232 292 341
#     4  10  20  36  59  84 111 151 199 251 296 349
#
# _framework density 21.489604
#
# number of rings (size 3 to 8) (size 9 to 14) (size 15 to 20)
#    0.000    2.250    0.000    1.500    3.500    1.500 
#    4.500    9.375    0.000    0.000    0.000    0.000 
#    0.000    0.000    0.000    0.000    0.000    0.000 
#
# Total GULP energy -89327.551166 kJ/mol
# GULP energy per Si atom -5582.971948 kJ/mol
# Density = 2.144069 g / cm^3
# Si number density = 21.489604 Si / 1000 Ang^3
#
#
#
# Elastic Constant Matrix: (Units=GPa)
#
#
# Indices 1 2 3 4 5 6 
#
# 1 71.1046 28.7202 15.6886 -3.7702 4.4156 7.8316
# 2 28.7202 96.7111 39.8684 6.9556 8.7264 36.3896
# 3 15.6886 39.8684 53.2201 5.2572 14.9645 16.7238
# 4 -3.7702 6.9556 5.2572 40.4795 12.0286 8.1230
# 5 4.4156 8.7264 14.9645 12.0286 25.1560 5.5507
# 6 7.8316 36.3896 16.7238 8.1230 5.5507 32.6966
#
#
#
# Elastic Compliance Matrix: (Units=1/GPa)
#
#
# Indices 1 2 3 4 5 6 
#
# 1 0.016488 -0.005156 -0.001356 0.002794 -0.002109 0.002146
# 2 -0.005156 0.023557 -0.010863 -0.000204 0.003707 -0.020005
# 3 -0.001356 -0.010863 0.032188 0.002717 -0.015997 -0.002008
# 4 0.002794 -0.000204 0.002717 0.030511 -0.015114 -0.006845
# 5 -0.002109 0.003707 -0.015997 -0.015114 0.055836 -0.001162
# 6 0.002146 -0.020005 -0.002008 -0.006845 -0.001162 0.055260
#
#
# Mechanical properties :
#
#
# Convention : Reuss Voigt Hill
#
# Bulk Modulus (GPa) = 26.67791 43.28779 34.98285
# Shear Modulus (GPa) = 19.15099 28.78369 23.96734
#
# Velocity S-wave (km/s) = 2.98849 3.66378 3.34323
# Velocity P-wave (km/s) = 4.93451 6.17131 5.58724
#
# Compressibility (1/GPa) = 0.03748419
#
# Stress axis : x y z
#
# Youngs Moduli (GPa) = 60.64987 42.45064 31.06743
#
# Poissons Ratio (x) = 0.21887 0.04211
# Poissons Ratio (y) = 0.31270 0.33748
# Poissons Ratio (z) = 0.08222 0.46114
#
# Static dielectric constant tensor:
#      x y z
#    x 1.786910 0.000020 0.025820 
#    y 0.000020 1.793140 0.013720 
#    z 0.025820 0.013720 1.805560 
# 
# From -- ./inp_files/116720.got.cif
#   From: 2010.05.17/outbox.cif.g08.bks.cpg/sg2_59_cif.got.tgz:116720.got - 2010.06.03 11:33:40.
