data_PCOD9097188
_publ_section_title
;
Structure prediction by ZEFSAII (Michael W. Deem and Ramdas Pophale) SiO2 
 PCOD9097188
Probable space group: P -1
;
_chemical_formula_sum "Si O2"
_cell_formula_units_Z 16
_cell_length_a 12.329373
_cell_length_b 9.119379
_cell_length_c 10.948688
_cell_angle_alpha 64.099386
_cell_angle_beta 97.008981
_cell_angle_gamma 48.274064
_cell_volume 651.832548
_symmetry_space_group_name_H-M "P -1"
_symmetry_group_IT_number 2
_symmetry_cell_setting 'triclinic'
loop_
_space_group_symop_operation_xyz
x,y,z
-x,-y,-z
loop_
_atom_site_type_symbol
_atom_site_label
_atom_site_fract_x
_atom_site_fract_y
_atom_site_fract_z
Si Si1 0.979592 0.245124 0.782755
Si Si2 0.668451 0.520744 0.308964
Si Si3 0.956662 0.904033 0.871254
Si Si4 0.758541 0.774976 0.649737
Si Si5 0.346236 0.777809 0.453602
Si Si6 0.408515 0.773244 0.946542
Si Si7 0.458945 0.048481 0.206065
Si Si8 0.137629 0.506098 0.839290
O O1 0.916437 0.143151 0.768785
O O2 0.820017 0.573161 0.628051
O O3 0.186478 0.026781 0.841014
O O4 0.001914 0.195107 0.950350
O O5 0.738045 0.264184 0.460152
O O6 0.825917 0.440234 0.297773
O O7 0.584442 0.737992 0.322393
O O8 0.516075 0.666260 0.129708
O O9 0.785987 0.011872 0.752478
O O10 0.115734 0.664491 0.886768
O O11 0.652403 0.816571 0.731547
O O12 0.962095 0.601940 0.771408
O O13 0.635220 0.087282 0.506192
O O14 0.500000 0.500000 0.500000
O O15 0.445280 0.893607 0.829724
O O16 0.500000 0.500000 0.000000
O O17 0.316799 0.196017 0.019413
#
# Coordination Sequence:
#
# PCOD9097188 Si02
#       8
#     2   2   2   2   2   2   2   2
#     4  11  21  40  60  92 119 160 198 254 307 344
#     4  11  22  39  64  88 126 160 199 249 304 356
#     4  10  23  36  64  85 123 155 204 248 300 363
#     4  11  22  35  64  87 124 158 203 252 296 357
#     4  11  23  41  60  92 122 164 202 246 299 365
#     4  11  24  39  65  94 124 153 201 255 307 354
#     4  11  20  37  59  93 118 160 201 254 297 349
#     4  10  20  36  59  92 115 155 203 257 294 350
#
# _framework density 24.546181000000001
#
# number of rings (size 3 to 8) (size 9 to 14) (size 15 to 20)
#    0.000    1.250    2.500    5.625    5.250    2.000 
#    0.000    1.875    0.000    3.000    0.000    0.000 
#    0.000    0.000    0.000    0.000    0.000    0.000 
#
# Total GULP energy -89370.353159 kJ/mol
# GULP energy per Si atom -5585.647072 kJ/mol
# Density = 2.449031 g / cm^3
# Si number density = 24.546181 Si / 1000 Ang^3
#
#
#
# Elastic Constant Matrix: (Units=GPa)
#
#
# Indices 1 2 3 4 5 6 
#
# 1 113.6260 57.5168 12.0316 3.0457 -27.8231 -2.5150
# 2 57.5168 170.9166 20.9131 -28.2014 -10.9203 12.3626
# 3 12.0316 20.9131 39.2553 0.0953 -13.8163 11.4596
# 4 3.0457 -28.2014 0.0953 31.5528 12.1162 -8.6141
# 5 -27.8231 -10.9203 -13.8163 12.1162 37.3109 -3.0686
# 6 -2.5150 12.3626 11.4596 -8.6141 -3.0686 48.8838
#
#
#
# Elastic Compliance Matrix: (Units=1/GPa)
#
#
# Indices 1 2 3 4 5 6 
#
# 1 0.016631 -0.007568 0.004864 -0.014818 0.016806 0.000073
# 2 -0.007568 0.010998 -0.007118 0.014428 -0.009710 0.000431
# 3 0.004864 -0.007118 0.037401 -0.017016 0.020225 -0.008446
# 4 -0.014818 0.014428 -0.017016 0.060668 -0.032151 0.008250
# 5 0.016806 -0.009710 0.020225 -0.032151 0.054118 -0.003689
# 6 0.000073 0.000431 -0.008446 0.008250 -0.003689 0.023554
#
#
# Mechanical properties :
#
#
# Convention : Reuss Voigt Hill
#
# Bulk Modulus (GPa) = 22.03347 56.08010 39.05679
# Shear Modulus (GPa) = 20.99596 39.10526 30.05061
#
# Velocity S-wave (km/s) = 2.92784 3.99573 3.50272
# Velocity P-wave (km/s) = 4.51945 6.64712 5.68373
#
# Compressibility (1/GPa) = 0.04538550
#
# Stress axis : x y z
#
# Youngs Moduli (GPa) = 60.13005 90.92898 26.73743
#
# Poissons Ratio (x) = 0.68817 -0.13006
# Poissons Ratio (y) = 0.45507 0.19031
# Poissons Ratio (z) = -0.29249 0.64721
#
# Static dielectric constant tensor:
#      x y z
#    x 1.942840 0.010080 -0.002740 
#    y 0.010080 2.077080 -0.097080 
#    z -0.002740 -0.097080 2.014500 
# 
# From -- ./inp_files/263385.got.cif
#   From: 2010.05.17/outbox.cif.g08.bks.cpg/sg2_132_cif.got.tgz:263385.got - 2010.06.03 11:33:40.
