data_PCOD9097019
_publ_section_title
;
Structure prediction by ZEFSAII (Michael W. Deem and Ramdas Pophale) SiO2 
 PCOD9097019
Probable space group: P -1
;
_chemical_formula_sum "Si O2"
_cell_formula_units_Z 15
_cell_length_a 13.611789
_cell_length_b 8.422864
_cell_length_c 7.037161
_cell_angle_alpha 128.304540
_cell_angle_beta 99.214184
_cell_angle_gamma 76.669812
_cell_volume 615.912986
_symmetry_space_group_name_H-M "P -1"
_symmetry_group_IT_number 2
_symmetry_cell_setting 'triclinic'
loop_
_space_group_symop_operation_xyz
x,y,z
-x,-y,-z
loop_
_atom_site_type_symbol
_atom_site_label
_atom_site_fract_x
_atom_site_fract_y
_atom_site_fract_z
Si Si1 0.883047 0.756473 0.548971
Si Si2 0.871967 0.333276 0.730369
Si Si3 0.535130 0.125408 0.367620
Si Si4 0.664622 0.835498 0.452992
Si Si5 0.535535 0.297668 0.101143
Si Si6 0.000000 0.000000 0.500000
Si Si7 0.338965 0.551282 0.069454
Si Si8 0.003778 0.337130 0.122737
O O1 0.764158 0.822200 0.597527
O O2 0.943184 0.792504 0.784844
O O3 0.918322 0.516437 0.319152
O O4 0.909863 0.883033 0.472335
O O5 0.910176 0.542469 0.846227
O O6 0.912924 0.162793 0.465274
O O7 0.759665 0.350176 0.774433
O O8 0.953818 0.235163 0.852531
O O9 0.429483 0.223285 0.503282
O O10 0.564304 0.253385 0.295011
O O11 0.620733 0.049655 0.494057
O O12 0.506313 0.907926 0.126994
O O13 0.691566 0.660174 0.174286
O O14 0.626170 0.334156 0.019381
O O15 0.440610 0.479402 0.169695
#
# Coordination Sequence:
#
# PCOD9097019 Si02
#       8
#     2   2   2   2   2   1   2   2
#     4  10  20  39  57  86 108 157 184 246 276 349
#     4  10  20  39  57  87 110 157 181 247 279 347
#     4   9  20  38  57  83 119 147 186 239 281 343
#     4  10  20  36  59  83 114 153 190 229 288 336
#     4   9  20  38  56  86 115 149 191 233 281 344
#     4  10  24  38  56  84 124 138 198 234 294 324
#     4  10  20  36  60  84 116 150 191 233 284 340
#     4   9  20  38  62  77 116 142 203 228 288 335
#
# _framework density 24.354091
#
# number of rings (size 3 to 8) (size 9 to 14) (size 15 to 20)
#    0.000    2.400    1.333    0.000    3.733    1.067 
#    2.400    0.000    0.000    0.000    0.000    0.000 
#    0.000    0.000    0.000    0.000    0.000    0.000 
#
# Total GULP energy -83651.271713 kJ/mol
# GULP energy per Si atom -5576.751448 kJ/mol
# Density = 2.429866 g / cm^3
# Si number density = 24.354091 Si / 1000 Ang^3
#
#
#
# Elastic Constant Matrix: (Units=GPa)
#
#
# Indices 1 2 3 4 5 6 
#
# 1 147.9578 55.6862 21.1684 1.7088 -29.8779 -15.6715
# 2 55.6862 91.6037 19.7410 -19.3018 -6.9006 5.2124
# 3 21.1684 19.7410 67.0098 -7.3941 -4.9058 -7.6029
# 4 1.7088 -19.3018 -7.3941 36.2216 -6.3674 -1.3344
# 5 -29.8779 -6.9006 -4.9058 -6.3674 38.6651 0.3163
# 6 -15.6715 5.2124 -7.6029 -1.3344 0.3163 31.1243
#
#
#
# Elastic Compliance Matrix: (Units=1/GPa)
#
#
# Indices 1 2 3 4 5 6 
#
# 1 0.011964 -0.007692 -0.000554 -0.003253 0.007209 0.006964
# 2 -0.007692 0.018437 -0.002935 0.009062 -0.001474 -0.007274
# 3 -0.000554 -0.002935 0.016832 0.002330 0.001531 0.004408
# 4 -0.003253 0.009062 0.002330 0.033899 0.004992 -0.001183
# 5 0.007209 -0.001474 0.001531 0.004992 0.032153 0.004138
# 6 0.006964 -0.007274 0.004408 -0.001183 0.004138 0.037838
#
#
# Mechanical properties :
#
#
# Convention : Reuss Voigt Hill
#
# Bulk Modulus (GPa) = 40.20784 55.52917 47.86850
# Shear Modulus (GPa) = 27.50612 35.20059 31.35336
#
# Velocity S-wave (km/s) = 3.36434 3.80592 3.59192
# Velocity P-wave (km/s) = 5.62470 6.49335 6.07457
#
# Compressibility (1/GPa) = 0.02487077
#
# Stress axis : x y z
#
# Youngs Moduli (GPa) = 83.58391 54.23767 59.40954
#
# Poissons Ratio (x) = 0.41720 0.03293
# Poissons Ratio (y) = 0.64293 0.17437
# Poissons Ratio (z) = 0.04633 0.15919
#
# Static dielectric constant tensor:
#      x y z
#    x 1.825450 0.075980 0.277690 
#    y 0.075980 1.849370 -0.236250 
#    z 0.277690 -0.236250 1.242050 
# 
# From -- ./inp_files/169233.got.cif
#   From: 2010.05.17/outbox.cif.g08.bks.cpg/sg2_85_cif.got.tgz:169233.got - 2010.06.03 11:33:40.
