data_PCOD9097472
_publ_section_title
;
Structure prediction by ZEFSAII (Michael W. Deem and Ramdas Pophale) SiO2 
 PCOD9097472
Probable space group: P -1
;
_chemical_formula_sum "Si O2"
_cell_formula_units_Z 12
_cell_length_a 11.755357
_cell_length_b 10.454951
_cell_length_c 10.680133
_cell_angle_alpha 70.563682
_cell_angle_beta 25.136483
_cell_angle_gamma 68.688654
_cell_volume 519.413783
_symmetry_space_group_name_H-M "P -1"
_symmetry_group_IT_number 2
_symmetry_cell_setting 'triclinic'
loop_
_space_group_symop_operation_xyz
x,y,z
-x,-y,-z
loop_
_atom_site_type_symbol
_atom_site_label
_atom_site_fract_x
_atom_site_fract_y
_atom_site_fract_z
Si Si1 0.224952 0.868935 0.084324
Si Si2 0.943991 0.492205 0.352548
Si Si3 0.564004 0.560705 0.282399
Si Si4 0.773985 0.719451 0.657129
Si Si5 0.182082 0.850942 0.848305
Si Si6 0.293319 0.168575 0.838764
O O1 0.935956 0.845736 0.431256
O O2 0.458982 0.778469 0.960133
O O3 0.249837 0.809121 0.937042
O O4 0.261352 0.027419 0.986330
O O5 0.693906 0.444912 0.545613
O O6 0.831627 0.619502 0.512020
O O7 0.100195 0.372360 0.323604
O O8 0.170445 0.523119 0.019156
O O9 0.500000 0.500000 0.500000
O O10 0.634058 0.712552 0.183818
O O11 0.459119 0.859719 0.497062
O O12 0.983516 0.781576 0.978478
O O13 0.000000 0.000000 0.000000
#
# Coordination Sequence:
#
# PCOD9097472 Si02
#       6
#     2   2   2   2   2   2
#     4  11  21  38  67 100 125 168 218 270 330 368
#     4  11  26  48  64  97 129 174 225 267 311 387
#     4  12  27  45  68  92 137 178 212 257 333 402
#     4  11  24  43  73  93 128 169 225 277 313 371
#     4  10  20  36  60  94 136 164 205 267 318 375
#     4  11  23  40  60  99 135 167 212 264 325 393
#
# _framework density 23.102969999999999
#
# number of rings (size 3 to 8) (size 9 to 14) (size 15 to 20)
#    0.000    1.000    0.000    8.500    7.000    2.667 
#    0.000    5.000    0.000    0.000    0.000    0.000 
#    0.000    0.000    0.000    0.000    0.000    0.000 
#
# Total GULP energy -67223.337713 kJ/mol
# GULP energy per Si atom -5601.944809 kJ/mol
# Density = 2.305039 g / cm^3
# Si number density = 23.102970 Si / 1000 Ang^3
#
#
#
# Elastic Constant Matrix: (Units=GPa)
#
#
# Indices 1 2 3 4 5 6 
#
# 1 94.7705 54.2065 38.7521 -16.8314 -32.1409 3.8849
# 2 54.2065 106.9184 12.7869 -13.7946 -15.6843 3.8343
# 3 38.7521 12.7869 80.0012 -21.8443 -20.2480 6.6007
# 4 -16.8314 -13.7946 -21.8443 23.0180 3.6370 -6.3188
# 5 -32.1409 -15.6843 -20.2480 3.6370 49.8125 1.0295
# 6 3.8849 3.8343 6.6007 -6.3188 1.0295 31.0377
#
#
#
# Elastic Compliance Matrix: (Units=1/GPa)
#
#
# Indices 1 2 3 4 5 6 
#
# 1 0.021212 -0.008351 -0.005808 0.003685 0.008426 0.000083
# 2 -0.008351 0.013872 0.003264 0.005235 -0.000070 -0.000295
# 3 -0.005808 0.003264 0.020378 0.016111 0.004405 -0.000876
# 4 0.003685 0.005235 0.016111 0.066083 0.005570 0.008735
# 5 0.008426 -0.000070 0.004405 0.005570 0.026910 -0.001741
# 6 0.000083 -0.000295 -0.000876 0.008735 -0.001741 0.034267
#
#
# Mechanical properties :
#
#
# Convention : Reuss Voigt Hill
#
# Bulk Modulus (GPa) = 29.69898 54.79790 42.24844
# Shear Modulus (GPa) = 23.17631 32.50330 27.83981
#
# Velocity S-wave (km/s) = 3.17073 3.75492 3.47512
# Velocity P-wave (km/s) = 5.12715 6.52455 5.86760
#
# Compressibility (1/GPa) = 0.03367119
#
# Stress axis : x y z
#
# Youngs Moduli (GPa) = 47.14280 72.08663 49.07264
#
# Poissons Ratio (x) = 0.60201 0.28503
# Poissons Ratio (y) = 0.39370 -0.16017
# Poissons Ratio (z) = 0.27382 -0.23528
#
# Static dielectric constant tensor:
#      x y z
#    x 1.876680 0.008190 0.012860 
#    y 0.008190 1.890230 -0.018830 
#    z 0.012860 -0.018830 1.819350 
# 
# From -- ./inp_files/73740.got.cif
#   From: 2010.05.17/outbox.cif.g08.bks.cpg/sg2_37_cif.got.tgz:73740.got - 2010.06.03 11:33:40.
