data_PCOD9097249
_publ_section_title
;
Structure prediction by ZEFSAII (Michael W. Deem and Ramdas Pophale) SiO2 
 PCOD9097249
Probable space group: P -1
;
_chemical_formula_sum "Si O2"
_cell_formula_units_Z 14
_cell_length_a 20.721023
_cell_length_b 7.815882
_cell_length_c 6.346111
_cell_angle_alpha 123.414089
_cell_angle_beta 43.662691
_cell_angle_gamma 116.351096
_cell_volume 590.451518
_symmetry_space_group_name_H-M "P -1"
_symmetry_group_IT_number 2
_symmetry_cell_setting 'triclinic'
loop_
_space_group_symop_operation_xyz
x,y,z
-x,-y,-z
loop_
_atom_site_type_symbol
_atom_site_label
_atom_site_fract_x
_atom_site_fract_y
_atom_site_fract_z
Si Si1 0.223963 0.644395 0.287419
Si Si2 0.935731 0.834778 0.909686
Si Si3 0.268667 0.232414 0.651179
Si Si4 0.333569 0.498067 0.301441
Si Si5 0.621626 0.170856 0.231042
Si Si6 0.984689 0.509825 0.284844
Si Si7 0.577679 0.802042 0.406440
O O1 0.261247 0.624217 0.423945
O O2 0.112463 0.626418 0.532078
O O3 0.249400 0.433466 0.971181
O O4 0.284289 0.812271 0.119089
O O5 0.977833 0.745376 0.534956
O O6 0.934729 0.615569 0.887420
O O7 0.830527 0.900525 0.179481
O O8 0.000000 0.000000 0.000000
O O9 0.285366 0.309780 0.425825
O O10 0.360521 0.162393 0.504765
O O11 0.380111 0.643399 0.470665
O O12 0.401436 0.408574 0.906532
O O13 0.532833 0.185399 0.297731
O O14 0.608992 0.973976 0.275882
O O15 0.000000 0.500000 0.000000
#
# Coordination Sequence:
#
# PCOD9097249 Si02
#       7
#     2   2   2   2   2   2   2
#     4   9  20  38  60  87 120 156 196 244 298 357
#     4  10  22  39  61  90 120 156 202 251 306 363
#     4   9  20  39  59  86 120 153 197 249 298 357
#     4  10  20  36  60  83 116 157 192 239 298 352
#     4  10  22  38  57  86 118 154 200 242 292 356
#     4  10  21  40  63  89 123 160 200 250 305 362
#     4  10  22  38  58  85 118 155 198 245 292 353
#
# _framework density 23.710667000000001
#
# number of rings (size 3 to 8) (size 9 to 14) (size 15 to 20)
#    0.000    2.286    0.000    1.286    0.000   11.429 
#    0.000    2.857    0.000    0.000    0.000    0.000 
#    0.000    0.000    0.000    0.000    0.000    0.000 
#
# Total GULP energy -78177.874963 kJ/mol
# GULP energy per Si atom -5584.133926 kJ/mol
# Density = 2.365670 g / cm^3
# Si number density = 23.710667 Si / 1000 Ang^3
#
#
#
# Elastic Constant Matrix: (Units=GPa)
#
#
# Indices 1 2 3 4 5 6 
#
# 1 122.6183 22.8706 24.4425 -10.7240 -1.8360 9.2509
# 2 22.8706 80.0066 23.0962 1.9146 -0.1523 15.2606
# 3 24.4425 23.0962 101.5514 4.4472 7.0859 12.9336
# 4 -10.7240 1.9146 4.4472 29.9271 -4.7269 7.4202
# 5 -1.8360 -0.1523 7.0859 -4.7269 29.5675 0.1966
# 6 9.2509 15.2606 12.9336 7.4202 0.1966 33.9755
#
#
#
# Elastic Compliance Matrix: (Units=1/GPa)
#
#
# Indices 1 2 3 4 5 6 
#
# 1 0.009467 -0.001873 -0.001921 0.004579 0.001784 -0.002015
# 2 -0.001873 0.014689 -0.002264 0.000116 0.000555 -0.005254
# 3 -0.001921 -0.002264 0.011439 -0.002174 -0.003204 -0.002321
# 4 0.004579 0.000116 -0.002174 0.038708 0.007054 -0.008966
# 5 0.001784 0.000555 -0.003204 0.007054 0.035839 -0.001263
# 6 -0.002015 -0.005254 -0.002321 -0.008966 -0.001263 0.035191
#
#
# Mechanical properties :
#
#
# Convention : Reuss Voigt Hill
#
# Bulk Modulus (GPa) = 42.59483 49.44389 46.01936
# Shear Modulus (GPa) = 30.25257 34.27848 32.26552
#
# Velocity S-wave (km/s) = 3.57586 3.80636 3.69291
# Velocity P-wave (km/s) = 5.92051 6.34162 6.13468
#
# Compressibility (1/GPa) = 0.02347703
#
# Stress axis : x y z
#
# Youngs Moduli (GPa) = 105.63044 68.07974 87.42041
#
# Poissons Ratio (x) = 0.12755 0.16792
# Poissons Ratio (y) = 0.19790 0.19796
# Poissons Ratio (z) = 0.20290 0.15416
#
# Static dielectric constant tensor:
#      x y z
#    x 1.931870 0.004100 -0.011790 
#    y 0.004100 1.989120 0.042810 
#    z -0.011790 0.042810 1.924690 
# 
# From -- ./inp_files/39619.got.cif
#   From: 2010.05.17/outbox.cif.g08.bks.cpg/sg2_20_cif.got.tgz:39619.got - 2010.06.03 11:33:40.
