data_PCOD9097834
_publ_section_title
;
Structure prediction by ZEFSAII (Michael W. Deem and Ramdas Pophale) SiO2 
 PCOD9097834
Probable space group: P -1
;
_chemical_formula_sum "Si O2"
_cell_formula_units_Z 14
_cell_length_a 11.351241
_cell_length_b 27.304392
_cell_length_c 9.578217
_cell_angle_alpha 30.147743
_cell_angle_beta 140.323053
_cell_angle_gamma 151.847055
_cell_volume 703.145021
_symmetry_space_group_name_H-M "P -1"
_symmetry_group_IT_number 2
_symmetry_cell_setting 'triclinic'
loop_
_space_group_symop_operation_xyz
x,y,z
-x,-y,-z
loop_
_atom_site_type_symbol
_atom_site_label
_atom_site_fract_x
_atom_site_fract_y
_atom_site_fract_z
Si Si1 0.505757 0.203434 0.267077
Si Si2 0.541166 0.345785 0.213200
Si Si3 0.572837 0.501813 0.403054
Si Si4 0.121257 0.574356 0.151791
Si Si5 0.509664 0.778036 0.239375
Si Si6 0.173633 0.196299 0.759400
Si Si7 0.408469 0.975938 0.315769
O O1 0.498558 0.243985 0.314612
O O2 0.499369 0.085513 0.532711
O O3 0.760408 0.330286 0.109675
O O4 0.290105 0.179507 0.038366
O O5 0.490586 0.289729 0.459304
O O6 0.829433 0.481441 0.130446
O O7 0.390571 0.387081 0.924100
O O8 0.500000 0.500000 0.500000
O O9 0.809221 0.514718 0.580844
O O10 0.344467 0.353345 0.506669
O O11 0.278928 0.670219 0.191621
O O12 0.759767 0.846503 0.208061
O O13 0.498204 0.887751 0.994021
O O14 0.891460 0.125332 0.701322
O O15 0.500000 0.000000 0.500000
#
# Coordination Sequence:
#
# PCOD9097834 Si02
#       7
#     2   2   2   2   2   2   2
#     4  10  22  37  64  92 112 161 202 238 295 347
#     4  12  22  39  61  90 133 145 192 255 297 351
#     4  10  20  36  62  90 117 155 194 237 300 349
#     4  10  21  38  61  92 119 158 201 234 295 362
#     4  10  24  41  57  94 120 158 196 246 299 344
#     4  10  22  40  63  89 115 151 213 241 284 365
#     4  12  22  41  68  82 114 164 208 240 288 353
#
# _framework density 19.910544000000002
#
# number of rings (size 3 to 8) (size 9 to 14) (size 15 to 20)
#    0.000    1.714    5.714    2.143    2.000    2.857 
#    2.571    0.714    0.000    0.000    0.000    0.000 
#    0.000    0.000    0.000    0.000    0.000    0.000 
#
# Total GULP energy -78225.693616 kJ/mol
# GULP energy per Si atom -5587.549544 kJ/mol
# Density = 1.986523 g / cm^3
# Si number density = 19.910544 Si / 1000 Ang^3
#
#
#
# Elastic Constant Matrix: (Units=GPa)
#
#
# Indices 1 2 3 4 5 6 
#
# 1 40.2855 16.6188 7.1264 1.5070 14.7947 -15.7380
# 2 16.6188 36.9928 -5.9840 4.5666 9.5268 -0.0916
# 3 7.1264 -5.9840 66.0940 -8.1781 22.6163 -12.8821
# 4 1.5070 4.5666 -8.1781 17.4053 -13.9455 9.7787
# 5 14.7947 9.5268 22.6163 -13.9455 38.5394 -2.6647
# 6 -15.7380 -0.0916 -12.8821 9.7787 -2.6647 29.8456
#
#
#
# Elastic Compliance Matrix: (Units=1/GPa)
#
#
# Indices 1 2 3 4 5 6 
#
# 1 0.085227 -0.003207 0.018953 -0.102269 -0.074523 0.079965
# 2 -0.003207 0.041573 0.011609 -0.033804 -0.027254 0.012090
# 3 0.018953 0.011609 0.029003 -0.041243 -0.039841 0.032503
# 4 -0.102269 -0.033804 -0.041243 0.262120 0.156729 -0.143721
# 5 -0.074523 -0.027254 -0.039841 0.156729 0.134755 -0.095897
# 6 0.079965 0.012090 0.032503 -0.143721 -0.095897 0.128266
#
#
# Mechanical properties :
#
#
# Convention : Reuss Voigt Hill
#
# Bulk Modulus (GPa) = 4.75032 19.87719 12.31375
# Shear Modulus (GPa) = 7.17975 25.53213 16.35594
#
# Velocity S-wave (km/s) = 1.90101 3.58487 2.86924
# Velocity P-wave (km/s) = 2.68504 5.20960 4.14424
#
# Compressibility (1/GPa) = 0.21051202
#
# Stress axis : x y z
#
# Youngs Moduli (GPa) = 11.73343 24.05422 34.47970
#
# Poissons Ratio (x) = 0.07714 -0.65348
# Poissons Ratio (y) = 0.03763 -0.40029
# Poissons Ratio (z) = -0.22238 -0.27925
#
# Static dielectric constant tensor:
#      x y z
#    x 1.700000 -0.018690 0.036840 
#    y -0.018690 1.717810 -0.013930 
#    z 0.036840 -0.013930 1.699500 
# 
# From -- ./inp_files/255984.got.cif
#   From: 2010.05.17/outbox.cif.g08.bks.cpg/sg2_128_cif.got.tgz:255984.got - 2010.06.03 11:33:40.
