data_PCOD9097183
_publ_section_title
;
Structure prediction by ZEFSAII (Michael W. Deem and Ramdas Pophale) SiO2 
 PCOD9097183
Probable space group: P -1
;
_chemical_formula_sum "Si O2"
_cell_formula_units_Z 16
_cell_length_a 8.528254
_cell_length_b 14.108051
_cell_length_c 12.938094
_cell_angle_alpha 135.063369
_cell_angle_beta 86.121376
_cell_angle_gamma 60.353105
_cell_volume 700.095951
_symmetry_space_group_name_H-M "P -1"
_symmetry_group_IT_number 2
_symmetry_cell_setting 'triclinic'
loop_
_space_group_symop_operation_xyz
x,y,z
-x,-y,-z
loop_
_atom_site_type_symbol
_atom_site_label
_atom_site_fract_x
_atom_site_fract_y
_atom_site_fract_z
Si Si1 0.655089 0.904406 0.116107
Si Si2 0.249532 0.200686 0.728322
Si Si3 0.670675 0.267893 0.932257
Si Si4 0.106647 0.013378 0.600056
Si Si5 0.357256 0.360134 0.203997
Si Si6 0.593343 0.631029 0.190820
Si Si7 0.085120 0.299480 0.385939
Si Si8 0.831171 0.980948 0.007529
O O1 0.699256 0.847225 0.189434
O O2 0.362917 0.120989 0.279277
O O3 0.721662 0.729566 0.911046
O O4 0.815871 0.918752 0.071289
O O5 0.206282 0.382543 0.835381
O O6 0.500000 0.000000 0.500000
O O7 0.064611 0.198448 0.715736
O O8 0.537698 0.288451 0.854281
O O9 0.528324 0.314767 0.074775
O O10 0.658480 0.436125 0.058024
O O11 0.960644 0.054147 0.736591
O O12 0.396678 0.799775 0.418309
O O13 0.000000 0.000000 0.500000
O O14 0.118788 0.595378 0.435767
O O15 0.548565 0.205418 0.167990
O O16 0.089528 0.183282 0.207263
O O17 0.000000 0.500000 0.500000
O O18 0.000000 0.000000 0.000000
#
# Coordination Sequence:
#
# PCOD9097183 Si02
#       8
#     2   2   2   2   2   2   2   2
#     4  11  22  43  69  93 130 175 218 270 333 391
#     4  10  21  41  62  93 129 171 218 265 322 393
#     4  10  20  36  59  91 121 164 205 259 322 379
#     4   9  20  38  62  82 124 169 216 262 321 372
#     4  11  22  42  68  95 129 173 217 268 329 399
#     4   9  19  38  57  85 126 159 213 260 307 379
#     4  11  21  45  71  95 127 173 223 267 327 398
#     4  11  25  42  68  99 136 167 215 277 335 389
#
# _framework density 22.854009999999999
#
# number of rings (size 3 to 8) (size 9 to 14) (size 15 to 20)
#    0.000    1.750    3.750    0.750    1.750    3.000 
#   11.250    2.500    0.000    0.000    0.000    0.000 
#    0.000    0.000    0.000    0.000    0.000    0.000 
#
# Total GULP energy -89371.346978 kJ/mol
# GULP energy per Si atom -5585.709186 kJ/mol
# Density = 2.280199 g / cm^3
# Si number density = 22.854010 Si / 1000 Ang^3
#
#
#
# Elastic Constant Matrix: (Units=GPa)
#
#
# Indices 1 2 3 4 5 6 
#
# 1 143.9920 38.3349 49.9232 -7.0729 10.7779 32.1261
# 2 38.3349 79.4281 25.1281 -19.3471 -7.6872 16.5417
# 3 49.9232 25.1281 116.9514 -12.1953 -26.1904 10.2362
# 4 -7.0729 -19.3471 -12.1953 26.4779 18.3728 -7.9416
# 5 10.7779 -7.6872 -26.1904 18.3728 45.7796 -11.4725
# 6 32.1261 16.5417 10.2362 -7.9416 -11.4725 41.3827
#
#
#
# Elastic Compliance Matrix: (Units=1/GPa)
#
#
# Indices 1 2 3 4 5 6 
#
# 1 0.012926 -0.002450 -0.006201 0.003354 -0.010824 -0.009878
# 2 -0.002450 0.017898 -0.001958 0.013031 -0.003585 -0.003261
# 3 -0.006201 -0.001958 0.013388 -0.003351 0.011334 0.004784
# 4 0.003354 0.013031 -0.003351 0.064785 -0.027031 -0.002045
# 5 -0.010824 -0.003585 0.011334 -0.027031 0.044690 0.014234
# 6 -0.009878 -0.003261 0.004784 -0.002045 0.014234 0.035507
#
#
# Mechanical properties :
#
#
# Convention : Reuss Voigt Hill
#
# Bulk Modulus (GPa) = 43.48922 63.01597 53.25260
# Shear Modulus (GPa) = 22.92761 37.86039 30.39400
#
# Velocity S-wave (km/s) = 3.17080 4.07457 3.65076
# Velocity P-wave (km/s) = 5.69875 7.05474 6.41269
#
# Compressibility (1/GPa) = 0.02299420
#
# Stress axis : x y z
#
# Youngs Moduli (GPa) = 77.36436 55.87091 74.69203
#
# Poissons Ratio (x) = 0.13689 0.46315
# Poissons Ratio (y) = 0.18955 0.14627
# Poissons Ratio (z) = 0.47972 0.10942
#
# Static dielectric constant tensor:
#      x y z
#    x 1.891430 0.009890 -0.025900 
#    y 0.009890 1.894910 0.041610 
#    z -0.025900 0.041610 1.969040 
# 
# From -- ./inp_files/504412.got.cif
#   From: 2010.05.17/outbox.cif.g08.bks.cpg/sg2_253_cif.got.tgz:504412.got - 2010.06.03 11:33:40.
