data_PCOD9097076
_publ_section_title
;
Structure prediction by ZEFSAII (Michael W. Deem and Ramdas Pophale) SiO2 
 PCOD9097076
Probable space group: P -1
;
_chemical_formula_sum "Si O2"
_cell_formula_units_Z 15
_cell_length_a 13.669056
_cell_length_b 18.384474
_cell_length_c 10.705514
_cell_angle_alpha 32.065907
_cell_angle_beta 33.309604
_cell_angle_gamma 28.093156
_cell_volume 629.408549
_symmetry_space_group_name_H-M "P -1"
_symmetry_group_IT_number 2
_symmetry_cell_setting 'triclinic'
loop_
_space_group_symop_operation_xyz
x,y,z
-x,-y,-z
loop_
_atom_site_type_symbol
_atom_site_label
_atom_site_fract_x
_atom_site_fract_y
_atom_site_fract_z
Si Si1 0.873550 0.045311 0.368968
Si Si2 0.133539 0.476727 0.013979
Si Si3 0.629837 0.900025 0.743453
Si Si4 0.348716 0.842770 0.288185
Si Si5 0.853563 0.507582 0.472023
Si Si6 0.329662 0.261231 0.437499
Si Si7 0.356267 0.658024 0.017724
Si Si8 0.500000 0.500000 0.500000
O O1 0.722000 0.133655 0.526304
O O2 0.811446 0.179276 0.128627
O O3 0.819390 0.919160 0.556580
O O4 0.124169 0.947024 0.292168
O O5 0.275535 0.272825 0.180570
O O6 0.943635 0.571557 0.182263
O O7 0.282617 0.540713 0.749643
O O8 0.000000 0.500000 0.000000
O O9 0.462953 0.061454 0.599592
O O10 0.494258 0.906028 0.998538
O O11 0.489595 0.648798 0.373517
O O12 0.078361 0.362532 0.516080
O O13 0.692744 0.662982 0.509748
O O14 0.754348 0.406490 0.682603
O O15 0.480471 0.307937 0.141139
O O16 0.500000 0.500000 0.000000
#
# Coordination Sequence:
#
# PCOD9097076 Si02
#       8
#     2   2   2   2   2   2   2   1
#     4  10  20  36  59  86 114 149 195 239 285 340
#     4  11  25  41  59  84 120 157 191 237 293 351
#     4  10  21  38  56  84 117 150 193 237 286 342
#     4  10  21  36  59  83 115 154 190 240 290 342
#     4  10  21  38  60  84 114 153 193 236 287 342
#     4   9  20  37  60  87 114 148 195 242 282 336
#     4   9  19  35  56  85 114 144 190 240 283 335
#     4  10  24  40  54  84 118 150 192 236 290 346
#
# _framework density 23.831897999999999
#
# number of rings (size 3 to 8) (size 9 to 14) (size 15 to 20)
#    0.000    2.133    0.000    2.000    0.000   14.400 
#    0.000    2.667    0.000    0.000    0.000    0.000 
#    0.000    0.000    0.000    0.000    0.000    0.000 
#
# Total GULP energy -83621.509889 kJ/mol
# GULP energy per Si atom -5574.767326 kJ/mol
# Density = 2.377766 g / cm^3
# Si number density = 23.831898 Si / 1000 Ang^3
#
#
#
# Elastic Constant Matrix: (Units=GPa)
#
#
# Indices 1 2 3 4 5 6 
#
# 1 50.1907 20.6633 12.6287 -9.1951 -5.5758 -15.0964
# 2 20.6633 37.7288 4.6835 -5.4396 -2.0374 -10.5064
# 3 12.6287 4.6835 153.8352 11.2526 -21.0629 -3.5136
# 4 -9.1951 -5.4396 11.2526 39.2344 4.9920 5.8778
# 5 -5.5758 -2.0374 -21.0629 4.9920 23.5842 3.3399
# 6 -15.0964 -10.5064 -3.5136 5.8778 3.3399 32.4176
#
#
#
# Elastic Compliance Matrix: (Units=1/GPa)
#
#
# Indices 1 2 3 4 5 6 
#
# 1 0.029077 -0.012694 -0.001819 0.004067 0.002121 0.008273
# 2 -0.012694 0.035083 -0.000153 0.001279 -0.001132 0.005327
# 3 -0.001819 -0.000153 0.007936 -0.003649 0.007437 -0.000141
# 4 0.004067 0.001279 -0.003649 0.029060 -0.007979 -0.002534
# 5 0.002121 -0.001132 0.007437 -0.007979 0.051480 -0.002430
# 6 0.008273 0.005327 -0.000141 -0.002534 -0.002430 0.037121
#
#
# Mechanical properties :
#
#
# Convention : Reuss Voigt Hill
#
# Bulk Modulus (GPa) = 23.38374 35.30064 29.34219
# Shear Modulus (GPa) = 21.42763 32.63252 27.03007
#
# Velocity S-wave (km/s) = 3.00178 3.70439 3.37144
# Velocity P-wave (km/s) = 4.67413 5.75684 5.24350
#
# Compressibility (1/GPa) = 0.04276475
#
# Stress axis : x y z
#
# Youngs Moduli (GPa) = 34.39140 28.50382 126.00240
#
# Poissons Ratio (x) = 0.36184 0.22915
# Poissons Ratio (y) = 0.43658 0.01926
# Poissons Ratio (z) = 0.06255 0.00436
#
# Static dielectric constant tensor:
#      x y z
#    x 1.955740 -0.024730 0.056010 
#    y -0.024730 1.907940 0.016200 
#    z 0.056010 0.016200 1.933420 
# 
# From -- ./inp_files/456616.got.cif
#   From: 2010.05.17/outbox.cif.g08.bks.cpg/sg2_229_cif.got.tgz:456616.got - 2010.06.03 11:33:40.
