data_PCOD9097649
_publ_section_title
;
Structure prediction by ZEFSAII (Michael W. Deem and Ramdas Pophale) SiO2 
 PCOD9097649
Probable space group: P -1
;
_chemical_formula_sum "Si O2"
_cell_formula_units_Z 16
_cell_length_a 12.025327
_cell_length_b 9.087050
_cell_length_c 17.303503
_cell_angle_alpha 111.220379
_cell_angle_beta 38.274428
_cell_angle_gamma 83.356244
_cell_volume 787.694150
_symmetry_space_group_name_H-M "P -1"
_symmetry_group_IT_number 2
_symmetry_cell_setting 'triclinic'
loop_
_space_group_symop_operation_xyz
x,y,z
-x,-y,-z
loop_
_atom_site_type_symbol
_atom_site_label
_atom_site_fract_x
_atom_site_fract_y
_atom_site_fract_z
Si Si1 0.675802 0.609099 0.203266
Si Si2 0.954609 0.107361 0.963501
Si Si3 0.973946 0.222608 0.586066
Si Si4 0.438485 0.763094 0.199246
Si Si5 0.238680 0.002905 0.083471
Si Si6 0.299900 0.327557 0.119500
Si Si7 0.892530 0.009417 0.370052
Si Si8 0.237131 0.135254 0.710264
O O1 0.622796 0.677587 0.154533
O O2 0.814623 0.667278 0.183011
O O3 0.398580 0.778373 0.423368
O O4 0.797535 0.364790 0.101961
O O5 0.816181 0.068417 0.975391
O O6 0.211269 0.013534 0.765566
O O7 0.000000 0.000000 0.000000
O O8 0.720311 0.299142 0.706573
O O9 0.921966 0.431400 0.679894
O O10 0.011041 0.100111 0.620744
O O11 0.225160 0.030812 0.365651
O O12 0.574229 0.672469 0.025527
O O13 0.033523 0.071368 0.270036
O O14 0.223054 0.197944 0.113682
O O15 0.498461 0.808934 0.947574
O O16 0.935527 0.832662 0.256379
O O17 0.500000 0.000000 0.500000
#
# Coordination Sequence:
#
# PCOD9097649 Si02
#       8
#     2   2   2   2   2   2   2   2
#     4  10  21  38  62  88 115 155 197 255 300 350
#     4  11  24  40  61  87 123 158 198 252 307 361
#     4  10  20  36  61  92 113 154 201 246 298 348
#     4  10  21  35  63  93 118 145 210 249 290 363
#     4  10  23  41  54  86 124 159 195 237 307 362
#     4  11  22  38  62  86 124 163 195 244 300 363
#     4   9  19  39  59  84 119 151 195 249 298 357
#     4   9  20  39  62  85 114 154 203 249 295 357
#
# _framework density 20.312453999999999
#
# number of rings (size 3 to 8) (size 9 to 14) (size 15 to 20)
#    0.000    2.000    1.250    1.500    5.250    1.000 
#    2.250    6.875    0.000    0.000    0.000    0.000 
#    0.000    0.000    0.000    0.000    0.000    0.000 
#
# Total GULP energy -89254.588315 kJ/mol
# GULP energy per Si atom -5578.411770 kJ/mol
# Density = 2.026622 g / cm^3
# Si number density = 20.312454 Si / 1000 Ang^3
#
#
#
# Elastic Constant Matrix: (Units=GPa)
#
#
# Indices 1 2 3 4 5 6 
#
# 1 109.8923 48.1924 24.1669 7.4454 8.6083 12.8565
# 2 48.1924 82.4804 30.0004 10.5459 3.3588 14.6008
# 3 24.1669 30.0004 67.1138 12.4463 10.4568 10.8664
# 4 7.4454 10.5459 12.4463 27.2820 9.5107 6.6018
# 5 8.6083 3.3588 10.4568 9.5107 27.9969 0.3378
# 6 12.8565 14.6008 10.8664 6.6018 0.3378 33.6562
#
#
#
# Elastic Compliance Matrix: (Units=1/GPa)
#
#
# Indices 1 2 3 4 5 6 
#
# 1 0.012640 -0.006730 -0.000982 0.001098 -0.003064 -0.001777
# 2 -0.006730 0.018875 -0.005337 -0.003256 0.002944 -0.003286
# 3 -0.000982 -0.005337 0.019641 -0.004245 -0.004918 -0.002769
# 4 0.001098 -0.003256 -0.004245 0.045972 -0.013900 -0.006514
# 5 -0.003064 0.002944 -0.004918 -0.013900 0.042820 0.003778
# 6 -0.001777 -0.003286 -0.002769 -0.006514 0.003778 0.033950
#
#
# Mechanical properties :
#
#
# Convention : Reuss Voigt Hill
#
# Bulk Modulus (GPa) = 39.90463 51.57843 45.74153
# Shear Modulus (GPa) = 23.99806 28.26213 26.13010
#
# Velocity S-wave (km/s) = 3.44095 3.73415 3.59054
# Velocity P-wave (km/s) = 5.95608 6.63623 6.30533
#
# Compressibility (1/GPa) = 0.02505975
#
# Stress axis : x y z
#
# Youngs Moduli (GPa) = 79.11082 52.97887 50.91330
#
# Poissons Ratio (x) = 0.35653 0.05000
# Poissons Ratio (y) = 0.53238 0.27173
# Poissons Ratio (z) = 0.07769 0.28275
#
# Static dielectric constant tensor:
#      x y z
#    x 1.777370 0.022980 0.021190 
#    y 0.022980 1.686300 -0.000960 
#    z 0.021190 -0.000960 1.792810 
# 
# From -- ./inp_files/237584.got.cif
#   From: 2010.05.17/outbox.cif.g08.bks.cpg/sg2_119_cif.got.tgz:237584.got - 2010.06.03 11:33:40.
