data_PCOD9097025
_publ_section_title
;
Structure prediction by ZEFSAII (Michael W. Deem and Ramdas Pophale) SiO2 
 PCOD9097025
Probable space group: P -1
;
_chemical_formula_sum "Si O2"
_cell_formula_units_Z 16
_cell_length_a 20.751567
_cell_length_b 9.594259
_cell_length_c 10.298455
_cell_angle_alpha 103.549400
_cell_angle_beta 147.184177
_cell_angle_gamma 55.777654
_cell_volume 778.013208
_symmetry_space_group_name_H-M "P -1"
_symmetry_group_IT_number 2
_symmetry_cell_setting 'triclinic'
loop_
_space_group_symop_operation_xyz
x,y,z
-x,-y,-z
loop_
_atom_site_type_symbol
_atom_site_label
_atom_site_fract_x
_atom_site_fract_y
_atom_site_fract_z
Si Si1 0.193071 0.158937 0.799369
Si Si2 0.965222 0.921334 0.307325
Si Si3 0.968524 0.442962 0.274673
Si Si4 0.197320 0.467290 0.533875
Si Si5 0.864209 0.046861 0.880316
Si Si6 0.441998 0.759142 0.993933
Si Si7 0.651121 0.370815 0.409872
Si Si8 0.066235 0.625149 0.088116
O O1 0.037417 0.275576 0.461295
O O2 0.170673 0.074651 0.866310
O O3 0.172397 0.337062 0.856646
O O4 0.349142 0.970227 0.945343
O O5 0.118337 0.686958 0.485614
O O6 0.000000 0.000000 0.500000
O O7 0.908731 0.039984 0.103075
O O8 0.127828 0.411903 0.507157
O O9 0.916545 0.427719 0.044211
O O10 0.112553 0.485914 0.258178
O O11 0.391100 0.325489 0.811689
O O12 0.689236 0.254861 0.582067
O O13 0.000000 0.000000 0.000000
O O14 0.893717 0.851846 0.869927
O O15 0.335899 0.760880 0.708620
O O16 0.490482 0.598297 0.149390
O O17 0.790810 0.375413 0.643632
#
# Coordination Sequence:
#
# PCOD9097025 Si02
#       8
#     2   2   2   2   2   2   2   2
#     4  10  23  36  56  85 115 161 187 246 302 338
#     4  10  22  34  59  88 122 147 192 250 298 337
#     4  10  20  38  58  84 115 149 211 241 284 346
#     4   9  20  37  55  89 111 158 198 240 285 345
#     4   9  18  33  55  88 113 147 199 233 291 344
#     4  10  20  36  59  83 122 155 199 234 294 359
#     4   9  19  31  56  85 114 150 195 234 291 344
#     4   9  17  31  59  84 112 145 196 250 280 334
#
# _framework density 20.565204000000001
#
# number of rings (size 3 to 8) (size 9 to 14) (size 15 to 20)
#    0.000    2.500    0.000    1.875   12.250    0.500 
#    0.000    3.125    0.000    0.000    0.000    0.000 
#    0.000    0.000    0.000    0.000    0.000    0.000 
#
# Total GULP energy -89078.605763 kJ/mol
# GULP energy per Si atom -5567.412860 kJ/mol
# Density = 2.051840 g / cm^3
# Si number density = 20.565204 Si / 1000 Ang^3
#
#
#
# Elastic Constant Matrix: (Units=GPa)
#
#
# Indices 1 2 3 4 5 6 
#
# 1 70.6632 19.9752 34.4708 5.6016 -21.5507 -11.0039
# 2 19.9752 103.9845 38.8981 3.2597 -6.0168 -36.0603
# 3 34.4708 38.8981 76.7451 8.3090 -24.6850 -15.0559
# 4 5.6016 3.2597 8.3090 31.6055 -6.7170 -8.5505
# 5 -21.5507 -6.0168 -24.6850 -6.7170 42.7463 -1.7310
# 6 -11.0039 -36.0603 -15.0559 -8.5505 -1.7310 30.1680
#
#
#
# Elastic Compliance Matrix: (Units=1/GPa)
#
#
# Indices 1 2 3 4 5 6 
#
# 1 0.019847 0.000916 -0.006042 0.001112 0.007065 0.006039
# 2 0.000916 0.019223 -0.005961 0.005707 0.001514 0.022041
# 3 -0.006042 -0.005961 0.022068 -0.001831 0.008638 0.001661
# 4 0.001112 0.005707 -0.001831 0.037492 0.006900 0.017336
# 5 0.007065 0.001514 0.008638 0.006900 0.033751 0.012590
# 6 0.006039 0.022041 0.001661 0.017336 0.012590 0.068161
#
#
# Mechanical properties :
#
#
# Convention : Reuss Voigt Hill
#
# Bulk Modulus (GPa) = 25.66522 48.67567 37.17045
# Shear Modulus (GPa) = 21.21298 31.44055 26.32677
#
# Velocity S-wave (km/s) = 3.21518 3.91426 3.58182
# Velocity P-wave (km/s) = 5.12740 6.64446 5.93461
#
# Compressibility (1/GPa) = 0.03896323
#
# Stress axis : x y z
#
# Youngs Moduli (GPa) = 50.38534 52.02077 45.31486
#
# Poissons Ratio (x) = -0.04764 0.27378
# Poissons Ratio (y) = -0.04614 0.27014
# Poissons Ratio (z) = 0.30442 0.31011
#
# Static dielectric constant tensor:
#      x y z
#    x 1.857700 0.063240 -0.045410 
#    y 0.063240 1.800920 -0.011240 
#    z -0.045410 -0.011240 1.786040 
# 
# From -- ./inp_files/345413.got.cif
#   From: 2010.05.17/outbox.cif.g08.bks.cpg/sg2_173_cif.got.tgz:345413.got - 2010.06.03 11:33:40.
