data_PCOD9097427
_publ_section_title
;
Structure prediction by ZEFSAII (Michael W. Deem and Ramdas Pophale) SiO2 
 PCOD9097427
Probable space group: P -1
;
_chemical_formula_sum "Si O2"
_cell_formula_units_Z 14
_cell_length_a 9.980354
_cell_length_b 8.773043
_cell_length_c 9.338657
_cell_angle_alpha 95.891409
_cell_angle_beta 67.347580
_cell_angle_gamma 106.987059
_cell_volume 721.630227
_symmetry_space_group_name_H-M "P -1"
_symmetry_group_IT_number 2
_symmetry_cell_setting 'triclinic'
loop_
_space_group_symop_operation_xyz
x,y,z
-x,-y,-z
loop_
_atom_site_type_symbol
_atom_site_label
_atom_site_fract_x
_atom_site_fract_y
_atom_site_fract_z
Si Si1 0.465743 0.560134 0.864425
Si Si2 0.355407 0.850445 0.046825
Si Si3 0.801281 0.669564 0.228066
Si Si4 0.275270 0.999789 0.671258
Si Si5 0.615008 0.156602 0.637678
Si Si6 0.921804 0.142835 0.021763
Si Si7 0.353975 0.496386 0.463740
O O1 0.335857 0.423912 0.826118
O O2 0.613090 0.590299 0.703549
O O3 0.500000 0.500000 0.000000
O O4 0.399860 0.710593 0.928011
O O5 0.332065 0.806702 0.219017
O O6 0.212315 0.893759 0.042161
O O7 0.500000 0.000000 0.000000
O O8 0.782027 0.843355 0.288355
O O9 0.784119 0.580418 0.379809
O O10 0.953757 0.704290 0.075472
O O11 0.439025 0.055956 0.686988
O O12 0.296971 0.945450 0.497819
O O13 0.164438 0.857463 0.792833
O O14 0.637075 0.323919 0.564512
O O15 0.000000 0.000000 0.000000
O O16 0.500000 0.500000 0.500000
#
# Coordination Sequence:
#
# PCOD9097427 Si02
#       7
#     2   2   2   2   2   2   2
#     4  11  22  39  64  96 129 161 213 267 311 365
#     4  12  25  40  67  97 125 166 217 266 309 377
#     4  10  22  41  62  89 126 172 210 247 321 382
#     4  10  20  38  65  91 125 167 207 263 305 377
#     4  11  21  37  62  98 125 156 220 261 308 365
#     4  10  24  44  64  91 130 171 209 261 323 378
#     4  10  20  36  60  91 128 162 205 257 310 375
#
# _framework density 19.400518000000002
#
# number of rings (size 3 to 8) (size 9 to 14) (size 15 to 20)
#    0.000    1.429    5.714    0.000    8.000    0.571 
#    0.000    5.000    0.000    0.000    0.000    0.000 
#    0.000    0.000    0.000    0.000    0.000    0.000 
#
# Total GULP energy -78065.893999 kJ/mol
# GULP energy per Si atom -5576.135286 kJ/mol
# Density = 1.935636 g / cm^3
# Si number density = 19.400518 Si / 1000 Ang^3
#
#
#
# Elastic Constant Matrix: (Units=GPa)
#
#
# Indices 1 2 3 4 5 6 
#
# 1 55.2527 29.5887 8.6028 -12.3571 1.0813 -5.2413
# 2 29.5887 84.8626 52.3277 -7.1039 -6.2749 -4.9559
# 3 8.6028 52.3277 118.4060 -19.9128 -6.5270 4.9087
# 4 -12.3571 -7.1039 -19.9128 45.2263 2.9460 -9.7812
# 5 1.0813 -6.2749 -6.5270 2.9460 28.9069 -9.6848
# 6 -5.2413 -4.9559 4.9087 -9.7812 -9.6848 23.9269
#
#
#
# Elastic Compliance Matrix: (Units=1/GPa)
#
#
# Indices 1 2 3 4 5 6 
#
# 1 0.025412 -0.010279 0.003786 0.008273 -0.001325 0.005506
# 2 -0.010279 0.021403 -0.009101 -0.002708 0.004902 0.004926
# 3 0.003786 -0.009101 0.013093 0.004996 -0.000277 -0.001812
# 4 0.008273 -0.002708 0.004996 0.028773 0.001521 0.012604
# 5 -0.001325 0.004902 -0.000277 0.001521 0.041602 0.018243
# 6 0.005506 0.004926 -0.001812 0.012604 0.018243 0.056929
#
#
# Mechanical properties :
#
#
# Convention : Reuss Voigt Hill
#
# Bulk Modulus (GPa) = 34.81905 48.83998 41.82951
# Shear Modulus (GPa) = 21.93250 30.81216 26.37233
#
# Velocity S-wave (km/s) = 3.36595 3.98956 3.69095
# Velocity P-wave (km/s) = 5.75262 6.81552 6.30651
#
# Compressibility (1/GPa) = 0.02871991
#
# Stress axis : x y z
#
# Youngs Moduli (GPa) = 39.35121 46.72206 76.37887
#
# Poissons Ratio (x) = 0.48025 -0.28919
# Poissons Ratio (y) = 0.40449 0.69515
# Poissons Ratio (z) = -0.14899 0.42524
#
# Static dielectric constant tensor:
#      x y z
#    x 1.667650 -0.004360 -0.032260 
#    y -0.004360 1.684030 -0.020480 
#    z -0.032260 -0.020480 1.745510 
# 
# From -- ./inp_files/159137.got.cif
#   From: 2010.05.17/outbox.cif.g08.bks.cpg/sg2_80_cif.got.tgz:159137.got - 2010.06.03 11:33:40.
