data_PCOD9097499
_publ_section_title
;
Structure prediction by ZEFSAII (Michael W. Deem and Ramdas Pophale) SiO2 
 PCOD9097499
Probable space group: P -1
;
_chemical_formula_sum "Si O2"
_cell_formula_units_Z 15
_cell_length_a 12.091865
_cell_length_b 16.200241
_cell_length_c 9.435211
_cell_angle_alpha 76.481936
_cell_angle_beta 138.891070
_cell_angle_gamma 135.198407
_cell_volume 651.186366
_symmetry_space_group_name_H-M "P -1"
_symmetry_group_IT_number 2
_symmetry_cell_setting 'triclinic'
loop_
_space_group_symop_operation_xyz
x,y,z
-x,-y,-z
loop_
_atom_site_type_symbol
_atom_site_label
_atom_site_fract_x
_atom_site_fract_y
_atom_site_fract_z
Si Si1 0.267940 0.180950 0.666467
Si Si2 0.663901 0.390329 0.707331
Si Si3 0.310596 0.745613 0.756412
Si Si4 0.151649 0.936762 0.240579
Si Si5 0.344216 0.946787 0.140128
Si Si6 0.929965 0.710476 0.582472
Si Si7 0.540926 0.766271 0.713343
Si Si8 0.500000 0.500000 0.500000
O O1 0.397842 0.238269 0.608660
O O2 0.150774 0.227181 0.569887
O O3 0.548979 0.262272 0.995609
O O4 0.000000 0.000000 0.500000
O O5 0.568844 0.337906 0.476324
O O6 0.681786 0.494040 0.728364
O O7 0.000000 0.500000 0.000000
O O8 0.280999 0.681687 0.607501
O O9 0.045145 0.692070 0.585315
O O10 0.566089 0.924451 0.890038
O O11 0.120006 0.867356 0.091611
O O12 0.357795 0.972470 0.537271
O O13 0.341262 0.097738 0.302707
O O14 0.836057 0.841989 0.032065
O O15 0.189807 0.831511 0.908543
O O16 0.651700 0.557266 0.463551
#
# Coordination Sequence:
#
# PCOD9097499 Si02
#       8
#     2   2   2   2   2   2   2   1
#     4  11  24  40  69 100 137 173 227 286 337 384
#     4  11  25  47  72  99 130 182 229 277 330 415
#     4  11  24  38  61 106 133 172 214 283 348 395
#     4   9  20  36  62  97 140 176 220 272 339 397
#     4  10  20  36  61 101 136 175 217 279 339 388
#     4  11  23  41  65  98 139 177 227 277 331 405
#     4  10  23  40  64  97 139 175 222 275 338 406
#     4  10  24  44  66  92 126 178 232 264 322 404
#
# _framework density 23.034880999999999
#
# number of rings (size 3 to 8) (size 9 to 14) (size 15 to 20)
#    0.000    1.600    1.333    2.800    9.333    0.000 
#    2.400    2.667    0.000    3.200    0.000    0.000 
#    0.000    0.000    0.000    0.000    0.000    0.000 
#
# Total GULP energy -83529.083715 kJ/mol
# GULP energy per Si atom -5568.605581 kJ/mol
# Density = 2.298245 g / cm^3
# Si number density = 23.034881 Si / 1000 Ang^3
#
#
#
# Elastic Constant Matrix: (Units=GPa)
#
#
# Indices 1 2 3 4 5 6 
#
# 1 -1249.3892 -224.7529 377.3002 -283.4800 563.6879 406.4174
# 2 -224.7529 19.1264 92.4776 -78.5596 135.8364 68.3105
# 3 377.3002 92.4776 8.8370 35.2012 -93.9112 -90.9122
# 4 -283.4800 -78.5596 35.2012 -28.1749 108.7950 70.7094
# 5 563.6879 135.8364 -93.9112 108.7950 -166.5885 -124.4634
# 6 406.4174 68.3105 -90.9122 70.7094 -124.4634 -101.5882
#
#
#
# Elastic Compliance Matrix: (Units=1/GPa)
#
#
# Indices 1 2 3 4 5 6 
#
# 1 0.003244 -0.002911 -0.000278 -0.003314 -0.001191 0.010422
# 2 -0.002911 0.010416 -0.006485 -0.004216 0.010282 -0.014369
# 3 -0.000278 -0.006485 0.014778 0.006587 0.003385 -0.018261
# 4 -0.003314 -0.004216 0.006587 0.027906 0.020982 -0.028272
# 5 -0.001191 0.010282 0.003385 0.020982 -0.001276 0.015287
# 6 0.010422 -0.014369 -0.018261 -0.028272 0.015287 0.000122
#
#
# Mechanical properties :
#
#
# Convention : Reuss Voigt Hill
#
# Bulk Modulus (GPa) = 110.02804 -81.26403 14.38201
# Shear Modulus (GPa) = 64.46049 -157.03368 -46.28660
#
# Velocity S-wave (km/s) = 5.29572 -8.26560 -4.48751
# Velocity P-wave (km/s) = 9.23376 11.24494 4.53797
#
# Compressibility (1/GPa) = 0.00908859
#
# Stress axis : x y z
#
# Youngs Moduli (GPa) = 308.28427 96.00990 67.66968
#
# Poissons Ratio (x) = 0.27945 0.01883
# Poissons Ratio (y) = 0.89731 0.43886
# Poissons Ratio (z) = 0.08578 0.62265
#
# Static dielectric constant tensor:
#      x y z
#    x 1.850120 0.023690 -0.003830 
#    y 0.023690 1.858990 -0.030000 
#    z -0.003830 -0.030000 1.790940 
# 
# From -- ./inp_files/279341.got.cif
#   From: 2010.05.17/outbox.cif.g08.bks.cpg/sg2_140_cif.got.tgz:279341.got - 2010.06.03 11:33:40.
