data_PCOD9097057
_publ_section_title
;
Structure prediction by ZEFSAII (Michael W. Deem and Ramdas Pophale) SiO2 
 PCOD9097057
Probable space group: P -1
;
_chemical_formula_sum "Si O2"
_cell_formula_units_Z 16
_cell_length_a 10.836021
_cell_length_b 18.772926
_cell_length_c 7.580707
_cell_angle_alpha 146.534118
_cell_angle_beta 120.480770
_cell_angle_gamma 48.076425
_cell_volume 627.970736
_symmetry_space_group_name_H-M "P -1"
_symmetry_group_IT_number 2
_symmetry_cell_setting 'triclinic'
loop_
_space_group_symop_operation_xyz
x,y,z
-x,-y,-z
loop_
_atom_site_type_symbol
_atom_site_label
_atom_site_fract_x
_atom_site_fract_y
_atom_site_fract_z
Si Si1 0.090197 0.021930 0.873394
Si Si2 0.264703 0.874229 0.328173
Si Si3 0.887199 0.258650 0.594152
Si Si4 0.190569 0.441475 0.959223
Si Si5 0.801024 0.604789 0.547999
Si Si6 0.767686 0.850017 0.516624
Si Si7 0.561276 0.951362 0.147804
Si Si8 0.345127 0.582690 0.926381
O O1 0.899256 0.087203 0.818148
O O2 0.198679 0.949565 0.628764
O O3 0.139509 0.880609 0.748102
O O4 0.121958 0.149215 0.233538
O O5 0.370626 0.693955 0.051870
O O6 0.368310 0.950896 0.513106
O O7 0.814790 0.311902 0.847553
O O8 0.085609 0.194012 0.608774
O O9 0.798059 0.407463 0.713625
O O10 0.224017 0.399606 0.689952
O O11 0.278195 0.280046 0.784595
O O12 0.000000 0.500000 0.000000
O O13 0.000000 0.500000 0.500000
O O14 0.705782 0.778140 0.890981
O O15 0.704886 0.531621 0.424600
O O16 0.599977 0.006599 0.763144
O O17 0.500000 0.000000 0.000000
O O18 0.500000 0.500000 0.000000
#
# Coordination Sequence:
#
# PCOD9097057 Si02
#       8
#     2   2   2   2   2   2   2   2
#     4  10  20  36  59  85 119 154 195 245 304 354
#     4  10  22  35  58  88 120 153 194 250 303 346
#     4   9  21  37  61  87 119 156 203 239 304 360
#     4   9  19  36  60  84 117 157 202 239 297 361
#     4  11  24  37  62  93 124 156 202 256 304 358
#     4  11  21  38  64  86 116 161 203 248 291 364
#     4  12  22  38  61  92 120 153 210 252 294 357
#     4  10  22  39  63  87 119 155 201 248 297 360
#
# _framework density 25.478894
#
# number of rings (size 3 to 8) (size 9 to 14) (size 15 to 20)
#    0.000    1.750    2.500    1.125   12.250    0.000 
#    0.000    0.625    0.000    0.750    0.000    0.000 
#    0.000    0.000    0.000    0.000    0.000    0.000 
#
# Total GULP energy -89331.246256 kJ/mol
# GULP energy per Si atom -5583.202891 kJ/mol
# Density = 2.542090 g / cm^3
# Si number density = 25.478894 Si / 1000 Ang^3
#
#
#
# Elastic Constant Matrix: (Units=GPa)
#
#
# Indices 1 2 3 4 5 6 
#
# 1 105.8957 27.3070 42.6654 9.5869 -4.9584 -20.9371
# 2 27.3070 70.6800 43.0681 17.4292 3.0572 -17.3852
# 3 42.6654 43.0681 106.9842 27.0636 13.2288 -7.5684
# 4 9.5869 17.4292 27.0636 42.5167 -2.6898 -7.7912
# 5 -4.9584 3.0572 13.2288 -2.6898 52.2564 -1.0699
# 6 -20.9371 -17.3852 -7.5684 -7.7912 -1.0699 39.8780
#
#
#
# Elastic Compliance Matrix: (Units=1/GPa)
#
#
# Indices 1 2 3 4 5 6 
#
# 1 0.012893 -0.001017 -0.005190 0.002058 0.002822 0.005819
# 2 -0.001017 0.021127 -0.006986 -0.002705 0.000437 0.006834
# 3 -0.005190 -0.006986 0.016404 -0.007484 -0.004709 -0.004246
# 4 0.002058 -0.002705 -0.007484 0.029989 0.003883 0.004444
# 5 0.002822 0.000437 -0.004709 0.003883 0.020813 0.002095
# 6 0.005819 0.006834 -0.004246 0.004444 0.002095 0.031230
#
#
# Mechanical properties :
#
#
# Convention : Reuss Voigt Hill
#
# Bulk Modulus (GPa) = 41.60035 56.62677 49.11356
# Shear Modulus (GPa) = 29.96628 38.29818 34.13223
#
# Velocity S-wave (km/s) = 3.43318 3.88123 3.66406
# Velocity P-wave (km/s) = 5.66379 6.50834 6.10070
#
# Compressibility (1/GPa) = 0.02403826
#
# Stress axis : x y z
#
# Youngs Moduli (GPa) = 77.56234 47.33310 60.95945
#
# Poissons Ratio (x) = 0.04813 0.31640
# Poissons Ratio (y) = 0.07887 0.42584
# Poissons Ratio (z) = 0.40257 0.33066
#
# Static dielectric constant tensor:
#      x y z
#    x 2.032600 0.066080 0.037140 
#    y 0.066080 2.112770 0.053090 
#    z 0.037140 0.053090 2.100930 
# 
# From -- ./inp_files/283503.got.cif
#   From: 2010.05.17/outbox.cif.g08.bks.cpg/sg2_142_cif.got.tgz:283503.got - 2010.06.03 11:33:40.
