data_PCOD9097775
_publ_section_title
;
Structure prediction by ZEFSAII (Michael W. Deem and Ramdas Pophale) SiO2 
 PCOD9097775
Probable space group: P -1
;
_chemical_formula_sum "Si O2"
_cell_formula_units_Z 16
_cell_length_a 14.633348
_cell_length_b 15.714689
_cell_length_c 11.444182
_cell_angle_alpha 109.715266
_cell_angle_beta 148.806452
_cell_angle_gamma 48.832417
_cell_volume 836.585230
_symmetry_space_group_name_H-M "P -1"
_symmetry_group_IT_number 2
_symmetry_cell_setting 'triclinic'
loop_
_space_group_symop_operation_xyz
x,y,z
-x,-y,-z
loop_
_atom_site_type_symbol
_atom_site_label
_atom_site_fract_x
_atom_site_fract_y
_atom_site_fract_z
Si Si1 0.410490 0.159954 0.061569
Si Si2 0.510988 0.072933 0.872013
Si Si3 0.076221 0.920938 0.429151
Si Si4 0.355484 0.138820 0.477536
Si Si5 0.763083 0.333963 0.849241
Si Si6 0.307302 0.841362 0.260756
Si Si7 0.252659 0.358117 0.145722
Si Si8 0.382074 0.638061 0.563378
O O1 0.691485 0.103176 0.376547
O O2 0.192465 0.298911 0.964492
O O3 0.418028 0.054403 0.062626
O O4 0.394563 0.167140 0.905448
O O5 0.337783 0.129009 0.592277
O O6 0.784540 0.015874 0.098774
O O7 0.201775 0.771873 0.509466
O O8 0.000000 0.000000 0.500000
O O9 0.526391 0.162308 0.649042
O O10 0.500000 0.000000 0.500000
O O11 0.050535 0.265656 0.158532
O O12 0.734135 0.249472 0.842646
O O13 0.509083 0.495651 0.677588
O O14 0.758348 0.321110 0.697443
O O15 0.509942 0.763982 0.560106
O O16 0.000000 0.000000 0.000000
O O17 0.367384 0.394564 0.209555
O O18 0.000000 0.500000 0.000000
#
# Coordination Sequence:
#
# PCOD9097775 Si02
#       8
#     2   2   2   2   2   2   2   2
#     4   9  20  37  56  86 113 148 196 244 287 341
#     4  10  21  34  57  87 114 151 192 240 293 345
#     4   9  18  34  57  82 109 146 191 241 284 335
#     4  12  22  33  56  85 122 155 195 237 298 355
#     4  10  21  36  53  84 118 155 186 246 293 346
#     4  11  23  36  54  88 122 156 193 241 301 356
#     4  10  20  36  62  87 115 152 199 248 294 352
#     4   9  19  36  58  82 120 149 196 241 294 348
#
# _framework density 19.125368000000002
#
# number of rings (size 3 to 8) (size 9 to 14) (size 15 to 20)
#    0.000    2.000    1.250    2.250    3.500    3.000 
#    0.000    0.000    0.000   12.000    0.000   15.750 
#    0.000    0.000    0.000    0.000    0.000    0.000 
#
# Total GULP energy -89078.913130 kJ/mol
# GULP energy per Si atom -5567.432071 kJ/mol
# Density = 1.908184 g / cm^3
# Si number density = 19.125368 Si / 1000 Ang^3
#
#
#
# Elastic Constant Matrix: (Units=GPa)
#
#
# Indices 1 2 3 4 5 6 
#
# 1 69.3286 46.6122 21.9571 -2.7168 -0.9867 -2.7364
# 2 46.6122 132.3955 45.0528 -10.1726 -10.4286 -20.0319
# 3 21.9571 45.0528 80.5339 -0.8686 0.8346 -6.6123
# 4 -2.7168 -10.1726 -0.8686 20.1457 1.9635 5.3383
# 5 -0.9867 -10.4286 0.8346 1.9635 23.4279 2.4972
# 6 -2.7364 -20.0319 -6.6123 5.3383 2.4972 39.0600
#
#
#
# Elastic Compliance Matrix: (Units=1/GPa)
#
#
# Indices 1 2 3 4 5 6 
#
# 1 0.019371 -0.006746 -0.001674 -0.000086 -0.001880 -0.002254
# 2 -0.006746 0.013015 -0.005081 0.003770 0.004893 0.004514
# 3 -0.001674 -0.005081 0.015756 -0.001945 -0.002772 0.000387
# 4 -0.000086 0.003770 -0.001945 0.053117 -0.002119 -0.005526
# 5 -0.001880 0.004893 -0.002772 -0.002119 0.045133 -0.000687
# 6 -0.002254 0.004514 0.000387 -0.005526 -0.000687 0.028623
#
#
# Mechanical properties :
#
#
# Convention : Reuss Voigt Hill
#
# Bulk Modulus (GPa) = 47.30518 56.61134 51.95826
# Shear Modulus (GPa) = 23.91611 27.76912 25.84261
#
# Velocity S-wave (km/s) = 3.54007 3.81458 3.67988
# Velocity P-wave (km/s) = 6.44185 7.00470 6.72916
#
# Compressibility (1/GPa) = 0.02113933
#
# Stress axis : x y z
#
# Youngs Moduli (GPa) = 51.62457 76.83230 63.46904
#
# Poissons Ratio (x) = 0.51830 0.10625
# Poissons Ratio (y) = 0.34825 0.32251
# Poissons Ratio (z) = 0.08642 0.39041
#
# Static dielectric constant tensor:
#      x y z
#    x 1.700780 -0.016840 0.039700 
#    y -0.016840 1.704420 0.006960 
#    z 0.039700 0.006960 1.706510 
# 
# From -- ./inp_files/419564.got.cif
#   From: 2010.05.17/outbox.cif.g08.bks.cpg/sg2_210_cif.got.tgz:419564.got - 2010.06.03 11:33:40.
