data_PCOD9097890
_publ_section_title
;
Structure prediction by ZEFSAII (Michael W. Deem and Ramdas Pophale) SiO2 
 PCOD9097890
Probable space group: P -1
;
_chemical_formula_sum "Si O2"
_cell_formula_units_Z 15
_cell_length_a 10.982244
_cell_length_b 6.371429
_cell_length_c 11.415210
_cell_angle_alpha 88.393362
_cell_angle_beta 123.747901
_cell_angle_gamma 69.090882
_cell_volume 593.501977
_symmetry_space_group_name_H-M "P -1"
_symmetry_group_IT_number 2
_symmetry_cell_setting 'triclinic'
loop_
_space_group_symop_operation_xyz
x,y,z
-x,-y,-z
loop_
_atom_site_type_symbol
_atom_site_label
_atom_site_fract_x
_atom_site_fract_y
_atom_site_fract_z
Si Si1 0.149825 0.940648 0.796115
Si Si2 0.381555 0.411159 0.859776
Si Si3 0.875044 0.935323 0.810879
Si Si4 0.319066 0.191599 0.039004
Si Si5 0.672739 0.803887 0.544658
Si Si6 0.847152 0.753032 0.405905
Si Si7 0.548334 0.249988 0.731758
Si Si8 0.000000 0.500000 0.000000
O O1 0.265263 0.672299 0.831942
O O2 0.991028 0.965624 0.779516
O O3 0.241532 0.052163 0.923662
O O4 0.106244 0.079047 0.648880
O O5 0.426582 0.260614 0.005728
O O6 0.279621 0.304074 0.735411
O O7 0.510001 0.397474 0.827987
O O8 0.804477 0.754015 0.720098
O O9 0.718947 0.175767 0.757822
O O10 0.968111 0.777918 0.972887
O O11 0.167273 0.416423 0.007984
O O12 0.420905 0.009434 0.198366
O O13 0.765293 0.857520 0.485240
O O14 0.602975 0.642831 0.442487
O O15 0.500000 0.000000 0.500000
O O16 0.000000 0.500000 0.500000
#
# Coordination Sequence:
#
# PCOD9097890 Si02
#       8
#     2   2   2   2   2   2   2   1
#     4  11  23  38  65  94 126 158 207 264 304 372
#     4  10  20  39  59  88 125 163 206 254 312 358
#     4  10  20  38  63  94 123 163 211 255 312 367
#     4  10  21  38  62  92 124 161 210 255 311 363
#     4   9  19  38  63  87 119 165 206 247 304 372
#     4  10  22  38  63  92 122 164 208 252 312 367
#     4   9  20  37  61  89 124 167 211 249 305 372
#     4  10  20  36  62  92 120 160 204 256 310 356
#
# _framework density 25.273716
#
# number of rings (size 3 to 8) (size 9 to 14) (size 15 to 20)
#    0.000    2.133    1.333    1.200    1.867    4.800 
#    0.000    1.333    5.867    4.800    0.000    0.000 
#    0.000    0.000    0.000    0.000    0.000    0.000 
#
# Total GULP energy -83518.079340 kJ/mol
# GULP energy per Si atom -5567.871956 kJ/mol
# Density = 2.521619 g / cm^3
# Si number density = 25.273716 Si / 1000 Ang^3
#
#
#
# Elastic Constant Matrix: (Units=GPa)
#
#
# Indices 1 2 3 4 5 6 
#
# 1 183.1228 62.7313 20.1326 3.6137 -20.1267 -48.6027
# 2 62.7313 93.5470 25.5068 10.0098 -10.6195 -29.2066
# 3 20.1326 25.5068 37.3864 12.4416 -9.5847 -3.4922
# 4 3.6137 10.0098 12.4416 41.2187 1.0087 -0.0089
# 5 -20.1267 -10.6195 -9.5847 1.0087 44.0430 8.1890
# 6 -48.6027 -29.2066 -3.4922 -0.0089 8.1890 45.5034
#
#
#
# Elastic Compliance Matrix: (Units=1/GPa)
#
#
# Indices 1 2 3 4 5 6 
#
# 1 0.008699 -0.003094 -0.001679 0.000459 0.001571 0.006894
# 2 -0.003094 0.017743 -0.009503 -0.001154 -0.000564 0.007456
# 3 -0.001679 -0.009503 0.038355 -0.009286 0.006644 -0.006147
# 4 0.000459 -0.001154 -0.009286 0.027368 -0.002626 -0.000485
# 5 0.001571 -0.000564 0.006644 -0.002626 0.025300 -0.002727
# 6 0.006894 0.007456 -0.006147 -0.000485 -0.002727 0.034144
#
#
# Mechanical properties :
#
#
# Convention : Reuss Voigt Hill
#
# Bulk Modulus (GPa) = 27.59091 58.97750 43.28420
# Shear Modulus (GPa) = 26.00886 39.86540 32.93713
#
# Velocity S-wave (km/s) = 3.21142 3.97589 3.61393
# Velocity P-wave (km/s) = 4.96905 6.66807 5.88025
#
# Compressibility (1/GPa) = 0.03624383
#
# Stress axis : x y z
#
# Youngs Moduli (GPa) = 114.96188 56.36099 26.07229
#
# Poissons Ratio (x) = 0.17436 0.04379
# Poissons Ratio (y) = 0.35564 0.24777
# Poissons Ratio (z) = 0.19307 0.53561
#
# Static dielectric constant tensor:
#      x y z
#    x 2.083720 0.003760 0.005590 
#    y 0.003760 2.000390 0.081440 
#    z 0.005590 0.081440 2.476370 
# 
# From -- ./inp_files/108969.got.cif
#   From: 2010.05.17/outbox.cif.g08.bks.cpg/sg2_55_cif.got.tgz:108969.got - 2010.06.03 11:33:40.
