data_PCOD9097811
_publ_section_title
;
Structure prediction by ZEFSAII (Michael W. Deem and Ramdas Pophale) SiO2 
 PCOD9097811
Probable space group: P -1
;
_chemical_formula_sum "Si O2"
_cell_formula_units_Z 13
_cell_length_a 5.463015
_cell_length_b 21.666349
_cell_length_c 5.317873
_cell_angle_alpha 118.990413
_cell_angle_beta 93.045670
_cell_angle_gamma 110.031220
_cell_volume 498.536411
_symmetry_space_group_name_H-M "P -1"
_symmetry_group_IT_number 2
_symmetry_cell_setting 'triclinic'
loop_
_space_group_symop_operation_xyz
x,y,z
-x,-y,-z
loop_
_atom_site_type_symbol
_atom_site_label
_atom_site_fract_x
_atom_site_fract_y
_atom_site_fract_z
Si Si1 0.078164 0.222281 0.253362
Si Si2 0.100043 0.730606 0.148804
Si Si3 0.637658 0.567357 0.833323
Si Si4 0.587327 0.053066 0.363939
Si Si5 0.629812 0.354955 0.701385
Si Si6 0.869634 0.910187 0.732462
Si Si7 0.000000 0.500000 0.000000
O O1 0.936711 0.231161 0.519147
O O2 0.367218 0.296735 0.427949
O O3 0.136572 0.146520 0.152976
O O4 0.888178 0.222435 0.012365
O O5 0.311093 0.696266 0.182081
O O6 0.814262 0.655730 0.944152
O O7 0.500000 0.500000 0.500000
O O8 0.138353 0.588054 0.356419
O O9 0.856619 0.542979 0.916479
O O10 0.418627 0.105211 0.432941
O O11 0.910926 0.093077 0.456540
O O12 0.500000 0.000000 0.500000
O O13 0.500000 0.000000 0.000000
O O14 0.593222 0.427237 0.984549
O O15 0.000000 0.000000 0.000000
#
# Coordination Sequence:
#
# PCOD9097811 Si02
#       7
#     2   2   2   2   2   2   1
#     4  11  25  45  68  97 143 180 237 288 363 421
#     4  10  25  43  65  97 135 183 230 290 351 429
#     4  10  21  37  61  95 130 174 228 283 350 414
#     4  10  22  42  69 103 140 178 232 293 356 428
#     4  10  23  41  63  99 134 184 230 290 353 422
#     4  10  24  46  73 110 143 192 242 304 365 440
#     4  10  20  36  62  88 130 168 230 278 342 412
#
# _framework density 26.076329999999999
#
# number of rings (size 3 to 8) (size 9 to 14) (size 15 to 20)
#    0.000    1.846    0.000    1.846    2.154   16.000 
#    0.000    0.000    0.000    0.000    0.000    0.000 
#    0.000    0.000    0.000    0.000    0.000    0.000 
#
# Total GULP energy -72424.639743 kJ/mol
# GULP energy per Si atom -5571.126134 kJ/mol
# Density = 2.601698 g / cm^3
# Si number density = 26.076330 Si / 1000 Ang^3
#
#
#
# Elastic Constant Matrix: (Units=GPa)
#
#
# Indices 1 2 3 4 5 6 
#
# 1 112.7023 34.8161 30.6798 -22.5701 19.5631 -27.8080
# 2 34.8161 166.3112 65.2639 -35.0144 8.2227 -35.2382
# 3 30.6798 65.2639 126.0653 -18.0565 3.3261 -21.3978
# 4 -22.5701 -35.0144 -18.0565 49.2456 -3.8145 15.2909
# 5 19.5631 8.2227 3.3261 -3.8145 15.0368 -8.5117
# 6 -27.8080 -35.2382 -21.3978 15.2909 -8.5117 48.4582
#
#
#
# Elastic Compliance Matrix: (Units=1/GPa)
#
#
# Indices 1 2 3 4 5 6 
#
# 1 0.013313 0.000043 -0.001849 0.003326 -0.014219 0.003307
# 2 0.000043 0.009018 -0.003472 0.003951 -0.001182 0.003595
# 3 -0.001849 -0.003472 0.010384 0.000274 0.002880 0.001419
# 4 0.003326 0.003951 0.000274 0.025688 -0.002048 -0.003563
# 5 -0.014219 -0.001182 0.002880 -0.002048 0.089358 0.008595
# 6 0.003307 0.003595 0.001419 -0.003563 0.008595 0.028409
#
#
# Mechanical properties :
#
#
# Convention : Reuss Voigt Hill
#
# Bulk Modulus (GPa) = 45.12913 74.06649 59.59781
# Shear Modulus (GPa) = 25.75810 40.83605 33.29707
#
# Velocity S-wave (km/s) = 3.14633 3.96159 3.57726
# Velocity P-wave (km/s) = 5.52660 7.02787 6.32196
#
# Compressibility (1/GPa) = 0.02215864
#
# Stress axis : x y z
#
# Youngs Moduli (GPa) = 75.11204 110.88596 96.30343
#
# Poissons Ratio (x) = -0.00472 0.17808
# Poissons Ratio (y) = -0.00319 0.33435
# Poissons Ratio (z) = 0.13889 0.38498
#
# Static dielectric constant tensor:
#      x y z
#    x 2.124510 -0.035030 0.044450 
#    y -0.035030 1.986330 0.212700 
#    z 0.044450 0.212700 1.731930 
# 
# From -- ./inp_files/9052.got.cif
#   From: 2010.05.17/outbox.cif.g08.bks.cpg/sg2_5_cif.got.tgz:9052.got - 2010.06.03 11:33:40.
