data_PCOD9097231
_publ_section_title
;
Structure prediction by ZEFSAII (Michael W. Deem and Ramdas Pophale) SiO2 
 PCOD9097231
Probable space group: P -1
;
_chemical_formula_sum "Si O2"
_cell_formula_units_Z 15
_cell_length_a 14.946778
_cell_length_b 9.224328
_cell_length_c 14.848269
_cell_angle_alpha 112.472584
_cell_angle_beta 27.955638
_cell_angle_gamma 93.471075
_cell_volume 681.662755
_symmetry_space_group_name_H-M "P -1"
_symmetry_group_IT_number 2
_symmetry_cell_setting 'triclinic'
loop_
_space_group_symop_operation_xyz
x,y,z
-x,-y,-z
loop_
_atom_site_type_symbol
_atom_site_label
_atom_site_fract_x
_atom_site_fract_y
_atom_site_fract_z
Si Si1 0.722536 0.350136 0.334493
Si Si2 0.717067 0.990680 0.263101
Si Si3 0.633922 0.898441 0.125049
Si Si4 0.777521 0.133511 0.528979
Si Si5 0.500000 0.500000 0.000000
Si Si6 0.395482 0.140784 0.214314
Si Si7 0.077228 0.819941 0.322381
Si Si8 0.818840 0.432562 0.455506
O O1 0.500000 0.500000 0.500000
O O2 0.718647 0.466166 0.451575
O O3 0.697155 0.183556 0.350440
O O4 0.002363 0.213323 0.012538
O O5 0.686288 0.988912 0.181871
O O6 0.500000 0.000000 0.500000
O O7 0.407765 0.901461 0.351890
O O8 0.565505 0.016429 0.119877
O O9 0.892133 0.670402 0.828597
O O10 0.638056 0.279370 0.774674
O O11 0.821205 0.260061 0.457590
O O12 0.031632 0.917727 0.287016
O O13 0.672056 0.383186 0.910751
O O14 0.338008 0.354003 0.302106
O O15 0.133088 0.201030 0.485415
O O16 0.500000 0.000000 0.000000
O O17 0.000000 0.000000 0.500000
#
# Coordination Sequence:
#
# PCOD9097231 Si02
#       8
#     2   2   2   2   1   2   2   2
#     4  10  22  42  66  99 134 165 214 272 332 401
#     4  10  21  41  70  96 129 171 210 269 340 395
#     4  10  23  42  61  95 131 161 218 269 313 397
#     4  10  22  37  60  86 123 164 215 260 313 366
#     4  10  20  36  60  80 120 164 208 260 300 366
#     4  11  25  40  62  91 126 171 217 263 318 377
#     4   9  21  39  57  84 115 162 214 259 308 363
#     4  11  24  40  65  94 126 172 215 266 327 384
#
# _framework density 22.005016000000001
#
# number of rings (size 3 to 8) (size 9 to 14) (size 15 to 20)
#    0.000    1.867    0.000    2.400    9.333    1.067 
#    0.000    4.000    0.000    0.000    0.000    0.000 
#    0.000    0.000    0.000    0.000    0.000    0.000 
#
# Total GULP energy -83522.457815 kJ/mol
# GULP energy per Si atom -5568.163854 kJ/mol
# Density = 2.195493 g / cm^3
# Si number density = 22.005016 Si / 1000 Ang^3
#
#
#
# Elastic Constant Matrix: (Units=GPa)
#
#
# Indices 1 2 3 4 5 6 
#
# 1 109.5404 35.2352 56.9837 18.7302 -33.4154 -18.5680
# 2 35.2352 90.0707 55.4515 6.2859 -24.0869 -12.7292
# 3 56.9837 55.4515 99.6567 14.2209 -28.6544 -11.7348
# 4 18.7302 6.2859 14.2209 42.1088 -3.6249 -7.1068
# 5 -33.4154 -24.0869 -28.6544 -3.6249 42.1901 12.7621
# 6 -18.5680 -12.7292 -11.7348 -7.1068 12.7621 32.7694
#
#
#
# Elastic Compliance Matrix: (Units=1/GPa)
#
#
# Indices 1 2 3 4 5 6 
#
# 1 0.015544 0.000271 -0.006107 -0.003751 0.007037 0.003172
# 2 0.000271 0.017676 -0.008772 0.000967 0.003622 0.002678
# 3 -0.006107 -0.008772 0.019666 -0.002603 0.003861 -0.001893
# 4 -0.003751 0.000967 -0.002603 0.026607 -0.003213 0.004340
# 5 0.007037 0.003622 0.003861 -0.003213 0.036103 -0.007981
# 6 0.003172 0.002678 -0.001893 0.004340 -0.007981 0.036725
#
#
# Mechanical properties :
#
#
# Convention : Reuss Voigt Hill
#
# Bulk Modulus (GPa) = 42.24641 66.06763 54.15702
# Shear Modulus (GPa) = 26.39532 33.52015 29.95774
#
# Velocity S-wave (km/s) = 3.46716 3.90718 3.69372
# Velocity P-wave (km/s) = 5.93872 7.10238 6.54646
#
# Compressibility (1/GPa) = 0.02367065
#
# Stress axis : x y z
#
# Youngs Moduli (GPa) = 64.33158 56.57355 50.85015
#
# Poissons Ratio (x) = -0.01531 0.31053
# Poissons Ratio (y) = -0.01741 0.44603
# Poissons Ratio (z) = 0.39286 0.49624
#
# Static dielectric constant tensor:
#      x y z
#    x 1.701160 -0.141790 -0.043650 
#    y -0.141790 1.627740 -0.087690 
#    z -0.043650 -0.087690 1.808370 
# 
# From -- ./inp_files/529760.got.cif
#   From: 2010.05.17/outbox.cif.g08.bks.cpg/sg2_265_cif.got.tgz:529760.got - 2010.06.03 11:33:40.
