data_PCOD9097670
_publ_section_title
;
Structure prediction by ZEFSAII (Michael W. Deem and Ramdas Pophale) SiO2 
 PCOD9097670
Probable space group: P -1
;
_chemical_formula_sum "Si O2"
_cell_formula_units_Z 15
_cell_length_a 5.778705
_cell_length_b 9.313120
_cell_length_c 20.340526
_cell_angle_alpha 61.761935
_cell_angle_beta 102.718853
_cell_angle_gamma 142.131865
_cell_volume 567.699128
_symmetry_space_group_name_H-M "P -1"
_symmetry_group_IT_number 2
_symmetry_cell_setting 'triclinic'
loop_
_space_group_symop_operation_xyz
x,y,z
-x,-y,-z
loop_
_atom_site_type_symbol
_atom_site_label
_atom_site_fract_x
_atom_site_fract_y
_atom_site_fract_z
Si Si1 0.104738 0.849558 0.760165
Si Si2 0.383786 0.314989 0.635047
Si Si3 0.449517 0.275592 0.044649
Si Si4 0.500000 0.000000 0.500000
Si Si5 0.789864 0.313260 0.324897
Si Si6 0.152198 0.802186 0.174837
Si Si7 0.743534 0.368014 0.907170
Si Si8 0.435384 0.665112 0.506166
O O1 0.208285 0.816828 0.705575
O O2 0.760653 0.555896 0.834561
O O3 0.065376 0.021474 0.710231
O O4 0.474855 0.023899 0.792800
O O5 0.355104 0.492533 0.596415
O O6 0.412087 0.305749 0.560693
O O7 0.798593 0.486387 0.653554
O O8 0.845542 0.437274 0.071563
O O9 0.122279 0.982102 0.123821
O O10 0.500000 0.500000 0.000000
O O11 0.445062 0.212079 0.982658
O O12 0.477276 0.093731 0.407966
O O13 0.307312 0.044371 0.516893
O O14 0.814239 0.506833 0.251845
O O15 0.267203 0.773867 0.119546
O O16 0.000000 0.500000 0.500000
#
# Coordination Sequence:
#
# PCOD9097670 Si02
#       8
#     2   2   2   1   2   2   2   2
#     4   9  18  37  61  82 115 156 197 238 292 345
#     4  10  21  38  60  82 114 152 195 245 295 347
#     4  10  20  36  61  93 117 150 191 235 286 350
#     4  12  22  36  58  88 116 152 202 246 298 348
#     4  10  20  36  62  84 115 158 197 248 298 343
#     4   9  19  37  61  82 118 160 190 238 294 344
#     4   9  19  37  61  87 118 155 187 234 291 343
#     4  11  23  38  57  87 112 150 198 246 298 351
#
# _framework density 26.422443000000001
#
# number of rings (size 3 to 8) (size 9 to 14) (size 15 to 20)
#    0.000    2.133    2.667    0.400    0.000    2.133 
#    2.400    0.000   23.467    0.000    0.000    0.000 
#    0.000    0.000    0.000    0.000    0.000    0.000 
#
# Total GULP energy -83579.858764 kJ/mol
# GULP energy per Si atom -5571.990584 kJ/mol
# Density = 2.636230 g / cm^3
# Si number density = 26.422443 Si / 1000 Ang^3
#
#
#
# Elastic Constant Matrix: (Units=GPa)
#
#
# Indices 1 2 3 4 5 6 
#
# 1 46.9847 16.5741 43.8501 -17.7439 28.7750 2.8856
# 2 16.5741 100.8094 67.3485 1.8185 0.8097 -11.3550
# 3 43.8501 67.3485 209.7313 -19.4859 30.7329 -26.2281
# 4 -17.7439 1.8185 -19.4859 65.4818 -28.1702 4.0096
# 5 28.7750 0.8097 30.7329 -28.1702 55.6645 -11.2813
# 6 2.8856 -11.3550 -26.2281 4.0096 -11.2813 44.8711
#
#
#
# Elastic Compliance Matrix: (Units=1/GPa)
#
#
# Indices 1 2 3 4 5 6 
#
# 1 0.041928 -0.004253 -0.005850 0.001930 -0.019913 -0.012371
# 2 -0.004253 0.013434 -0.003800 -0.001055 0.004089 0.002574
# 3 -0.005850 -0.003800 0.007767 0.000527 -0.000159 0.003868
# 4 0.001930 -0.001055 0.000527 0.019740 0.008790 0.000363
# 5 -0.019913 0.004089 -0.000159 0.008790 0.034799 0.010186
# 6 -0.012371 0.002574 0.003868 0.000363 0.010186 0.028522
#
#
# Mechanical properties :
#
#
# Convention : Reuss Voigt Hill
#
# Bulk Modulus (GPa) = 28.31107 68.11895 48.21501
# Shear Modulus (GPa) = 26.91496 48.52032 37.71764
#
# Velocity S-wave (km/s) = 3.19508 4.28989 3.78231
# Velocity P-wave (km/s) = 4.93451 7.09748 6.11243
#
# Compressibility (1/GPa) = 0.03532188
#
# Stress axis : x y z
#
# Youngs Moduli (GPa) = 23.85069 74.43962 128.74688
#
# Poissons Ratio (x) = 0.31661 0.75319
# Poissons Ratio (y) = 0.10144 0.48921
# Poissons Ratio (z) = 0.13953 0.28286
#
# Static dielectric constant tensor:
#      x y z
#    x 2.036740 -0.025500 0.063470 
#    y -0.025500 2.212390 -0.117870 
#    z 0.063470 -0.117870 2.096450 
# 
# From -- ./inp_files/562347.got.cif
#   From: 2010.05.17/outbox.cif.g08.bks.cpg/sg2_282_cif.got.tgz:562347.got - 2010.06.03 11:33:40.
