data_PCOD9097461
_publ_section_title
;
Structure prediction by ZEFSAII (Michael W. Deem and Ramdas Pophale) SiO2 
 PCOD9097461
Probable space group: P -1
;
_chemical_formula_sum "Si O2"
_cell_formula_units_Z 12
_cell_length_a 8.312866
_cell_length_b 13.863822
_cell_length_c 17.842054
_cell_angle_alpha 148.730476
_cell_angle_beta 31.976833
_cell_angle_gamma 128.536544
_cell_volume 524.859205
_symmetry_space_group_name_H-M "P -1"
_symmetry_group_IT_number 2
_symmetry_cell_setting 'triclinic'
loop_
_space_group_symop_operation_xyz
x,y,z
-x,-y,-z
loop_
_atom_site_type_symbol
_atom_site_label
_atom_site_fract_x
_atom_site_fract_y
_atom_site_fract_z
Si Si1 0.311046 0.499594 0.331208
Si Si2 0.199478 0.898241 0.488249
Si Si3 0.067745 0.406783 0.611005
Si Si4 0.218344 0.923861 0.084460
Si Si5 0.844679 0.180567 0.120841
Si Si6 0.268208 0.287518 0.730550
O O1 0.600556 0.294524 0.098507
O O2 0.467186 0.665178 0.394044
O O3 0.000000 0.500000 0.500000
O O4 0.182908 0.525159 0.314511
O O5 0.162781 0.118497 0.621778
O O6 0.563630 0.798198 0.312151
O O7 0.074917 0.744982 0.391165
O O8 0.983643 0.947184 0.682229
O O9 0.447211 0.275985 0.352669
O O10 0.062980 0.621082 0.782712
O O11 0.054398 0.911389 0.062495
O O12 0.500000 0.000000 0.000000
O O13 0.000000 0.000000 0.000000
O O14 0.000000 0.500000 0.000000
#
# Coordination Sequence:
#
# PCOD9097461 Si02
#       6
#     2   2   2   2   2   2
#     4  11  20  37  63  94 122 156 205 261 300 360
#     4  10  21  37  61  90 119 158 211 253 300 366
#     4  10  22  38  56  90 124 164 201 250 307 369
#     4  12  20  36  60  93 122 155 207 259 298 357
#     4  11  23  37  56  88 131 166 199 249 315 363
#     4  10  20  36  60  94 122 157 199 258 312 359
#
# _framework density 22.863273
#
# number of rings (size 3 to 8) (size 9 to 14) (size 15 to 20)
#    0.000    1.333    5.000    2.000    0.000    0.000 
#    0.000    0.000    0.000   10.000    0.000    0.000 
#    0.000    0.000    0.000    0.000    0.000    0.000 
#
# Total GULP energy -66895.298891 kJ/mol
# GULP energy per Si atom -5574.608241 kJ/mol
# Density = 2.281124 g / cm^3
# Si number density = 22.863273 Si / 1000 Ang^3
#
#
#
# Elastic Constant Matrix: (Units=GPa)
#
#
# Indices 1 2 3 4 5 6 
#
# 1 69.5065 30.6887 25.9465 18.3260 -2.1202 13.4304
# 2 30.6887 176.0181 26.0947 31.9696 10.1618 46.7204
# 3 25.9465 26.0947 101.2872 32.7218 -9.6624 -2.9145
# 4 18.3260 31.9696 32.7218 41.7569 -0.9538 7.4170
# 5 -2.1202 10.1618 -9.6624 -0.9538 25.0620 12.3302
# 6 13.4304 46.7204 -2.9145 7.4170 12.3302 42.7505
#
#
#
# Elastic Compliance Matrix: (Units=1/GPa)
#
#
# Indices 1 2 3 4 5 6 
#
# 1 0.017990 -0.000765 -0.002982 -0.003974 0.003101 -0.005224
# 2 -0.000765 0.009157 -0.001046 -0.004226 0.000161 -0.009151
# 3 -0.002982 -0.001046 0.014543 -0.009874 0.003553 0.003759
# 4 -0.003974 -0.004226 -0.009874 0.036840 -0.000510 -0.001050
# 5 0.003101 0.000161 0.003553 -0.000510 0.048773 -0.014886
# 6 -0.005224 -0.009151 0.003759 -0.001050 -0.014886 0.039766
#
#
# Mechanical properties :
#
#
# Convention : Reuss Voigt Hill
#
# Bulk Modulus (GPa) = 31.14847 56.91907 44.03377
# Shear Modulus (GPa) = 26.68718 39.51932 33.10325
#
# Velocity S-wave (km/s) = 3.42021 4.16204 3.80923
# Velocity P-wave (km/s) = 5.40837 6.93154 6.21678
#
# Compressibility (1/GPa) = 0.03210430
#
# Stress axis : x y z
#
# Youngs Moduli (GPa) = 55.58684 109.20514 68.76102
#
# Poissons Ratio (x) = 0.08356 0.20504
# Poissons Ratio (y) = 0.04253 0.07191
# Poissons Ratio (z) = 0.16575 0.11421
#
# Static dielectric constant tensor:
#      x y z
#    x 1.855980 0.048100 0.006260 
#    y 0.048100 2.080320 0.067570 
#    z 0.006260 0.067570 2.006830 
# 
# From -- ./inp_files/201137.got.cif
#   From: 2010.05.17/outbox.cif.g08.bks.cpg/sg2_101_cif.got.tgz:201137.got - 2010.06.03 11:33:40.
