data_PCOD9097260
_publ_section_title
;
Structure prediction by ZEFSAII (Michael W. Deem and Ramdas Pophale) SiO2 
 PCOD9097260
Probable space group: P -1
;
_chemical_formula_sum "Si O2"
_cell_formula_units_Z 16
_cell_length_a 10.400676
_cell_length_b 12.049879
_cell_length_c 11.259663
_cell_angle_alpha 103.983802
_cell_angle_beta 109.140518
_cell_angle_gamma 37.252415
_cell_volume 806.516730
_symmetry_space_group_name_H-M "P -1"
_symmetry_group_IT_number 2
_symmetry_cell_setting 'triclinic'
loop_
_space_group_symop_operation_xyz
x,y,z
-x,-y,-z
loop_
_atom_site_type_symbol
_atom_site_label
_atom_site_fract_x
_atom_site_fract_y
_atom_site_fract_z
Si Si1 0.856792 0.614274 0.166980
Si Si2 0.687240 0.626496 0.868554
Si Si3 0.530891 0.490187 0.705864
Si Si4 0.245316 0.797354 0.498159
Si Si5 0.722327 0.902396 0.687193
Si Si6 0.568852 0.767272 0.487645
Si Si7 0.808739 0.458863 0.315897
Si Si8 0.486656 0.981011 0.852255
O O1 0.835007 0.537841 0.244530
O O2 0.102597 0.486143 0.177900
O O3 0.726816 0.816042 0.208269
O O4 0.753741 0.623573 0.019991
O O5 0.621774 0.538482 0.816490
O O6 0.503432 0.833663 0.816986
O O7 0.348629 0.657722 0.601735
O O8 0.715488 0.306816 0.634399
O O9 0.403398 0.481537 0.744396
O O10 0.403023 0.801963 0.523750
O O11 0.000000 0.000000 0.500000
O O12 0.651597 0.826335 0.591804
O O13 0.681891 0.911027 0.817425
O O14 0.969435 0.758857 0.683458
O O15 0.565379 0.100662 0.634363
O O16 0.765037 0.556213 0.450252
O O17 0.500000 0.000000 0.000000
#
# Coordination Sequence:
#
# PCOD9097260 Si02
#       8
#     2   2   2   2   2   2   2   2
#     4  10  21  37  62  84 116 153 198 245 293 338
#     4  10  21  39  59  87 113 156 200 242 288 348
#     4  10  23  38  59  86 119 153 195 237 295 355
#     4  10  21  40  58  82 119 157 190 238 293 354
#     4  11  20  35  57  86 114 152 191 243 293 341
#     4  10  22  35  56  86 115 150 196 236 290 350
#     4  11  21  38  57  85 120 152 187 242 294 351
#     4  10  20  36  60  84 113 150 198 245 285 340
#
# _framework density 19.838398000000002
#
# number of rings (size 3 to 8) (size 9 to 14) (size 15 to 20)
#    0.000    1.750    2.500    1.875    0.000    2.500 
#    2.250    0.000    0.000    1.500    0.000    0.000 
#    0.000    0.000    0.000    0.000    0.000    0.000 
#
# Total GULP energy -89314.158302 kJ/mol
# GULP energy per Si atom -5582.134894 kJ/mol
# Density = 1.979325 g / cm^3
# Si number density = 19.838398 Si / 1000 Ang^3
#
#
#
# Elastic Constant Matrix: (Units=GPa)
#
#
# Indices 1 2 3 4 5 6 
#
# 1 87.1997 7.9723 18.9206 12.6398 1.5199 -2.3032
# 2 7.9723 101.1175 13.4092 19.9372 1.3644 -13.2338
# 3 18.9206 13.4092 35.8006 10.6770 -4.9358 -11.1548
# 4 12.6398 19.9372 10.6770 23.8663 6.2939 -8.6854
# 5 1.5199 1.3644 -4.9358 6.2939 32.5141 12.1515
# 6 -2.3032 -13.2338 -11.1548 -8.6854 12.1515 26.9977
#
#
#
# Elastic Compliance Matrix: (Units=1/GPa)
#
#
# Indices 1 2 3 4 5 6 
#
# 1 0.013649 0.000545 -0.006552 -0.006389 0.000993 -0.003779
# 2 0.000545 0.012111 -0.001383 -0.008863 0.000018 0.002552
# 3 -0.006552 -0.001383 0.038585 -0.010611 0.004876 0.009097
# 4 -0.006389 -0.008863 -0.010611 0.073114 -0.024547 0.025296
# 5 0.000993 0.000018 0.004876 -0.024547 0.046122 -0.026548
# 6 -0.003779 0.002552 0.009097 0.025296 -0.026548 0.061815
#
#
# Mechanical properties :
#
#
# Convention : Reuss Voigt Hill
#
# Bulk Modulus (GPa) = 20.17618 33.85800 27.01709
# Shear Modulus (GPa) = 18.07018 28.92998 23.50008
#
# Velocity S-wave (km/s) = 3.02133 3.82289 3.44550
# Velocity P-wave (km/s) = 4.72902 6.04896 5.42925
#
# Compressibility (1/GPa) = 0.04956340
#
# Stress axis : x y z
#
# Youngs Moduli (GPa) = 73.26606 82.56777 25.91692
#
# Poissons Ratio (x) = -0.04497 0.16982
# Poissons Ratio (y) = -0.03990 0.03585
# Poissons Ratio (z) = 0.48006 0.11420
#
# Static dielectric constant tensor:
#      x y z
#    x 1.666120 0.007330 -0.014290 
#    y 0.007330 1.739320 0.009090 
#    z -0.014290 0.009090 1.722870 
# 
# From -- ./inp_files/270277.got.cif
#   From: 2010.05.17/outbox.cif.g08.bks.cpg/sg2_136_cif.got.tgz:270277.got - 2010.06.03 11:33:40.
