data_PCOD9097009
_publ_section_title
;
Structure prediction by ZEFSAII (Michael W. Deem and Ramdas Pophale) SiO2 
 PCOD9097009
Probable space group: P -1
;
_chemical_formula_sum "Si O2"
_cell_formula_units_Z 16
_cell_length_a 13.010801
_cell_length_b 16.090233
_cell_length_c 23.363541
_cell_angle_alpha 20.554696
_cell_angle_beta 24.736368
_cell_angle_gamma 35.796261
_cell_volume 692.365850
_symmetry_space_group_name_H-M "P -1"
_symmetry_group_IT_number 2
_symmetry_cell_setting 'triclinic'
loop_
_space_group_symop_operation_xyz
x,y,z
-x,-y,-z
loop_
_atom_site_type_symbol
_atom_site_label
_atom_site_fract_x
_atom_site_fract_y
_atom_site_fract_z
Si Si1 0.244035 0.216501 0.255255
Si Si2 0.073933 0.363683 0.968948
Si Si3 0.390402 0.426264 0.921822
Si Si4 0.421383 0.088554 0.736905
Si Si5 0.079968 0.197498 0.619129
Si Si6 0.453805 0.746515 0.153199
Si Si7 0.012298 0.065997 0.871187
Si Si8 0.893567 0.504708 0.266668
O O1 0.123998 0.390278 0.242259
O O2 0.435887 0.066544 0.275471
O O3 0.357184 0.354817 0.050804
O O4 0.000000 0.000000 0.500000
O O5 0.367779 0.416277 0.806995
O O6 0.080953 0.434761 0.852883
O O7 0.867236 0.493136 0.015596
O O8 0.975338 0.066916 0.213805
O O9 0.644338 0.642539 0.642065
O O10 0.438385 0.218248 0.988895
O O11 0.624213 0.295291 0.537563
O O12 0.243084 0.179952 0.723583
O O13 0.240860 0.897832 0.994924
O O14 0.853628 0.331714 0.637384
O O15 0.066821 0.136748 0.732630
O O16 0.500000 0.000000 0.000000
O O17 0.936047 0.766199 0.105896
#
# Coordination Sequence:
#
# PCOD9097009 Si02
#       8
#     2   2   2   2   2   2   2   2
#     4   9  20  39  61  81 115 150 195 236 291 347
#     4   9  20  37  57  86 117 151 195 235 293 362
#     4  11  20  36  64  85 114 157 188 244 299 341
#     4  10  20  36  59  82 114 155 200 236 285 351
#     4  10  21  37  58  86 121 148 189 249 296 344
#     4  10  21  36  54  85 121 154 190 232 288 356
#     4  10  21  36  57  87 116 152 195 241 290 347
#     4   9  19  37  60  81 114 154 192 244 291 338
#
# _framework density 23.109169999999999
#
# number of rings (size 3 to 8) (size 9 to 14) (size 15 to 20)
#    0.000    2.250    0.000    2.250    1.750    0.500 
#    4.500    0.000    8.250    0.000    0.000    0.000 
#    0.000    0.000    0.000    0.000    0.000    0.000 
#
# Total GULP energy -89190.993065 kJ/mol
# GULP energy per Si atom -5574.437067 kJ/mol
# Density = 2.305657 g / cm^3
# Si number density = 23.109170 Si / 1000 Ang^3
#
#
#
# Elastic Constant Matrix: (Units=GPa)
#
#
# Indices 1 2 3 4 5 6 
#
# 1 34.8945 5.5485 16.9610 6.7112 -9.5145 -4.2338
# 2 5.5485 115.6248 19.8677 15.9990 -11.5424 -20.6056
# 3 16.9610 19.8677 119.0069 18.0080 1.7237 -5.1765
# 4 6.7112 15.9990 18.0080 34.9819 2.3741 -7.1258
# 5 -9.5145 -11.5424 1.7237 2.3741 18.4613 1.9280
# 6 -4.2338 -20.6056 -5.1765 -7.1258 1.9280 28.7525
#
#
#
# Elastic Compliance Matrix: (Units=1/GPa)
#
#
# Indices 1 2 3 4 5 6 
#
# 1 0.038645 0.002891 -0.005117 -0.006909 0.022714 0.003606
# 2 0.002891 0.011407 -0.001512 -0.004211 0.008604 0.006708
# 3 -0.005117 -0.001512 0.009913 -0.003278 -0.004024 -0.000595
# 4 -0.006909 -0.004211 -0.003278 0.035253 -0.010927 0.004845
# 5 0.022714 0.008604 -0.004024 -0.010927 0.072909 0.001189
# 6 0.003606 0.006708 -0.000595 0.004845 0.001189 0.041131
#
#
# Mechanical properties :
#
#
# Convention : Reuss Voigt Hill
#
# Bulk Modulus (GPa) = 19.05203 39.36455 29.20829
# Shear Modulus (GPa) = 21.34648 31.58240 26.46444
#
# Velocity S-wave (km/s) = 3.04258 3.70085 3.38774
# Velocity P-wave (km/s) = 4.53931 5.94414 5.28858
#
# Compressibility (1/GPa) = 0.05248786
#
# Stress axis : x y z
#
# Youngs Moduli (GPa) = 25.87672 87.66847 100.87764
#
# Poissons Ratio (x) = -0.25343 0.51619
# Poissons Ratio (y) = -0.07480 0.15253
# Poissons Ratio (z) = 0.13241 0.13255
#
# Static dielectric constant tensor:
#      x y z
#    x 1.912240 -0.040230 -0.024000 
#    y -0.040230 1.951560 0.001800 
#    z -0.024000 0.001800 1.892380 
# 
# From -- ./inp_files/598204.got.cif
#   From: 2010.05.17/outbox.cif.g08.bks.cpg/sg2_300_cif.got.tgz:598204.got - 2010.06.03 11:33:40.
