data_PCOD9097236
_publ_section_title
;
Structure prediction by ZEFSAII (Michael W. Deem and Ramdas Pophale) SiO2 
 PCOD9097236
Probable space group: P -1
;
_chemical_formula_sum "Si O2"
_cell_formula_units_Z 16
_cell_length_a 19.087853
_cell_length_b 19.989731
_cell_length_c 7.721338
_cell_angle_alpha 38.562302
_cell_angle_beta 136.706637
_cell_angle_gamma 158.194891
_cell_volume 682.159881
_symmetry_space_group_name_H-M "P -1"
_symmetry_group_IT_number 2
_symmetry_cell_setting 'triclinic'
loop_
_space_group_symop_operation_xyz
x,y,z
-x,-y,-z
loop_
_atom_site_type_symbol
_atom_site_label
_atom_site_fract_x
_atom_site_fract_y
_atom_site_fract_z
Si Si1 0.970575 0.255512 0.885966
Si Si2 0.783093 0.833533 0.901478
Si Si3 0.477629 0.414519 0.366758
Si Si4 0.014371 0.449785 0.892595
Si Si5 0.671552 0.512000 0.840053
Si Si6 0.662954 0.088260 0.509065
Si Si7 0.538783 0.809986 0.619335
Si Si8 0.821571 0.478966 0.614582
O O1 0.986861 0.366044 0.831952
O O2 0.068045 0.356590 0.667228
O O3 0.753005 0.068643 0.820896
O O4 0.101294 0.283082 0.157787
O O5 0.704831 0.784468 0.665670
O O6 0.705542 0.870946 0.783404
O O7 0.651586 0.616122 0.159240
O O8 0.000000 0.000000 0.000000
O O9 0.576945 0.424256 0.661234
O O10 0.404215 0.451822 0.268224
O O11 0.181312 0.683203 0.699764
O O12 0.842715 0.374030 0.798646
O O13 0.077325 0.427789 0.207074
O O14 0.597481 0.345079 0.153075
O O15 0.500000 0.000000 0.500000
O O16 0.607657 0.988239 0.429503
O O17 0.397172 0.681382 0.461785
#
# Coordination Sequence:
#
# PCOD9097236 Si02
#       8
#     2   2   2   2   2   2   2   2
#     4  10  20  36  62  82 115 155 201 245 289 361
#     4  10  22  40  61  89 125 149 191 245 299 359
#     4   9  20  41  64  84 116 159 189 242 303 351
#     4  10  20  36  60  82 110 159 201 240 292 356
#     4   9  19  39  62  83 108 152 204 233 292 364
#     4  11  21  36  56  84 121 154 193 247 304 345
#     4  10  21  37  58  83 118 151 187 249 299 343
#     4   9  19  37  57  80 109 153 198 242 282 350
#
# _framework density 23.454913999999999
#
# number of rings (size 3 to 8) (size 9 to 14) (size 15 to 20)
#    0.000    2.250    0.000    3.750    3.500    0.500 
#    4.500    3.125    0.000    0.000    0.000    0.000 
#    0.000    0.000    0.000    0.000    0.000    0.000 
#
# Total GULP energy -89244.801907 kJ/mol
# GULP energy per Si atom -5577.800119 kJ/mol
# Density = 2.340153 g / cm^3
# Si number density = 23.454914 Si / 1000 Ang^3
#
#
#
# Elastic Constant Matrix: (Units=GPa)
#
#
# Indices 1 2 3 4 5 6 
#
# 1 59.5655 34.6677 4.5217 11.1079 0.0708 5.6910
# 2 34.6677 116.9259 30.1396 41.1300 3.4486 15.6872
# 3 4.5217 30.1396 60.8092 35.9691 -11.4140 8.8501
# 4 11.1079 41.1300 35.9691 44.5072 -1.1319 14.4218
# 5 0.0708 3.4486 -11.4140 -1.1319 26.4440 19.4485
# 6 5.6910 15.6872 8.8501 14.4218 19.4485 41.8319
#
#
#
# Elastic Compliance Matrix: (Units=1/GPa)
#
#
# Indices 1 2 3 4 5 6 
#
# 1 0.020717 -0.006431 0.003446 -0.001006 0.004267 -0.002773
# 2 -0.006431 0.014807 -0.000544 -0.012159 -0.003642 0.001323
# 3 0.003446 -0.000544 0.038454 -0.027938 0.022122 -0.009053
# 4 -0.001006 -0.012159 -0.027938 0.059591 -0.000929 -0.009505
# 5 0.004267 -0.003642 0.022122 -0.000929 0.076614 -0.039194
# 6 -0.002773 0.001323 -0.009053 -0.009505 -0.039194 0.047201
#
#
# Mechanical properties :
#
#
# Convention : Reuss Voigt Hill
#
# Bulk Modulus (GPa) = 14.94328 41.77316 28.35822
# Shear Modulus (GPa) = 17.43701 33.75475 25.59588
#
# Velocity S-wave (km/s) = 2.72954 3.79771 3.30704
# Velocity P-wave (km/s) = 4.03965 6.08923 5.16708
#
# Compressibility (1/GPa) = 0.06691971
#
# Stress axis : x y z
#
# Youngs Moduli (GPa) = 48.26995 67.53745 26.00521
#
# Poissons Ratio (x) = 0.43432 -0.08962
# Poissons Ratio (y) = 0.31041 0.01415
# Poissons Ratio (z) = -0.16635 0.03676
#
# Static dielectric constant tensor:
#      x y z
#    x 1.901180 0.022510 -0.008350 
#    y 0.022510 1.913440 0.018700 
#    z -0.008350 0.018700 1.990640 
# 
# From -- ./inp_files/349445.got.cif
#   From: 2010.05.17/outbox.cif.g08.bks.cpg/sg2_175_cif.got.tgz:349445.got - 2010.06.03 11:33:40.
