data_PCOD9097794
_publ_section_title
;
Structure prediction by ZEFSAII (Michael W. Deem and Ramdas Pophale) SiO2 
 PCOD9097794
Probable space group: P -1
;
_chemical_formula_sum "Si O2"
_cell_formula_units_Z 14
_cell_length_a 25.184956
_cell_length_b 12.187220
_cell_length_c 13.455076
_cell_angle_alpha 30.749602
_cell_angle_beta 157.221675
_cell_angle_gamma 159.444079
_cell_volume 561.188913
_symmetry_space_group_name_H-M "P -1"
_symmetry_group_IT_number 2
_symmetry_cell_setting 'triclinic'
loop_
_space_group_symop_operation_xyz
x,y,z
-x,-y,-z
loop_
_atom_site_type_symbol
_atom_site_label
_atom_site_fract_x
_atom_site_fract_y
_atom_site_fract_z
Si Si1 0.510525 0.039936 0.816619
Si Si2 0.246560 0.262724 0.504301
Si Si3 0.187025 0.539455 0.803310
Si Si4 0.232428 0.716782 0.102204
Si Si5 0.451643 0.674901 0.735283
Si Si6 0.053145 0.262087 0.458638
Si Si7 0.412445 0.389013 0.323529
O O1 0.632470 0.047022 0.940442
O O2 0.417542 0.137570 0.518402
O O3 0.323507 0.744319 0.784719
O O4 0.681734 0.272746 0.016166
O O5 0.178681 0.410868 0.223571
O O6 0.365669 0.505419 0.612764
O O7 0.406368 0.329963 0.655860
O O8 0.057290 0.916991 0.488821
O O9 0.000000 0.500000 0.500000
O O10 0.209282 0.297900 0.031167
O O11 0.362581 0.951355 0.236647
O O12 0.037952 0.634430 0.829605
O O13 0.284640 0.562340 0.612295
O O14 0.500000 0.500000 0.000000
O O15 0.000000 0.000000 0.500000
O O16 0.500000 0.500000 0.500000
#
# Coordination Sequence:
#
# PCOD9097794 Si02
#       7
#     2   2   2   2   2   2   2
#     4   9  21  38  58  86 120 159 201 252 306 363
#     4  10  21  39  64  88 118 166 202 249 311 356
#     4  10  20  36  62  88 117 157 204 251 311 360
#     4  11  21  40  60  84 126 160 202 249 301 365
#     4  11  22  39  60  88 126 159 201 249 302 364
#     4  10  21  38  58  87 120 155 207 249 299 355
#     4   9  19  39  64  85 120 159 198 253 306 361
#
# _framework density 24.947036000000001
#
# number of rings (size 3 to 8) (size 9 to 14) (size 15 to 20)
#    0.000    2.000    2.857    1.286    0.000    4.000 
#    2.571    0.000    6.286    0.000    0.000    0.000 
#    0.000    0.000    0.000    0.000    0.000    0.000 
#
# Total GULP energy -77955.198352 kJ/mol
# GULP energy per Si atom -5568.228454 kJ/mol
# Density = 2.489026 g / cm^3
# Si number density = 24.947036 Si / 1000 Ang^3
#
#
#
# Elastic Constant Matrix: (Units=GPa)
#
#
# Indices 1 2 3 4 5 6 
#
# 1 68.9019 18.6238 8.5700 9.9315 4.5419 19.0487
# 2 18.6238 62.9189 39.4405 8.2962 -1.4910 7.9907
# 3 8.5700 39.4405 199.6758 1.1280 34.9020 3.6342
# 4 9.9315 8.2962 1.1280 28.1779 2.0659 4.8215
# 5 4.5419 -1.4910 34.9020 2.0659 35.7623 -4.3312
# 6 19.0487 7.9907 3.6342 4.8215 -4.3312 36.0483
#
#
#
# Elastic Compliance Matrix: (Units=1/GPa)
#
#
# Indices 1 2 3 4 5 6 
#
# 1 0.019018 -0.004835 0.001137 -0.003412 -0.004643 -0.009194
# 2 -0.004835 0.021398 -0.005180 -0.004855 0.006818 -0.000198
# 3 0.001137 -0.005180 0.007362 0.001633 -0.007803 -0.001351
# 4 -0.003412 -0.004855 0.001633 0.038852 -0.003965 -0.002959
# 5 -0.004643 0.006818 -0.007803 -0.003965 0.037500 0.006765
# 6 -0.009194 -0.000198 -0.001351 -0.002959 0.006765 0.033988
#
#
# Mechanical properties :
#
#
# Convention : Reuss Voigt Hill
#
# Bulk Modulus (GPa) = 33.30743 51.64058 42.47400
# Shear Modulus (GPa) = 26.89894 37.65516 32.27705
#
# Velocity S-wave (km/s) = 3.28722 3.88932 3.60088
# Velocity P-wave (km/s) = 5.27143 6.39641 5.86098
#
# Compressibility (1/GPa) = 0.03002333
#
# Stress axis : x y z
#
# Youngs Moduli (GPa) = 52.58065 46.73270 135.83815
#
# Poissons Ratio (x) = 0.22593 -0.15442
# Poissons Ratio (y) = 0.25420 0.70362
# Poissons Ratio (z) = -0.05977 0.24207
#
# Static dielectric constant tensor:
#      x y z
#    x 1.524960 -0.593060 0.425940 
#    y -0.593060 1.507560 0.320020 
#    z 0.425940 0.320020 1.790580 
# 
# From -- ./inp_files/533652.got.cif
#   From: 2010.05.17/outbox.cif.g08.bks.cpg/sg2_267_cif.got.tgz:533652.got - 2010.06.03 11:33:40.
