data_PCOD9097065
_publ_section_title
;
Structure prediction by ZEFSAII (Michael W. Deem and Ramdas Pophale) SiO2 
 PCOD9097065
Probable space group: P -1
;
_chemical_formula_sum "Si O2"
_cell_formula_units_Z 16
_cell_length_a 9.075655
_cell_length_b 15.057056
_cell_length_c 13.731585
_cell_angle_alpha 138.024581
_cell_angle_beta 99.207243
_cell_angle_gamma 49.963498
_cell_volume 752.793029
_symmetry_space_group_name_H-M "P -1"
_symmetry_group_IT_number 2
_symmetry_cell_setting 'triclinic'
loop_
_space_group_symop_operation_xyz
x,y,z
-x,-y,-z
loop_
_atom_site_type_symbol
_atom_site_label
_atom_site_fract_x
_atom_site_fract_y
_atom_site_fract_z
Si Si1 0.081783 0.344929 0.000869
Si Si2 0.764208 0.933562 0.027863
Si Si3 0.781617 0.231370 0.009193
Si Si4 0.656798 0.282870 0.638044
Si Si5 0.749639 0.758411 0.696667
Si Si6 0.469508 0.175658 0.659796
Si Si7 0.597016 0.088340 0.813582
Si Si8 0.945512 0.172471 0.765520
O O1 0.304685 0.286886 0.961060
O O2 0.083336 0.216195 0.824470
O O3 0.122687 0.254272 0.038220
O O4 0.817666 0.595427 0.167864
O O5 0.761147 0.864388 0.867258
O O6 0.954509 0.919821 0.041829
O O7 0.491248 0.153718 0.221276
O O8 0.715672 0.124324 0.914428
O O9 0.789129 0.272805 0.929736
O O10 0.562794 0.473951 0.228772
O O11 0.553247 0.220643 0.624094
O O12 0.790072 0.268178 0.728424
O O13 0.861306 0.085077 0.424577
O O14 0.000000 0.500000 0.500000
O O15 0.692626 0.878337 0.689055
O O16 0.625018 0.094460 0.707358
O O17 0.500000 0.000000 0.500000
#
# Coordination Sequence:
#
# PCOD9097065 Si02
#       8
#     2   2   2   2   2   2   2   2
#     4  10  21  40  61  88 130 163 202 258 301 371
#     4   9  21  41  68  90 112 168 207 247 318 369
#     4  11  21  40  63  88 132 154 209 257 310 366
#     4  11  21  36  60  88 125 176 199 248 307 374
#     4  10  23  44  68  88 121 158 210 262 304 370
#     4  12  23  35  59  95 132 161 208 251 304 373
#     4  11  24  39  61  94 123 167 203 259 312 354
#     4  10  20  36  59  85 125 174 213 230 305 374
#
# _framework density 21.254180999999999
#
# number of rings (size 3 to 8) (size 9 to 14) (size 15 to 20)
#    0.000    1.500    3.750    2.250    1.750    5.500 
#    0.000    0.625    0.000    0.000    0.000    0.000 
#    0.000    0.000    0.000    0.000    0.000    0.000 
#
# Total GULP energy -89399.638428 kJ/mol
# GULP energy per Si atom -5587.477402 kJ/mol
# Density = 2.120581 g / cm^3
# Si number density = 21.254181 Si / 1000 Ang^3
#
#
#
# Elastic Constant Matrix: (Units=GPa)
#
#
# Indices 1 2 3 4 5 6 
#
# 1 114.1957 3.8924 20.7893 6.1191 2.3100 -32.0444
# 2 3.8924 36.7673 14.9679 15.9402 -6.6740 -9.0984
# 3 20.7893 14.9679 110.9956 26.4247 -16.2323 -14.2938
# 4 6.1191 15.9402 26.4247 24.1734 -10.2279 -1.0196
# 5 2.3100 -6.6740 -16.2323 -10.2279 22.3457 0.2725
# 6 -32.0444 -9.0984 -14.2938 -1.0196 0.2725 35.5872
#
#
#
# Elastic Compliance Matrix: (Units=1/GPa)
#
#
# Indices 1 2 3 4 5 6 
#
# 1 0.012425 0.003864 -0.000317 -0.006275 -0.003377 0.011895
# 2 0.003864 0.043132 0.002985 -0.032166 -0.000252 0.014786
# 3 -0.000317 0.002985 0.013432 -0.014697 0.003888 0.005422
# 4 -0.006275 -0.032166 -0.014697 0.088401 0.021040 -0.017405
# 5 -0.003377 -0.000252 0.003888 0.021040 0.057497 -0.001381
# 6 0.011895 0.014786 0.005422 -0.017405 -0.001381 0.044281
#
#
# Mechanical properties :
#
#
# Convention : Reuss Voigt Hill
#
# Bulk Modulus (GPa) = 12.18701 37.91753 25.05227
# Shear Modulus (GPa) = 18.28458 31.24186 24.76322
#
# Velocity S-wave (km/s) = 2.93624 3.83811 3.41706
# Velocity P-wave (km/s) = 4.15231 6.12537 5.23268
#
# Compressibility (1/GPa) = 0.08205455
#
# Stress axis : x y z
#
# Youngs Moduli (GPa) = 80.48130 23.18442 74.44900
#
# Poissons Ratio (x) = -0.08959 0.02357
# Poissons Ratio (y) = -0.31100 -0.22222
# Poissons Ratio (z) = 0.02548 -0.06920
#
# Static dielectric constant tensor:
#      x y z
#    x 1.807900 -0.002010 -0.025910 
#    y -0.002010 1.795800 -0.032830 
#    z -0.025910 -0.032830 1.748530 
# 
# From -- ./inp_files/348903.got.cif
#   From: 2010.05.17/outbox.cif.g08.bks.cpg/sg2_175_cif.got.tgz:348903.got - 2010.06.03 11:33:40.
