data_PCOD9097593
_publ_section_title
;
Structure prediction by ZEFSAII (Michael W. Deem and Ramdas Pophale) SiO2 
 PCOD9097593
Probable space group: P -1
;
_chemical_formula_sum "Si O2"
_cell_formula_units_Z 14
_cell_length_a 11.878442
_cell_length_b 17.152679
_cell_length_c 8.694809
_cell_angle_alpha 65.237062
_cell_angle_beta 142.654246
_cell_angle_gamma 140.079299
_cell_volume 601.084138
_symmetry_space_group_name_H-M "P -1"
_symmetry_group_IT_number 2
_symmetry_cell_setting 'triclinic'
loop_
_space_group_symop_operation_xyz
x,y,z
-x,-y,-z
loop_
_atom_site_type_symbol
_atom_site_label
_atom_site_fract_x
_atom_site_fract_y
_atom_site_fract_z
Si Si1 0.468502 0.471374 0.165860
Si Si2 0.162510 0.363431 0.314315
Si Si3 0.347857 0.237983 0.225838
Si Si4 0.925300 0.967288 0.185726
Si Si5 0.925161 0.356046 0.768736
Si Si6 0.383163 0.889852 0.594157
Si Si7 0.833100 0.103278 0.339166
O O1 0.784169 0.576683 0.509522
O O2 0.290016 0.317064 0.126389
O O3 0.500000 0.500000 0.000000
O O4 0.277523 0.484644 0.004538
O O5 0.500000 0.500000 0.500000
O O6 0.055286 0.230295 0.354704
O O7 0.932122 0.320129 0.978944
O O8 0.708121 0.357460 0.521838
O O9 0.209520 0.148090 0.994009
O O10 0.201329 0.122528 0.288201
O O11 0.055031 0.952787 0.469240
O O12 0.659204 0.940052 0.935125
O O13 0.786973 0.242333 0.584664
O O14 0.189396 0.862961 0.540927
O O15 0.500000 0.000000 0.500000
O O16 0.500000 0.000000 0.000000
#
# Coordination Sequence:
#
# PCOD9097593 Si02
#       7
#     2   2   2   2   2   2   2
#     4  11  22  38  61  87 122 164 209 258 317 378
#     4  10  23  42  63  90 128 169 209 262 319 374
#     4  10  20  36  61  89 122 162 207 259 311 376
#     4  10  21  37  61  94 125 161 210 260 316 374
#     4  10  21  39  59  84 118 162 209 253 311 371
#     4  11  21  37  64  92 124 164 208 259 317 376
#     4  12  24  42  67  95 129 166 213 265 316 381
#
# _framework density 23.291248
#
# number of rings (size 3 to 8) (size 9 to 14) (size 15 to 20)
#    0.000    1.429    0.000    7.714    0.000    2.857 
#    0.000    7.143    0.000    0.000    0.000    0.000 
#    0.000    0.000    0.000    0.000    0.000    0.000 
#
# Total GULP energy -78087.581765 kJ/mol
# GULP energy per Si atom -5577.684412 kJ/mol
# Density = 2.323824 g / cm^3
# Si number density = 23.291248 Si / 1000 Ang^3
#
#
#
# Elastic Constant Matrix: (Units=GPa)
#
#
# Indices 1 2 3 4 5 6 
#
# 1 65.2839 10.8295 37.7743 -15.3378 4.5797 0.7477
# 2 10.8295 101.2188 42.5954 -19.4460 8.5454 8.3803
# 3 37.7743 42.5954 134.1872 -25.5536 6.6705 -2.2734
# 4 -15.3378 -19.4460 -25.5536 34.1135 -4.5933 -1.5574
# 5 4.5797 8.5454 6.6705 -4.5933 48.8871 -7.0325
# 6 0.7477 8.3803 -2.2734 -1.5574 -7.0325 32.2500
#
#
#
# Elastic Compliance Matrix: (Units=1/GPa)
#
#
# Indices 1 2 3 4 5 6 
#
# 1 0.019236 0.001160 -0.004680 0.005625 -0.000984 -0.001020
# 2 0.001160 0.012556 -0.003381 0.004716 -0.001934 -0.003722
# 3 -0.004680 -0.003381 0.010638 0.004061 0.000245 0.001987
# 4 0.005625 0.004716 0.004061 0.037870 0.001819 0.001156
# 5 -0.000984 -0.001934 0.000245 0.001819 0.021798 0.005384
# 6 -0.001020 -0.003722 0.001987 0.001156 0.005384 0.033368
#
#
# Mechanical properties :
#
#
# Convention : Reuss Voigt Hill
#
# Bulk Modulus (GPa) = 34.93319 53.67647 44.30483
# Shear Modulus (GPa) = 31.48406 37.01616 34.25011
#
# Velocity S-wave (km/s) = 3.68061 3.99089 3.83889
# Velocity P-wave (km/s) = 5.75270 6.65824 6.22196
#
# Compressibility (1/GPa) = 0.02862608
#
# Stress axis : x y z
#
# Youngs Moduli (GPa) = 51.98691 79.64486 94.00478
#
# Poissons Ratio (x) = -0.09236 0.43997
# Poissons Ratio (y) = -0.06029 0.31782
# Poissons Ratio (z) = 0.24331 0.26927
#
# Static dielectric constant tensor:
#      x y z
#    x 1.972390 0.038540 -0.021580 
#    y 0.038540 1.861620 0.022950 
#    z -0.021580 0.022950 1.981680 
# 
# From -- ./inp_files/279337.got.cif
#   From: 2010.05.17/outbox.cif.g08.bks.cpg/sg2_140_cif.got.tgz:279337.got - 2010.06.03 11:33:40.
