data_PCOD9097269
_publ_section_title
;
Structure prediction by ZEFSAII (Michael W. Deem and Ramdas Pophale) SiO2 
 PCOD9097269
Probable space group: P -1
;
_chemical_formula_sum "Si O2"
_cell_formula_units_Z 16
_cell_length_a 9.460559
_cell_length_b 9.297755
_cell_length_c 14.689871
_cell_angle_alpha 79.005758
_cell_angle_beta 72.135771
_cell_angle_gamma 134.567207
_cell_volume 701.783255
_symmetry_space_group_name_H-M "P -1"
_symmetry_group_IT_number 2
_symmetry_cell_setting 'triclinic'
loop_
_space_group_symop_operation_xyz
x,y,z
-x,-y,-z
loop_
_atom_site_type_symbol
_atom_site_label
_atom_site_fract_x
_atom_site_fract_y
_atom_site_fract_z
Si Si1 0.012331 0.552184 0.256044
Si Si2 0.195538 0.314485 0.680587
Si Si3 0.927529 0.269385 0.475347
Si Si4 0.065602 0.432010 0.920235
Si Si5 0.447651 0.141051 0.879629
Si Si6 0.553978 0.177290 0.646915
Si Si7 0.256479 0.286663 0.881915
Si Si8 0.268364 0.123508 0.560107
O O1 0.292396 0.721295 0.155356
O O2 0.000526 0.708966 0.274407
O O3 0.920639 0.376738 0.377753
O O4 0.858011 0.431214 0.206570
O O5 0.233444 0.282152 0.778187
O O6 0.126813 0.134841 0.643682
O O7 0.470234 0.600651 0.564303
O O8 0.699801 0.143403 0.599461
O O9 0.204244 0.514728 0.435549
O O10 0.886077 0.077689 0.464969
O O11 0.261238 0.455710 0.900037
O O12 0.000000 0.500000 0.000000
O O13 0.801029 0.129245 0.993269
O O14 0.433424 0.089927 0.781021
O O15 0.464162 0.330731 0.860998
O O16 0.360418 0.075374 0.620873
O O17 0.000000 0.000000 0.000000
#
# Coordination Sequence:
#
# PCOD9097269 Si02
#       8
#     2   2   2   2   2   2   2   2
#     4  10  21  38  60  81 120 147 197 242 294 345
#     4  10  21  36  57  90 114 153 197 242 292 348
#     4  10  22  36  59  91 114 161 197 243 287 360
#     4  10  22  36  58  89 112 144 195 243 285 354
#     4  10  20  38  60  79 111 159 185 237 297 342
#     4  10  20  36  60  84 120 150 205 234 290 354
#     4   9  19  37  59  81 111 151 192 229 290 352
#     4  11  21  37  62  81 123 160 195 239 301 346
#
# _framework density 22.799063
#
# number of rings (size 3 to 8) (size 9 to 14) (size 15 to 20)
#    0.000    2.000    2.500    0.750    1.750    1.000 
#    0.000    5.625    0.000    0.000    0.000    0.000 
#    0.000    0.000    0.000    0.000    0.000    0.000 
#
# Total GULP energy -89408.859159 kJ/mol
# GULP energy per Si atom -5588.053697 kJ/mol
# Density = 2.274717 g / cm^3
# Si number density = 22.799063 Si / 1000 Ang^3
#
#
#
# Elastic Constant Matrix: (Units=GPa)
#
#
# Indices 1 2 3 4 5 6 
#
# 1 124.5889 31.2217 12.5484 7.9719 -17.5234 -28.5350
# 2 31.2217 99.2672 -8.2913 23.8474 -16.9410 -25.4603
# 3 12.5484 -8.2913 67.8446 8.5902 6.2943 -3.8085
# 4 7.9719 23.8474 8.5902 28.9559 -7.8876 -12.2563
# 5 -17.5234 -16.9410 6.2943 -7.8876 39.9774 11.9593
# 6 -28.5350 -25.4603 -3.8085 -12.2563 11.9593 29.9383
#
#
#
# Elastic Compliance Matrix: (Units=1/GPa)
#
#
# Indices 1 2 3 4 5 6 
#
# 1 0.010906 -0.001763 -0.002410 0.003688 0.002407 0.009137
# 2 -0.001763 0.015403 0.003791 -0.009903 0.000973 0.007458
# 3 -0.002410 0.003791 0.017139 -0.008056 -0.004180 0.001479
# 4 0.003688 -0.009903 -0.008056 0.050871 0.004849 0.012957
# 5 0.002407 0.000973 -0.004180 0.004849 0.030355 -0.007551
# 6 0.009137 0.007458 0.001479 0.012957 -0.007551 0.056962
#
#
# Mechanical properties :
#
#
# Convention : Reuss Voigt Hill
#
# Bulk Modulus (GPa) = 23.42807 40.29538 31.86172
# Shear Modulus (GPa) = 25.42848 36.85579 31.14214
#
# Velocity S-wave (km/s) = 3.34328 4.02499 3.69987
# Velocity P-wave (km/s) = 5.02011 6.27003 5.67956
#
# Compressibility (1/GPa) = 0.04268385
#
# Stress axis : x y z
#
# Youngs Moduli (GPa) = 91.69032 64.92310 58.34499
#
# Poissons Ratio (x) = 0.11447 0.14061
# Poissons Ratio (y) = 0.16166 -0.22117
# Poissons Ratio (z) = 0.22097 -0.24611
#
# Static dielectric constant tensor:
#      x y z
#    x 1.887860 -0.034410 0.003470 
#    y -0.034410 1.861750 0.008600 
#    z 0.003470 0.008600 1.851440 
# 
# From -- ./inp_files/218548.got.cif
#   From: 2010.05.17/outbox.cif.g08.bks.cpg/sg2_110_cif.got.tgz:218548.got - 2010.06.03 11:33:40.
