data_PCOD9097903
_publ_section_title
;
Structure prediction by ZEFSAII (Michael W. Deem and Ramdas Pophale) SiO2 
 PCOD9097903
Probable space group: P -1
;
_chemical_formula_sum "Si O2"
_cell_formula_units_Z 15
_cell_length_a 12.919526
_cell_length_b 18.576871
_cell_length_c 11.833862
_cell_angle_alpha 38.136838
_cell_angle_beta 125.764104
_cell_angle_gamma 154.126783
_cell_volume 680.644800
_symmetry_space_group_name_H-M "P -1"
_symmetry_group_IT_number 2
_symmetry_cell_setting 'triclinic'
loop_
_space_group_symop_operation_xyz
x,y,z
-x,-y,-z
loop_
_atom_site_type_symbol
_atom_site_label
_atom_site_fract_x
_atom_site_fract_y
_atom_site_fract_z
Si Si1 0.469135 0.246236 0.837214
Si Si2 0.252844 0.607261 0.837725
Si Si3 0.354206 0.252973 0.003785
Si Si4 0.365691 0.883127 0.935599
Si Si5 0.736946 0.331651 0.473046
Si Si6 0.985396 0.750154 0.421986
Si Si7 0.500000 0.000000 0.500000
Si Si8 0.099547 0.288620 0.842057
O O1 0.687727 0.490400 0.600459
O O2 0.429754 0.280453 0.889270
O O3 0.584417 0.207838 0.961278
O O4 0.162705 0.973772 0.940434
O O5 0.410358 0.615099 0.936538
O O6 0.315170 0.743936 0.598815
O O7 0.377053 0.802512 0.758067
O O8 0.944847 0.344138 0.971172
O O9 0.090704 0.967981 0.222416
O O10 0.298973 0.343089 0.877617
O O11 0.498366 0.088784 0.690960
O O12 0.500000 0.000000 0.000000
O O13 0.771140 0.497445 0.278625
O O14 0.000000 0.500000 0.500000
O O15 0.983812 0.725509 0.316318
O O16 0.203953 0.846491 0.504883
#
# Coordination Sequence:
#
# PCOD9097903 Si02
#       8
#     2   2   2   2   2   2   1   2
#     4  11  21  38  67  94 124 170 210 261 321 370
#     4  11  24  41  60  96 130 161 211 260 319 376
#     4  10  26  41  59  91 133 171 208 262 310 382
#     4  12  23  39  65  99 126 158 216 266 314 377
#     4  12  23  40  67  91 120 167 207 261 326 362
#     4  10  20  38  63  94 127 163 210 262 314 371
#     4  10  20  36  62  92 134 154 190 274 316 360
#     4  11  23  43  61  91 129 169 221 253 306 383
#
# _framework density 22.037928000000001
#
# number of rings (size 3 to 8) (size 9 to 14) (size 15 to 20)
#    0.000    1.067    4.000    3.200    3.733    5.333 
#    0.000    0.667    0.000    0.000    0.000    0.000 
#    0.000    0.000    0.000    0.000    0.000    0.000 
#
# Total GULP energy -83594.673264 kJ/mol
# GULP energy per Si atom -5572.978218 kJ/mol
# Density = 2.198777 g / cm^3
# Si number density = 22.037928 Si / 1000 Ang^3
#
#
#
# Elastic Constant Matrix: (Units=GPa)
#
#
# Indices 1 2 3 4 5 6 
#
# 1 102.6329 35.9545 42.8676 -3.6435 23.0577 6.1691
# 2 35.9545 90.7456 40.4568 -15.5904 -2.6030 15.2957
# 3 42.8676 40.4568 124.3399 -38.3318 -17.5372 6.5940
# 4 -3.6435 -15.5904 -38.3318 43.6954 9.8926 -4.2014
# 5 23.0577 -2.6030 -17.5372 9.8926 35.6912 -1.6890
# 6 6.1691 15.2957 6.5940 -4.2014 -1.6890 31.1922
#
#
#
# Elastic Compliance Matrix: (Units=1/GPa)
#
#
# Indices 1 2 3 4 5 6 
#
# 1 0.017829 -0.004455 -0.007888 -0.003785 -0.014716 -0.000981
# 2 -0.004455 0.015119 -0.002131 0.002138 0.002072 -0.005682
# 3 -0.007888 -0.002131 0.016038 0.010508 0.009964 0.001169
# 4 -0.003785 0.002138 0.010508 0.033024 -0.001301 0.001856
# 5 -0.014716 0.002072 0.009964 -0.001301 0.043025 0.001943
# 6 -0.000981 -0.005682 0.001169 0.001856 0.001943 0.035148
#
#
# Mechanical properties :
#
#
# Convention : Reuss Voigt Hill
#
# Bulk Modulus (GPa) = 49.90032 61.80847 55.85439
# Shear Modulus (GPa) = 25.53485 35.34506 30.43995
#
# Velocity S-wave (km/s) = 3.40763 4.00913 3.72055
# Velocity P-wave (km/s) = 6.17856 7.03833 6.62241
#
# Compressibility (1/GPa) = 0.02003995
#
# Stress axis : x y z
#
# Youngs Moduli (GPa) = 56.08688 66.14026 62.35192
#
# Poissons Ratio (x) = 0.29463 0.49183
# Poissons Ratio (y) = 0.24985 0.13286
# Poissons Ratio (z) = 0.44241 0.14094
#
# Static dielectric constant tensor:
#      x y z
#    x 1.567340 -0.020640 -0.186840 
#    y -0.020640 1.925840 0.031830 
#    z -0.186840 0.031830 1.713660 
# 
# From -- ./inp_files/428670.got.cif
#   From: 2010.05.17/outbox.cif.g08.bks.cpg/sg2_215_cif.got.tgz:428670.got - 2010.06.03 11:33:40.
