data_PCOD9097872
_publ_section_title
;
Structure prediction by ZEFSAII (Michael W. Deem and Ramdas Pophale) SiO2 
 PCOD9097872
Probable space group: P -1
;
_chemical_formula_sum "Si O2"
_cell_formula_units_Z 16
_cell_length_a 9.794487
_cell_length_b 9.525286
_cell_length_c 8.502168
_cell_angle_alpha 95.389993
_cell_angle_beta 61.324468
_cell_angle_gamma 71.734506
_cell_volume 631.804596
_symmetry_space_group_name_H-M "P -1"
_symmetry_group_IT_number 2
_symmetry_cell_setting 'triclinic'
loop_
_space_group_symop_operation_xyz
x,y,z
-x,-y,-z
loop_
_atom_site_type_symbol
_atom_site_label
_atom_site_fract_x
_atom_site_fract_y
_atom_site_fract_z
Si Si1 0.150960 0.292239 0.663619
Si Si2 0.910192 0.896829 0.611050
Si Si3 0.419605 0.297888 0.284818
Si Si4 0.659517 0.995637 0.308081
Si Si5 0.380193 0.802913 0.108757
Si Si6 0.516751 0.401318 0.677172
Si Si7 0.178527 0.783004 0.704390
Si Si8 0.814680 0.369205 0.000370
O O1 0.132512 0.186459 0.519240
O O2 0.276452 0.347045 0.504944
O O3 0.960559 0.398759 0.831622
O O4 0.234502 0.188531 0.760634
O O5 0.045381 0.782716 0.647125
O O6 0.740170 0.015861 0.803729
O O7 0.000000 0.000000 0.500000
O O8 0.564698 0.131047 0.247149
O O9 0.441299 0.457500 0.273223
O O10 0.437615 0.249012 0.085322
O O11 0.798993 0.057200 0.298103
O O12 0.500000 0.000000 0.500000
O O13 0.409015 0.745633 0.265177
O O14 0.276119 0.711104 0.074702
O O15 0.626659 0.340316 0.452357
O O16 0.315264 0.476298 0.825074
O O17 0.123505 0.750799 0.901488
#
# Coordination Sequence:
#
# PCOD9097872 Si02
#       8
#     2   2   2   2   2   2   2   2
#     4  11  23  42  60  93 127 163 204 258 312 357
#     4  12  22  38  64  93 127 155 205 265 301 360
#     4  10  23  39  65  89 127 164 204 254 311 367
#     4  10  20  36  62  91 121 160 197 255 308 361
#     4  11  21  40  65  94 118 163 211 248 308 370
#     4  11  22  41  64  93 122 162 213 251 300 370
#     4  12  22  39  65  94 123 164 207 256 303 363
#     4  11  22  36  65  91 119 164 210 249 301 372
#
# _framework density 25.324287000000002
#
# number of rings (size 3 to 8) (size 9 to 14) (size 15 to 20)
#    0.000    1.000    6.250    1.875    1.750    1.500 
#    0.000    6.250    0.000    0.000    0.000    0.000 
#    0.000    0.000    0.000    0.000    0.000    0.000 
#
# Total GULP energy -89177.949438 kJ/mol
# GULP energy per Si atom -5573.621840 kJ/mol
# Density = 2.526665 g / cm^3
# Si number density = 25.324287 Si / 1000 Ang^3
#
#
#
# Elastic Constant Matrix: (Units=GPa)
#
#
# Indices 1 2 3 4 5 6 
#
# 1 37.5526 15.7458 7.9213 -4.0300 -2.1301 -5.9769
# 2 15.7458 54.7109 15.1569 3.8516 -11.7124 1.7129
# 3 7.9213 15.1569 172.3455 23.0247 -31.9561 -2.1178
# 4 -4.0300 3.8516 23.0247 36.5960 -10.0393 2.8561
# 5 -2.1301 -11.7124 -31.9561 -10.0393 38.2574 0.2053
# 6 -5.9769 1.7129 -2.1178 2.8561 0.2053 25.1143
#
#
#
# Elastic Compliance Matrix: (Units=1/GPa)
#
#
# Indices 1 2 3 4 5 6 
#
# 1 0.032722 -0.009858 -0.001370 0.004567 -0.001185 0.007834
# 2 -0.009858 0.022658 -0.000332 -0.001381 0.005768 -0.003810
# 3 -0.001370 -0.000332 0.007283 -0.003373 0.005017 0.000653
# 4 0.004567 -0.001381 -0.003373 0.031784 0.005369 -0.002762
# 5 -0.001185 0.005768 0.005017 0.005369 0.033445 -0.001136
# 6 0.007834 -0.003810 0.000653 -0.002762 -0.001136 0.042321
#
#
# Mechanical properties :
#
#
# Convention : Reuss Voigt Hill
#
# Bulk Modulus (GPa) = 25.28949 38.02856 31.65902
# Shear Modulus (GPa) = 24.21126 35.04587 29.62856
#
# Velocity S-wave (km/s) = 3.09536 3.72409 3.42419
# Velocity P-wave (km/s) = 4.77315 5.79147 5.30679
#
# Compressibility (1/GPa) = 0.03954212
#
# Stress axis : x y z
#
# Youngs Moduli (GPa) = 30.56077 44.13359 137.29789
#
# Poissons Ratio (x) = 0.43507 0.18816
# Poissons Ratio (y) = 0.30127 0.04562
# Poissons Ratio (z) = 0.04188 0.01467
#
# Static dielectric constant tensor:
#      x y z
#    x 2.122500 -0.040480 -0.053010 
#    y -0.040480 1.999660 0.042560 
#    z -0.053010 0.042560 1.999400 
# 
# From -- ./inp_files/257895.got.cif
#   From: 2010.05.17/outbox.cif.g08.bks.cpg/sg2_129_cif.got.tgz:257895.got - 2010.06.03 11:33:40.
