data_PCOD9097727
_publ_section_title
;
Structure prediction by ZEFSAII (Michael W. Deem and Ramdas Pophale) SiO2 
 PCOD9097727
Probable space group: P -1
;
_chemical_formula_sum "Si O2"
_cell_formula_units_Z 10
_cell_length_a 11.929074
_cell_length_b 9.616305
_cell_length_c 8.822035
_cell_angle_alpha 30.377463
_cell_angle_beta 94.576420
_cell_angle_gamma 105.606875
_cell_volume 468.176334
_symmetry_space_group_name_H-M "P -1"
_symmetry_group_IT_number 2
_symmetry_cell_setting 'triclinic'
loop_
_space_group_symop_operation_xyz
x,y,z
-x,-y,-z
loop_
_atom_site_type_symbol
_atom_site_label
_atom_site_fract_x
_atom_site_fract_y
_atom_site_fract_z
Si Si1 0.189247 0.423263 0.796923
Si Si2 0.450520 0.682476 0.713752
Si Si3 0.593397 0.966788 0.165356
Si Si4 0.246745 0.414465 0.475340
Si Si5 0.025656 0.721659 0.440699
O O1 0.305298 0.516308 0.830621
O O2 0.241984 0.545580 0.519746
O O3 0.096079 0.573945 0.694068
O O4 0.115838 0.066957 0.101718
O O5 0.513072 0.754901 0.487835
O O6 0.500000 0.000000 0.500000
O O7 0.500000 0.500000 0.000000
O O8 0.688401 0.815667 0.276392
O O9 0.500000 0.000000 0.000000
O O10 0.675809 0.314340 0.882103
O O11 0.106260 0.279618 0.531570
O O12 0.000000 0.500000 0.500000
#
# Coordination Sequence:
#
# PCOD9097727 Si02
#       5
#     2   2   2   2   2
#     4  11  21  38  65  92 133 166 211 263 315 381
#     4  12  27  44  64  92 132 178 214 253 321 391
#     4  12  24  40  66  94 131 164 210 274 320 365
#     4  11  21  37  65  97 129 156 211 269 328 366
#     4  10  20  36  61  99 129 163 204 269 327 370
#
# _framework density 21.359473000000001
#
# number of rings (size 3 to 8) (size 9 to 14) (size 15 to 20)
#    0.000    0.800    2.000    9.000    2.800    0.000 
#    0.000    0.000    0.000   24.000    0.000    0.000 
#    0.000    0.000    0.000    0.000    0.000    0.000 
#
# Total GULP energy -55808.369928 kJ/mol
# GULP energy per Si atom -5580.836993 kJ/mol
# Density = 2.131086 g / cm^3
# Si number density = 21.359473 Si / 1000 Ang^3
#
#
#
# Elastic Constant Matrix: (Units=GPa)
#
#
# Indices 1 2 3 4 5 6 
#
# 1 224.9005 54.7913 84.7224 -2.1718 24.2107 36.3910
# 2 54.7913 34.6710 27.0913 1.6985 4.3952 20.2103
# 3 84.7224 27.0913 158.4630 -9.2786 15.5343 18.2617
# 4 -2.1718 1.6985 -9.2786 33.4230 8.8220 4.1426
# 5 24.2107 4.3952 15.5343 8.8220 51.2040 -8.9263
# 6 36.3910 20.2103 18.2617 4.1426 -8.9263 37.0223
#
#
#
# Elastic Compliance Matrix: (Units=1/GPa)
#
#
# Indices 1 2 3 4 5 6 
#
# 1 0.008441 -0.009598 -0.002094 0.001715 -0.003355 -0.003025
# 2 -0.009598 0.059475 -0.002033 -0.000342 -0.003888 -0.022929
# 3 -0.002094 -0.002033 0.008395 0.003121 -0.002245 -0.001864
# 4 0.001715 -0.000342 0.003121 0.034492 -0.009263 -0.009132
# 5 -0.003355 -0.003888 -0.002245 -0.009263 0.026144 0.013868
# 6 -0.003025 -0.022929 -0.001864 -0.009132 0.013868 0.047786
#
#
# Mechanical properties :
#
#
# Convention : Reuss Voigt Hill
#
# Bulk Modulus (GPa) = 20.46637 83.47160 51.96899
# Shear Modulus (GPa) = 21.88477 41.09183 31.48830
#
# Velocity S-wave (km/s) = 3.20440 4.39090 3.84371
# Velocity P-wave (km/s) = 4.82634 8.05425 6.63945
#
# Compressibility (1/GPa) = 0.04886064
#
# Stress axis : x y z
#
# Youngs Moduli (GPa) = 118.47145 16.81392 119.11374
#
# Poissons Ratio (x) = 0.16139 0.24942
# Poissons Ratio (y) = 1.13713 0.24212
# Poissons Ratio (z) = 0.24808 0.03418
#
# Static dielectric constant tensor:
#      x y z
#    x 1.925090 -0.152760 -0.015110 
#    y -0.152760 2.042590 0.006300 
#    z -0.015110 0.006300 1.771070 
# 
# From -- ./inp_files/20751.got.cif
#   From: 2010.05.17/outbox.cif.g08.bks.cpg/sg2_11_cif.got.tgz:20751.got - 2010.06.03 11:33:40.
