data_PCOD9097715
_publ_section_title
;
Structure prediction by ZEFSAII (Michael W. Deem and Ramdas Pophale) SiO2 
 PCOD9097715
Probable space group: P -1
;
_chemical_formula_sum "Si O2"
_cell_formula_units_Z 16
_cell_length_a 5.350036
_cell_length_b 18.307851
_cell_length_c 14.307375
_cell_angle_alpha 32.717233
_cell_angle_beta 105.114787
_cell_angle_gamma 101.931094
_cell_volume 731.015332
_symmetry_space_group_name_H-M "P -1"
_symmetry_group_IT_number 2
_symmetry_cell_setting 'triclinic'
loop_
_space_group_symop_operation_xyz
x,y,z
-x,-y,-z
loop_
_atom_site_type_symbol
_atom_site_label
_atom_site_fract_x
_atom_site_fract_y
_atom_site_fract_z
Si Si1 0.196745 0.943580 0.274635
Si Si2 0.727065 0.752308 0.124050
Si Si3 0.775249 0.918535 0.118583
Si Si4 0.080029 0.477348 0.142991
Si Si5 0.397633 0.687507 0.652860
Si Si6 0.828741 0.319085 0.898133
Si Si7 0.656599 0.886664 0.581848
Si Si8 0.050327 0.944465 0.703268
O O1 0.354569 0.801201 0.444839
O O2 0.910769 0.912204 0.239294
O O3 0.162044 0.972495 0.349318
O O4 0.289827 0.088208 0.086539
O O5 0.757443 0.779841 0.208135
O O6 0.471832 0.665838 0.175275
O O7 0.966712 0.682410 0.166295
O O8 0.500000 0.000000 0.000000
O O9 0.000000 0.000000 0.000000
O O10 0.372632 0.416860 0.238516
O O11 0.086559 0.596806 0.093132
O O12 0.871246 0.377074 0.274837
O O13 0.000000 0.500000 0.000000
O O14 0.507290 0.754321 0.687021
O O15 0.837710 0.164566 0.099035
O O16 0.920198 0.868120 0.686400
O O17 0.500000 0.000000 0.500000
O O18 0.744647 0.952978 0.423239
#
# Coordination Sequence:
#
# PCOD9097715 Si02
#       8
#     2   2   2   2   2   2   2   2
#     4  10  21  38  63  97 126 156 194 254 319 374
#     4  10  21  39  65  96 124 157 197 250 314 375
#     4  10  20  36  61  97 135 158 187 241 320 389
#     4  12  28  45  62  84 121 172 218 260 294 352
#     4  12  25  42  62  89 124 162 210 254 310 361
#     4  11  23  40  63  84 118 163 214 252 291 358
#     4  11  22  35  57  86 124 154 190 248 314 371
#     4  10  21  36  56  89 121 156 198 246 309 368
#
# _framework density 21.887366
#
# number of rings (size 3 to 8) (size 9 to 14) (size 15 to 20)
#    0.000    1.250    1.250    5.625    5.250    4.000 
#    0.000    0.000    0.000    4.500    0.000    0.000 
#    0.000    0.000    0.000    0.000    0.000    0.000 
#
# Total GULP energy -89143.048559 kJ/mol
# GULP energy per Si atom -5571.440535 kJ/mol
# Density = 2.183755 g / cm^3
# Si number density = 21.887366 Si / 1000 Ang^3
#
#
#
# Elastic Constant Matrix: (Units=GPa)
#
#
# Indices 1 2 3 4 5 6 
#
# 1 102.3053 36.6396 7.3508 0.8678 -2.6350 10.7191
# 2 36.6396 147.3121 5.5336 -8.4041 -2.4632 7.6584
# 3 7.3508 5.5336 22.5224 -1.6062 7.0196 0.8063
# 4 0.8678 -8.4041 -1.6062 19.6819 4.5757 3.1390
# 5 -2.6350 -2.4632 7.0196 4.5757 28.0710 -6.5982
# 6 10.7191 7.6584 0.8063 3.1390 -6.5982 41.1073
#
#
#
# Elastic Compliance Matrix: (Units=1/GPa)
#
#
# Indices 1 2 3 4 5 6 
#
# 1 0.011243 -0.002646 -0.003581 -0.001971 0.001578 -0.001965
# 2 -0.002646 0.007726 -0.000669 0.003582 -0.000233 -0.001047
# 3 -0.003581 -0.000669 0.051155 0.008061 -0.015206 -0.003001
# 4 -0.001971 0.003582 0.008061 0.057126 -0.012779 -0.006725
# 5 0.001578 -0.000233 -0.015206 -0.012779 0.043491 0.007887
# 6 -0.001965 -0.001047 -0.003001 -0.006725 0.007887 0.026872
#
#
# Mechanical properties :
#
#
# Convention : Reuss Voigt Hill
#
# Bulk Modulus (GPa) = 17.75204 41.24309 29.49756
# Shear Modulus (GPa) = 21.72181 32.61311 27.16746
#
# Velocity S-wave (km/s) = 3.15371 3.86429 3.52694
# Velocity P-wave (km/s) = 4.62487 6.22853 5.48562
#
# Compressibility (1/GPa) = 0.05633157
#
# Stress axis : x y z
#
# Youngs Moduli (GPa) = 88.94625 129.42600 19.54837
#
# Poissons Ratio (x) = 0.34242 0.07001
# Poissons Ratio (y) = 0.23533 0.01308
# Poissons Ratio (z) = 0.31856 0.08661
#
# Static dielectric constant tensor:
#      x y z
#    x 1.822200 0.064130 0.103650 
#    y 0.064130 1.745240 -0.081670 
#    z 0.103650 -0.081670 1.708590 
# 
# From -- ./inp_files/485179.got.cif
#   From: 2010.05.17/outbox.cif.g08.bks.cpg/sg2_243_cif.got.tgz:485179.got - 2010.06.03 11:33:40.
