data_PCOD9097512
_publ_section_title
;
Structure prediction by ZEFSAII (Michael W. Deem and Ramdas Pophale) SiO2 
 PCOD9097512
Probable space group: P -1
;
_chemical_formula_sum "Si O2"
_cell_formula_units_Z 16
_cell_length_a 11.885449
_cell_length_b 7.222862
_cell_length_c 17.702434
_cell_angle_alpha 71.993069
_cell_angle_beta 46.267929
_cell_angle_gamma 42.996521
_cell_volume 686.759231
_symmetry_space_group_name_H-M "P -1"
_symmetry_group_IT_number 2
_symmetry_cell_setting 'triclinic'
loop_
_space_group_symop_operation_xyz
x,y,z
-x,-y,-z
loop_
_atom_site_type_symbol
_atom_site_label
_atom_site_fract_x
_atom_site_fract_y
_atom_site_fract_z
Si Si1 0.702849 0.944620 0.261233
Si Si2 0.426729 0.792460 0.993561
Si Si3 0.092931 0.554194 0.235907
Si Si4 0.347587 0.564724 0.756929
Si Si5 0.216074 0.373709 0.366352
Si Si6 0.150815 0.884978 0.368956
Si Si7 0.996486 0.898998 0.750842
Si Si8 0.940093 0.774405 0.016645
O O1 0.622853 0.231311 0.292326
O O2 0.469321 0.066730 0.319678
O O3 0.859193 0.698975 0.284357
O O4 0.883049 0.823549 0.124724
O O5 0.229402 0.002273 0.122696
O O6 0.295131 0.946684 0.955339
O O7 0.500000 0.500000 0.000000
O O8 0.671893 0.676011 0.895540
O O9 0.157235 0.390083 0.304668
O O10 0.042920 0.833286 0.241843
O O11 0.601663 0.248483 0.705311
O O12 0.156472 0.699423 0.894625
O O13 0.222579 0.616844 0.730421
O O14 0.217442 0.606841 0.343279
O O15 0.000000 0.500000 0.500000
O O16 0.010018 0.108485 0.335414
O O17 0.000000 0.000000 0.500000
O O18 0.000000 0.500000 0.000000
#
# Coordination Sequence:
#
# PCOD9097512 Si02
#       8
#     2   2   2   2   2   2   2   2
#     4  10  20  36  61  84 109 156 208 236 285 366
#     4   9  17  33  59  84 114 155 194 234 291 354
#     4   9  17  33  57  84 108 146 198 244 279 342
#     4   9  20  36  58  82 109 154 201 235 282 357
#     4  10  21  38  57  80 116 152 198 250 290 345
#     4  10  21  36  56  84 108 150 201 239 288 347
#     4   8  17  32  54  84 111 138 192 246 279 333
#     4  11  22  36  56  92 130 153 185 251 314 346
#
# _framework density 23.297830000000001
#
# number of rings (size 3 to 8) (size 9 to 14) (size 15 to 20)
#    0.000    2.500    1.250    1.125    3.500    2.000 
#    0.000    3.125    0.000    0.000    0.000    0.000 
#    0.000    0.000    0.000    0.000    0.000    0.000 
#
# Total GULP energy -89388.891083 kJ/mol
# GULP energy per Si atom -5586.805693 kJ/mol
# Density = 2.324480 g / cm^3
# Si number density = 23.297830 Si / 1000 Ang^3
#
#
#
# Elastic Constant Matrix: (Units=GPa)
#
#
# Indices 1 2 3 4 5 6 
#
# 1 114.9926 60.0891 42.2546 -3.3500 -1.7350 -36.2685
# 2 60.0891 119.7418 31.1767 -5.7040 0.7186 -43.6462
# 3 42.2546 31.1767 93.0066 -16.1816 1.6557 -49.8491
# 4 -3.3500 -5.7040 -16.1816 18.2503 -8.1962 5.1200
# 5 -1.7350 0.7186 1.6557 -8.1962 35.3043 2.9177
# 6 -36.2685 -43.6462 -49.8491 5.1200 2.9177 60.7121
#
#
#
# Elastic Compliance Matrix: (Units=1/GPa)
#
#
# Indices 1 2 3 4 5 6 
#
# 1 0.013275 -0.005425 -0.004439 -0.003313 0.000148 0.000658
# 2 -0.005425 0.013681 0.003359 0.003409 -0.000663 0.009098
# 3 -0.004439 0.003359 0.024451 0.017244 0.001055 0.018334
# 4 -0.003313 0.003409 0.017244 0.075572 0.015884 0.007494
# 5 0.000148 -0.000663 0.001055 0.015884 0.032183 -0.002409
# 6 0.000658 0.009098 0.018334 0.007494 -0.002409 0.037942
#
#
# Mechanical properties :
#
#
# Convention : Reuss Voigt Hill
#
# Bulk Modulus (GPa) = 26.04296 66.08687 46.06491
# Shear Modulus (GPa) = 22.43029 35.80140 29.11585
#
# Velocity S-wave (km/s) = 3.10621 3.92431 3.53898
# Velocity P-wave (km/s) = 4.90584 6.99723 6.04270
#
# Compressibility (1/GPa) = 0.03839810
#
# Stress axis : x y z
#
# Youngs Moduli (GPa) = 75.32709 73.09165 40.89879
#
# Poissons Ratio (x) = 0.39652 0.18156
# Poissons Ratio (y) = 0.40865 -0.13740
# Poissons Ratio (z) = 0.33439 -0.24555
#
# Static dielectric constant tensor:
#      x y z
#    x 1.899450 0.026140 0.004370 
#    y 0.026140 1.923700 -0.016870 
#    z 0.004370 -0.016870 1.844640 
# 
# From -- ./inp_files/259573.got.cif
#   From: 2010.05.17/outbox.cif.g08.bks.cpg/sg2_130_cif.got.tgz:259573.got - 2010.06.03 11:33:40.
