data_PCOD9097496
_publ_section_title
;
Structure prediction by ZEFSAII (Michael W. Deem and Ramdas Pophale) SiO2 
 PCOD9097496
Probable space group: P -1
;
_chemical_formula_sum "Si O2"
_cell_formula_units_Z 16
_cell_length_a 9.968342
_cell_length_b 8.140844
_cell_length_c 9.861910
_cell_angle_alpha 71.080219
_cell_angle_beta 75.023095
_cell_angle_gamma 79.857745
_cell_volume 727.606334
_symmetry_space_group_name_H-M "P -1"
_symmetry_group_IT_number 2
_symmetry_cell_setting 'triclinic'
loop_
_space_group_symop_operation_xyz
x,y,z
-x,-y,-z
loop_
_atom_site_type_symbol
_atom_site_label
_atom_site_fract_x
_atom_site_fract_y
_atom_site_fract_z
Si Si1 0.853951 0.880020 0.208094
Si Si2 0.447768 0.316406 0.106255
Si Si3 0.544205 0.209769 0.826790
Si Si4 0.857276 0.651665 0.868089
Si Si5 0.158889 0.505975 0.795671
Si Si6 0.157420 0.957573 0.118095
Si Si7 0.424528 0.117687 0.603725
Si Si8 0.453663 0.609841 0.667075
O O1 0.825644 0.690828 0.209936
O O2 0.736821 0.915620 0.341862
O O3 0.014607 0.875108 0.208532
O O4 0.831495 0.019735 0.053833
O O5 0.284813 0.342731 0.180035
O O6 0.533121 0.273965 0.231357
O O7 0.500000 0.500000 0.000000
O O8 0.466200 0.200644 0.995586
O O9 0.705272 0.147495 0.829478
O O10 0.483875 0.106031 0.745193
O O11 0.516877 0.413310 0.738530
O O12 0.005212 0.593616 0.777328
O O13 0.861946 0.845533 0.873194
O O14 0.837728 0.518835 0.034441
O O15 0.289345 0.602008 0.686804
O O16 0.457648 0.309688 0.493844
O O17 0.500000 0.000000 0.500000
#
# Coordination Sequence:
#
# PCOD9097496 Si02
#       8
#     2   2   2   2   2   2   2   2
#     4  10  23  45  63 104 133 186 222 277 342 406
#     4  10  21  38  67 103 130 166 231 284 325 392
#     4  11  23  45  68  98 134 180 228 285 332 398
#     4  10  20  36  61 101 131 170 215 285 335 390
#     4  10  20  38  67  93 137 173 224 269 341 400
#     4  10  24  40  72  99 140 171 230 286 341 386
#     4  12  28  45  68  98 141 185 228 272 349 411
#     4  11  24  44  68  99 133 182 223 281 339 408
#
# _framework density 21.989912
#
# number of rings (size 3 to 8) (size 9 to 14) (size 15 to 20)
#    0.000    1.500    3.750    1.125    8.750    2.000 
#    0.000    2.500    0.000    0.000    0.000    0.000 
#    0.000    0.000    0.000    0.000    0.000    0.000 
#
# Total GULP energy -89423.419813 kJ/mol
# GULP energy per Si atom -5588.963738 kJ/mol
# Density = 2.193986 g / cm^3
# Si number density = 21.989912 Si / 1000 Ang^3
#
#
#
# Elastic Constant Matrix: (Units=GPa)
#
#
# Indices 1 2 3 4 5 6 
#
# 1 160.0537 28.0381 44.1619 7.0010 -38.4563 -9.0841
# 2 28.0381 67.3123 28.1924 13.7175 -1.8742 -7.9305
# 3 44.1619 28.1924 93.2831 2.5229 -22.1551 -4.4224
# 4 7.0010 13.7175 2.5229 32.0868 3.5801 -3.6631
# 5 -38.4563 -1.8742 -22.1551 3.5801 41.3001 7.7737
# 6 -9.0841 -7.9305 -4.4224 -3.6631 7.7737 39.1608
#
#
#
# Elastic Compliance Matrix: (Units=1/GPa)
#
#
# Indices 1 2 3 4 5 6 
#
# 1 0.009037 -0.002553 -0.001672 -0.001627 0.007593 -0.000269
# 2 -0.002553 0.019816 -0.005509 -0.006638 -0.004433 0.003058
# 3 -0.001672 -0.005509 0.014563 0.000777 0.006127 -0.001002
# 4 -0.001627 -0.006638 0.000777 0.035149 -0.004942 0.002635
# 5 0.007593 -0.004433 0.006127 -0.004942 0.035934 -0.006040
# 6 -0.000269 0.003058 -0.001002 0.002635 -0.006040 0.027425
#
#
# Mechanical properties :
#
#
# Convention : Reuss Voigt Hill
#
# Bulk Modulus (GPa) = 41.75495 57.93712 49.84604
# Shear Modulus (GPa) = 29.52035 37.19331 33.35683
#
# Velocity S-wave (km/s) = 3.66792 4.11710 3.89898
# Velocity P-wave (km/s) = 6.08010 7.00036 6.55640
#
# Compressibility (1/GPa) = 0.02394926
#
# Stress axis : x y z
#
# Youngs Moduli (GPa) = 110.65884 50.46375 68.66665
#
# Poissons Ratio (x) = 0.12881 0.11481
# Poissons Ratio (y) = 0.28247 0.37827
# Poissons Ratio (z) = 0.18502 0.27800
#
# Static dielectric constant tensor:
#      x y z
#    x 1.802260 0.019270 0.006120 
#    y 0.019270 1.913040 -0.027540 
#    z 0.006120 -0.027540 1.841180 
# 
# From -- ./inp_files/381648.got.cif
#   From: 2010.05.17/outbox.cif.g08.bks.cpg/sg2_191_cif.got.tgz:381648.got - 2010.06.03 11:33:40.
