data_PCOD9097049
_publ_section_title
;
Structure prediction by ZEFSAII (Michael W. Deem and Ramdas Pophale) SiO2 
 PCOD9097049
Probable space group: P -1
;
_chemical_formula_sum "Si O2"
_cell_formula_units_Z 16
_cell_length_a 8.146000
_cell_length_b 17.333090
_cell_length_c 13.358281
_cell_angle_alpha 154.203580
_cell_angle_beta 80.453497
_cell_angle_gamma 87.294133
_cell_volume 719.562904
_symmetry_space_group_name_H-M "P -1"
_symmetry_group_IT_number 2
_symmetry_cell_setting 'triclinic'
loop_
_space_group_symop_operation_xyz
x,y,z
-x,-y,-z
loop_
_atom_site_type_symbol
_atom_site_label
_atom_site_fract_x
_atom_site_fract_y
_atom_site_fract_z
Si Si1 0.098851 0.557910 0.753126
Si Si2 0.895539 0.083455 0.714254
Si Si3 0.211026 0.538272 0.276729
Si Si4 0.724970 0.886190 0.069978
Si Si5 0.456407 0.847598 0.264225
Si Si6 0.545091 0.788241 0.800551
Si Si7 0.212616 0.840112 0.780537
Si Si8 0.279642 0.806347 0.429384
O O1 0.281914 0.394208 0.486774
O O2 0.994586 0.447449 0.693023
O O3 0.933053 0.710592 0.873110
O O4 0.142766 0.696436 0.988312
O O5 0.706282 0.066670 0.701536
O O6 0.000000 0.000000 0.500000
O O7 0.054259 0.938501 0.603123
O O8 0.219622 0.645403 0.502061
O O9 0.291084 0.628339 0.288096
O O10 0.355721 0.308059 0.988423
O O11 0.606191 0.796866 0.918072
O O12 0.728558 0.042053 0.169068
O O13 0.649756 0.045472 0.354208
O O14 0.372224 0.754999 0.250484
O O15 0.500000 0.000000 0.500000
O O16 0.350477 0.779868 0.791050
O O17 0.500000 0.000000 0.000000
O O18 0.000000 0.000000 0.000000
#
# Coordination Sequence:
#
# PCOD9097049 Si02
#       8
#     2   2   2   2   2   2   2   2
#     4  11  21  38  60  86 117 156 197 240 290 347
#     4   9  19  38  58  80 112 149 191 239 287 341
#     4  11  21  36  59  86 117 153 192 240 292 343
#     4   9  19  37  58  81 116 156 193 239 291 343
#     4  11  21  38  60  86 116 153 193 239 291 348
#     4  10  20  36  59  85 115 155 194 240 292 344
#     4  10  21  39  59  86 118 151 194 247 294 344
#     4   9  20  38  58  84 119 153 192 242 290 342
#
# _framework density 22.235720000000001
#
# number of rings (size 3 to 8) (size 9 to 14) (size 15 to 20)
#    0.000    2.000    0.000    5.250    0.000    0.000 
#    0.000   23.125    0.000    0.000    0.000    0.000 
#    0.000    0.000    0.000    0.000    0.000    0.000 
#
# Total GULP energy -89166.576387 kJ/mol
# GULP energy per Si atom -5572.911024 kJ/mol
# Density = 2.218511 g / cm^3
# Si number density = 22.235720 Si / 1000 Ang^3
#
#
#
# Elastic Constant Matrix: (Units=GPa)
#
#
# Indices 1 2 3 4 5 6 
#
# 1 137.7521 16.1877 66.7033 -17.1863 5.6441 -26.4249
# 2 16.1877 52.3662 26.9791 -4.8102 6.0228 -11.7373
# 3 66.7033 26.9791 147.4785 -11.7954 -0.1937 -22.0032
# 4 -17.1863 -4.8102 -11.7954 29.7212 3.9543 8.8579
# 5 5.6441 6.0228 -0.1937 3.9543 39.6160 -1.7019
# 6 -26.4249 -11.7373 -22.0032 8.8579 -1.7019 26.5236
#
#
#
# Elastic Compliance Matrix: (Units=1/GPa)
#
#
# Indices 1 2 3 4 5 6 
#
# 1 0.010729 0.000575 -0.003711 0.003033 -0.001647 0.006747
# 2 0.000575 0.022718 -0.003239 0.000960 -0.003329 0.007405
# 3 -0.003711 -0.003239 0.009475 0.000109 0.001176 0.002769
# 4 0.003033 0.000960 0.000109 0.039193 -0.004914 -0.009868
# 5 -0.001647 -0.003329 0.001176 -0.004914 0.026531 0.001204
# 6 0.006747 0.007405 0.002769 -0.009868 0.001204 0.053370
#
#
# Mechanical properties :
#
#
# Convention : Reuss Voigt Hill
#
# Bulk Modulus (GPa) = 33.14216 61.92633 47.53425
# Shear Modulus (GPa) = 27.05301 34.35395 30.70348
#
# Velocity S-wave (km/s) = 3.49183 3.93490 3.71997
# Velocity P-wave (km/s) = 5.58520 6.96814 6.31464
#
# Compressibility (1/GPa) = 0.03017305
#
# Stress axis : x y z
#
# Youngs Moduli (GPa) = 93.20773 44.01785 105.54206
#
# Poissons Ratio (x) = -0.02533 0.39165
# Poissons Ratio (y) = -0.05364 0.34185
# Poissons Ratio (z) = 0.34588 0.14257
#
# Static dielectric constant tensor:
#      x y z
#    x 1.899390 0.020330 0.020110 
#    y 0.020330 1.902150 0.025150 
#    z 0.020110 0.025150 1.810880 
# 
# From -- ./inp_files/215740.got.cif
#   From: 2010.05.17/outbox.cif.g08.bks.cpg/sg2_108_cif.got.tgz:215740.got - 2010.06.03 11:33:40.
