data_PCOD9097434
_publ_section_title
;
Structure prediction by ZEFSAII (Michael W. Deem and Ramdas Pophale) SiO2 
 PCOD9097434
Probable space group: P -1
;
_chemical_formula_sum "Si O2"
_cell_formula_units_Z 16
_cell_length_a 7.816644
_cell_length_b 5.434226
_cell_length_c 22.287610
_cell_angle_alpha 126.064254
_cell_angle_beta 58.331730
_cell_angle_gamma 101.893942
_cell_volume 644.002789
_symmetry_space_group_name_H-M "P -1"
_symmetry_group_IT_number 2
_symmetry_cell_setting 'triclinic'
loop_
_space_group_symop_operation_xyz
x,y,z
-x,-y,-z
loop_
_atom_site_type_symbol
_atom_site_label
_atom_site_fract_x
_atom_site_fract_y
_atom_site_fract_z
Si Si1 0.467324 0.443331 0.643128
Si Si2 0.313916 0.791503 0.884492
Si Si3 0.002488 0.387558 0.678572
Si Si4 0.609657 0.861042 0.263910
Si Si5 0.987067 0.020787 0.287057
Si Si6 0.131426 0.762769 0.531951
Si Si7 0.034771 0.848524 0.056584
Si Si8 0.413037 0.855435 0.055655
O O1 0.238081 0.417610 0.657848
O O2 0.492585 0.267627 0.676760
O O3 0.645583 0.295378 0.545107
O O4 0.488574 0.805838 0.693124
O O5 0.366183 0.426759 0.826209
O O6 0.507156 0.959166 0.878312
O O7 0.173905 0.916650 0.984565
O O8 0.170716 0.909131 0.871596
O O9 0.902710 0.713110 0.720480
O O10 0.897751 0.269954 0.740166
O O11 0.017147 0.108387 0.588497
O O12 0.833490 0.904745 0.252379
O O13 0.858280 0.203385 0.392530
O O14 0.000000 0.500000 0.500000
O O15 0.173466 0.871760 0.091934
O O16 0.000000 0.500000 0.000000
O O17 0.500000 0.500000 0.000000
O O18 0.500000 0.000000 0.000000
#
# Coordination Sequence:
#
# PCOD9097434 Si02
#       8
#     2   2   2   2   2   2   2   2
#     4  10  21  36  57  81 107 150 202 237 286 360
#     4  10  22  38  62  91 125 163 202 252 306 364
#     4   8  17  32  53  75 101 135 188 236 276 333
#     4  10  22  37  59  81 113 155 197 238 296 362
#     4   8  18  33  53  78 102 141 188 233 278 342
#     4  10  21  34  56  83 111 145 192 250 298 336
#     4  10  20  37  64  94 120 157 210 250 297 361
#     4  10  20  36  60  92 122 152 195 251 297 351
#
# _framework density 24.844612000000001
#
# number of rings (size 3 to 8) (size 9 to 14) (size 15 to 20)
#    0.750    1.750    1.250    0.375    3.500    1.500 
#    0.000    1.250    2.750    0.000    0.000    0.000 
#    0.000    0.000    0.000    0.000    0.000    0.000 
#
# Total GULP energy -89365.388493 kJ/mol
# GULP energy per Si atom -5585.336781 kJ/mol
# Density = 2.478806 g / cm^3
# Si number density = 24.844612 Si / 1000 Ang^3
#
#
#
# Elastic Constant Matrix: (Units=GPa)
#
#
# Indices 1 2 3 4 5 6 
#
# 1 110.6366 40.7179 34.8525 11.2661 1.7432 15.9724
# 2 40.7179 192.0560 31.2231 34.4637 -8.4679 -11.6202
# 3 34.8525 31.2231 74.7419 8.4041 -5.5136 13.2822
# 4 11.2661 34.4637 8.4041 46.2154 14.7253 10.2860
# 5 1.7432 -8.4679 -5.5136 14.7253 24.9359 7.6147
# 6 15.9724 -11.6202 13.2822 10.2860 7.6147 28.8509
#
#
#
# Elastic Compliance Matrix: (Units=1/GPa)
#
#
# Indices 1 2 3 4 5 6 
#
# 1 0.011919 -0.002671 -0.003656 0.001642 -0.001642 -0.006143
# 2 -0.002671 0.008353 -0.002233 -0.008523 0.005266 0.007520
# 3 -0.003656 -0.002233 0.018162 -0.000960 0.006728 -0.008670
# 4 0.001642 -0.008523 -0.000960 0.037234 -0.021714 -0.011444
# 5 -0.001642 0.005266 0.006728 -0.021714 0.058704 -0.007819
# 6 -0.006143 0.007520 -0.008670 -0.011444 -0.007819 0.051226
#
#
# Mechanical properties :
#
#
# Convention : Reuss Voigt Hill
#
# Bulk Modulus (GPa) = 46.92017 65.66907 56.29462
# Shear Modulus (GPa) = 23.82957 38.04319 30.93638
#
# Velocity S-wave (km/s) = 3.10037 3.91736 3.53256
# Velocity P-wave (km/s) = 5.63408 6.85202 6.27268
#
# Compressibility (1/GPa) = 0.02131280
#
# Stress axis : x y z
#
# Youngs Moduli (GPa) = 83.89939 119.71887 55.05972
#
# Poissons Ratio (x) = 0.31981 0.20130
# Poissons Ratio (y) = 0.22412 0.12296
# Poissons Ratio (z) = 0.30674 0.26736
#
# Static dielectric constant tensor:
#      x y z
#    x 2.020320 -0.043630 0.026220 
#    y -0.043630 2.030580 -0.039270 
#    z 0.026220 -0.039270 1.962400 
# 
# From -- ./inp_files/142024.got.cif
#   From: 2010.05.17/outbox.cif.g08.bks.cpg/sg2_72_cif.got.tgz:142024.got - 2010.06.03 11:33:40.
