data_PCOD9097241
_publ_section_title
;
Structure prediction by ZEFSAII (Michael W. Deem and Ramdas Pophale) SiO2 
 PCOD9097241
Probable space group: P -1
;
_chemical_formula_sum "Si O2"
_cell_formula_units_Z 16
_cell_length_a 8.665852
_cell_length_b 18.720466
_cell_length_c 11.738978
_cell_angle_alpha 126.962184
_cell_angle_beta 62.267991
_cell_angle_gamma 155.173816
_cell_volume 620.291564
_symmetry_space_group_name_H-M "P -1"
_symmetry_group_IT_number 2
_symmetry_cell_setting 'triclinic'
loop_
_space_group_symop_operation_xyz
x,y,z
-x,-y,-z
loop_
_atom_site_type_symbol
_atom_site_label
_atom_site_fract_x
_atom_site_fract_y
_atom_site_fract_z
Si Si1 0.519614 0.471954 0.232175
Si Si2 0.535383 0.650461 0.301817
Si Si3 0.657819 0.834253 0.637876
Si Si4 0.817455 0.299155 0.933386
Si Si5 0.654852 0.788923 0.857901
Si Si6 0.842248 0.205652 0.513088
Si Si7 0.375154 0.983733 0.249695
Si Si8 0.466481 0.761332 0.266689
O O1 0.319629 0.461435 0.225693
O O2 0.307013 0.294067 0.191264
O O3 0.793591 0.549346 0.118576
O O4 0.767355 0.633913 0.402154
O O5 0.465381 0.691403 0.464518
O O6 0.429798 0.643634 0.209837
O O7 0.982428 0.827290 0.304388
O O8 0.620995 0.780138 0.725634
O O9 0.578501 0.904923 0.732474
O O10 0.102043 0.023966 0.640068
O O11 0.689131 0.148057 0.892576
O O12 0.577267 0.224529 0.833333
O O13 0.726377 0.340188 0.085051
O O14 0.000000 0.000000 0.000000
O O15 0.795956 0.290767 0.624473
O O16 0.500000 0.000000 0.500000
O O17 0.738034 0.140982 0.357859
#
# Coordination Sequence:
#
# PCOD9097241 Si02
#       8
#     2   2   2   2   2   2   2   2
#     4  10  23  38  64  91 115 155 208 249 290 348
#     4  10  18  33  59  98 121 142 196 255 307 343
#     4  11  20  34  60  90 127 156 188 241 308 365
#     4  10  21  39  65  86 117 161 209 242 283 349
#     4  12  26  43  59  81 124 172 202 236 293 355
#     4  11  15  31  61  96 115 141 189 249 308 338
#     4  10  18  32  63  94 119 151 196 248 299 352
#     4  10  16  30  61  92 116 150 190 248 292 349
#
# _framework density 25.794319999999999
#
# number of rings (size 3 to 8) (size 9 to 14) (size 15 to 20)
#    0.000    1.500    7.500    1.125    0.000    1.000 
#    0.000    1.250   11.000    0.000    0.000    0.000 
#    0.000    0.000    0.000    0.000    0.000    0.000 
#
# Total GULP energy -89382.297033 kJ/mol
# GULP energy per Si atom -5586.393565 kJ/mol
# Density = 2.573561 g / cm^3
# Si number density = 25.794320 Si / 1000 Ang^3
#
#
#
# Elastic Constant Matrix: (Units=GPa)
#
#
# Indices 1 2 3 4 5 6 
#
# 1 144.5762 49.5317 30.1492 3.5127 -30.4060 -39.3008
# 2 49.5317 58.5766 28.2176 6.8406 -7.6188 -25.6196
# 3 30.1492 28.2176 68.8678 -1.6842 -7.9477 -5.3682
# 4 3.5127 6.8406 -1.6842 33.4389 -0.3634 -9.6672
# 5 -30.4060 -7.6188 -7.9477 -0.3634 31.5773 16.8395
# 6 -39.3008 -25.6196 -5.3682 -9.6672 16.8395 56.6373
#
#
#
# Elastic Compliance Matrix: (Units=1/GPa)
#
#
# Indices 1 2 3 4 5 6 
#
# 1 0.012193 -0.007761 -0.000977 0.001096 0.008253 0.002591
# 2 -0.007761 0.032185 -0.009974 -0.003500 -0.007520 0.009866
# 3 -0.000977 -0.009974 0.019188 0.001952 0.003714 -0.004142
# 4 0.001096 -0.003500 0.001952 0.032141 -0.001798 0.005383
# 5 0.008253 -0.007520 0.003714 -0.001798 0.044508 -0.010863
# 6 0.002591 0.009866 -0.004142 0.005383 -0.010863 0.027673
#
#
# Mechanical properties :
#
#
# Convention : Reuss Voigt Hill
#
# Bulk Modulus (GPa) = 38.25175 54.20196 46.22685
# Shear Modulus (GPa) = 23.36173 35.27217 29.31695
#
# Velocity S-wave (km/s) = 3.01274 3.70190 3.37496
# Velocity P-wave (km/s) = 5.19267 6.27143 5.75737
#
# Compressibility (1/GPa) = 0.02614259
#
# Stress axis : x y z
#
# Youngs Moduli (GPa) = 82.01657 31.07045 52.11507
#
# Poissons Ratio (x) = 0.24114 0.05089
# Poissons Ratio (y) = 0.63654 0.51980
# Poissons Ratio (z) = 0.08009 0.30990
#
# Static dielectric constant tensor:
#      x y z
#    x 2.031280 0.003400 0.015030 
#    y 0.003400 2.208560 0.069960 
#    z 0.015030 0.069960 2.059610 
# 
# From -- ./inp_files/382410.got.cif
#   From: 2010.05.17/outbox.cif.g08.bks.cpg/sg2_192_cif.got.tgz:382410.got - 2010.06.03 11:33:40.
