data_PCOD9097388
_publ_section_title
;
Structure prediction by ZEFSAII (Michael W. Deem and Ramdas Pophale) SiO2 
 PCOD9097388
Probable space group: P -1
;
_chemical_formula_sum "Si O2"
_cell_formula_units_Z 13
_cell_length_a 5.350666
_cell_length_b 19.390822
_cell_length_c 5.490908
_cell_angle_alpha 78.021303
_cell_angle_beta 98.009290
_cell_angle_gamma 66.184143
_cell_volume 493.739389
_symmetry_space_group_name_H-M "P -1"
_symmetry_group_IT_number 2
_symmetry_cell_setting 'triclinic'
loop_
_space_group_symop_operation_xyz
x,y,z
-x,-y,-z
loop_
_atom_site_type_symbol
_atom_site_label
_atom_site_fract_x
_atom_site_fract_y
_atom_site_fract_z
Si Si1 0.601792 0.432565 0.758317
Si Si2 0.242790 0.910376 0.580190
Si Si3 0.907961 0.734156 0.108520
Si Si4 0.971596 0.218273 0.411385
Si Si5 0.379540 0.357327 0.129007
Si Si6 0.000000 0.500000 0.000000
Si Si7 0.339758 0.947623 0.070457
O O1 0.500000 0.500000 0.500000
O O2 0.783916 0.341637 0.778238
O O3 0.824682 0.451647 0.920243
O O4 0.349989 0.431625 0.895512
O O5 0.118772 0.851314 0.523916
O O6 0.431765 0.912251 0.378552
O O7 0.373370 0.892689 0.881418
O O8 0.000000 0.000000 0.500000
O O9 0.860936 0.773244 0.338258
O O10 0.913383 0.786840 0.842567
O O11 0.705772 0.698257 0.005218
O O12 0.688780 0.301505 0.300741
O O13 0.191147 0.415979 0.268256
O O14 0.500000 0.000000 0.000000
O O15 0.000000 0.000000 0.000000
#
# Coordination Sequence:
#
# PCOD9097388 Si02
#       7
#     2   2   2   2   2   1   2
#     4  10  21  36  61  91 129 166 222 270 332 396
#     4  10  22  43  69 101 134 179 231 291 348 421
#     4  10  24  41  65  93 132 176 220 277 336 408
#     4  11  23  46  66  93 138 174 227 274 346 405
#     4  10  23  40  61  97 130 174 221 276 337 403
#     4  10  20  36  60  90 120 168 214 268 328 390
#     4  10  21  42  69 102 142 177 232 290 357 424
#
# _framework density 26.329684
#
# number of rings (size 3 to 8) (size 9 to 14) (size 15 to 20)
#    0.000    1.846    0.000    2.769    0.000   11.077 
#   16.615    0.000    0.000    0.000    0.000    0.000 
#    0.000    0.000    0.000    0.000    0.000    0.000 
#
# Total GULP energy -72499.176243 kJ/mol
# GULP energy per Si atom -5576.859711 kJ/mol
# Density = 2.626976 g / cm^3
# Si number density = 26.329684 Si / 1000 Ang^3
#
#
#
# Elastic Constant Matrix: (Units=GPa)
#
#
# Indices 1 2 3 4 5 6 
#
# 1 87.7686 27.2477 13.6831 -2.8460 -8.6126 13.6598
# 2 27.2477 117.1815 26.0294 7.6609 -19.5231 -2.4530
# 3 13.6831 26.0294 150.8648 1.8671 -6.8945 1.8770
# 4 -2.8460 7.6609 1.8671 48.1376 7.7787 -4.1589
# 5 -8.6126 -19.5231 -6.8945 7.7787 33.2052 -6.2360
# 6 13.6598 -2.4530 1.8770 -4.1589 -6.2360 68.3696
#
#
#
# Elastic Compliance Matrix: (Units=1/GPa)
#
#
# Indices 1 2 3 4 5 6 
#
# 1 0.012873 -0.002820 -0.000621 0.000875 0.000873 -0.002523
# 2 -0.002820 0.010714 -0.001294 -0.002703 0.006192 0.001384
# 3 -0.000621 -0.001294 0.006936 -0.000195 0.000550 -0.000075
# 4 0.000875 -0.002703 -0.000195 0.022364 -0.006549 0.000497
# 5 0.000873 0.006192 0.000550 -0.006549 0.036183 0.002934
# 6 -0.002523 0.001384 -0.000075 0.000497 0.002934 0.015480
#
#
# Mechanical properties :
#
#
# Convention : Reuss Voigt Hill
#
# Bulk Modulus (GPa) = 47.49430 54.41504 50.95467
# Shear Modulus (GPa) = 41.30985 49.19944 45.25465
#
# Velocity S-wave (km/s) = 3.96529 4.32741 4.15030
# Velocity P-wave (km/s) = 6.24837 6.75872 6.50855
#
# Compressibility (1/GPa) = 0.02105516
#
# Stress axis : x y z
#
# Youngs Moduli (GPa) = 77.68492 93.33429 144.16667
#
# Poissons Ratio (x) = 0.26319 0.08946
# Poissons Ratio (y) = 0.21906 0.18649
# Poissons Ratio (z) = 0.04820 0.12074
#
# Static dielectric constant tensor:
#      x y z
#    x 4.419380 -2.205840 -1.511400 
#    y -2.205840 4.016090 1.353420 
#    z -1.511400 1.353420 2.997680 
# 
# From -- ./inp_files/6341.got.cif
#   From: 2010.05.17/outbox.cif.g08.bks.cpg/sg2_4_cif.got.tgz:6341.got - 2010.06.03 11:33:40.
