data_PCOD9097280
_publ_section_title
;
Structure prediction by ZEFSAII (Michael W. Deem and Ramdas Pophale) SiO2 
 PCOD9097280
Probable space group: P -1
;
_chemical_formula_sum "Si O2"
_cell_formula_units_Z 14
_cell_length_a 9.895429
_cell_length_b 10.821665
_cell_length_c 8.876984
_cell_angle_alpha 47.273406
_cell_angle_beta 83.138292
_cell_angle_gamma 95.879303
_cell_volume 671.001677
_symmetry_space_group_name_H-M "P -1"
_symmetry_group_IT_number 2
_symmetry_cell_setting 'triclinic'
loop_
_space_group_symop_operation_xyz
x,y,z
-x,-y,-z
loop_
_atom_site_type_symbol
_atom_site_label
_atom_site_fract_x
_atom_site_fract_y
_atom_site_fract_z
Si Si1 0.303925 0.854463 0.246179
Si Si2 0.122612 0.341906 0.339470
Si Si3 0.628715 0.417641 0.023158
Si Si4 0.821628 0.004716 0.405941
Si Si5 0.826589 0.346796 0.308053
Si Si6 0.969901 0.039018 0.803276
Si Si7 0.595613 0.064743 0.167098
O O1 0.234647 0.679577 0.492813
O O2 0.193245 0.972356 0.184187
O O3 0.451684 0.937008 0.238174
O O4 0.328168 0.851989 0.066149
O O5 0.266885 0.485950 0.201898
O O6 0.995249 0.416381 0.232722
O O7 0.056441 0.236567 0.584989
O O8 0.159438 0.177860 0.382355
O O9 0.500000 0.500000 0.000000
O O10 0.732923 0.431861 0.141338
O O11 0.571071 0.218202 0.148556
O O12 0.809064 0.151387 0.403183
O O13 0.693449 0.974141 0.329686
O O14 0.960958 0.071646 0.228942
O O15 0.000000 0.000000 0.000000
#
# Coordination Sequence:
#
# PCOD9097280 Si02
#       7
#     2   2   2   2   2   2   2
#     4  10  20  36  60  85 112 147 194 238 276 331
#     4   9  20  36  59  84 116 144 187 236 281 338
#     4  11  25  39  56  81 122 156 186 228 290 343
#     4   9  19  33  62  87 110 142 190 240 273 334
#     4  10  21  36  61  83 112 150 196 236 277 326
#     4   9  17  33  61  86 110 141 188 237 281 325
#     4  10  22  37  58  84 118 149 188 234 285 338
#
# _framework density 20.864329999999999
#
# number of rings (size 3 to 8) (size 9 to 14) (size 15 to 20)
#    0.857    1.429    1.429    0.857    4.000    1.143 
#    0.000    3.571    3.143    0.000    0.000    0.000 
#    0.000    0.000    0.000    0.000    0.000    0.000 
#
# Total GULP energy -77980.361970 kJ/mol
# GULP energy per Si atom -5570.025855 kJ/mol
# Density = 2.081684 g / cm^3
# Si number density = 20.864330 Si / 1000 Ang^3
#
#
#
# Elastic Constant Matrix: (Units=GPa)
#
#
# Indices 1 2 3 4 5 6 
#
# 1 153.4394 24.6602 32.0988 6.9022 17.5330 -6.2058
# 2 24.6602 20.7460 1.9107 4.4998 6.2978 -1.6030
# 3 32.0988 1.9107 66.8296 15.9033 6.0217 -2.8136
# 4 6.9022 4.4998 15.9033 21.0856 4.9507 4.8687
# 5 17.5330 6.2978 6.0217 4.9507 30.3876 -0.7057
# 6 -6.2058 -1.6030 -2.8136 4.8687 -0.7057 23.9628
#
#
#
# Elastic Compliance Matrix: (Units=1/GPa)
#
#
# Indices 1 2 3 4 5 6 
#
# 1 0.009393 -0.010559 -0.004725 0.003310 -0.002825 0.000416
# 2 -0.010559 0.065955 0.007907 -0.016425 -0.006334 0.005757
# 3 -0.004725 0.007907 0.021410 -0.017485 -0.000182 0.005366
# 4 0.003310 -0.016425 -0.017485 0.068356 -0.006557 -0.016376
# 5 -0.002825 -0.006334 -0.000182 -0.006557 0.036984 0.001245
# 6 0.000416 0.005757 0.005366 -0.016376 0.001245 0.046218
#
#
# Mechanical properties :
#
#
# Convention : Reuss Voigt Hill
#
# Bulk Modulus (GPa) = 12.19439 39.81718 26.00578
# Shear Modulus (GPa) = 17.21731 27.24355 22.23043
#
# Velocity S-wave (km/s) = 2.87575 3.61743 3.26770
# Velocity P-wave (km/s) = 4.10900 6.04757 5.16996
#
# Compressibility (1/GPa) = 0.08200494
#
# Stress axis : x y z
#
# Youngs Moduli (GPa) = 106.45741 15.16191 46.70664
#
# Poissons Ratio (x) = 0.16009 0.22071
# Poissons Ratio (y) = 1.12405 -0.36933
# Poissons Ratio (z) = 0.50306 -0.11989
#
# Static dielectric constant tensor:
#      x y z
#    x 1.761730 -0.004570 -0.006450 
#    y -0.004570 1.759950 0.011760 
#    z -0.006450 0.011760 1.797170 
# 
# From -- ./inp_files/174309.got.cif
#   From: 2010.05.17/outbox.cif.g08.bks.cpg/sg2_88_cif.got.tgz:174309.got - 2010.06.03 11:33:40.
