data_PCOD9097169
_publ_section_title
;
Structure prediction by ZEFSAII (Michael W. Deem and Ramdas Pophale) SiO2 
 PCOD9097169
Probable space group: P -1
;
_chemical_formula_sum "Si O2"
_cell_formula_units_Z 16
_cell_length_a 21.796110
_cell_length_b 11.970029
_cell_length_c 11.682804
_cell_angle_alpha 127.699813
_cell_angle_beta 23.670501
_cell_angle_gamma 139.451693
_cell_volume 752.775060
_symmetry_space_group_name_H-M "P -1"
_symmetry_group_IT_number 2
_symmetry_cell_setting 'triclinic'
loop_
_space_group_symop_operation_xyz
x,y,z
-x,-y,-z
loop_
_atom_site_type_symbol
_atom_site_label
_atom_site_fract_x
_atom_site_fract_y
_atom_site_fract_z
Si Si1 0.479047 0.580690 0.269684
Si Si2 0.742264 0.546247 0.650372
Si Si3 0.573895 0.860767 0.980411
Si Si4 0.896199 0.986752 0.323236
Si Si5 0.733880 0.942068 0.180465
Si Si6 0.889375 0.086669 0.765870
Si Si7 0.581651 0.645160 0.551503
Si Si8 0.370691 0.017289 0.370745
O O1 0.290280 0.477472 0.445969
O O2 0.641567 0.627291 0.928223
O O3 0.477968 0.463673 0.297336
O O4 0.543205 0.759736 0.335631
O O5 0.612483 0.345479 0.800012
O O6 0.969719 0.704646 0.385660
O O7 0.494357 0.949181 0.103671
O O8 0.750668 0.897614 0.625850
O O9 0.685272 0.968851 0.973325
O O10 0.117644 0.094236 0.050148
O O11 0.816970 0.811490 0.268467
O O12 0.825700 0.082608 0.433349
O O13 0.684232 0.004083 0.414664
O O14 0.847716 0.078409 0.966457
O O15 0.000000 0.000000 0.500000
O O16 0.500000 0.500000 0.500000
O O17 0.516905 0.770166 0.719443
#
# Coordination Sequence:
#
# PCOD9097169 Si02
#       8
#     2   2   2   2   2   2   2   2
#     4  11  18  34  62  91 119 154 210 262 303 352
#     4  11  21  36  62  93 123 157 207 260 308 363
#     4  12  22  43  64  92 131 165 204 254 319 377
#     4  10  21  38  65  88 121 163 210 253 301 372
#     4  12  21  39  62  95 123 159 213 262 304 365
#     4  12  22  38  65  97 122 161 216 262 303 366
#     4  10  20  36  59  90 118 160 209 251 302 365
#     4  10  25  38  62  89 131 170 196 256 324 366
#
# _framework density 21.254688999999999
#
# number of rings (size 3 to 8) (size 9 to 14) (size 15 to 20)
#    0.750    0.250    6.250    2.250    0.000    0.500 
#    0.000    3.125    0.000    3.750    0.000    0.000 
#    0.000    0.000    0.000    0.000    0.000    0.000 
#
# Total GULP energy -89157.838730 kJ/mol
# GULP energy per Si atom -5572.364921 kJ/mol
# Density = 2.120631 g / cm^3
# Si number density = 21.254689 Si / 1000 Ang^3
#
#
#
# Elastic Constant Matrix: (Units=GPa)
#
#
# Indices 1 2 3 4 5 6 
#
# 1 92.6707 14.2315 4.7543 1.2564 6.8235 4.6310
# 2 14.2315 69.9561 14.0210 -16.1556 -5.7048 -7.8029
# 3 4.7543 14.0210 38.5346 -4.5686 -0.2521 -4.8768
# 4 1.2564 -16.1556 -4.5686 21.6554 0.0130 4.0755
# 5 6.8235 -5.7048 -0.2521 0.0130 31.8061 0.2958
# 6 4.6310 -7.8029 -4.8768 4.0755 0.2958 34.7645
#
#
#
# Elastic Compliance Matrix: (Units=1/GPa)
#
#
# Indices 1 2 3 4 5 6 
#
# 1 0.011728 -0.003392 -0.000850 -0.003000 -0.003111 -0.002065
# 2 -0.003392 0.019663 -0.004796 0.013364 0.004187 0.002590
# 3 -0.000850 -0.004796 0.028380 0.001933 -0.000480 0.002796
# 4 -0.003000 0.013364 0.001933 0.057306 0.003061 -0.003074
# 5 -0.003111 0.004187 -0.000480 0.003061 0.032848 0.000649
# 6 -0.002065 0.002590 0.002796 -0.003074 0.000649 0.030368
#
#
# Mechanical properties :
#
#
# Convention : Reuss Voigt Hill
#
# Bulk Modulus (GPa) = 23.98415 29.68611 26.83513
# Shear Modulus (GPa) = 23.55497 28.85552 26.20525
#
# Velocity S-wave (km/s) = 3.33261 3.68857 3.51510
# Velocity P-wave (km/s) = 5.11049 5.66903 5.39699
#
# Compressibility (1/GPa) = 0.04169419
#
# Stress axis : x y z
#
# Youngs Moduli (GPa) = 85.26300 50.85777 35.23551
#
# Poissons Ratio (x) = 0.17253 0.02995
# Poissons Ratio (y) = 0.28925 0.16900
# Poissons Ratio (z) = 0.07248 0.24392
#
# Static dielectric constant tensor:
#      x y z
#    x 1.865930 -0.001060 0.011060 
#    y -0.001060 1.798350 -0.000890 
#    z 0.011060 -0.000890 1.779120 
# 
# From -- ./inp_files/544170.got.cif
#   From: 2010.05.17/outbox.cif.g08.bks.cpg/sg2_273_cif.got.tgz:544170.got - 2010.06.03 11:33:40.
