data_PCOD9097262
_publ_section_title
;
Structure prediction by ZEFSAII (Michael W. Deem and Ramdas Pophale) SiO2 
 PCOD9097262
Probable space group: P -1
;
_chemical_formula_sum "Si O2"
_cell_formula_units_Z 13
_cell_length_a 18.881054
_cell_length_b 11.311124
_cell_length_c 24.297607
_cell_angle_alpha 160.414728
_cell_angle_beta 159.530189
_cell_angle_gamma 29.805988
_cell_volume 603.348984
_symmetry_space_group_name_H-M "P -1"
_symmetry_group_IT_number 2
_symmetry_cell_setting 'triclinic'
loop_
_space_group_symop_operation_xyz
x,y,z
-x,-y,-z
loop_
_atom_site_type_symbol
_atom_site_label
_atom_site_fract_x
_atom_site_fract_y
_atom_site_fract_z
Si Si1 0.418571 0.633758 0.134018
Si Si2 0.517437 0.415892 0.714130
Si Si3 0.903452 0.619370 0.647661
Si Si4 0.690470 0.742428 0.215904
Si Si5 0.672312 0.242527 0.516289
Si Si6 0.050509 0.594595 0.015722
Si Si7 0.000000 0.000000 0.000000
O O1 0.484176 0.551820 0.207147
O O2 0.589332 0.911008 0.349383
O O3 0.217195 0.829335 0.077865
O O4 0.362377 0.302970 0.906691
O O5 0.321159 0.564973 0.611912
O O6 0.500000 0.000000 0.500000
O O7 0.741180 0.555946 0.915829
O O8 0.093875 0.405413 0.682977
O O9 0.911009 0.763528 0.778174
O O10 0.932858 0.979893 0.790932
O O11 0.707309 0.110684 0.422215
O O12 0.500000 0.500000 0.000000
O O13 0.500000 0.500000 0.500000
O O14 0.875598 0.445531 0.779808
O O15 0.000000 0.500000 0.000000
#
# Coordination Sequence:
#
# PCOD9097262 Si02
#       7
#     2   2   2   2   2   2   1
#     4  10  19  35  62  86 119 161 205 237 291 368
#     4  10  19  36  59  89 120 162 209 232 293 374
#     4  10  20  37  63  88 118 163 206 236 295 369
#     4   9  20  38  60  88 119 157 205 249 298 362
#     4  11  22  38  61  90 121 151 202 262 311 344
#     4  11  22  37  58  93 124 156 201 257 302 344
#     4  10  16  30  62  84 108 152 210 234 270 350
#
# _framework density 21.546402
#
# number of rings (size 3 to 8) (size 9 to 14) (size 15 to 20)
#    0.000    1.846    3.077    4.615    0.000    0.000 
#    0.000   10.000    0.000    0.000    0.000    0.000 
#    0.000    0.000    0.000    0.000    0.000    0.000 
#
# Total GULP energy -72392.598164 kJ/mol
# GULP energy per Si atom -5568.661397 kJ/mol
# Density = 2.149736 g / cm^3
# Si number density = 21.546402 Si / 1000 Ang^3
#
#
#
# Elastic Constant Matrix: (Units=GPa)
#
#
# Indices 1 2 3 4 5 6 
#
# 1 128.6779 64.9169 53.5744 -6.9718 -25.4463 -23.6536
# 2 64.9169 85.2288 69.6654 -16.6715 -9.9269 -19.3844
# 3 53.5744 69.6654 103.9365 -40.9593 -13.1329 -7.1881
# 4 -6.9718 -16.6715 -40.9593 43.5962 1.4295 -0.5754
# 5 -25.4463 -9.9269 -13.1329 1.4295 39.4710 9.4206
# 6 -23.6536 -19.3844 -7.1881 -0.5754 9.4206 30.7206
#
#
#
# Elastic Compliance Matrix: (Units=1/GPa)
#
#
# Indices 1 2 3 4 5 6 
#
# 1 0.014551 -0.008681 -0.001828 -0.002857 0.005871 0.003445
# 2 -0.008681 0.040905 -0.027103 -0.010768 -0.007488 0.014879
# 3 -0.001828 -0.027103 0.038850 0.025481 0.006628 -0.010974
# 4 -0.002857 -0.010768 0.025481 0.042157 0.003169 -0.003214
# 5 0.005871 -0.007488 0.006628 0.003169 0.031281 -0.008187
# 6 0.003445 0.014879 -0.010974 -0.003214 -0.008187 0.044475
#
#
# Mechanical properties :
#
#
# Convention : Reuss Voigt Hill
#
# Bulk Modulus (GPa) = 52.40424 77.12850 64.76637
# Shear Modulus (GPa) = 17.01824 31.40334 24.21079
#
# Velocity S-wave (km/s) = 2.81346 3.82183 3.35574
# Velocity P-wave (km/s) = 5.91003 7.43972 6.71855
#
# Compressibility (1/GPa) = 0.01908242
#
# Stress axis : x y z
#
# Youngs Moduli (GPa) = 68.72328 24.44711 25.74021
#
# Poissons Ratio (x) = 0.21222 0.04704
# Poissons Ratio (y) = 0.59658 0.69764
# Poissons Ratio (z) = 0.12560 0.66259
#
# Static dielectric constant tensor:
#      x y z
#    x 1.813020 0.037220 0.018010 
#    y 0.037220 1.773100 0.024170 
#    z 0.018010 0.024170 1.926980 
# 
# From -- ./inp_files/150691.got.cif
#   From: 2010.05.17/outbox.cif.g08.bks.cpg/sg2_76_cif.got.tgz:150691.got - 2010.06.03 11:33:40.
