data_PCOD9097772
_publ_section_title
;
Structure prediction by ZEFSAII (Michael W. Deem and Ramdas Pophale) SiO2 
 PCOD9097772
Probable space group: P -1
;
_chemical_formula_sum "Si O2"
_cell_formula_units_Z 14
_cell_length_a 8.121150
_cell_length_b 12.089779
_cell_length_c 5.905553
_cell_angle_alpha 104.921741
_cell_angle_beta 97.140180
_cell_angle_gamma 99.689644
_cell_volume 543.658068
_symmetry_space_group_name_H-M "P -1"
_symmetry_group_IT_number 2
_symmetry_cell_setting 'triclinic'
loop_
_space_group_symop_operation_xyz
x,y,z
-x,-y,-z
loop_
_atom_site_type_symbol
_atom_site_label
_atom_site_fract_x
_atom_site_fract_y
_atom_site_fract_z
Si Si1 0.369867 0.939542 0.634425
Si Si2 0.964132 0.233126 0.638407
Si Si3 0.077516 0.047410 0.792495
Si Si4 0.200210 0.574307 0.428937
Si Si5 0.799326 0.682383 0.621572
Si Si6 0.521503 0.621698 0.193509
Si Si7 0.465739 0.740749 0.834401
O O1 0.224125 0.845842 0.433194
O O2 0.448633 0.861505 0.783319
O O3 0.500000 0.000000 0.500000
O O4 0.265717 0.023812 0.789546
O O5 0.931421 0.363865 0.691449
O O6 0.060935 0.183021 0.830971
O O7 0.046211 0.219517 0.394882
O O8 0.000000 0.000000 0.500000
O O9 0.000000 0.000000 0.000000
O O10 0.140459 0.434885 0.357493
O O11 0.376415 0.595619 0.338118
O O12 0.284831 0.648130 0.703471
O O13 0.704800 0.649246 0.347584
O O14 0.641776 0.709637 0.751552
O O15 0.500000 0.500000 0.000000
O O16 0.489946 0.728821 0.097063
#
# Coordination Sequence:
#
# PCOD9097772 Si02
#       7
#     2   2   2   2   2   2   2
#     4  10  22  44  71  93 123 173 230 279 333 401
#     4  10  23  41  62  91 128 165 215 270 337 391
#     4  10  23  47  70  98 135 174 225 289 344 400
#     4  10  20  36  62  86 128 165 209 255 317 401
#     4  11  20  38  59  93 129 167 206 263 327 393
#     4  11  19  36  59  91 124 168 207 257 316 392
#     4  10  20  37  64  89 124 164 214 260 320 393
#
# _framework density 25.751484000000001
#
# number of rings (size 3 to 8) (size 9 to 14) (size 15 to 20)
#    0.000    1.714    2.857    2.143    2.000    0.000 
#   10.286    3.571    0.000    0.000    0.000    0.000 
#    0.000    0.000    0.000    0.000    0.000    0.000 
#
# Total GULP energy -78164.740693 kJ/mol
# GULP energy per Si atom -5583.195764 kJ/mol
# Density = 2.569287 g / cm^3
# Si number density = 25.751484 Si / 1000 Ang^3
#
#
#
# Elastic Constant Matrix: (Units=GPa)
#
#
# Indices 1 2 3 4 5 6 
#
# 1 119.7670 69.5332 25.5666 -14.6815 -11.3208 -3.2245
# 2 69.5332 165.6419 37.7115 -54.8321 -0.4565 -22.3781
# 3 25.5666 37.7115 58.4551 -17.1342 5.8413 -1.1545
# 4 -14.6815 -54.8321 -17.1342 45.2869 3.5914 1.1121
# 5 -11.3208 -0.4565 5.8413 3.5914 29.4815 -20.3905
# 6 -3.2245 -22.3781 -1.1545 1.1121 -20.3905 63.9597
#
#
#
# Elastic Compliance Matrix: (Units=1/GPa)
#
#
# Indices 1 2 3 4 5 6 
#
# 1 0.012702 -0.006097 -0.003809 -0.005245 0.006619 0.000640
# 2 -0.006097 0.014587 -0.002291 0.014746 -0.000444 0.004357
# 3 -0.003809 -0.002291 0.022669 0.005380 -0.009126 -0.003587
# 4 -0.005245 0.014746 0.005380 0.040707 -0.006219 0.002302
# 5 0.006619 -0.000444 -0.009126 -0.006219 0.050166 0.016115
# 6 0.000640 0.004357 -0.003587 0.002302 0.016115 0.022224
#
#
# Mechanical properties :
#
#
# Convention : Reuss Voigt Hill
#
# Bulk Modulus (GPa) = 39.11607 67.72073 53.41840
# Shear Modulus (GPa) = 25.51413 41.81580 33.66496
#
# Velocity S-wave (km/s) = 3.15109 4.03404 3.61959
# Velocity P-wave (km/s) = 5.33497 6.93202 6.18526
#
# Compressibility (1/GPa) = 0.02556494
#
# Stress axis : x y z
#
# Youngs Moduli (GPa) = 78.72756 68.55543 44.11285
#
# Poissons Ratio (x) = 0.41796 0.16801
# Poissons Ratio (y) = 0.47997 0.10107
# Poissons Ratio (z) = 0.29985 0.15707
#
# Static dielectric constant tensor:
#      x y z
#    x 2.063940 0.246080 0.288420 
#    y 0.246080 3.344150 1.633630 
#    z 0.288420 1.633630 4.207330 
# 
# From -- ./inp_files/27912.got.cif
#   From: 2010.05.17/outbox.cif.g08.bks.cpg/sg2_14_cif.got.tgz:27912.got - 2010.06.03 11:33:40.
