data_PCOD9097957
_publ_section_title
;
Structure prediction by ZEFSAII (Michael W. Deem and Ramdas Pophale) SiO2 
 PCOD9097957
Probable space group: P -1
;
_chemical_formula_sum "Si O2"
_cell_formula_units_Z 16
_cell_length_a 8.600708
_cell_length_b 10.903287
_cell_length_c 14.571073
_cell_angle_alpha 136.706198
_cell_angle_beta 93.552081
_cell_angle_gamma 57.455357
_cell_volume 648.897802
_symmetry_space_group_name_H-M "P -1"
_symmetry_group_IT_number 2
_symmetry_cell_setting 'triclinic'
loop_
_space_group_symop_operation_xyz
x,y,z
-x,-y,-z
loop_
_atom_site_type_symbol
_atom_site_label
_atom_site_fract_x
_atom_site_fract_y
_atom_site_fract_z
Si Si1 0.708273 0.578887 0.029960
Si Si2 0.069741 0.087003 0.897683
Si Si3 0.799081 0.766461 0.851826
Si Si4 0.628550 0.056936 0.325206
Si Si5 0.227572 0.579242 0.256751
Si Si6 0.782915 0.996530 0.807120
Si Si7 0.272695 0.930862 0.455668
Si Si8 0.208700 0.255266 0.487571
O O1 0.709695 0.790135 0.158256
O O2 0.446496 0.736761 0.100089
O O3 0.860918 0.366764 0.997619
O O4 0.815011 0.440694 0.860505
O O5 0.261431 0.912212 0.731451
O O6 0.955839 0.989218 0.855872
O O7 0.164640 0.122205 0.004901
O O8 0.042897 0.503565 0.679692
O O9 0.688283 0.670608 0.827001
O O10 0.692469 0.943130 0.854873
O O11 0.693304 0.052161 0.428234
O O12 0.361770 0.259000 0.434446
O O13 0.360510 0.656179 0.296974
O O14 0.997993 0.826402 0.434810
O O15 0.895282 0.793264 0.617701
O O16 0.356855 0.005939 0.425585
#
# Coordination Sequence:
#
# PCOD9097957 Si02
#       8
#     2   2   2   2   2   2   2   2
#     4  11  21  41  65  97 126 165 213 274 325 372
#     4  12  23  42  69  98 128 165 221 274 318 376
#     4  11  24  44  67  90 135 180 211 258 329 388
#     4  11  22  38  65 100 130 161 211 274 327 374
#     4  10  20  36  62  95 126 167 211 263 318 378
#     4  11  26  42  66  94 132 173 220 261 320 390
#     4  10  20  36  64  96 130 162 215 264 322 377
#     4  10  23  42  64  94 130 173 211 265 325 388
#
# _framework density 24.657195000000002
#
# number of rings (size 3 to 8) (size 9 to 14) (size 15 to 20)
#    0.000    1.250    2.500    4.125    3.500    3.500 
#    0.000    0.625    0.000    0.000    0.000    0.000 
#    0.000    0.000    0.000    0.000    0.000    0.000 
#
# Total GULP energy -89447.519174 kJ/mol
# GULP energy per Si atom -5590.469948 kJ/mol
# Density = 2.460107 g / cm^3
# Si number density = 24.657195 Si / 1000 Ang^3
#
#
#
# Elastic Constant Matrix: (Units=GPa)
#
#
# Indices 1 2 3 4 5 6 
#
# 1 84.8351 22.5134 42.3078 1.5024 3.5547 3.6674
# 2 22.5134 95.3978 40.8322 -26.6443 14.0720 2.9881
# 3 42.3078 40.8322 101.7926 -31.8818 10.8549 0.8623
# 4 1.5024 -26.6443 -31.8818 25.9762 1.0313 3.2473
# 5 3.5547 14.0720 10.8549 1.0313 35.8898 -6.1462
# 6 3.6674 2.9881 0.8623 3.2473 -6.1462 22.7524
#
#
#
# Elastic Compliance Matrix: (Units=1/GPa)
#
#
# Indices 1 2 3 4 5 6 
#
# 1 0.022047 -0.007920 -0.016298 -0.030254 0.007481 0.004443
# 2 -0.007920 0.020117 0.005832 0.029806 -0.011244 -0.008878
# 3 -0.016298 0.005832 0.029816 0.045155 -0.012547 -0.009103
# 4 -0.030254 0.029806 0.045155 0.130938 -0.030866 -0.027775
# 5 0.007481 -0.011244 -0.012547 -0.030866 0.038894 0.015658
# 6 0.004443 -0.008878 -0.009103 -0.027775 0.015658 0.052940
#
#
# Mechanical properties :
#
#
# Convention : Reuss Voigt Hill
#
# Bulk Modulus (GPa) = 28.40191 54.81469 41.60830
# Shear Modulus (GPa) = 14.56624 28.68181 21.62403
#
# Velocity S-wave (km/s) = 2.43317 3.41431 2.96461
# Velocity P-wave (km/s) = 4.40880 6.14998 5.35069
#
# Compressibility (1/GPa) = 0.03520890
#
# Stress axis : x y z
#
# Youngs Moduli (GPa) = 45.35708 49.71019 33.53884
#
# Poissons Ratio (x) = 0.39369 0.54660
# Poissons Ratio (y) = 0.35922 -0.19559
# Poissons Ratio (z) = 0.73921 -0.28990
#
# Static dielectric constant tensor:
#      x y z
#    x 2.059910 0.020530 -0.022850 
#    y 0.020530 1.960710 0.058820 
#    z -0.022850 0.058820 1.943430 
# 
# From -- ./inp_files/499518.got.cif
#   From: 2010.05.17/outbox.cif.g08.bks.cpg/sg2_250_cif.got.tgz:499518.got - 2010.06.03 11:33:40.
