data_PCOD9097845
_publ_section_title
;
Structure prediction by ZEFSAII (Michael W. Deem and Ramdas Pophale) SiO2 
 PCOD9097845
Probable space group: P -1
;
_chemical_formula_sum "Si O2"
_cell_formula_units_Z 15
_cell_length_a 12.903455
_cell_length_b 9.548956
_cell_length_c 7.465358
_cell_angle_alpha 96.292930
_cell_angle_beta 118.253450
_cell_angle_gamma 48.303392
_cell_volume 574.779048
_symmetry_space_group_name_H-M "P -1"
_symmetry_group_IT_number 2
_symmetry_cell_setting 'triclinic'
loop_
_space_group_symop_operation_xyz
x,y,z
-x,-y,-z
loop_
_atom_site_type_symbol
_atom_site_label
_atom_site_fract_x
_atom_site_fract_y
_atom_site_fract_z
Si Si1 0.373418 0.821247 0.417512
Si Si2 0.691306 0.128194 0.031058
Si Si3 0.676335 0.847959 0.520642
Si Si4 0.389173 0.231390 0.908815
Si Si5 0.500000 0.500000 0.000000
Si Si6 0.315048 0.579474 0.486181
Si Si7 0.003231 0.166293 0.538162
Si Si8 0.028422 0.568092 0.714576
O O1 0.321257 0.912385 0.187169
O O2 0.285726 0.749560 0.382031
O O3 0.568253 0.624113 0.555688
O O4 0.330298 0.985237 0.533982
O O5 0.510456 0.266620 0.006929
O O6 0.691778 0.295236 0.060452
O O7 0.830016 0.938707 0.231502
O O8 0.658513 0.750947 0.334742
O O9 0.866370 0.675432 0.719068
O O10 0.500000 0.000000 0.500000
O O11 0.219361 0.383108 0.900204
O O12 0.500000 0.000000 0.000000
O O13 0.427822 0.528652 0.739448
O O14 0.145333 0.663790 0.430366
O O15 0.984152 0.263403 0.350450
O O16 0.000000 0.000000 0.500000
O O17 0.000000 0.500000 0.500000
#
# Coordination Sequence:
#
# PCOD9097845 Si02
#       8
#     2   2   2   2   1   2   2   2
#     4  10  22  42  61  94 136 178 215 274 355 409
#     4  11  22  39  63  93 134 171 228 277 337 406
#     4  11  22  42  68  95 134 178 214 274 350 406
#     4  11  24  43  68 100 130 180 235 287 330 407
#     4  10  20  36  62  90 120 170 222 264 324 396
#     4  10  22  39  65  93 132 177 222 281 337 406
#     4  12  23  40  67 101 130 175 232 289 337 398
#     4  10  23  42  69  97 134 174 231 282 339 404
#
# _framework density 26.096985
#
# number of rings (size 3 to 8) (size 9 to 14) (size 15 to 20)
#    0.000    1.333    2.667    4.000    3.733    0.533 
#    0.000    2.000    0.000    0.000    0.000    0.000 
#    0.000    0.000    0.000    0.000    0.000    0.000 
#
# Total GULP energy -83585.303769 kJ/mol
# GULP energy per Si atom -5572.353585 kJ/mol
# Density = 2.603759 g / cm^3
# Si number density = 26.096985 Si / 1000 Ang^3
#
#
#
# Elastic Constant Matrix: (Units=GPa)
#
#
# Indices 1 2 3 4 5 6 
#
# 1 105.6285 41.3139 32.3857 -28.5834 14.9828 -30.2162
# 2 41.3139 117.4092 27.4351 -25.7204 18.5038 -15.2259
# 3 32.3857 27.4351 81.3453 -29.9359 10.6112 -10.1495
# 4 -28.5834 -25.7204 -29.9359 48.4143 -3.3966 14.8336
# 5 14.9828 18.5038 10.6112 -3.3966 30.9305 -12.9966
# 6 -30.2162 -15.2259 -10.1495 14.8336 -12.9966 64.8298
#
#
#
# Elastic Compliance Matrix: (Units=1/GPa)
#
#
# Indices 1 2 3 4 5 6 
#
# 1 0.013723 -0.002554 -0.002389 0.003858 -0.002150 0.004108
# 2 -0.002554 0.011131 -0.000779 0.003744 -0.004975 -0.000552
# 3 -0.002389 -0.000779 0.017119 0.008929 -0.003872 -0.001436
# 4 0.003858 0.003744 0.008929 0.031343 -0.005494 -0.004198
# 5 -0.002150 -0.004975 -0.003872 -0.005494 0.039786 0.006456
# 6 0.004108 -0.000552 -0.001436 -0.004198 0.006456 0.019240
#
#
# Mechanical properties :
#
#
# Convention : Reuss Voigt Hill
#
# Bulk Modulus (GPa) = 32.75687 56.29471 44.52579
# Shear Modulus (GPa) = 32.47532 42.38481 37.43006
#
# Velocity S-wave (km/s) = 3.53144 4.03442 3.79128
# Velocity P-wave (km/s) = 5.40438 6.58181 6.02194
#
# Compressibility (1/GPa) = 0.03052795
#
# Stress axis : x y z
#
# Youngs Moduli (GPa) = 72.87193 89.84293 58.41371
#
# Poissons Ratio (x) = 0.22942 0.13956
# Poissons Ratio (y) = 0.18609 0.04553
# Poissons Ratio (z) = 0.17410 0.07003
#
# Static dielectric constant tensor:
#      x y z
#    x 1.818370 -0.285590 0.001250 
#    y -0.285590 1.942860 -0.042200 
#    z 0.001250 -0.042200 2.105600 
# 
# From -- ./inp_files/303531.got.cif
#   From: 2010.05.17/outbox.cif.g08.bks.cpg/sg2_152_cif.got.tgz:303531.got - 2010.06.03 11:33:40.
