data_PCOD9097410
_publ_section_title
;
Structure prediction by ZEFSAII (Michael W. Deem and Ramdas Pophale) SiO2 
 PCOD9097410
Probable space group: P -1
;
_chemical_formula_sum "Si O2"
_cell_formula_units_Z 16
_cell_length_a 12.466769
_cell_length_b 12.044716
_cell_length_c 15.918428
_cell_angle_alpha 135.869110
_cell_angle_beta 152.987080
_cell_angle_gamma 58.116877
_cell_volume 707.613289
_symmetry_space_group_name_H-M "P -1"
_symmetry_group_IT_number 2
_symmetry_cell_setting 'triclinic'
loop_
_space_group_symop_operation_xyz
x,y,z
-x,-y,-z
loop_
_atom_site_type_symbol
_atom_site_label
_atom_site_fract_x
_atom_site_fract_y
_atom_site_fract_z
Si Si1 0.772350 0.710920 0.874027
Si Si2 0.965975 0.463910 0.152946
Si Si3 0.671213 0.151578 0.399091
Si Si4 0.444777 0.490029 0.215399
Si Si5 0.882137 0.036266 0.635765
Si Si6 0.029806 0.614994 0.703259
Si Si7 0.611568 0.862377 0.067636
Si Si8 0.062620 0.753450 0.630992
O O1 0.824229 0.602069 0.776254
O O2 0.578556 0.805368 0.768537
O O3 0.666834 0.590903 0.816461
O O4 0.035788 0.854448 0.163645
O O5 0.101954 0.670054 0.367089
O O6 0.877137 0.373905 0.131055
O O7 0.737952 0.425998 0.908001
O O8 0.695296 0.093316 0.479368
O O9 0.679012 0.995591 0.262625
O O10 0.735921 0.596234 0.490364
O O11 0.440640 0.339203 0.065216
O O12 0.143552 0.093179 0.795604
O O13 0.854880 0.841539 0.525292
O O14 0.040124 0.436772 0.578572
O O15 0.141842 0.752545 0.783655
O O16 0.336347 0.845560 0.828366
#
# Coordination Sequence:
#
# PCOD9097410 Si02
#       8
#     2   2   2   2   2   2   2   2
#     4  11  23  38  58  91 123 153 195 250 292 346
#     4  12  23  38  62  89 121 156 201 236 297 355
#     4  12  22  34  62  94 117 153 190 248 306 341
#     4  10  22  37  60  89 121 152 193 247 294 350
#     4  11  22  36  62  88 121 152 193 251 298 346
#     4  10  23  40  61  85 121 163 193 240 292 355
#     4  10  20  36  60  91 118 142 193 250 300 344
#     4  10  21  42  60  86 124 156 195 243 298 347
#
# _framework density 22.611219999999999
#
# number of rings (size 3 to 8) (size 9 to 14) (size 15 to 20)
#    0.000    1.250    5.000    2.250    3.500    0.000 
#    2.250    2.500    0.000    1.500    0.000    0.000 
#    0.000    0.000    0.000    0.000    0.000    0.000 
#
# Total GULP energy -89326.228138 kJ/mol
# GULP energy per Si atom -5582.889259 kJ/mol
# Density = 2.255976 g / cm^3
# Si number density = 22.611220 Si / 1000 Ang^3
#
#
#
# Elastic Constant Matrix: (Units=GPa)
#
#
# Indices 1 2 3 4 5 6 
#
# 1 70.0232 33.5698 1.1942 -7.2867 -11.7602 5.5401
# 2 33.5698 78.9628 16.1988 -35.7809 -10.7762 10.3114
# 3 1.1942 16.1988 37.9350 -19.2922 -15.0405 1.0972
# 4 -7.2867 -35.7809 -19.2922 38.8209 7.2448 -11.6250
# 5 -11.7602 -10.7762 -15.0405 7.2448 19.8347 -4.1068
# 6 5.5401 10.3114 1.0972 -11.6250 -4.1068 30.3776
#
#
#
# Elastic Compliance Matrix: (Units=1/GPa)
#
#
# Indices 1 2 3 4 5 6 
#
# 1 0.021138 -0.010931 0.006498 -0.005593 0.013419 -0.000706
# 2 -0.010931 0.028317 0.001523 0.025206 0.001296 0.002148
# 3 0.006498 0.001523 0.053120 0.025273 0.038048 0.011195
# 4 -0.005593 0.025206 0.025273 0.063856 0.009803 0.017313
# 5 0.013419 0.001296 0.038048 0.009803 0.086668 0.011207
# 6 -0.000706 0.002148 0.011195 0.017313 0.011207 0.040055
#
#
# Mechanical properties :
#
#
# Convention : Reuss Voigt Hill
#
# Bulk Modulus (GPa) = 10.33526 32.09407 21.21467
# Shear Modulus (GPa) = 15.09545 26.87051 20.98298
#
# Velocity S-wave (km/s) = 2.58662 3.45102 3.04960
# Velocity P-wave (km/s) = 3.67445 5.48671 4.66935
#
# Compressibility (1/GPa) = 0.09675613
#
# Stress axis : x y z
#
# Youngs Moduli (GPa) = 47.30859 35.31470 18.82514
#
# Poissons Ratio (x) = 0.38601 -0.12233
# Poissons Ratio (y) = 0.51711 -0.02867
# Poissons Ratio (z) = -0.30742 -0.05378
#
# Static dielectric constant tensor:
#      x y z
#    x 1.871700 0.073000 0.000070 
#    y 0.073000 1.939810 0.025000 
#    z 0.000070 0.025000 1.892910 
# 
# From -- ./inp_files/464697.got.cif
#   From: 2010.05.17/outbox.cif.g08.bks.cpg/sg2_233_cif.got.tgz:464697.got - 2010.06.03 11:33:40.
