data_PCOD9097616
_publ_section_title
;
Structure prediction by ZEFSAII (Michael W. Deem and Ramdas Pophale) SiO2 
 PCOD9097616
Probable space group: P -1
;
_chemical_formula_sum "Si O2"
_cell_formula_units_Z 12
_cell_length_a 9.557795
_cell_length_b 12.334563
_cell_length_c 7.916389
_cell_angle_alpha 53.531133
_cell_angle_beta 121.258176
_cell_angle_gamma 78.173936
_cell_volume 426.695059
_symmetry_space_group_name_H-M "P -1"
_symmetry_group_IT_number 2
_symmetry_cell_setting 'triclinic'
loop_
_space_group_symop_operation_xyz
x,y,z
-x,-y,-z
loop_
_atom_site_type_symbol
_atom_site_label
_atom_site_fract_x
_atom_site_fract_y
_atom_site_fract_z
Si Si1 0.768259 0.136600 0.958199
Si Si2 0.546663 0.597794 0.824199
Si Si3 0.268539 0.004313 0.405894
Si Si4 0.018490 0.646095 0.899932
Si Si5 0.860091 0.782319 0.213306
Si Si6 0.691860 0.589055 0.368652
O O1 0.028906 0.052140 0.210545
O O2 0.625815 0.277631 0.568180
O O3 0.594485 0.260251 0.901190
O O4 0.814784 0.949554 0.128005
O O5 0.493906 0.765662 0.742215
O O6 0.500000 0.500000 0.000000
O O7 0.818796 0.409236 0.100666
O O8 0.771925 0.879084 0.563451
O O9 0.264130 0.106351 0.148841
O O10 0.000000 0.500000 0.000000
O O11 0.178354 0.559112 0.250249
O O12 0.749969 0.713859 0.288043
O O13 0.140671 0.575790 0.523418
#
# Coordination Sequence:
#
# PCOD9097616 Si02
#       6
#     2   2   2   2   2   2
#     4  10  20  36  61  90 119 148 192 247 291 340
#     4  10  22  40  61  87 120 157 193 236 294 352
#     4  10  22  39  61  89 118 152 197 246 293 342
#     4  10  23  40  58  83 121 159 195 241 294 350
#     4   9  17  33  56  86 117 145 185 237 290 342
#     4   9  19  34  57  87 117 150 190 237 294 347
#
# _framework density 28.12313
#
# number of rings (size 3 to 8) (size 9 to 14) (size 15 to 20)
#    0.000    2.333    0.000    2.500    0.000   11.333 
#    0.000    3.333    0.000    0.000    0.000    0.000 
#    0.000    0.000    0.000    0.000    0.000    0.000 
#
# Total GULP energy -67321.741430 kJ/mol
# GULP energy per Si atom -5610.145119 kJ/mol
# Density = 2.805912 g / cm^3
# Si number density = 28.123130 Si / 1000 Ang^3
#
#
#
# Elastic Constant Matrix: (Units=GPa)
#
#
# Indices 1 2 3 4 5 6 
#
# 1 132.4044 56.1898 35.1299 -5.5371 -22.8835 -34.8608
# 2 56.1898 158.3235 65.1272 -39.4434 -8.6495 -32.2934
# 3 35.1299 65.1272 187.7246 -12.4277 -20.6482 -16.0521
# 4 -5.5371 -39.4434 -12.4277 44.1363 -1.8667 -6.6113
# 5 -22.8835 -8.6495 -20.6482 -1.8667 58.3557 -4.0039
# 6 -34.8608 -32.2934 -16.0521 -6.6113 -4.0039 63.6054
#
#
#
# Elastic Compliance Matrix: (Units=1/GPa)
#
#
# Indices 1 2 3 4 5 6 
#
# 1 0.010620 -0.002494 -0.000283 -0.000098 0.004016 0.004726
# 2 -0.002494 0.011902 -0.002463 0.010431 0.000604 0.005177
# 3 -0.000283 -0.002463 0.006440 -0.000301 0.001814 0.000303
# 4 -0.000098 0.010431 -0.000301 0.033334 0.003073 0.008824
# 5 0.004016 0.000604 0.001814 0.003073 0.019852 0.004534
# 6 0.004726 0.005177 0.000303 0.008824 0.004534 0.022219
#
#
# Mechanical properties :
#
#
# Convention : Reuss Voigt Hill
#
# Bulk Modulus (GPa) = 54.10531 87.92736 71.01634
# Shear Modulus (GPa) = 41.31994 54.68653 48.00323
#
# Velocity S-wave (km/s) = 3.83724 4.41448 4.13594
# Velocity P-wave (km/s) = 6.23803 7.57077 6.93648
#
# Compressibility (1/GPa) = 0.01848247
#
# Stress axis : x y z
#
# Youngs Moduli (GPa) = 94.15948 84.01961 155.28516
#
# Poissons Ratio (x) = 0.20955 0.04393
# Poissons Ratio (y) = 0.23484 0.38244
# Poissons Ratio (z) = 0.02664 0.20693
#
# Static dielectric constant tensor:
#      x y z
#    x 2.142680 0.085890 0.035800 
#    y 0.085890 2.244220 0.042690 
#    z 0.035800 0.042690 2.094040 
# 
# From -- ./inp_files/383925.got.cif
#   From: 2010.05.17/outbox.cif.g08.bks.cpg/sg2_192_cif.got.tgz:383925.got - 2010.06.03 11:33:40.
