data_PCOD9097992
_publ_section_title
;
Structure prediction by ZEFSAII (Michael W. Deem and Ramdas Pophale) SiO2 
 PCOD9097992
Probable space group: P -1
;
_chemical_formula_sum "Si O2"
_cell_formula_units_Z 10
_cell_length_a 8.394251
_cell_length_b 9.211502
_cell_length_c 10.816843
_cell_angle_alpha 38.125035
_cell_angle_beta 116.495073
_cell_angle_gamma 131.510082
_cell_volume 381.526226
_symmetry_space_group_name_H-M "P -1"
_symmetry_group_IT_number 2
_symmetry_cell_setting 'triclinic'
loop_
_space_group_symop_operation_xyz
x,y,z
-x,-y,-z
loop_
_atom_site_type_symbol
_atom_site_label
_atom_site_fract_x
_atom_site_fract_y
_atom_site_fract_z
Si Si1 0.103712 0.351748 0.419462
Si Si2 0.648133 0.895636 0.658601
Si Si3 0.738048 0.482200 0.916630
Si Si4 0.180981 0.932153 0.121563
Si Si5 0.785306 0.033376 0.164352
O O1 0.191781 0.447683 0.248678
O O2 0.100316 0.601481 0.316111
O O3 0.859540 0.079608 0.522880
O O4 0.234939 0.242104 0.604985
O O5 0.710894 0.959017 0.781086
O O6 0.500000 0.000000 0.500000
O O7 0.574522 0.571942 0.828102
O O8 0.957245 0.705271 0.920926
O O9 0.685744 0.166900 0.124567
O O10 0.297049 0.028489 0.962858
O O11 0.000000 0.000000 0.000000
#
# Coordination Sequence:
#
# PCOD9097992 Si02
#       5
#     2   2   2   2   2
#     4  10  20  36  63  83 108 154 197 223 271 344
#     4  11  22  37  57  88 122 143 176 245 297 318
#     4   9  18  34  59  83 109 150 195 226 266 343
#     4  11  20  35  61  85 111 148 198 229 270 337
#     4   9  17  32  58  82 107 141 201 226 261 321
#
# _framework density 26.210516999999999
#
# number of rings (size 3 to 8) (size 9 to 14) (size 15 to 20)
#    0.000    2.000    4.000    3.000    0.000    0.000 
#    0.000    5.000    0.000    6.000    0.000    0.000 
#    0.000    0.000    0.000    0.000    0.000    0.000 
#
# Total GULP energy -55982.898857 kJ/mol
# GULP energy per Si atom -5598.289886 kJ/mol
# Density = 2.615086 g / cm^3
# Si number density = 26.210517 Si / 1000 Ang^3
#
#
#
# Elastic Constant Matrix: (Units=GPa)
#
#
# Indices 1 2 3 4 5 6 
#
# 1 89.8516 30.3465 51.9739 -5.4244 32.6036 -16.0612
# 2 30.3465 132.1362 72.7545 -2.9590 34.9922 -41.1848
# 3 51.9739 72.7545 213.1691 -6.2922 61.5096 -20.6878
# 4 -5.4244 -2.9590 -6.2922 61.2139 -13.8369 12.1585
# 5 32.6036 34.9922 61.5096 -13.8369 72.4210 -11.3172
# 6 -16.0612 -41.1848 -20.6878 12.1585 -11.3172 42.2450
#
#
#
# Elastic Compliance Matrix: (Units=1/GPa)
#
#
# Indices 1 2 3 4 5 6 
#
# 1 0.014445 0.000007 -0.001916 -0.000626 -0.004444 0.003550
# 2 0.000007 0.013404 -0.002689 -0.002606 -0.002859 0.011737
# 3 -0.001916 -0.002689 0.007175 -0.000327 -0.004127 -0.000848
# 4 -0.000626 -0.002606 -0.000327 0.018495 0.004238 -0.007126
# 5 -0.004444 -0.002859 -0.004127 0.004238 0.021186 -0.002042
# 6 0.003550 0.011737 -0.000848 -0.007126 -0.002042 0.037552
#
#
# Mechanical properties :
#
#
# Convention : Reuss Voigt Hill
#
# Bulk Modulus (GPa) = 38.71899 82.81186 60.76543
# Shear Modulus (GPa) = 38.44293 53.84810 46.14551
#
# Velocity S-wave (km/s) = 3.83391 4.53752 4.20047
# Velocity P-wave (km/s) = 5.86539 7.68867 6.83807
#
# Compressibility (1/GPa) = 0.02582712
#
# Stress axis : x y z
#
# Youngs Moduli (GPa) = 69.22991 74.60247 139.37347
#
# Poissons Ratio (x) = -0.00050 0.26701
# Poissons Ratio (y) = -0.00047 0.37482
# Poissons Ratio (z) = 0.13263 0.20063
#
# Static dielectric constant tensor:
#      x y z
#    x 2.173860 0.091930 0.045010 
#    y 0.091930 2.078010 -0.065820 
#    z 0.045010 -0.065820 2.105300 
# 
# From -- ./inp_files/151881.got.cif
#   From: 2010.05.17/outbox.cif.g08.bks.cpg/sg2_76_cif.got.tgz:151881.got - 2010.06.03 11:33:40.
