data_PCOD9097268
_publ_section_title
;
Structure prediction by ZEFSAII (Michael W. Deem and Ramdas Pophale) SiO2 
 PCOD9097268
Probable space group: P -1
;
_chemical_formula_sum "Si O2"
_cell_formula_units_Z 16
_cell_length_a 22.187274
_cell_length_b 8.485918
_cell_length_c 11.274984
_cell_angle_alpha 108.619622
_cell_angle_beta 136.043458
_cell_angle_gamma 39.458792
_cell_volume 790.466168
_symmetry_space_group_name_H-M "P -1"
_symmetry_group_IT_number 2
_symmetry_cell_setting 'triclinic'
loop_
_space_group_symop_operation_xyz
x,y,z
-x,-y,-z
loop_
_atom_site_type_symbol
_atom_site_label
_atom_site_fract_x
_atom_site_fract_y
_atom_site_fract_z
Si Si1 0.166828 0.322199 0.335960
Si Si2 0.465842 0.820313 0.024741
Si Si3 0.826741 0.276902 0.959018
Si Si4 0.503522 0.628416 0.640334
Si Si5 0.297688 0.293470 0.718304
Si Si6 0.639714 0.281550 0.989491
Si Si7 0.967573 0.324772 0.011809
Si Si8 0.120008 0.842517 0.735269
O O1 0.169374 0.444985 0.479032
O O2 0.121986 0.477394 0.185604
O O3 0.340663 0.977667 0.496269
O O4 0.048097 0.358134 0.190966
O O5 0.582308 0.495935 0.063901
O O6 0.355877 0.042700 0.813353
O O7 0.565353 0.829431 0.187570
O O8 0.378524 0.874914 0.023964
O O9 0.650331 0.515910 0.797985
O O10 0.857900 0.395917 0.960795
O O11 0.920636 0.130294 0.180473
O O12 0.896922 0.014847 0.918580
O O13 0.500000 0.500000 0.500000
O O14 0.538689 0.478003 0.777472
O O15 0.247808 0.503601 0.798185
O O16 0.807095 0.088521 0.149978
O O17 0.000000 0.000000 0.500000
#
# Coordination Sequence:
#
# PCOD9097268 Si02
#       8
#     2   2   2   2   2   2   2   2
#     4  11  22  40  62  87 119 155 199 241 296 351
#     4   9  18  35  57  86 109 146 189 231 287 338
#     4  10  22  42  62  86 119 155 202 243 289 351
#     4  11  21  38  61  90 117 151 199 250 289 337
#     4  10  20  36  60  84 119 151 185 238 292 348
#     4   9  19  36  58  81 114 147 190 237 282 344
#     4  10  23  42  62  84 117 162 198 239 294 356
#     4  10  21  38  58  85 116 154 191 236 290 346
#
# _framework density 20.241219000000001
#
# number of rings (size 3 to 8) (size 9 to 14) (size 15 to 20)
#    0.000    2.000    2.500    0.750    1.750    2.500 
#    4.500    1.250    0.000    0.000    0.000    0.000 
#    0.000    0.000    0.000    0.000    0.000    0.000 
#
# Total GULP energy -89262.174103 kJ/mol
# GULP energy per Si atom -5578.885881 kJ/mol
# Density = 2.019515 g / cm^3
# Si number density = 20.241219 Si / 1000 Ang^3
#
#
#
# Elastic Constant Matrix: (Units=GPa)
#
#
# Indices 1 2 3 4 5 6 
#
# 1 160.8417 20.6785 50.1376 7.2228 -0.4604 36.3161
# 2 20.6785 34.3532 8.4178 8.1923 4.9030 2.9587
# 3 50.1376 8.4178 108.0522 9.8212 -2.6855 16.2659
# 4 7.2228 8.1923 9.8212 36.2762 -4.9488 -5.0899
# 5 -0.4604 4.9030 -2.6855 -4.9488 8.5046 -0.9728
# 6 36.3161 2.9587 16.2659 -5.0899 -0.9728 23.1788
#
#
#
# Elastic Compliance Matrix: (Units=1/GPa)
#
#
# Indices 1 2 3 4 5 6 
#
# 1 0.011226 -0.003774 -0.002191 -0.003320 -0.001713 -0.016370
# 2 -0.003774 0.039061 -0.000503 -0.012472 -0.030452 -0.002736
# 3 -0.002191 -0.000503 0.011393 -0.003060 0.001404 -0.005111
# 4 -0.003320 -0.012472 -0.003060 0.038687 0.030698 0.018725
# 5 -0.001713 -0.030452 0.001404 0.030698 0.155509 0.018853
# 6 -0.016370 -0.002736 -0.005111 0.018725 0.018853 0.077630
#
#
# Mechanical properties :
#
#
# Convention : Reuss Voigt Hill
#
# Bulk Modulus (GPa) = 20.51614 51.30165 35.90889
# Shear Modulus (GPa) = 13.78583 28.52613 21.15598
#
# Velocity S-wave (km/s) = 2.61258 3.75815 3.23645
# Velocity P-wave (km/s) = 4.38846 6.65069 5.63428
#
# Compressibility (1/GPa) = 0.04874212
#
# Stress axis : x y z
#
# Youngs Moduli (GPa) = 89.07905 25.60126 87.77147
#
# Poissons Ratio (x) = 0.09663 0.19235
# Poissons Ratio (y) = 0.33621 0.04415
# Poissons Ratio (z) = 0.19521 0.01288
#
# Static dielectric constant tensor:
#      x y z
#    x 1.731300 -0.015250 0.023550 
#    y -0.015250 1.784760 -0.026530 
#    z 0.023550 -0.026530 1.712310 
# 
# From -- ./inp_files/308039.got.cif
#   From: 2010.05.17/outbox.cif.g08.bks.cpg/sg2_155_cif.got.tgz:308039.got - 2010.06.03 11:33:40.
