data_PCOD9097683
_publ_section_title
;
Structure prediction by ZEFSAII (Michael W. Deem and Ramdas Pophale) SiO2 
 PCOD9097683
Probable space group: P -1
;
_chemical_formula_sum "Si O2"
_cell_formula_units_Z 13
_cell_length_a 16.212614
_cell_length_b 11.911947
_cell_length_c 9.286752
_cell_angle_alpha 34.455888
_cell_angle_beta 137.575261
_cell_angle_gamma 151.525692
_cell_volume 483.183810
_symmetry_space_group_name_H-M "P -1"
_symmetry_group_IT_number 2
_symmetry_cell_setting 'triclinic'
loop_
_space_group_symop_operation_xyz
x,y,z
-x,-y,-z
loop_
_atom_site_type_symbol
_atom_site_label
_atom_site_fract_x
_atom_site_fract_y
_atom_site_fract_z
Si Si1 0.806906 0.833312 0.804458
Si Si2 0.713257 0.923580 0.041071
Si Si3 0.427174 0.110561 0.603107
Si Si4 0.262501 0.758300 0.014629
Si Si5 0.087230 0.217744 0.511700
Si Si6 0.500000 0.000000 0.500000
Si Si7 0.005255 0.706299 0.201890
O O1 0.626315 0.720878 0.648675
O O2 0.825535 0.619320 0.066632
O O3 0.955417 0.061930 0.639163
O O4 0.864690 0.001199 0.849487
O O5 0.696198 0.995443 0.102230
O O6 0.580533 0.890358 0.803780
O O7 0.902097 0.209354 0.919399
O O8 0.743578 0.719940 0.293795
O O9 0.584990 0.230050 0.781258
O O10 0.463461 0.062822 0.544100
O O11 0.263447 0.818552 0.784818
O O12 0.119624 0.473012 0.222298
O O13 0.000000 0.000000 0.500000
O O14 0.000000 0.500000 0.500000
#
# Coordination Sequence:
#
# PCOD9097683 Si02
#       7
#     2   2   2   2   2   1   2
#     4  10  21  38  61  94 130 166 216 269 321 391
#     4  10  21  41  64  95 129 171 215 269 330 394
#     4  10  21  42  68  97 132 178 219 275 330 394
#     4  10  23  43  67  96 135 173 223 272 329 395
#     4  11  24  42  66  97 133 176 223 276 328 396
#     4  10  20  42  64  92 136 170 214 272 334 392
#     4  10  20  36  61  93 129 164 212 263 326 386
#
# _framework density 26.904876999999999
#
# number of rings (size 3 to 8) (size 9 to 14) (size 15 to 20)
#    0.000    1.846    1.538    1.846    0.000    4.923 
#    2.769   12.308    0.000    0.000    0.000    0.000 
#    0.000    0.000    0.000    0.000    0.000    0.000 
#
# Total GULP energy -72491.289764 kJ/mol
# GULP energy per Si atom -5576.253059 kJ/mol
# Density = 2.684364 g / cm^3
# Si number density = 26.904877 Si / 1000 Ang^3
#
#
#
# Elastic Constant Matrix: (Units=GPa)
#
#
# Indices 1 2 3 4 5 6 
#
# 1 154.8957 11.2178 62.9065 22.7506 19.8603 -8.0569
# 2 11.2178 25.8292 10.2642 7.6397 3.4917 2.2897
# 3 62.9065 10.2642 193.2647 24.1619 38.7265 -2.5725
# 4 22.7506 7.6397 24.1619 38.3600 4.7844 7.8706
# 5 19.8603 3.4917 38.7265 4.7844 67.2429 20.8302
# 6 -8.0569 2.2897 -2.5725 7.8706 20.8302 38.4650
#
#
#
# Elastic Compliance Matrix: (Units=1/GPa)
#
#
# Indices 1 2 3 4 5 6 
#
# 1 0.008332 -0.001806 -0.001581 -0.004084 -0.002363 0.003862
# 2 -0.001806 0.041887 -0.000797 -0.006435 -0.000272 -0.001461
# 3 -0.001581 -0.000797 0.007077 -0.003488 -0.004325 0.003245
# 4 -0.004084 -0.006435 -0.003488 0.033462 0.004215 -0.009835
# 5 -0.002363 -0.000272 -0.004325 0.004215 0.021964 -0.013524
# 6 0.003862 -0.001461 0.003245 -0.009835 -0.013524 0.036447
#
#
# Mechanical properties :
#
#
# Convention : Reuss Voigt Hill
#
# Bulk Modulus (GPa) = 20.43789 60.30740 40.37264
# Shear Modulus (GPa) = 28.76120 48.12033 38.44076
#
# Velocity S-wave (km/s) = 3.27310 4.23370 3.78400
# Velocity P-wave (km/s) = 4.67943 6.80901 5.84207
#
# Compressibility (1/GPa) = 0.04892874
#
# Stress axis : x y z
#
# Youngs Moduli (GPa) = 120.01295 23.87398 141.30436
#
# Poissons Ratio (x) = 0.04311 0.22337
# Poissons Ratio (y) = 0.21669 0.11265
# Poissons Ratio (z) = 0.18972 0.01903
#
# Static dielectric constant tensor:
#      x y z
#    x 2.076790 0.105650 -0.038530 
#    y 0.105650 2.311620 -0.026300 
#    z -0.038530 -0.026300 2.230910 
# 
# From -- ./inp_files/302207.got.cif
#   From: 2010.05.17/outbox.cif.g08.bks.cpg/sg2_152_cif.got.tgz:302207.got - 2010.06.03 11:33:40.
