data_PCOD9097966
_publ_section_title
;
Structure prediction by ZEFSAII (Michael W. Deem and Ramdas Pophale) SiO2 
 PCOD9097966
Probable space group: P -1
;
_chemical_formula_sum "Si O2"
_cell_formula_units_Z 16
_cell_length_a 14.787842
_cell_length_b 15.164523
_cell_length_c 10.053230
_cell_angle_alpha 126.261359
_cell_angle_beta 63.712262
_cell_angle_gamma 158.281458
_cell_volume 628.281811
_symmetry_space_group_name_H-M "P -1"
_symmetry_group_IT_number 2
_symmetry_cell_setting 'triclinic'
loop_
_space_group_symop_operation_xyz
x,y,z
-x,-y,-z
loop_
_atom_site_type_symbol
_atom_site_label
_atom_site_fract_x
_atom_site_fract_y
_atom_site_fract_z
Si Si1 0.714566 0.168608 0.855382
Si Si2 0.293698 0.196188 0.092327
Si Si3 0.888494 0.321686 0.534500
Si Si4 0.530633 0.657983 0.408926
Si Si5 0.498025 0.233753 0.199045
Si Si6 0.697116 0.548748 0.915659
Si Si7 0.963932 0.231961 0.595010
Si Si8 0.365114 0.747096 0.213474
O O1 0.746952 0.102865 0.667097
O O2 0.553877 0.108924 0.845241
O O3 0.599106 0.981657 0.882791
O O4 0.000000 0.500000 0.000000
O O5 0.434609 0.438298 0.289023
O O6 0.357347 0.150631 0.094188
O O7 0.552555 0.654162 0.017489
O O8 0.978276 0.890954 0.029876
O O9 0.050153 0.379627 0.535586
O O10 0.852905 0.385346 0.716472
O O11 0.000000 0.500000 0.500000
O O12 0.610202 0.997242 0.376610
O O13 0.508187 0.694082 0.599476
O O14 0.378377 0.545442 0.273927
O O15 0.829932 0.980916 0.455872
O O16 0.807317 0.537181 0.242107
O O17 0.743116 0.481722 0.905502
#
# Coordination Sequence:
#
# PCOD9097966 Si02
#       8
#     2   2   2   2   2   2   2   2
#     4  10  22  42  62  97 145 184 240 288 366 433
#     4  12  30  49  75 109 148 194 245 309 374 429
#     4  10  20  36  62  96 136 176 240 284 356 415
#     4  11  26  48  76 103 144 191 250 309 361 433
#     4  11  26  45  75 103 143 196 248 296 366 442
#     4  12  28  49  75 110 150 190 246 304 375 431
#     4  10  23  40  67 102 137 188 244 299 355 436
#     4  10  22  37  63  96 136 186 228 292 352 432
#
# _framework density 25.466279
#
# number of rings (size 3 to 8) (size 9 to 14) (size 15 to 20)
#    0.000    1.250    1.250    2.625   14.000    1.000 
#    0.000    0.000    0.000    0.000    0.000    0.000 
#    0.000    0.000    0.000    0.000    0.000    0.000 
#
# Total GULP energy -89306.371182 kJ/mol
# GULP energy per Si atom -5581.648199 kJ/mol
# Density = 2.540832 g / cm^3
# Si number density = 25.466279 Si / 1000 Ang^3
#
#
#
# Elastic Constant Matrix: (Units=GPa)
#
#
# Indices 1 2 3 4 5 6 
#
# 1 83.9488 36.5703 9.7684 8.3148 8.9676 -26.7187
# 2 36.5703 107.3905 39.9821 8.0939 -9.6540 -15.8198
# 3 9.7684 39.9821 79.6384 10.3814 4.9746 -6.4449
# 4 8.3148 8.0939 10.3814 65.8346 -6.9104 -3.4571
# 5 8.9676 -9.6540 4.9746 -6.9104 49.4572 6.4057
# 6 -26.7187 -15.8198 -6.4449 -3.4571 6.4057 39.5297
#
#
#
# Elastic Compliance Matrix: (Units=1/GPa)
#
#
# Indices 1 2 3 4 5 6 
#
# 1 0.018881 -0.006026 0.002338 -0.002098 -0.006633 0.011623
# 2 -0.006026 0.014241 -0.006789 0.000560 0.004658 -0.000187
# 3 0.002338 -0.006789 0.016395 -0.002360 -0.003984 0.001975
# 4 -0.002098 0.000560 -0.002360 0.016043 0.003056 -0.000671
# 5 -0.006633 0.004658 -0.003984 0.003056 0.024053 -0.006900
# 6 0.011623 -0.000187 0.001975 -0.000671 -0.006900 0.034460
#
#
# Mechanical properties :
#
#
# Convention : Reuss Voigt Hill
#
# Bulk Modulus (GPa) = 35.01225 49.29103 42.15164
# Shear Modulus (GPa) = 32.35241 43.27474 37.81358
#
# Velocity S-wave (km/s) = 3.56814 4.12672 3.85755
# Velocity P-wave (km/s) = 5.54561 6.48875 6.03563
#
# Compressibility (1/GPa) = 0.02856144
#
# Stress axis : x y z
#
# Youngs Moduli (GPa) = 52.96406 70.22182 60.99444
#
# Poissons Ratio (x) = 0.42316 -0.14260
# Poissons Ratio (y) = 0.31916 0.41411
# Poissons Ratio (z) = -0.12382 0.47676
#
# Static dielectric constant tensor:
#      x y z
#    x 2.055530 -0.052110 0.017700 
#    y -0.052110 2.349440 -0.137060 
#    z 0.017700 -0.137060 2.066560 
# 
# From -- ./inp_files/453977.got.cif
#   From: 2010.05.17/outbox.cif.g08.bks.cpg/sg2_227_cif.got.tgz:453977.got - 2010.06.03 11:33:40.
