data_PCOD9097293
_publ_section_title
;
Structure prediction by ZEFSAII (Michael W. Deem and Ramdas Pophale) SiO2 
 PCOD9097293
Probable space group: P -1
;
_chemical_formula_sum "Si O2"
_cell_formula_units_Z 12
_cell_length_a 5.144186
_cell_length_b 13.724022
_cell_length_c 7.799492
_cell_angle_alpha 96.207868
_cell_angle_beta 115.016298
_cell_angle_gamma 64.746181
_cell_volume 449.531939
_symmetry_space_group_name_H-M "P -1"
_symmetry_group_IT_number 2
_symmetry_cell_setting 'triclinic'
loop_
_space_group_symop_operation_xyz
x,y,z
-x,-y,-z
loop_
_atom_site_type_symbol
_atom_site_label
_atom_site_fract_x
_atom_site_fract_y
_atom_site_fract_z
Si Si1 0.764814 0.659157 0.611761
Si Si2 0.742241 0.893063 0.147523
Si Si3 0.629267 0.545267 0.284963
Si Si4 0.283849 0.959512 0.318196
Si Si5 0.965374 0.807785 0.841110
Si Si6 0.640175 0.608179 0.941927
O O1 0.524107 0.630359 0.426617
O O2 0.737260 0.779306 0.642773
O O3 0.778408 0.629443 0.808966
O O4 0.093312 0.571384 0.606845
O O5 0.527183 0.877929 0.232362
O O6 0.874946 0.807626 0.015231
O O7 0.035543 0.914790 0.307507
O O8 0.500000 0.000000 0.000000
O O9 0.376174 0.506008 0.131554
O O10 0.746945 0.593561 0.166646
O O11 0.060332 0.074058 0.184869
O O12 0.500000 0.000000 0.500000
O O13 0.303244 0.712089 0.881302
#
# Coordination Sequence:
#
# PCOD9097293 Si02
#       6
#     2   2   2   2   2   2
#     4  10  20  36  60  85 125 157 211 266 317 393
#     4  10  22  42  67  89 129 173 212 267 338 399
#     4   9  20  38  55  89 117 166 207 255 330 388
#     4  11  24  43  67  94 131 173 218 274 335 400
#     4  10  23  37  57  92 116 162 218 262 324 393
#     4  10  20  36  61  83 124 162 209 263 323 391
#
# _framework density 26.694434000000001
#
# number of rings (size 3 to 8) (size 9 to 14) (size 15 to 20)
#    0.000    2.000    0.000    3.500    7.000    1.333 
#    3.000    0.000    0.000    0.000    0.000    0.000 
#    0.000    0.000    0.000    0.000    0.000    0.000 
#
# Total GULP energy -67000.217075 kJ/mol
# GULP energy per Si atom -5583.351423 kJ/mol
# Density = 2.663368 g / cm^3
# Si number density = 26.694434 Si / 1000 Ang^3
#
#
#
# Elastic Constant Matrix: (Units=GPa)
#
#
# Indices 1 2 3 4 5 6 
#
# 1 89.5939 24.5712 16.4376 6.0985 -0.8524 -10.2165
# 2 24.5712 87.4562 35.5565 30.1793 -3.6612 -4.9002
# 3 16.4376 35.5565 132.7784 26.2542 15.4984 -0.1346
# 4 6.0985 30.1793 26.2542 49.1479 1.3801 0.8167
# 5 -0.8524 -3.6612 15.4984 1.3801 26.5912 -0.0071
# 6 -10.2165 -4.9002 -0.1346 0.8167 -0.0071 38.5113
#
#
#
# Elastic Compliance Matrix: (Units=1/GPa)
#
#
# Indices 1 2 3 4 5 6 
#
# 1 0.012495 -0.003271 -0.000890 0.000874 0.000424 0.002877
# 2 -0.003271 0.016710 -0.002903 -0.008450 0.004327 0.001428
# 3 -0.000890 -0.002903 0.009730 -0.003130 -0.005937 -0.000506
# 4 0.000874 -0.008450 -0.003130 0.027143 -0.000720 -0.001430
# 5 0.000424 0.004327 -0.005937 -0.000720 0.041714 0.000665
# 6 0.002877 0.001428 -0.000506 -0.001430 0.000665 0.026940
#
#
# Mechanical properties :
#
#
# Convention : Reuss Voigt Hill
#
# Bulk Modulus (GPa) = 40.31125 51.43989 45.87557
# Shear Modulus (GPa) = 31.82106 38.40098 35.11102
#
# Velocity S-wave (km/s) = 3.45635 3.79692 3.63063
# Velocity P-wave (km/s) = 5.57335 6.20757 5.89899
#
# Compressibility (1/GPa) = 0.02480697
#
# Stress axis : x y z
#
# Youngs Moduli (GPa) = 80.03518 59.84273 102.77285
#
# Poissons Ratio (x) = 0.19575 0.09150
# Poissons Ratio (y) = 0.26180 0.29832
# Poissons Ratio (z) = 0.07125 0.17371
#
# Static dielectric constant tensor:
#      x y z
#    x 2.191280 0.022880 0.132700 
#    y 0.022880 2.094460 -0.025560 
#    z 0.132700 -0.025560 2.230250 
# 
# From -- ./inp_files/29309.got.cif
#   From: 2010.05.17/outbox.cif.g08.bks.cpg/sg2_15_cif.got.tgz:29309.got - 2010.06.03 11:33:40.
