data_PCOD9097958
_publ_section_title
;
Structure prediction by ZEFSAII (Michael W. Deem and Ramdas Pophale) SiO2 
 PCOD9097958
Probable space group: P -1
;
_chemical_formula_sum "Si O2"
_cell_formula_units_Z 12
_cell_length_a 11.967679
_cell_length_b 8.189957
_cell_length_c 5.192896
_cell_angle_alpha 74.628732
_cell_angle_beta 91.727385
_cell_angle_gamma 63.707937
_cell_volume 433.544832
_symmetry_space_group_name_H-M "P -1"
_symmetry_group_IT_number 2
_symmetry_cell_setting 'triclinic'
loop_
_space_group_symop_operation_xyz
x,y,z
-x,-y,-z
loop_
_atom_site_type_symbol
_atom_site_label
_atom_site_fract_x
_atom_site_fract_y
_atom_site_fract_z
Si Si1 0.867221 0.915320 0.998046
Si Si2 0.473651 0.725364 0.678256
Si Si3 0.012269 0.709524 0.608736
Si Si4 0.360515 0.110713 0.223694
Si Si5 0.297316 0.658355 0.065625
Si Si6 0.177967 0.444190 0.352262
O O1 0.967132 0.841701 0.801885
O O2 0.759809 0.846257 0.978880
O O3 0.787616 0.143025 0.886207
O O4 0.935383 0.843907 0.304515
O O5 0.539748 0.809814 0.855440
O O6 0.581045 0.510896 0.713304
O O7 0.428618 0.887034 0.390368
O O8 0.356988 0.709498 0.803113
O O9 0.947713 0.571534 0.705803
O O10 0.148524 0.573224 0.549935
O O11 0.292206 0.230177 0.430845
O O12 0.210331 0.554388 0.085218
#
# Coordination Sequence:
#
# PCOD9097958 Si02
#       6
#     2   2   2   2   2   2
#     4  11  23  41  65  93 126 162 207 257 309 368
#     4   9  19  39  63  92 126 165 209 255 309 369
#     4  10  23  43  65  91 124 167 210 250 307 376
#     4   9  19  38  64  90 125 168 208 251 307 375
#     4  10  20  36  62  95 127 161 206 261 312 362
#     4   9  20  39  63  91 124 163 208 256 308 368
#
# _framework density 27.678795999999998
#
# number of rings (size 3 to 8) (size 9 to 14) (size 15 to 20)
#    0.000    2.333    0.000    2.000    0.000    8.667 
#    0.000   13.333    0.000    0.000    0.000    0.000 
#    0.000    0.000    0.000    0.000    0.000    0.000 
#
# Total GULP energy -67121.477751 kJ/mol
# GULP energy per Si atom -5593.456479 kJ/mol
# Density = 2.761580 g / cm^3
# Si number density = 27.678796 Si / 1000 Ang^3
#
#
#
# Elastic Constant Matrix: (Units=GPa)
#
#
# Indices 1 2 3 4 5 6 
#
# 1 97.2905 26.8772 43.5780 -3.8815 -23.9407 9.8056
# 2 26.8772 184.5393 72.8135 -15.3409 -12.8297 -37.5090
# 3 43.5780 72.8135 146.5214 12.5794 -6.7120 -11.2816
# 4 -3.8815 -15.3409 12.5794 26.2200 -0.9097 -10.2001
# 5 -23.9407 -12.8297 -6.7120 -0.9097 45.3265 -7.5972
# 6 9.8056 -37.5090 -11.2816 -10.2001 -7.5972 52.9138
#
#
#
# Elastic Compliance Matrix: (Units=1/GPa)
#
#
# Indices 1 2 3 4 5 6 
#
# 1 0.014211 0.000083 -0.004430 0.003795 0.006642 -0.001834
# 2 0.000083 0.010996 -0.005674 0.013086 0.004204 0.009696
# 3 -0.004430 -0.005674 0.011506 -0.010874 -0.003010 -0.003276
# 4 0.003795 0.013086 -0.010874 0.059213 0.008451 0.018882
# 5 0.006642 0.004204 -0.003010 0.008451 0.027607 0.006700
# 6 -0.001834 0.009696 -0.003276 0.018882 0.006700 0.030015
#
#
# Mechanical properties :
#
#
# Convention : Reuss Voigt Hill
#
# Bulk Modulus (GPa) = 59.98696 79.43206 69.70951
# Shear Modulus (GPa) = 27.90997 43.89756 35.90377
#
# Velocity S-wave (km/s) = 3.17890 3.98674 3.60552
# Velocity P-wave (km/s) = 5.93241 7.06769 6.52479
#
# Compressibility (1/GPa) = 0.01667029
#
# Stress axis : x y z
#
# Youngs Moduli (GPa) = 70.36931 90.93888 86.91441
#
# Poissons Ratio (x) = -0.00753 0.38507
# Poissons Ratio (y) = -0.00582 0.49312
# Poissons Ratio (z) = 0.31176 0.51595
#
# Static dielectric constant tensor:
#      x y z
#    x 2.269960 0.023830 0.078670 
#    y 0.023830 2.174790 0.023430 
#    z 0.078670 0.023430 2.166330 
# 
# From -- ./inp_files/87202.got.cif
#   From: 2010.05.17/outbox.cif.g08.bks.cpg/sg2_44_cif.got.tgz:87202.got - 2010.06.03 11:33:40.
