data_PCOD9097722
_publ_section_title
;
Structure prediction by ZEFSAII (Michael W. Deem and Ramdas Pophale) SiO2 
 PCOD9097722
Probable space group: P -1
;
_chemical_formula_sum "Si O2"
_cell_formula_units_Z 16
_cell_length_a 11.197272
_cell_length_b 10.415372
_cell_length_c 10.707332
_cell_angle_alpha 120.208596
_cell_angle_beta 75.751346
_cell_angle_gamma 134.439313
_cell_volume 759.017975
_symmetry_space_group_name_H-M "P -1"
_symmetry_group_IT_number 2
_symmetry_cell_setting 'triclinic'
loop_
_space_group_symop_operation_xyz
x,y,z
-x,-y,-z
loop_
_atom_site_type_symbol
_atom_site_label
_atom_site_fract_x
_atom_site_fract_y
_atom_site_fract_z
Si Si1 0.271265 0.999505 0.319036
Si Si2 0.695724 0.796842 0.841744
Si Si3 0.972805 0.104067 0.265649
Si Si4 0.507778 0.959730 0.334812
Si Si5 0.608900 0.737504 0.108790
Si Si6 0.408310 0.389676 0.600347
Si Si7 0.077621 0.309372 0.617080
Si Si8 0.115014 0.650813 0.659235
O O1 0.316809 0.100170 0.220576
O O2 0.349889 0.173003 0.490515
O O3 0.353617 0.909178 0.277693
O O4 0.071980 0.840405 0.319423
O O5 0.552163 0.550892 0.739806
O O6 0.878783 0.872760 0.817482
O O7 0.660151 0.835100 0.004071
O O8 0.951822 0.236557 0.252745
O O9 0.023418 0.196848 0.439404
O O10 0.790108 0.871432 0.197762
O O11 0.509320 0.785619 0.227176
O O12 0.500000 0.000000 0.500000
O O13 0.688263 0.170122 0.341241
O O14 0.500000 0.500000 0.000000
O O15 0.500000 0.500000 0.500000
O O16 0.247283 0.364226 0.638944
O O17 0.101357 0.506294 0.690918
O O18 0.000000 0.500000 0.500000
#
# Coordination Sequence:
#
# PCOD9097722 Si02
#       8
#     2   2   2   2   2   2   2   2
#     4  11  23  37  63  97 131 174 218 273 328 393
#     4  11  24  40  64  93 138 177 220 268 341 402
#     4  10  21  40  63  93 132 175 219 273 328 393
#     4  11  24  44  68  96 131 170 227 280 330 395
#     4  11  27  44  66  96 133 181 219 275 338 398
#     4  10  20  36  61  98 130 172 213 271 327 388
#     4  11  20  37  64 102 132 166 225 278 328 387
#     4   9  19  33  60  93 128 163 210 275 328 375
#
# _framework density 21.079868999999999
#
# number of rings (size 3 to 8) (size 9 to 14) (size 15 to 20)
#    0.000    1.500    2.500    4.500    5.250    1.500 
#    0.000    0.000    0.000    4.500    0.000    0.000 
#    0.000    0.000    0.000    0.000    0.000    0.000 
#
# Total GULP energy -89395.354434 kJ/mol
# GULP energy per Si atom -5587.209652 kJ/mol
# Density = 2.103189 g / cm^3
# Si number density = 21.079869 Si / 1000 Ang^3
#
#
#
# Elastic Constant Matrix: (Units=GPa)
#
#
# Indices 1 2 3 4 5 6 
#
# 1 119.4362 35.2859 38.1600 -0.5393 -20.5410 15.0464
# 2 35.2859 86.3226 28.9636 11.1319 -8.0902 0.5854
# 3 38.1600 28.9636 90.8351 -4.0301 -9.6331 -9.4129
# 4 -0.5393 11.1319 -4.0301 42.9194 -3.6859 5.3142
# 5 -20.5410 -8.0902 -9.6331 -3.6859 22.8755 -3.2251
# 6 15.0464 0.5854 -9.4129 5.3142 -3.2251 36.7289
#
#
#
# Elastic Compliance Matrix: (Units=1/GPa)
#
#
# Indices 1 2 3 4 5 6 
#
# 1 0.012756 -0.003362 -0.003930 0.002075 0.008132 -0.005765
# 2 -0.003362 0.014635 -0.003325 -0.004247 0.000202 0.000924
# 3 -0.003930 -0.003325 0.014618 0.001734 0.002489 0.005377
# 4 0.002075 -0.004247 0.001734 0.025439 0.004682 -0.003608
# 5 0.008132 0.000202 0.002489 0.004682 0.053072 0.001286
# 6 -0.005765 0.000924 0.005377 -0.003608 0.001286 0.031586
#
#
# Mechanical properties :
#
#
# Convention : Reuss Voigt Hill
#
# Bulk Modulus (GPa) = 48.13532 55.71255 51.92394
# Shear Modulus (GPa) = 27.73698 33.45038 30.59368
#
# Velocity S-wave (km/s) = 3.63134 3.98784 3.81375
# Velocity P-wave (km/s) = 6.36132 6.90583 6.63916
#
# Compressibility (1/GPa) = 0.02077477
#
# Stress axis : x y z
#
# Youngs Moduli (GPa) = 78.39663 68.32983 68.40821
#
# Poissons Ratio (x) = 0.22973 0.26882
# Poissons Ratio (y) = 0.26357 0.22748
# Poissons Ratio (z) = 0.30807 0.22722
#
# Static dielectric constant tensor:
#      x y z
#    x 1.740170 -0.016600 0.029230 
#    y -0.016600 1.771480 0.007830 
#    z 0.029230 0.007830 1.784380 
# 
# From -- ./inp_files/426675.got.cif
#   From: 2010.05.17/outbox.cif.g08.bks.cpg/sg2_214_cif.got.tgz:426675.got - 2010.06.03 11:33:40.
