data_PCOD9097672
_publ_section_title
;
Structure prediction by ZEFSAII (Michael W. Deem and Ramdas Pophale) SiO2 
 PCOD9097672
Probable space group: P -1
;
_chemical_formula_sum "Si O2"
_cell_formula_units_Z 14
_cell_length_a 7.615045
_cell_length_b 10.161773
_cell_length_c 12.197912
_cell_angle_alpha 61.790389
_cell_angle_beta 77.787664
_cell_angle_gamma 47.214409
_cell_volume 601.630140
_symmetry_space_group_name_H-M "P -1"
_symmetry_group_IT_number 2
_symmetry_cell_setting 'triclinic'
loop_
_space_group_symop_operation_xyz
x,y,z
-x,-y,-z
loop_
_atom_site_type_symbol
_atom_site_label
_atom_site_fract_x
_atom_site_fract_y
_atom_site_fract_z
Si Si1 0.080581 0.994276 0.233919
Si Si2 0.648264 0.032565 0.590151
Si Si3 0.439576 0.637346 0.849969
Si Si4 0.202692 0.280287 0.713801
Si Si5 0.467863 0.361422 0.795111
Si Si6 0.192666 0.024504 0.990951
Si Si7 0.290214 0.328188 0.353629
O O1 0.797129 0.125819 0.203200
O O2 0.163102 0.993674 0.343708
O O3 0.274134 0.764097 0.254489
O O4 0.134459 0.097459 0.097236
O O5 0.408011 0.130483 0.656612
O O6 0.536048 0.195963 0.444561
O O7 0.748765 0.823984 0.607956
O O8 0.382946 0.554530 0.791026
O O9 0.664143 0.609626 0.790122
O O10 0.500000 0.500000 0.000000
O O11 0.292404 0.377874 0.728415
O O12 0.187806 0.157504 0.853353
O O13 0.933543 0.469920 0.635433
O O14 0.545642 0.199859 0.943513
O O15 0.000000 0.000000 0.000000
#
# Coordination Sequence:
#
# PCOD9097672 Si02
#       7
#     2   2   2   2   2   2   2
#     4   9  22  39  60  86 125 159 198 247 302 357
#     4  10  24  44  61  87 120 169 206 241 306 352
#     4  12  24  38  62  94 126 157 199 256 310 350
#     4  11  21  41  65  86 123 160 199 257 302 355
#     4   9  22  37  59  91 122 154 201 241 307 368
#     4  10  20  36  61  93 122 150 202 248 301 364
#     4  11  25  39  63  91 121 160 211 249 289 375
#
# _framework density 23.270109999999999
#
# number of rings (size 3 to 8) (size 9 to 14) (size 15 to 20)
#    0.857    0.857    0.000    4.286    4.000    0.571 
#    0.000    5.714    0.000    0.000    0.000    0.000 
#    0.000    0.000    0.000    0.000    0.000    0.000 
#
# Total GULP energy -78135.973861 kJ/mol
# GULP energy per Si atom -5581.140990 kJ/mol
# Density = 2.321715 g / cm^3
# Si number density = 23.270110 Si / 1000 Ang^3
#
#
#
# Elastic Constant Matrix: (Units=GPa)
#
#
# Indices 1 2 3 4 5 6 
#
# 1 45.8289 8.8118 7.0978 -3.5638 11.6912 2.6651
# 2 8.8118 73.0764 2.9543 -4.4835 2.0276 -11.6576
# 3 7.0978 2.9543 82.1451 -3.3057 4.0392 -0.6275
# 4 -3.5638 -4.4835 -3.3057 25.1357 -2.0564 8.3619
# 5 11.6912 2.0276 4.0392 -2.0564 32.1987 6.4716
# 6 2.6651 -11.6576 -0.6275 8.3619 6.4716 34.3645
#
#
#
# Elastic Compliance Matrix: (Units=1/GPa)
#
#
# Indices 1 2 3 4 5 6 
#
# 1 0.025032 -0.002893 -0.001561 0.002872 -0.008100 -0.002125
# 2 -0.002893 0.014947 -0.000186 0.000367 -0.000924 0.005376
# 3 -0.001561 -0.000186 0.012412 0.001250 -0.000930 0.000155
# 4 0.002872 0.000367 0.001250 0.044634 0.003976 -0.011685
# 5 -0.008100 -0.000924 -0.000930 0.003976 0.035921 -0.007435
# 6 -0.002125 0.005376 0.000155 -0.011685 -0.007435 0.035335
#
#
# Mechanical properties :
#
#
# Convention : Reuss Voigt Hill
#
# Bulk Modulus (GPa) = 23.19690 26.53092 24.86391
# Shear Modulus (GPa) = 26.05097 30.48555 28.26826
#
# Velocity S-wave (km/s) = 3.34953 3.62342 3.48916
# Velocity P-wave (km/s) = 4.99493 5.37881 5.19042
#
# Compressibility (1/GPa) = 0.04310921
#
# Stress axis : x y z
#
# Youngs Moduli (GPa) = 39.94930 66.90515 80.56463
#
# Poissons Ratio (x) = 0.19358 0.12578
# Poissons Ratio (y) = 0.11558 0.01501
# Poissons Ratio (z) = 0.06237 0.01246
#
# Static dielectric constant tensor:
#      x y z
#    x 1.902610 -0.017380 0.017840 
#    y -0.017380 1.894030 0.031380 
#    z 0.017840 0.031380 1.909090 
# 
# From -- ./inp_files/389350.got.cif
#   From: 2010.05.17/outbox.cif.g08.bks.cpg/sg2_195_cif.got.tgz:389350.got - 2010.06.03 11:33:40.
