data_PCOD9097192
_publ_section_title
;
Structure prediction by ZEFSAII (Michael W. Deem and Ramdas Pophale) SiO2 
 PCOD9097192
Probable space group: P -1
;
_chemical_formula_sum "Si O2"
_cell_formula_units_Z 14
_cell_length_a 21.475902
_cell_length_b 15.712142
_cell_length_c 9.257074
_cell_angle_alpha 34.342581
_cell_angle_beta 155.653953
_cell_angle_gamma 151.163681
_cell_volume 615.070169
_symmetry_space_group_name_H-M "P -1"
_symmetry_group_IT_number 2
_symmetry_cell_setting 'triclinic'
loop_
_space_group_symop_operation_xyz
x,y,z
-x,-y,-z
loop_
_atom_site_type_symbol
_atom_site_label
_atom_site_fract_x
_atom_site_fract_y
_atom_site_fract_z
Si Si1 0.787733 0.027604 0.306951
Si Si2 0.462679 0.514965 0.233581
Si Si3 0.710047 0.319496 0.771188
Si Si4 0.096115 0.998126 0.921853
Si Si5 0.394014 0.155973 0.535330
Si Si6 0.516186 0.828821 0.778418
Si Si7 0.168125 0.301109 0.423458
O O1 0.954550 0.008167 0.711288
O O2 0.642858 0.919976 0.275698
O O3 0.814381 0.221084 0.093894
O O4 0.709852 0.931738 0.122598
O O5 0.500000 0.500000 0.500000
O O6 0.352874 0.314381 0.225430
O O7 0.644602 0.604606 0.398773
O O8 0.401277 0.653658 0.882282
O O9 0.594177 0.239267 0.785458
O O10 0.555686 0.258902 0.407714
O O11 0.831238 0.531663 0.741775
O O12 0.162280 0.168119 0.718628
O O13 0.253845 0.011544 0.329697
O O14 0.992387 0.820521 0.854935
O O15 0.500000 0.000000 0.500000
#
# Coordination Sequence:
#
# PCOD9097192 Si02
#       7
#     2   2   2   2   2   2   2
#     4  11  22  40  61  93 127 163 198 262 316 369
#     4  11  19  37  63  91 123 159 212 258 300 364
#     4  10  23  40  64  89 124 160 212 255 311 362
#     4  11  22  38  64  86 127 161 212 248 313 372
#     4  11  22  37  66  93 120 161 212 258 305 366
#     4  10  20  36  59  92 121 159 201 252 307 361
#     4  10  22  39  60  90 122 163 207 256 303 368
#
# _framework density 22.761628999999999
#
# number of rings (size 3 to 8) (size 9 to 14) (size 15 to 20)
#    0.000    1.429    2.857    2.571    2.000    2.857 
#    0.000    0.714    0.000    0.000    0.000    0.000 
#    0.000    0.000    0.000    0.000    0.000    0.000 
#
# Total GULP energy -78079.311283 kJ/mol
# GULP energy per Si atom -5577.093663 kJ/mol
# Density = 2.270982 g / cm^3
# Si number density = 22.761629 Si / 1000 Ang^3
#
#
#
# Elastic Constant Matrix: (Units=GPa)
#
#
# Indices 1 2 3 4 5 6 
#
# 1 84.4992 31.1575 -0.3904 -6.4115 -18.1728 3.1776
# 2 31.1575 152.5263 25.1609 -17.9440 1.2427 -35.3023
# 3 -0.3904 25.1609 33.1218 -8.4292 -3.5889 -10.9621
# 4 -6.4115 -17.9440 -8.4292 38.3587 -4.0034 -0.7006
# 5 -18.1728 1.2427 -3.5889 -4.0034 21.7989 -4.5431
# 6 3.1776 -35.3023 -10.9621 -0.7006 -4.5431 42.4938
#
#
#
# Elastic Compliance Matrix: (Units=1/GPa)
#
#
# Indices 1 2 3 4 5 6 
#
# 1 0.017344 -0.004634 0.005744 0.003622 0.015937 -0.001902
# 2 -0.004634 0.010410 -0.005184 0.002749 -0.003273 0.007353
# 3 0.005744 -0.005184 0.040644 0.009171 0.015024 0.007506
# 4 0.003622 0.002749 0.009171 0.031277 0.011390 0.006112
# 5 0.015937 -0.003273 0.015024 0.011390 0.065401 0.007145
# 6 -0.001902 0.007353 0.007506 0.006112 0.007145 0.032584
#
#
# Mechanical properties :
#
#
# Convention : Reuss Voigt Hill
#
# Bulk Modulus (GPa) = 16.59792 42.44482 29.52137
# Shear Modulus (GPa) = 22.13455 34.81156 28.47306
#
# Velocity S-wave (km/s) = 3.12180 3.91499 3.54068
# Velocity P-wave (km/s) = 4.50578 6.25494 5.45098
#
# Compressibility (1/GPa) = 0.06024852
#
# Stress axis : x y z
#
# Youngs Moduli (GPa) = 57.65774 96.06186 24.60410
#
# Poissons Ratio (x) = 0.44518 -0.14133
# Poissons Ratio (y) = 0.26721 0.12755
# Poissons Ratio (z) = -0.33120 0.49801
#
# Static dielectric constant tensor:
#      x y z
#    x 1.946250 -0.042770 0.108460 
#    y -0.042770 1.896010 -0.064190 
#    z 0.108460 -0.064190 1.964750 
# 
# From -- ./inp_files/169466.got.cif
#   From: 2010.05.17/outbox.cif.g08.bks.cpg/sg2_85_cif.got.tgz:169466.got - 2010.06.03 11:33:40.
