data_PCOD9097888
_publ_section_title
;
Structure prediction by ZEFSAII (Michael W. Deem and Ramdas Pophale) SiO2 
 PCOD9097888
Probable space group: P -1
;
_chemical_formula_sum "Si O2"
_cell_formula_units_Z 16
_cell_length_a 12.315983
_cell_length_b 10.031188
_cell_length_c 18.840715
_cell_angle_alpha 147.890686
_cell_angle_beta 142.337381
_cell_angle_gamma 34.380422
_cell_volume 664.599079
_symmetry_space_group_name_H-M "P -1"
_symmetry_group_IT_number 2
_symmetry_cell_setting 'triclinic'
loop_
_space_group_symop_operation_xyz
x,y,z
-x,-y,-z
loop_
_atom_site_type_symbol
_atom_site_label
_atom_site_fract_x
_atom_site_fract_y
_atom_site_fract_z
Si Si1 0.588708 0.047761 0.253011
Si Si2 0.216378 0.104350 0.866921
Si Si3 0.007901 0.788727 0.614163
Si Si4 0.866776 0.476659 0.185082
Si Si5 0.157844 0.629229 0.470673
Si Si6 0.099516 0.877936 0.097852
Si Si7 0.329424 0.035859 0.373978
Si Si8 0.186477 0.354431 0.105624
O O1 0.678154 0.916597 0.162401
O O2 0.657333 0.770958 0.213535
O O3 0.699710 0.234019 0.413712
O O4 0.352737 0.241463 0.202142
O O5 0.976008 0.316068 0.825850
O O6 0.283955 0.240359 0.026927
O O7 0.212091 0.808396 0.746169
O O8 0.831525 0.981764 0.663192
O O9 0.000000 0.500000 0.500000
O O10 0.000400 0.809976 0.534060
O O11 0.956621 0.222629 0.174409
O O12 0.032276 0.590056 0.324202
O O13 0.869232 0.297061 0.037097
O O14 0.282243 0.323813 0.436189
O O15 0.317063 0.828488 0.214553
O O16 0.963519 0.780622 0.027805
O O17 0.500000 0.000000 0.500000
#
# Coordination Sequence:
#
# PCOD9097888 Si02
#       8
#     2   2   2   2   2   2   2   2
#     4  11  22  38  62  93 116 164 208 249 301 366
#     4  10  21  38  60  87 132 156 190 260 310 360
#     4   9  18  36  57  83 116 160 192 242 308 351
#     4  10  21  42  62  81 124 166 208 245 300 358
#     4   9  21  38  60  84 121 164 197 249 306 353
#     4  10  21  41  63  85 122 169 195 255 308 351
#     4  10  20  36  62  92 119 153 202 252 306 366
#     4  11  22  37  63  90 124 158 205 246 312 367
#
# _framework density 24.074665
#
# number of rings (size 3 to 8) (size 9 to 14) (size 15 to 20)
#    0.000    2.000    2.500    0.750    1.750    0.500 
#    6.750    4.375    0.000    0.000    0.000    0.000 
#    0.000    0.000    0.000    0.000    0.000    0.000 
#
# Total GULP energy -89092.389315 kJ/mol
# GULP energy per Si atom -5568.274332 kJ/mol
# Density = 2.401987 g / cm^3
# Si number density = 24.074665 Si / 1000 Ang^3
#
#
#
# Elastic Constant Matrix: (Units=GPa)
#
#
# Indices 1 2 3 4 5 6 
#
# 1 26.8361 -8.6608 0.9050 9.0845 9.7746 6.7319
# 2 -8.6608 93.0281 40.3432 -17.1769 18.6080 17.9951
# 3 0.9050 40.3432 147.3451 -10.4836 -0.4612 8.8560
# 4 9.0845 -17.1769 -10.4836 32.1008 6.8884 1.9508
# 5 9.7746 18.6080 -0.4612 6.8884 27.1900 10.4147
# 6 6.7319 17.9951 8.8560 1.9508 10.4147 18.0361
#
#
#
# Elastic Compliance Matrix: (Units=1/GPa)
#
#
# Indices 1 2 3 4 5 6 
#
# 1 0.056132 0.014297 -0.003311 -0.003516 -0.021068 -0.021044
# 2 0.014297 0.022987 -0.004576 0.011510 -0.017231 -0.017319
# 3 -0.003311 -0.004576 0.008147 0.000181 0.004792 -0.000986
# 4 -0.003516 0.011510 0.000181 0.041929 -0.014850 -0.006220
# 5 -0.021068 -0.017231 0.004792 -0.014850 0.065068 -0.013264
# 6 -0.021044 -0.017319 -0.000986 -0.006220 -0.013264 0.089395
#
#
# Mechanical properties :
#
#
# Convention : Reuss Voigt Hill
#
# Bulk Modulus (GPa) = 9.99125 36.93157 23.46141
# Shear Modulus (GPa) = 16.43661 31.10685 23.77173
#
# Velocity S-wave (km/s) = 2.61575 3.59848 3.14573
# Velocity P-wave (km/s) = 3.64445 5.71307 4.79172
#
# Compressibility (1/GPa) = 0.10008754
#
# Stress axis : x y z
#
# Youngs Moduli (GPa) = 17.81514 43.50336 122.74370
#
# Poissons Ratio (x) = -0.62197 0.40636
# Poissons Ratio (y) = -0.25471 0.56163
# Poissons Ratio (z) = 0.05898 0.19906
#
# Static dielectric constant tensor:
#      x y z
#    x 2.014490 0.021160 -0.127500 
#    y 0.021160 2.084090 0.032170 
#    z -0.127500 0.032170 2.180780 
# 
# From -- ./inp_files/438527.got.cif
#   From: 2010.05.17/outbox.cif.g08.bks.cpg/sg2_220_cif.got.tgz:438527.got - 2010.06.03 11:33:40.
