data_PCOD9097579
_publ_section_title
;
Structure prediction by ZEFSAII (Michael W. Deem and Ramdas Pophale) SiO2 
 PCOD9097579
Probable space group: P -1
;
_chemical_formula_sum "Si O2"
_cell_formula_units_Z 16
_cell_length_a 14.447249
_cell_length_b 8.626155
_cell_length_c 12.503560
_cell_angle_alpha 146.215789
_cell_angle_beta 81.838358
_cell_angle_gamma 114.101691
_cell_volume 728.664574
_symmetry_space_group_name_H-M "P -1"
_symmetry_group_IT_number 2
_symmetry_cell_setting 'triclinic'
loop_
_space_group_symop_operation_xyz
x,y,z
-x,-y,-z
loop_
_atom_site_type_symbol
_atom_site_label
_atom_site_fract_x
_atom_site_fract_y
_atom_site_fract_z
Si Si1 0.525931 0.984055 0.362826
Si Si2 0.122018 0.456085 0.480262
Si Si3 0.270312 0.050036 0.648105
Si Si4 0.701757 0.587043 0.956155
Si Si5 0.311961 0.322456 0.373350
Si Si6 0.070682 0.969968 0.877385
Si Si7 0.371428 0.102219 0.038948
Si Si8 0.378419 0.454415 0.663439
O O1 0.609123 0.857115 0.276308
O O2 0.406731 0.758502 0.205174
O O3 0.500000 0.000000 0.500000
O O4 0.598053 0.327670 0.490987
O O5 0.204304 0.335444 0.426944
O O6 0.105229 0.688205 0.700596
O O7 0.007075 0.148144 0.282709
O O8 0.181656 0.689749 0.499431
O O9 0.291482 0.168795 0.592278
O O10 0.249655 0.277174 0.857278
O O11 0.657917 0.767558 0.987829
O O12 0.814356 0.680032 0.933713
O O13 0.297861 0.084309 0.141933
O O14 0.364436 0.297280 0.459609
O O15 0.000000 0.000000 0.000000
O O16 0.498868 0.361230 0.200414
O O17 0.357856 0.752552 0.823638
#
# Coordination Sequence:
#
# PCOD9097579 Si02
#       8
#     2   2   2   2   2   2   2   2
#     4  11  20  33  57  87 120 150 192 237 288 346
#     4   9  21  39  62  87 112 149 196 249 290 339
#     4  10  21  37  57  85 121 151 191 239 288 347
#     4  11  21  37  59  86 113 155 192 239 294 338
#     4  11  22  39  58  86 124 157 192 234 292 350
#     4  10  20  36  61  89 113 142 195 251 300 336
#     4  11  22  36  54  83 121 161 193 226 284 347
#     4  11  23  36  54  86 126 164 188 227 286 355
#
# _framework density 21.957979000000002
#
# number of rings (size 3 to 8) (size 9 to 14) (size 15 to 20)
#    0.000    1.500    2.500    3.750    5.250    0.000 
#    0.000    0.000    0.000   12.000    0.000   23.625 
#    0.000    0.000    0.000    0.000    0.000    0.000 
#
# Total GULP energy -89158.207374 kJ/mol
# GULP energy per Si atom -5572.387961 kJ/mol
# Density = 2.190800 g / cm^3
# Si number density = 21.957979 Si / 1000 Ang^3
#
#
#
# Elastic Constant Matrix: (Units=GPa)
#
#
# Indices 1 2 3 4 5 6 
#
# 1 105.4639 19.7412 17.5644 10.1783 -3.6828 21.1187
# 2 19.7412 71.7227 0.1448 -19.1845 -5.1226 -0.8000
# 3 17.5644 0.1448 52.1617 -10.0015 -5.3329 -3.0598
# 4 10.1783 -19.1845 -10.0015 39.4527 12.2114 2.8438
# 5 -3.6828 -5.1226 -5.3329 12.2114 38.6637 -3.2986
# 6 21.1187 -0.8000 -3.0598 2.8438 -3.2986 34.3520
#
#
#
# Elastic Compliance Matrix: (Units=1/GPa)
#
#
# Indices 1 2 3 4 5 6 
#
# 1 0.014349 -0.006126 -0.006753 -0.008219 0.001473 -0.008744
# 2 -0.006126 0.018763 0.004395 0.011854 -0.000935 0.003524
# 3 -0.006753 0.004395 0.023611 0.009219 0.000768 0.005667
# 4 -0.008219 0.011854 0.009219 0.038496 -0.009928 0.002010
# 5 0.001473 -0.000935 0.000768 -0.009928 0.029359 0.002782
# 6 -0.008744 0.003524 0.005667 0.002010 0.002782 0.035173
#
#
# Mechanical properties :
#
#
# Convention : Reuss Voigt Hill
#
# Bulk Modulus (GPa) = 25.15418 33.80546 29.47982
# Shear Modulus (GPa) = 26.31958 35.28685 30.80321
#
# Velocity S-wave (km/s) = 3.46589 4.01311 3.74949
# Velocity P-wave (km/s) = 5.24375 6.07473 5.67447
#
# Compressibility (1/GPa) = 0.03975483
#
# Stress axis : x y z
#
# Youngs Moduli (GPa) = 69.69219 53.29576 42.35249
#
# Poissons Ratio (x) = 0.32651 0.28600
# Poissons Ratio (y) = 0.42696 -0.18613
# Poissons Ratio (z) = 0.47062 -0.23423
#
# Static dielectric constant tensor:
#      x y z
#    x 1.387160 -0.477650 -0.126970 
#    y -0.477650 1.279990 -0.078160 
#    z -0.126970 -0.078160 1.907820 
# 
# From -- ./inp_files/446688.got.cif
#   From: 2010.05.17/outbox.cif.g08.bks.cpg/sg2_224_cif.got.tgz:446688.got - 2010.06.03 11:33:40.
