data_PCOD9097305
_publ_section_title
;
Structure prediction by ZEFSAII (Michael W. Deem and Ramdas Pophale) SiO2 
 PCOD9097305
Probable space group: P -1
;
_chemical_formula_sum "Si O2"
_cell_formula_units_Z 14
_cell_length_a 9.353026
_cell_length_b 13.804461
_cell_length_c 15.030582
_cell_angle_alpha 27.877511
_cell_angle_beta 136.243213
_cell_angle_gamma 117.266044
_cell_volume 520.921761
_symmetry_space_group_name_H-M "P -1"
_symmetry_group_IT_number 2
_symmetry_cell_setting 'triclinic'
loop_
_space_group_symop_operation_xyz
x,y,z
-x,-y,-z
loop_
_atom_site_type_symbol
_atom_site_label
_atom_site_fract_x
_atom_site_fract_y
_atom_site_fract_z
Si Si1 0.020154 0.113316 0.009292
Si Si2 0.791034 0.530681 0.045053
Si Si3 0.804755 0.650045 0.212757
Si Si4 0.292959 0.107569 0.631724
Si Si5 0.517152 0.396963 0.315142
Si Si6 0.185528 0.805191 0.964439
Si Si7 0.285557 0.912556 0.590633
O O1 0.828737 0.176616 0.951096
O O2 0.278530 0.888611 0.348270
O O3 0.039436 0.340544 0.804680
O O4 0.000000 0.000000 0.000000
O O5 0.761351 0.307893 0.245200
O O6 0.085390 0.403125 0.293957
O O7 0.703967 0.562499 0.877878
O O8 0.567119 0.778346 0.791000
O O9 0.657691 0.517929 0.237163
O O10 0.000000 0.500000 0.500000
O O11 0.593018 0.940303 0.904345
O O12 0.237363 0.995203 0.783899
O O13 0.248598 0.022781 0.583532
O O14 0.405903 0.540062 0.240979
O O15 0.919800 0.889138 0.732249
#
# Coordination Sequence:
#
# PCOD9097305 Si02
#       7
#     2   2   2   2   2   2   2
#     4  12  26  45  67  94 131 176 225 271 327 384
#     4  10  17  31  68 101 125 173 210 254 333 389
#     4  11  24  45  67  95 128 177 224 270 322 389
#     4  10  20  38  66  98 133 170 217 263 323 397
#     4  11  21  44  73  94 135 171 216 272 324 388
#     4  10  20  37  67  99 127 174 217 265 329 387
#     4  10  16  30  64 101 128 170 213 248 331 396
#
# _framework density 26.875439
#
# number of rings (size 3 to 8) (size 9 to 14) (size 15 to 20)
#    0.000    1.429    7.143    0.857    0.000    0.571 
#    0.000    8.571    0.000    0.000    0.000    0.000 
#    0.000    0.000    0.000    0.000    0.000    0.000 
#
# Total GULP energy -78391.665947 kJ/mol
# GULP energy per Si atom -5599.404710 kJ/mol
# Density = 2.681427 g / cm^3
# Si number density = 26.875439 Si / 1000 Ang^3
#
#
#
# Elastic Constant Matrix: (Units=GPa)
#
#
# Indices 1 2 3 4 5 6 
#
# 1 167.8185 53.8203 11.4194 -4.5620 -22.0962 -32.1723
# 2 53.8203 102.8051 1.8949 2.0486 -4.7864 -19.8690
# 3 11.4194 1.8949 72.3235 0.9353 8.6310 -8.4198
# 4 -4.5620 2.0486 0.9353 33.0529 1.2650 3.1211
# 5 -22.0962 -4.7864 8.6310 1.2650 36.3572 -2.2307
# 6 -32.1723 -19.8690 -8.4198 3.1211 -2.2307 55.1351
#
#
#
# Elastic Compliance Matrix: (Units=1/GPa)
#
#
# Indices 1 2 3 4 5 6 
#
# 1 0.008632 -0.003547 -0.001487 0.000900 0.005328 0.003696
# 2 -0.003547 0.012047 0.000607 -0.001463 -0.000514 0.002426
# 3 -0.001487 0.000607 0.014727 -0.000637 -0.004208 0.001466
# 4 0.000900 -0.001463 -0.000637 0.030689 -0.000676 -0.001864
# 5 0.005328 -0.000514 -0.004208 -0.000676 0.031919 0.003611
# 6 0.003696 0.002426 0.001466 -0.001864 0.003611 0.021644
#
#
# Mechanical properties :
#
#
# Convention : Reuss Voigt Hill
#
# Bulk Modulus (GPa) = 37.66249 53.02403 45.34326
# Shear Modulus (GPa) = 36.39983 43.29654 39.84818
#
# Velocity S-wave (km/s) = 3.68420 4.01809 3.85476
# Velocity P-wave (km/s) = 5.66938 6.42644 6.05974
#
# Compressibility (1/GPa) = 0.02655161
#
# Stress axis : x y z
#
# Youngs Moduli (GPa) = 115.84532 83.00745 67.90382
#
# Poissons Ratio (x) = 0.29445 0.10098
# Poissons Ratio (y) = 0.41093 -0.04123
# Poissons Ratio (z) = 0.17228 -0.05040
#
# Static dielectric constant tensor:
#      x y z
#    x 2.196380 0.092020 0.002950 
#    y 0.092020 2.170570 -0.005550 
#    z 0.002950 -0.005550 2.062140 
# 
# From -- ./inp_files/505142.got.cif
#   From: 2010.05.17/outbox.cif.g08.bks.cpg/sg2_253_cif.got.tgz:505142.got - 2010.06.03 11:33:40.
