data_PCOD9097419
_publ_section_title
;
Structure prediction by ZEFSAII (Michael W. Deem and Ramdas Pophale) SiO2 
 PCOD9097419
Probable space group: P -1
;
_chemical_formula_sum "Si O2"
_cell_formula_units_Z 16
_cell_length_a 14.548474
_cell_length_b 8.264567
_cell_length_c 9.474564
_cell_angle_alpha 112.837732
_cell_angle_beta 65.965193
_cell_angle_gamma 58.791793
_cell_volume 570.936598
_symmetry_space_group_name_H-M "P -1"
_symmetry_group_IT_number 2
_symmetry_cell_setting 'triclinic'
loop_
_space_group_symop_operation_xyz
x,y,z
-x,-y,-z
loop_
_atom_site_type_symbol
_atom_site_label
_atom_site_fract_x
_atom_site_fract_y
_atom_site_fract_z
Si Si1 0.634587 0.471806 0.886755
Si Si2 0.457093 0.924119 0.373480
Si Si3 0.054595 0.772435 0.047536
Si Si4 0.687541 0.199057 0.402984
Si Si5 0.867321 0.514048 0.389044
Si Si6 0.837853 0.676856 0.956754
Si Si7 0.876122 0.985523 0.752183
Si Si8 0.428503 0.827043 0.876354
O O1 0.607641 0.634392 0.091420
O O2 0.500000 0.500000 0.000000
O O3 0.822360 0.131472 0.681290
O O4 0.570490 0.655243 0.848302
O O5 0.377530 0.861187 0.472333
O O6 0.500000 0.000000 0.500000
O O7 0.325248 0.178425 0.424267
O O8 0.134640 0.839950 0.070720
O O9 0.089920 0.681891 0.831320
O O10 0.126792 0.504698 0.999606
O O11 0.856008 0.059549 0.302593
O O12 0.539611 0.551080 0.604929
O O13 0.770633 0.960724 0.150268
O O14 0.939671 0.350126 0.438818
O O15 0.981902 0.527458 0.293022
O O16 0.675387 0.868834 0.025280
O O17 0.728092 0.058035 0.913338
#
# Coordination Sequence:
#
# PCOD9097419 Si02
#       8
#     2   2   2   2   2   2   2   2
#     4  10  21  41  64  88 124 167 211 254 306 361
#     4  12  22  37  66  96 123 160 211 261 304 365
#     4  11  20  36  59  91 129 157 198 261 320 359
#     4  11  20  37  61  91 126 159 201 257 315 364
#     4  10  20  37  56  90 125 160 205 253 307 367
#     4  10  20  36  60  91 124 163 201 254 314 369
#     4  10  21  37  61  85 119 165 208 247 301 368
#     4  10  22  41  63  85 122 170 211 246 303 378
#
# _framework density 28.024125000000002
#
# number of rings (size 3 to 8) (size 9 to 14) (size 15 to 20)
#    0.000    1.500    5.000    2.250    0.000    0.000 
#    2.250    8.125    0.000    0.000    0.000    0.000 
#    0.000    0.000    0.000    0.000    0.000    0.000 
#
# Total GULP energy -89460.192039 kJ/mol
# GULP energy per Si atom -5591.262002 kJ/mol
# Density = 2.796034 g / cm^3
# Si number density = 28.024125 Si / 1000 Ang^3
#
#
#
# Elastic Constant Matrix: (Units=GPa)
#
#
# Indices 1 2 3 4 5 6 
#
# 1 113.6030 48.7356 24.5608 10.5095 -7.8864 -8.1199
# 2 48.7356 150.9122 20.2721 43.2188 -21.6278 -38.3014
# 3 24.5608 20.2721 101.2796 32.3716 -9.9295 -11.8523
# 4 10.5095 43.2188 32.3716 46.1918 -21.5739 -14.0416
# 5 -7.8864 -21.6278 -9.9295 -21.5739 45.7378 5.2638
# 6 -8.1199 -38.3014 -11.8523 -14.0416 5.2638 48.4879
#
#
#
# Elastic Compliance Matrix: (Units=1/GPa)
#
#
# Indices 1 2 3 4 5 6 
#
# 1 0.010997 -0.004461 -0.003086 0.003933 0.001135 -0.001421
# 2 -0.004461 0.012391 0.002728 -0.010472 -0.000026 0.006678
# 3 -0.003086 0.002728 0.013931 -0.012058 -0.002110 0.001781
# 4 0.003933 -0.010472 -0.012058 0.046292 0.014801 0.001238
# 5 0.001135 -0.000026 -0.002110 0.014801 0.028473 0.000849
# 6 -0.001421 0.006678 0.001781 0.001238 0.000849 0.026362
#
#
# Mechanical properties :
#
#
# Convention : Reuss Voigt Hill
#
# Bulk Modulus (GPa) = 36.12628 61.43686 48.78157
# Shear Modulus (GPa) = 31.78418 46.23190 39.00804
#
# Velocity S-wave (km/s) = 3.37140 4.06608 3.73493
# Velocity P-wave (km/s) = 5.29851 6.63434 6.00369
#
# Compressibility (1/GPa) = 0.02768068
#
# Stress axis : x y z
#
# Youngs Moduli (GPa) = 90.93417 80.70584 71.77999
#
# Poissons Ratio (x) = 0.36003 0.22151
# Poissons Ratio (y) = 0.40566 -0.19580
# Poissons Ratio (z) = 0.28062 -0.22015
#
# Static dielectric constant tensor:
#      x y z
#    x 2.288360 -0.105070 0.043000 
#    y -0.105070 2.280310 0.014390 
#    z 0.043000 0.014390 2.187560 
# 
# From -- ./inp_files/448045.got.cif
#   From: 2010.05.17/outbox.cif.g08.bks.cpg/sg2_225_cif.got.tgz:448045.got - 2010.06.03 11:33:40.
