data_PCOD9097797
_publ_section_title
;
Structure prediction by ZEFSAII (Michael W. Deem and Ramdas Pophale) SiO2 
 PCOD9097797
Probable space group: P -1
;
_chemical_formula_sum "Si O2"
_cell_formula_units_Z 16
_cell_length_a 8.614232
_cell_length_b 8.063794
_cell_length_c 16.756408
_cell_angle_alpha 129.040118
_cell_angle_beta 47.023123
_cell_angle_gamma 101.780106
_cell_volume 607.261330
_symmetry_space_group_name_H-M "P -1"
_symmetry_group_IT_number 2
_symmetry_cell_setting 'triclinic'
loop_
_space_group_symop_operation_xyz
x,y,z
-x,-y,-z
loop_
_atom_site_type_symbol
_atom_site_label
_atom_site_fract_x
_atom_site_fract_y
_atom_site_fract_z
Si Si1 0.294989 0.257062 0.389961
Si Si2 0.768559 0.896390 0.353837
Si Si3 0.263572 0.155790 0.826691
Si Si4 0.941206 0.879101 0.895085
Si Si5 0.850696 0.946269 0.775322
Si Si6 0.043305 0.744119 0.371049
Si Si7 0.343070 0.674207 0.799577
Si Si8 0.582824 0.466318 0.085477
O O1 0.429130 0.413033 0.360447
O O2 0.067346 0.362154 0.554549
O O3 0.486317 0.055725 0.315101
O O4 0.232678 0.155399 0.300734
O O5 0.785417 0.767245 0.224936
O O6 0.893810 0.069288 0.339886
O O7 0.903135 0.772769 0.347605
O O8 0.500000 0.000000 0.500000
O O9 0.072279 0.052916 0.881616
O O10 0.283564 0.368042 0.932088
O O11 0.854232 0.833525 0.826957
O O12 0.130378 0.680453 0.820982
O O13 0.727746 0.047366 0.073213
O O14 0.689291 0.220572 0.928849
O O15 0.309875 0.605603 0.213978
O O16 0.000000 0.000000 0.500000
O O17 0.388607 0.573980 0.841186
#
# Coordination Sequence:
#
# PCOD9097797 Si02
#       8
#     2   2   2   2   2   2   2   2
#     4  11  21  39  63  87 119 168 198 243 304 368
#     4  11  20  36  61  91 116 157 202 249 298 363
#     4  10  20  36  62  88 118 156 203 248 300 349
#     4   8  18  37  58  87 117 160 193 245 302 365
#     4  10  22  36  63  93 122 155 209 248 299 359
#     4  12  22  40  63  89 123 163 202 247 310 358
#     4   9  20  38  60  85 125 160 200 245 303 359
#     4  11  23  40  60  95 125 155 204 260 293 355
#
# _framework density 26.347798000000001
#
# number of rings (size 3 to 8) (size 9 to 14) (size 15 to 20)
#    0.000    1.750    3.750    0.000    0.000    9.000 
#    0.000    5.000    0.000    1.500    0.000    0.000 
#    0.000    0.000    0.000    0.000    0.000    0.000 
#
# Total GULP energy -89550.252541 kJ/mol
# GULP energy per Si atom -5596.890784 kJ/mol
# Density = 2.628783 g / cm^3
# Si number density = 26.347798 Si / 1000 Ang^3
#
#
#
# Elastic Constant Matrix: (Units=GPa)
#
#
# Indices 1 2 3 4 5 6 
#
# 1 155.0117 28.9218 60.7596 12.3299 -12.2246 -41.2387
# 2 28.9218 50.7824 39.3550 -4.9466 5.1020 -15.6344
# 3 60.7596 39.3550 140.0026 3.4946 -18.2287 4.0504
# 4 12.3299 -4.9466 3.4946 45.7339 1.9613 5.2279
# 5 -12.2246 5.1020 -18.2287 1.9613 49.0458 -11.4887
# 6 -41.2387 -15.6344 4.0504 5.2279 -11.4887 43.3172
#
#
#
# Elastic Compliance Matrix: (Units=1/GPa)
#
#
# Indices 1 2 3 4 5 6 
#
# 1 0.013529 0.000454 -0.005660 -0.005160 0.005068 0.015540
# 2 0.000454 0.031310 -0.009961 0.002937 -0.004350 0.011156
# 3 -0.005660 -0.009961 0.012947 0.000474 0.002151 -0.009681
# 4 -0.005160 0.002937 0.000474 0.024636 -0.004275 -0.008004
# 5 0.005068 -0.004350 0.002151 -0.004275 0.025495 0.010331
# 6 0.015540 0.011156 -0.009681 -0.008004 0.010331 0.046517
#
#
# Mechanical properties :
#
#
# Convention : Reuss Voigt Hill
#
# Bulk Modulus (GPa) = 36.42613 67.09661 51.76137
# Shear Modulus (GPa) = 25.78363 42.07007 33.92685
#
# Velocity S-wave (km/s) = 3.13163 4.00023 3.59228
# Velocity P-wave (km/s) = 5.18954 6.84521 6.07405
#
# Compressibility (1/GPa) = 0.02745282
#
# Stress axis : x y z
#
# Youngs Moduli (GPa) = 73.91379 31.93818 77.23545
#
# Poissons Ratio (x) = -0.01449 0.43716
# Poissons Ratio (y) = -0.03353 0.76933
# Poissons Ratio (z) = 0.41836 0.31813
#
# Static dielectric constant tensor:
#      x y z
#    x 2.028590 -0.015000 -0.023230 
#    y -0.015000 2.165020 -0.009050 
#    z -0.023230 -0.009050 2.057040 
# 
# From -- ./inp_files/508221.got.cif
#   From: 2010.05.17/outbox.cif.g08.bks.cpg/sg2_255_cif.got.tgz:508221.got - 2010.06.03 11:33:40.
