data_PCOD9097302
_publ_section_title
;
Structure prediction by ZEFSAII (Michael W. Deem and Ramdas Pophale) SiO2 
 PCOD9097302
Probable space group: P -1
;
_chemical_formula_sum "Si O2"
_cell_formula_units_Z 14
_cell_length_a 9.188566
_cell_length_b 13.323383
_cell_length_c 10.560792
_cell_angle_alpha 69.227721
_cell_angle_beta 107.728596
_cell_angle_gamma 146.409290
_cell_volume 668.696078
_symmetry_space_group_name_H-M "P -1"
_symmetry_group_IT_number 2
_symmetry_cell_setting 'triclinic'
loop_
_space_group_symop_operation_xyz
x,y,z
-x,-y,-z
loop_
_atom_site_type_symbol
_atom_site_label
_atom_site_fract_x
_atom_site_fract_y
_atom_site_fract_z
Si Si1 0.120567 0.201586 0.021065
Si Si2 0.248868 0.621465 0.802606
Si Si3 0.149942 0.982891 0.205602
Si Si4 0.305419 0.496119 0.083555
Si Si5 0.854005 0.023879 0.499693
Si Si6 0.861944 0.596273 0.650443
Si Si7 0.722454 0.403825 0.454337
O O1 0.411244 0.353088 0.973236
O O2 0.036958 0.038054 0.124501
O O3 0.138151 0.295348 0.096084
O O4 0.952968 0.144133 0.882529
O O5 0.537002 0.834260 0.804392
O O6 0.055258 0.606682 0.723558
O O7 0.281382 0.566146 0.708993
O O8 0.174336 0.515280 0.956864
O O9 0.089580 0.922951 0.360419
O O10 0.332712 0.521258 0.229132
O O11 0.539260 0.819522 0.495119
O O12 0.972092 0.198838 0.391102
O O13 0.000000 0.000000 0.500000
O O14 0.728425 0.498082 0.522414
O O15 0.000000 0.500000 0.500000
#
# Coordination Sequence:
#
# PCOD9097302 Si02
#       7
#     2   2   2   2   2   2   2
#     4   9  19  36  59  84 117 159 198 249 296 358
#     4   9  20  40  60  85 117 160 206 242 295 373
#     4   9  19  37  58  84 117 157 202 245 300 357
#     4  10  20  36  60  86 119 155 203 244 301 361
#     4  11  24  39  62  94 125 155 207 256 303 365
#     4  11  23  40  62  88 128 157 196 257 311 346
#     4   9  22  42  63  89 122 162 203 245 302 370
#
# _framework density 20.936267999999998
#
# number of rings (size 3 to 8) (size 9 to 14) (size 15 to 20)
#    0.000    2.286    0.000    1.286    4.000    6.857 
#    5.143    0.714    0.000    0.000    0.000    0.000 
#    0.000    0.000    0.000    0.000    0.000    0.000 
#
# Total GULP energy -78033.339535 kJ/mol
# GULP energy per Si atom -5573.809967 kJ/mol
# Density = 2.088862 g / cm^3
# Si number density = 20.936268 Si / 1000 Ang^3
#
#
#
# Elastic Constant Matrix: (Units=GPa)
#
#
# Indices 1 2 3 4 5 6 
#
# 1 34.2081 8.9954 18.7640 0.0318 -9.6291 -3.0085
# 2 8.9954 69.4936 37.8188 6.2711 0.0045 -7.1505
# 3 18.7640 37.8188 94.6478 1.5775 -20.2396 -2.7726
# 4 0.0318 6.2711 1.5775 42.0857 -2.1819 4.4226
# 5 -9.6291 0.0045 -20.2396 -2.1819 23.4599 9.1678
# 6 -3.0085 -7.1505 -2.7726 4.4226 9.1678 22.2229
#
#
#
# Elastic Compliance Matrix: (Units=1/GPa)
#
#
# Indices 1 2 3 4 5 6 
#
# 1 0.035164 -0.003293 -0.002993 0.001484 0.012882 -0.002282
# 2 -0.003293 0.023169 -0.011847 -0.005362 -0.017471 0.013805
# 3 -0.002993 -0.011847 0.019899 0.003220 0.020469 -0.010820
# 4 0.001484 -0.005362 0.003220 0.026040 0.009864 -0.010374
# 5 0.012882 -0.017471 0.020469 0.009864 0.080805 -0.036622
# 6 -0.002282 0.013805 -0.010820 -0.010374 -0.036622 0.064954
#
#
# Mechanical properties :
#
#
# Convention : Reuss Voigt Hill
#
# Bulk Modulus (GPa) = 23.82794 36.61175 30.21985
# Shear Modulus (GPa) = 16.65084 26.40512 21.52798
#
# Velocity S-wave (km/s) = 2.82319 3.55521 3.21013
# Velocity P-wave (km/s) = 4.69394 5.86327 5.31088
#
# Compressibility (1/GPa) = 0.04196753
#
# Stress axis : x y z
#
# Youngs Moduli (GPa) = 28.43807 43.16156 50.25360
#
# Poissons Ratio (x) = 0.14212 0.15038
# Poissons Ratio (y) = 0.09364 0.59535
# Poissons Ratio (z) = 0.08510 0.51133
#
# Static dielectric constant tensor:
#      x y z
#    x 1.787630 -0.022270 0.013100 
#    y -0.022270 1.759700 0.017190 
#    z 0.013100 0.017190 1.798630 
# 
# From -- ./inp_files/186858.got.cif
#   From: 2010.05.17/outbox.cif.g08.bks.cpg/sg2_94_cif.got.tgz:186858.got - 2010.06.03 11:33:40.
