data_PCOD9097839
_publ_section_title
;
Structure prediction by ZEFSAII (Michael W. Deem and Ramdas Pophale) SiO2 
 PCOD9097839
Probable space group: P -1
;
_chemical_formula_sum "Si O2"
_cell_formula_units_Z 16
_cell_length_a 9.039469
_cell_length_b 23.089629
_cell_length_c 23.870478
_cell_angle_alpha 159.645290
_cell_angle_beta 152.502988
_cell_angle_gamma 38.165920
_cell_volume 767.443903
_symmetry_space_group_name_H-M "P -1"
_symmetry_group_IT_number 2
_symmetry_cell_setting 'triclinic'
loop_
_space_group_symop_operation_xyz
x,y,z
-x,-y,-z
loop_
_atom_site_type_symbol
_atom_site_label
_atom_site_fract_x
_atom_site_fract_y
_atom_site_fract_z
Si Si1 0.531312 0.539347 0.722808
Si Si2 0.335220 0.457900 0.758183
Si Si3 0.462309 0.769959 0.002433
Si Si4 0.774582 0.520517 0.063203
Si Si5 0.841927 0.089932 0.480686
Si Si6 0.849310 0.907865 0.924014
Si Si7 0.359258 0.555205 0.445663
Si Si8 0.184935 0.210626 0.382312
O O1 0.453232 0.699282 0.872645
O O2 0.512873 0.531850 0.643221
O O3 0.290881 0.364175 0.510749
O O4 0.907652 0.540736 0.867105
O O5 0.509606 0.619797 0.923326
O O6 0.162555 0.302073 0.516556
O O7 0.039222 0.497022 0.730194
O O8 0.605506 0.429227 0.866551
O O9 0.108674 0.797763 0.925318
O O10 0.736165 0.951491 0.269398
O O11 0.910809 0.726004 0.284380
O O12 0.500000 0.500000 0.000000
O O13 0.499906 0.131578 0.421502
O O14 0.000000 0.000000 0.500000
O O15 0.498260 0.762999 0.670416
O O16 0.000000 0.000000 0.000000
O O17 0.884998 0.056034 0.116998
O O18 0.500000 0.500000 0.500000
#
# Coordination Sequence:
#
# PCOD9097839 Si02
#       8
#     2   2   2   2   2   2   2   2
#     4  10  22  40  64  94 119 163 210 242 305 374
#     4  11  22  39  63  94 125 162 203 249 309 360
#     4  10  22  39  63  92 121 158 209 252 297 366
#     4  11  22  39  64  88 131 162 193 254 308 361
#     4  10  20  36  62  90 119 159 203 242 297 361
#     4  11  22  41  64  87 124 163 204 258 303 354
#     4  12  24  40  64  91 122 163 206 254 310 359
#     4   9  22  38  62  92 119 158 209 247 296 368
#
# _framework density 20.848427999999998
#
# number of rings (size 3 to 8) (size 9 to 14) (size 15 to 20)
#    0.000    1.500    5.000    0.000    1.750    3.500 
#    0.000    1.875    0.000    0.000    0.000    0.000 
#    0.000    0.000    0.000    0.000    0.000    0.000 
#
# Total GULP energy -89400.892471 kJ/mol
# GULP energy per Si atom -5587.555779 kJ/mol
# Density = 2.080098 g / cm^3
# Si number density = 20.848428 Si / 1000 Ang^3
#
#
#
# Elastic Constant Matrix: (Units=GPa)
#
#
# Indices 1 2 3 4 5 6 
#
# 1 85.9962 -1.6501 28.7655 0.6363 -22.4860 6.5671
# 2 -1.6501 39.0548 -5.9371 -1.5448 -5.0152 12.5300
# 3 28.7655 -5.9371 76.8649 -0.4729 -19.1643 -3.7074
# 4 0.6363 -1.5448 -0.4729 23.0673 -3.6728 -8.9227
# 5 -22.4860 -5.0152 -19.1643 -3.6728 44.7323 -1.7620
# 6 6.5671 12.5300 -3.7074 -8.9227 -1.7620 26.6687
#
#
#
# Elastic Compliance Matrix: (Units=1/GPa)
#
#
# Indices 1 2 3 4 5 6 
#
# 1 0.015030 0.002440 -0.004314 -0.001616 0.005627 -0.005616
# 2 0.002440 0.031597 0.001902 -0.003355 0.004678 -0.015995
# 3 -0.004314 0.001902 0.016323 0.002902 0.005424 0.003767
# 4 -0.001616 -0.003355 0.002902 0.051796 0.005097 0.020044
# 5 0.005627 0.004678 0.005424 0.005097 0.028480 0.000758
# 6 -0.005616 -0.015995 0.003767 0.020044 0.000758 0.053675
#
#
# Mechanical properties :
#
#
# Convention : Reuss Voigt Hill
#
# Bulk Modulus (GPa) = 15.87174 27.14139 21.50657
# Shear Modulus (GPa) = 22.95158 30.94282 26.94720
#
# Velocity S-wave (km/s) = 3.32155 3.85668 3.59908
# Velocity P-wave (km/s) = 4.72649 5.73400 5.25445
#
# Compressibility (1/GPa) = 0.06300505
#
# Stress axis : x y z
#
# Youngs Moduli (GPa) = 66.53141 31.64850 61.26186
#
# Poissons Ratio (x) = -0.07721 0.26431
# Poissons Ratio (y) = -0.16231 -0.11651
# Poissons Ratio (z) = 0.28705 -0.06019
#
# Static dielectric constant tensor:
#      x y z
#    x 1.727340 0.016510 -0.023500 
#    y 0.016510 1.767540 -0.013430 
#    z -0.023500 -0.013430 1.777310 
# 
# From -- ./inp_files/179342.got.cif
#   From: 2010.05.17/outbox.cif.g08.bks.cpg/sg2_90_cif.got.tgz:179342.got - 2010.06.03 11:33:40.
