data_PCOD9097567
_publ_section_title
;
Structure prediction by ZEFSAII (Michael W. Deem and Ramdas Pophale) SiO2 
 PCOD9097567
Probable space group: P -1
;
_chemical_formula_sum "Si O2"
_cell_formula_units_Z 12
_cell_length_a 11.895027
_cell_length_b 7.001021
_cell_length_c 18.692012
_cell_angle_alpha 130.571092
_cell_angle_beta 29.992634
_cell_angle_gamma 111.248251
_cell_volume 501.579618
_symmetry_space_group_name_H-M "P -1"
_symmetry_group_IT_number 2
_symmetry_cell_setting 'triclinic'
loop_
_space_group_symop_operation_xyz
x,y,z
-x,-y,-z
loop_
_atom_site_type_symbol
_atom_site_label
_atom_site_fract_x
_atom_site_fract_y
_atom_site_fract_z
Si Si1 0.261213 0.924895 0.292958
Si Si2 0.098372 0.882536 0.817718
Si Si3 0.700958 0.106798 0.437426
Si Si4 0.640685 0.456388 0.150434
Si Si5 0.277092 0.747937 0.086431
Si Si6 0.343974 0.058573 0.837656
O O1 0.231887 0.951774 0.229992
O O2 0.386660 0.093531 0.302917
O O3 0.499068 0.582212 0.091951
O O4 0.000000 0.000000 0.500000
O O5 0.234399 0.774480 0.640638
O O6 0.293707 0.849090 0.764469
O O7 0.902061 0.234838 0.996584
O O8 0.899381 0.792693 0.935802
O O9 0.978636 0.840362 0.251662
O O10 0.500000 0.000000 0.500000
O O11 0.582491 0.354784 0.623621
O O12 0.659377 0.704521 0.156542
O O13 0.613683 0.255592 0.055170
#
# Coordination Sequence:
#
# PCOD9097567 Si02
#       6
#     2   2   2   2   2   2
#     4  10  20  36  61  88 121 164 205 245 298 367
#     4  10  22  38  58  95 122 154 201 255 311 355
#     4  11  21  35  63  89 118 160 203 248 305 364
#     4  10  20  38  62  84 122 161 196 249 306 359
#     4   9  20  35  57  89 115 156 207 243 298 355
#     4  10  20  38  62  86 126 156 198 259 300 359
#
# _framework density 23.924416999999998
#
# number of rings (size 3 to 8) (size 9 to 14) (size 15 to 20)
#    0.000    2.000    1.667    2.500    4.667    0.000 
#    0.000   16.667    0.000   13.000    0.000    0.000 
#    0.000    0.000    0.000    0.000    0.000    0.000 
#
# Total GULP energy -66883.377794 kJ/mol
# GULP energy per Si atom -5573.614816 kJ/mol
# Density = 2.386996 g / cm^3
# Si number density = 23.924417 Si / 1000 Ang^3
#
#
#
# Elastic Constant Matrix: (Units=GPa)
#
#
# Indices 1 2 3 4 5 6 
#
# 1 190.9476 26.2992 93.0116 -25.8557 8.3550 -10.0805
# 2 26.2992 68.0699 46.9127 -23.8540 3.4616 -11.7537
# 3 93.0116 46.9127 180.0482 -16.4917 25.7812 -3.4135
# 4 -25.8557 -23.8540 -16.4917 42.7250 -16.9619 0.7717
# 5 8.3550 3.4616 25.7812 -16.9619 56.5284 -10.0757
# 6 -10.0805 -11.7537 -3.4135 0.7717 -10.0757 20.4855
#
#
#
# Elastic Compliance Matrix: (Units=1/GPa)
#
#
# Indices 1 2 3 4 5 6 
#
# 1 0.008299 0.003616 -0.005080 0.006583 0.004107 0.007084
# 2 0.003616 0.029547 -0.009023 0.019383 0.011540 0.022174
# 3 -0.005080 -0.009023 0.010783 -0.006663 -0.007253 -0.009197
# 4 0.006583 0.019383 -0.006663 0.042055 0.017074 0.020064
# 5 0.004107 0.011540 -0.007253 0.017074 0.028518 0.020817
# 6 0.007084 0.022174 -0.009197 0.020064 0.020817 0.072974
#
#
# Mechanical properties :
#
#
# Convention : Reuss Voigt Hill
#
# Bulk Modulus (GPa) = 36.16056 85.72360 60.94208
# Shear Modulus (GPa) = 22.48505 42.13726 32.31116
#
# Velocity S-wave (km/s) = 3.06900 4.20130 3.67897
# Velocity P-wave (km/s) = 5.26362 7.70995 6.60110
#
# Compressibility (1/GPa) = 0.02765444
#
# Stress axis : x y z
#
# Youngs Moduli (GPa) = 120.49193 33.84476 92.73433
#
# Poissons Ratio (x) = -0.12238 0.47112
# Poissons Ratio (y) = -0.43570 0.83676
# Poissons Ratio (z) = 0.61214 0.30539
#
# Static dielectric constant tensor:
#      x y z
#    x 2.011500 0.047090 0.036690 
#    y 0.047090 1.918620 0.010050 
#    z 0.036690 0.010050 1.959630 
# 
# From -- ./inp_files/176988.got.cif
#   From: 2010.05.17/outbox.cif.g08.bks.cpg/sg2_89_cif.got.tgz:176988.got - 2010.06.03 11:33:40.
