data_PCOD9097773
_publ_section_title
;
Structure prediction by ZEFSAII (Michael W. Deem and Ramdas Pophale) SiO2 
 PCOD9097773
Probable space group: P -1
;
_chemical_formula_sum "Si O2"
_cell_formula_units_Z 16
_cell_length_a 20.629687
_cell_length_b 20.162032
_cell_length_c 10.426991
_cell_angle_alpha 149.508331
_cell_angle_beta 151.622424
_cell_angle_gamma 20.122428
_cell_volume 692.147380
_symmetry_space_group_name_H-M "P -1"
_symmetry_group_IT_number 2
_symmetry_cell_setting 'triclinic'
loop_
_space_group_symop_operation_xyz
x,y,z
-x,-y,-z
loop_
_atom_site_type_symbol
_atom_site_label
_atom_site_fract_x
_atom_site_fract_y
_atom_site_fract_z
Si Si1 0.125169 0.042189 0.763589
Si Si2 0.237658 0.424186 0.476109
Si Si3 0.579338 0.999408 0.282518
Si Si4 0.135991 0.297347 0.536772
Si Si5 0.553412 0.285916 0.025027
Si Si6 0.624983 0.466625 0.284692
Si Si7 0.387744 0.870498 0.676784
Si Si8 0.819160 0.446293 0.022064
O O1 0.300019 0.912799 0.965632
O O2 0.241127 0.962073 0.695811
O O3 0.000000 0.000000 0.500000
O O4 0.949468 0.280685 0.863901
O O5 0.219162 0.550551 0.547624
O O6 0.017859 0.554551 0.369561
O O7 0.351828 0.220979 0.270765
O O8 0.394109 0.348461 0.740981
O O9 0.695741 0.923930 0.492283
O O10 0.699578 0.999158 0.387358
O O11 0.557179 0.861543 0.987676
O O12 0.231895 0.364238 0.770280
O O13 0.991391 0.332104 0.241406
O O14 0.683481 0.303196 0.204302
O O15 0.391028 0.464926 0.143996
O O16 0.486394 0.663643 0.458526
O O17 0.500000 0.500000 0.000000
#
# Coordination Sequence:
#
# PCOD9097773 Si02
#       8
#     2   2   2   2   2   2   2   2
#     4  12  25  38  56  84 119 155 190 229 278 338
#     4   9  19  37  61  87 112 144 191 237 280 333
#     4  10  20  38  60  83 117 149 182 237 290 331
#     4  10  20  36  62  87 111 148 189 233 283 338
#     4  10  21  39  60  81 115 156 188 230 281 330
#     4   9  19  38  61  82 108 148 194 234 277 331
#     4  10  22  38  56  85 118 149 189 234 282 337
#     4  10  22  38  57  87 116 145 192 234 277 339
#
# _framework density 23.116465999999999
#
# number of rings (size 3 to 8) (size 9 to 14) (size 15 to 20)
#    0.000    2.000    0.000    3.000    0.000    4.000 
#    0.000   15.000    0.000   11.250    0.000    0.000 
#    0.000    0.000    0.000    0.000    0.000    0.000 
#
# Total GULP energy -89199.141730 kJ/mol
# GULP energy per Si atom -5574.946358 kJ/mol
# Density = 2.306385 g / cm^3
# Si number density = 23.116466 Si / 1000 Ang^3
#
#
#
# Elastic Constant Matrix: (Units=GPa)
#
#
# Indices 1 2 3 4 5 6 
#
# 1 24.6899 19.0307 -24.6392 -24.4930 6.5958 -89.2120
# 2 19.0307 41.4131 3.4620 26.1247 18.2613 -7.5805
# 3 -24.6392 3.4620 24.6012 -10.9940 -4.5310 -36.1566
# 4 -24.4930 26.1247 -10.9940 -21.9836 -31.5959 -22.4042
# 5 6.5958 18.2613 -4.5310 -31.5959 12.5443 10.8022
# 6 -89.2120 -7.5805 -36.1566 -22.4042 10.8022 -21.0204
#
#
#
# Elastic Compliance Matrix: (Units=1/GPa)
#
#
# Indices 1 2 3 4 5 6 
#
# 1 0.005424 -0.003292 -0.006290 -0.001751 0.002175 -0.008032
# 2 -0.003292 0.015303 0.000496 0.011001 0.007552 -0.000245
# 3 -0.006290 0.000496 0.023558 -0.004664 0.004940 -0.006496
# 4 -0.001751 0.011001 -0.004664 -0.000781 -0.020349 0.001860
# 5 0.002175 0.007552 0.004940 -0.020349 0.011815 0.007309
# 6 -0.008032 -0.000245 -0.006496 0.001860 0.007309 -0.000452
#
#
# Mechanical properties :
#
#
# Convention : Reuss Voigt Hill
#
# Bulk Modulus (GPa) = 38.29337 9.60124 23.94731
# Shear Modulus (GPa) = 61.16667 0.09811 30.63239
#
# Velocity S-wave (km/s) = 5.14953 0.20623 3.64419
# Velocity P-wave (km/s) = 7.20821 2.05406 5.29988
#
# Compressibility (1/GPa) = 0.02611418
#
# Stress axis : x y z
#
# Youngs Moduli (GPa) = 184.35357 65.34566 42.44857
#
# Poissons Ratio (x) = 0.21510 0.26700
# Poissons Ratio (y) = 0.60685 -0.02106
# Poissons Ratio (z) = 1.15957 -0.03241
#
# Static dielectric constant tensor:
#      x y z
#    x 1.916700 0.048580 -0.070180 
#    y 0.048580 1.891270 0.020420 
#    z -0.070180 0.020420 1.894620 
# 
# From -- ./inp_files/472788.got.cif
#   From: 2010.05.17/outbox.cif.g08.bks.cpg/sg2_237_cif.got.tgz:472788.got - 2010.06.03 11:33:40.
