data_PCOD9097832
_publ_section_title
;
Structure prediction by ZEFSAII (Michael W. Deem and Ramdas Pophale) SiO2 
 PCOD9097832
Probable space group: P -1
;
_chemical_formula_sum "Si O2"
_cell_formula_units_Z 16
_cell_length_a 14.560086
_cell_length_b 11.167794
_cell_length_c 7.879985
_cell_angle_alpha 45.838739
_cell_angle_beta 129.662569
_cell_angle_gamma 128.042780
_cell_volume 672.590440
_symmetry_space_group_name_H-M "P -1"
_symmetry_group_IT_number 2
_symmetry_cell_setting 'triclinic'
loop_
_space_group_symop_operation_xyz
x,y,z
-x,-y,-z
loop_
_atom_site_type_symbol
_atom_site_label
_atom_site_fract_x
_atom_site_fract_y
_atom_site_fract_z
Si Si1 0.810189 0.683947 0.178559
Si Si2 0.441802 0.421972 0.828857
Si Si3 0.799237 0.386876 0.955006
Si Si4 0.675405 0.014168 0.337791
Si Si5 0.947550 0.436972 0.726661
Si Si6 0.442561 0.033348 0.220329
Si Si7 0.333555 0.359575 0.309865
Si Si8 0.181047 0.936541 0.177345
O O1 0.704536 0.622171 0.262474
O O2 0.897148 0.562786 0.424413
O O3 0.740684 0.655387 0.942824
O O4 0.866383 0.893751 0.059952
O O5 0.521013 0.557864 0.651463
O O6 0.500000 0.500000 0.000000
O O7 0.470461 0.239593 0.017542
O O8 0.725747 0.186930 0.114284
O O9 0.913022 0.462843 0.147076
O O10 0.863008 0.403962 0.830422
O O11 0.713513 0.511918 0.756029
O O12 0.527890 0.970779 0.250443
O O13 0.753080 0.054685 0.568474
O O14 0.693168 0.836964 0.458571
O O15 0.922661 0.246062 0.803378
O O16 0.500000 0.000000 0.500000
O O17 0.294214 0.956648 0.154853
#
# Coordination Sequence:
#
# PCOD9097832 Si02
#       8
#     2   2   2   2   2   2   2   2
#     4   9  20  36  60  92 115 146 191 239 292 345
#     4   9  16  29  55  90 121 144 180 229 289 352
#     4  11  25  43  55  83 113 161 208 233 288 343
#     4  10  20  36  62  90 117 148 190 243 292 344
#     4  11  25  41  61  75 117 165 198 241 284 347
#     4   9  16  29  55  90 121 144 180 229 289 352
#     4  10  20  36  62  90 117 148 190 243 292 344
#     4   9  20  36  60  92 115 146 191 239 292 345
#
# _framework density 23.788620999999999
#
# number of rings (size 3 to 8) (size 9 to 14) (size 15 to 20)
#    0.000    2.250    1.250    3.000    7.000    4.000 
#    0.000    6.250    0.000    0.000    0.000    0.000 
#    0.000    0.000    0.000    0.000    0.000    0.000 
#
# Total GULP energy -89543.973258 kJ/mol
# GULP energy per Si atom -5596.498329 kJ/mol
# Density = 2.373448 g / cm^3
# Si number density = 23.788621 Si / 1000 Ang^3
#
#
#
# Elastic Constant Matrix: (Units=GPa)
#
#
# Indices 1 2 3 4 5 6 
#
# 1 87.7091 28.0981 33.1416 -24.3680 -16.9955 4.5017
# 2 28.0981 112.0851 82.6695 -28.6061 -4.5644 6.4664
# 3 33.1416 82.6695 90.5549 -19.3852 2.7730 -8.6125
# 4 -24.3680 -28.6061 -19.3852 42.4457 -6.0885 -8.2734
# 5 -16.9955 -4.5644 2.7730 -6.0885 32.8795 -4.2374
# 6 4.5017 6.4664 -8.6125 -8.2734 -4.2374 28.9315
#
#
#
# Elastic Compliance Matrix: (Units=1/GPa)
#
#
# Indices 1 2 3 4 5 6 
#
# 1 0.020437 0.009401 -0.014045 0.013126 0.015032 -0.003507
# 2 0.009401 0.041222 -0.040172 0.013649 0.014354 -0.016629
# 3 -0.014045 -0.040172 0.053631 -0.008600 -0.016077 0.022315
# 4 0.013126 0.013649 -0.008600 0.040151 0.017667 0.006416
# 5 0.015032 0.014354 -0.016077 0.017667 0.044973 0.001306
# 6 -0.003507 -0.016629 0.022315 0.006416 0.001306 0.047496
#
#
# Mechanical properties :
#
#
# Convention : Reuss Voigt Hill
#
# Bulk Modulus (GPa) = 38.97757 64.24085 51.60921
# Shear Modulus (GPa) = 14.44692 30.61398 22.53045
#
# Velocity S-wave (km/s) = 2.46703 3.59125 3.08085
# Velocity P-wave (km/s) = 4.95333 6.65279 5.86494
#
# Compressibility (1/GPa) = 0.02565578
#
# Stress axis : x y z
#
# Youngs Moduli (GPa) = 48.93204 24.25897 18.64593
#
# Poissons Ratio (x) = -0.22805 0.26189
# Poissons Ratio (y) = -0.46000 0.74905
# Poissons Ratio (z) = 0.68727 0.97453
#
# Static dielectric constant tensor:
#      x y z
#    x 1.881160 -0.030400 -0.022930 
#    y -0.030400 1.875440 0.034560 
#    z -0.022930 0.034560 1.882260 
# 
# From -- ./inp_files/306382.got.cif
#   From: 2010.05.17/outbox.cif.g08.bks.cpg/sg2_154_cif.got.tgz:306382.got - 2010.06.03 11:33:40.
