data_PCOD9097471
_publ_section_title
;
Structure prediction by ZEFSAII (Michael W. Deem and Ramdas Pophale) SiO2 
 PCOD9097471
Probable space group: P -1
;
_chemical_formula_sum "Si O2"
_cell_formula_units_Z 15
_cell_length_a 8.346520
_cell_length_b 17.529801
_cell_length_c 6.641029
_cell_angle_alpha 44.298445
_cell_angle_beta 90.186684
_cell_angle_gamma 78.821597
_cell_volume 651.277330
_symmetry_space_group_name_H-M "P -1"
_symmetry_group_IT_number 2
_symmetry_cell_setting 'triclinic'
loop_
_space_group_symop_operation_xyz
x,y,z
-x,-y,-z
loop_
_atom_site_type_symbol
_atom_site_label
_atom_site_fract_x
_atom_site_fract_y
_atom_site_fract_z
Si Si1 0.500000 0.500000 0.500000
Si Si2 0.125291 0.955734 0.396968
Si Si3 0.986531 0.614547 0.159288
Si Si4 0.791554 0.328156 0.653727
Si Si5 0.844962 0.905596 0.251147
Si Si6 0.668579 0.692955 0.228800
Si Si7 0.344881 0.880933 0.894460
Si Si8 0.897160 0.656385 0.644698
O O1 0.624805 0.430890 0.448453
O O2 0.579861 0.608560 0.280470
O O3 0.295241 0.899998 0.622342
O O4 0.027011 0.885108 0.396936
O O5 0.000000 0.000000 0.500000
O O6 0.145823 0.049028 0.061043
O O7 0.821530 0.705307 0.070327
O O8 0.000000 0.500000 0.500000
O O9 0.145181 0.655989 0.146729
O O10 0.960778 0.591322 0.972429
O O11 0.940652 0.337909 0.493494
O O12 0.753347 0.208198 0.859564
O O13 0.808791 0.785948 0.468392
O O14 0.718448 0.004043 0.194788
O O15 0.759217 0.629957 0.549564
O O16 0.537329 0.812915 0.043977
#
# Coordination Sequence:
#
# PCOD9097471 Si02
#       8
#     1   2   2   2   2   2   2   2
#     4  10  20  46  62  88 128 154 210 268 316 366
#     4   9  17  32  59  89 127 168 206 248 304 360
#     4  11  23  45  67  89 126 168 213 267 318 377
#     4  10  21  39  67  92 122 165 211 262 309 379
#     4  10  20  36  60  94 130 166 208 255 302 379
#     4  10  24  42  64  93 125 166 212 262 316 383
#     4  10  21  38  64  95 132 165 209 256 312 367
#     4  11  24  40  65  96 125 168 216 253 318 382
#
# _framework density 23.031663000000002
#
# number of rings (size 3 to 8) (size 9 to 14) (size 15 to 20)
#    0.000    1.867    1.333    3.200    0.000    6.933 
#    0.000    6.667    0.000    0.000    0.000    0.000 
#    0.000    0.000    0.000    0.000    0.000    0.000 
#
# Total GULP energy -83535.554544 kJ/mol
# GULP energy per Si atom -5569.036970 kJ/mol
# Density = 2.297924 g / cm^3
# Si number density = 23.031663 Si / 1000 Ang^3
#
#
#
# Elastic Constant Matrix: (Units=GPa)
#
#
# Indices 1 2 3 4 5 6 
#
# 1 31.9873 1.8903 7.8095 7.7248 14.3354 -8.6879
# 2 1.8903 106.2153 21.2573 -6.9391 5.1314 -8.3485
# 3 7.8095 21.2573 103.2754 26.8359 27.5084 -6.3479
# 4 7.7248 -6.9391 26.8359 38.1208 7.5362 2.5962
# 5 14.3354 5.1314 27.5084 7.5362 24.6182 -7.7211
# 6 -8.6879 -8.3485 -6.3479 2.5962 -7.7211 28.5087
#
#
#
# Elastic Compliance Matrix: (Units=1/GPa)
#
#
# Indices 1 2 3 4 5 6 
#
# 1 0.047929 -0.000909 0.007866 -0.009926 -0.030753 0.008666
# 2 -0.000909 0.010470 -0.003438 0.004051 0.001603 0.002089
# 3 0.007866 -0.003438 0.018182 -0.011021 -0.020530 0.000882
# 4 -0.009926 0.004051 -0.011021 0.036376 0.004075 -0.006501
# 5 -0.030753 0.001603 -0.020530 0.004075 0.082557 0.008514
# 6 0.008666 0.002089 0.000882 -0.006501 0.008514 0.041424
#
#
# Mechanical properties :
#
#
# Convention : Reuss Voigt Hill
#
# Bulk Modulus (GPa) = 11.95889 33.71026 22.83458
# Shear Modulus (GPa) = 19.39694 32.28427 25.84060
#
# Velocity S-wave (km/s) = 2.90519 3.74804 3.35320
# Velocity P-wave (km/s) = 4.05674 5.77915 4.99278
#
# Compressibility (1/GPa) = 0.08361977
#
# Stress axis : x y z
#
# Youngs Moduli (GPa) = 20.86438 95.50737 54.99996
#
# Poissons Ratio (x) = 0.08679 -0.43262
# Poissons Ratio (y) = 0.01896 0.18907
# Poissons Ratio (z) = -0.16412 0.32832
#
# Static dielectric constant tensor:
#      x y z
#    x 1.945500 0.003180 0.045040 
#    y 0.003180 1.961330 -0.020770 
#    z 0.045040 -0.020770 1.914510 
# 
# From -- ./inp_files/43028.got.cif
#   From: 2010.05.17/outbox.cif.g08.bks.cpg/sg2_22_cif.got.tgz:43028.got - 2010.06.03 11:33:40.
