data_PCOD9097037
_publ_section_title
;
Structure prediction by ZEFSAII (Michael W. Deem and Ramdas Pophale) SiO2 
 PCOD9097037
Probable space group: P -1
;
_chemical_formula_sum "Si O2"
_cell_formula_units_Z 15
_cell_length_a 8.417328
_cell_length_b 13.745312
_cell_length_c 7.041701
_cell_angle_alpha 103.936856
_cell_angle_beta 127.899598
_cell_angle_gamma 75.410772
_cell_volume 618.185164
_symmetry_space_group_name_H-M "P -1"
_symmetry_group_IT_number 2
_symmetry_cell_setting 'triclinic'
loop_
_space_group_symop_operation_xyz
x,y,z
-x,-y,-z
loop_
_atom_site_type_symbol
_atom_site_label
_atom_site_fract_x
_atom_site_fract_y
_atom_site_fract_z
Si Si1 0.459529 0.162331 0.466796
Si Si2 0.316666 0.385191 0.417842
Si Si3 0.699731 0.968831 0.391628
Si Si4 0.156969 0.835368 0.012271
Si Si5 0.751079 0.370620 0.225681
Si Si6 0.654177 0.512612 0.885546
Si Si7 0.875524 0.961117 0.124000
Si Si8 0.000000 0.500000 0.500000
O O1 0.357747 0.266143 0.353634
O O2 0.347912 0.119543 0.545327
O O3 0.671481 0.191852 0.718030
O O4 0.526115 0.065154 0.336839
O O5 0.520791 0.429591 0.662457
O O6 0.245464 0.439632 0.194125
O O7 0.160587 0.405980 0.483601
O O8 0.906855 0.009862 0.629826
O O9 0.746016 0.935215 0.195247
O O10 0.174388 0.740006 0.841993
O O11 0.214015 0.933899 0.991484
O O12 0.944996 0.874133 0.980307
O O13 0.514160 0.399358 0.109591
O O14 0.882010 0.415543 0.501612
O O15 0.788458 0.459518 0.134588
#
# Coordination Sequence:
#
# PCOD9097037 Si02
#       8
#     2   2   2   2   2   2   2   1
#     4  10  20  36  59  84 118 152 194 229 284 339
#     4  10  20  39  56  88 109 159 184 245 277 354
#     4   9  20  38  57  85 117 151 188 240 276 347
#     4  10  20  36  60  84 116 153 190 233 287 342
#     4  10  20  39  59  86 109 158 184 253 280 347
#     4   9  20  38  62  78 117 142 206 229 288 340
#     4   9  20  38  57  86 118 149 191 232 288 344
#     4  10  24  38  56  82 122 138 200 240 300 318
#
# _framework density 24.264574
#
# number of rings (size 3 to 8) (size 9 to 14) (size 15 to 20)
#    0.000    2.400    1.333    0.000    3.733    1.067 
#    2.400    1.333    0.000    0.000    0.000    0.000 
#    0.000    0.000    0.000    0.000    0.000    0.000 
#
# Total GULP energy -83646.692294 kJ/mol
# GULP energy per Si atom -5576.446153 kJ/mol
# Density = 2.420935 g / cm^3
# Si number density = 24.264574 Si / 1000 Ang^3
#
#
#
# Elastic Constant Matrix: (Units=GPa)
#
#
# Indices 1 2 3 4 5 6 
#
# 1 108.6702 49.2945 9.4964 -14.6229 -19.1609 -2.4720
# 2 49.2945 135.6531 24.9375 9.2803 -7.0458 -21.3628
# 3 9.4964 24.9375 64.1516 1.4687 -5.9028 1.2260
# 4 -14.6229 9.2803 1.4687 38.3095 5.5933 -10.3088
# 5 -19.1609 -7.0458 -5.9028 5.5933 29.7400 1.4891
# 6 -2.4720 -21.3628 1.2260 -10.3088 1.4891 24.3472
#
#
#
# Elastic Compliance Matrix: (Units=1/GPa)
#
#
# Indices 1 2 3 4 5 6 
#
# 1 0.013289 -0.005169 0.000566 0.004927 0.006600 -0.001532
# 2 -0.005169 0.011447 -0.003948 -0.001962 -0.001482 0.008977
# 3 0.000566 -0.003948 0.017481 -0.001360 0.003408 -0.005071
# 4 0.004927 -0.001962 -0.001360 0.032624 -0.004343 0.012926
# 5 0.006600 -0.001482 0.003408 -0.004343 0.039272 -0.005043
# 6 -0.001532 0.008977 -0.005071 0.012926 -0.005043 0.054831
#
#
# Mechanical properties :
#
#
# Convention : Reuss Voigt Hill
#
# Bulk Modulus (GPa) = 39.81612 52.88131 46.34871
# Shear Modulus (GPa) = 25.71817 33.46242 29.59030
#
# Velocity S-wave (km/s) = 3.25915 3.71760 3.49590
# Velocity P-wave (km/s) = 5.53241 6.34574 5.95298
#
# Compressibility (1/GPa) = 0.02511546
#
# Stress axis : x y z
#
# Youngs Moduli (GPa) = 75.24959 87.36188 57.20653
#
# Poissons Ratio (x) = 0.45154 -0.03236
# Poissons Ratio (y) = 0.38893 0.22582
# Poissons Ratio (z) = -0.04257 0.34486
#
# Static dielectric constant tensor:
#      x y z
#    x 1.916940 -0.050800 -0.103510 
#    y -0.050800 1.823670 -0.230290 
#    z -0.103510 -0.230290 1.096020 
# 
# From -- ./inp_files/169225.got.cif
#   From: 2010.05.17/outbox.cif.g08.bks.cpg/sg2_85_cif.got.tgz:169225.got - 2010.06.03 11:33:40.
