data_PCOD9097989
_publ_section_title
;
Structure prediction by ZEFSAII (Michael W. Deem and Ramdas Pophale) SiO2 
 PCOD9097989
Probable space group: P -1
;
_chemical_formula_sum "Si O2"
_cell_formula_units_Z 16
_cell_length_a 12.312159
_cell_length_b 8.410819
_cell_length_c 14.971040
_cell_angle_alpha 98.701585
_cell_angle_beta 150.156909
_cell_angle_gamma 64.283025
_cell_volume 601.114755
_symmetry_space_group_name_H-M "P -1"
_symmetry_group_IT_number 2
_symmetry_cell_setting 'triclinic'
loop_
_space_group_symop_operation_xyz
x,y,z
-x,-y,-z
loop_
_atom_site_type_symbol
_atom_site_label
_atom_site_fract_x
_atom_site_fract_y
_atom_site_fract_z
Si Si1 0.452554 0.606165 0.249768
Si Si2 0.240421 0.175351 0.909664
Si Si3 0.487641 0.274222 0.883787
Si Si4 0.391011 0.206877 0.507736
Si Si5 0.781575 0.411967 0.753423
Si Si6 0.798729 0.455578 0.160099
Si Si7 0.497776 0.854093 0.616234
Si Si8 0.129642 0.854801 0.494906
O O1 0.431529 0.725150 0.159383
O O2 0.655876 0.603292 0.463031
O O3 0.209333 0.687145 0.154608
O O4 0.607181 0.374975 0.310650
O O5 0.323003 0.322417 0.954701
O O6 0.035992 0.279117 0.857808
O O7 0.080839 0.160098 0.712761
O O8 0.458038 0.936278 0.072611
O O9 0.191063 0.476632 0.725462
O O10 0.674068 0.330449 0.069175
O O11 0.560776 0.133946 0.531501
O O12 0.073380 0.296193 0.284388
O O13 0.551109 0.017542 0.673076
O O14 0.500000 0.500000 0.500000
O O15 0.734688 0.615599 0.770263
O O16 0.259242 0.917258 0.519701
O O17 0.000000 0.000000 0.500000
#
# Coordination Sequence:
#
# PCOD9097989 Si02
#       8
#     2   2   2   2   2   2   2   2
#     4  11  23  44  65 103 133 166 222 290 325 390
#     4  12  22  47  72  94 131 192 218 267 342 408
#     4  11  29  43  64  98 145 174 219 278 345 399
#     4  11  20  39  73  96 124 170 233 277 321 392
#     4  11  18  41  69  97 131 171 224 278 330 394
#     4  11  24  46  68  92 135 188 223 265 338 413
#     4  10  20  36  63 106 125 162 218 286 328 381
#     4  11  23  38  69 100 133 171 224 274 330 391
#
# _framework density 26.617213
#
# number of rings (size 3 to 8) (size 9 to 14) (size 15 to 20)
#    0.000    1.000    6.250    1.125    5.250    2.000 
#    4.500    0.625    0.000    0.000    0.000    0.000 
#    0.000    0.000    0.000    0.000    0.000    0.000 
#
# Total GULP energy -89169.756273 kJ/mol
# GULP energy per Si atom -5573.109767 kJ/mol
# Density = 2.655663 g / cm^3
# Si number density = 26.617213 Si / 1000 Ang^3
#
#
#
# Elastic Constant Matrix: (Units=GPa)
#
#
# Indices 1 2 3 4 5 6 
#
# 1 205.1948 100.3131 30.0889 -5.3955 7.4794 -11.1289
# 2 100.3131 145.1412 20.9597 -15.2012 -8.3787 -28.9717
# 3 30.0889 20.9597 26.0169 -3.6505 -7.7696 -2.5871
# 4 -5.3955 -15.2012 -3.6505 26.6769 -7.1387 -1.3395
# 5 7.4794 -8.3787 -7.7696 -7.1387 25.2457 -10.4703
# 6 -11.1289 -28.9717 -2.5871 -1.3395 -10.4703 62.8396
#
#
#
# Elastic Compliance Matrix: (Units=1/GPa)
#
#
# Indices 1 2 3 4 5 6 
#
# 1 0.010606 -0.008302 -0.011262 -0.008022 -0.013647 -0.004858
# 2 -0.008302 0.016176 0.004293 0.013048 0.016662 0.009219
# 3 -0.011262 0.004293 0.060733 0.017383 0.031746 0.008145
# 4 -0.008022 0.013048 0.017383 0.054982 0.032541 0.011904
# 5 -0.013647 0.016662 0.031746 0.032541 0.076452 0.020004
# 6 -0.004858 0.009219 0.008145 0.011904 0.020004 0.023226
#
#
# Mechanical properties :
#
#
# Convention : Reuss Voigt Hill
#
# Bulk Modulus (GPa) = 17.55237 75.45292 46.50265
# Shear Modulus (GPa) = 17.14035 37.95184 27.54610
#
# Velocity S-wave (km/s) = 2.54038 3.78012 3.22047
# Velocity P-wave (km/s) = 3.90044 6.88922 5.59798
#
# Compressibility (1/GPa) = 0.05697235
#
# Stress axis : x y z
#
# Youngs Moduli (GPa) = 94.28297 61.81943 16.46550
#
# Poissons Ratio (x) = 0.51321 0.18544
# Poissons Ratio (y) = 0.78271 -0.07068
# Poissons Ratio (z) = 1.06186 -0.26536
#
# Static dielectric constant tensor:
#      x y z
#    x 2.176310 0.091160 0.057820 
#    y 0.091160 2.192730 0.035110 
#    z 0.057820 0.035110 2.231550 
# 
# From -- ./inp_files/515794.got.cif
#   From: 2010.05.17/outbox.cif.g08.bks.cpg/sg2_258_cif.got.tgz:515794.got - 2010.06.03 11:33:40.
