data_PCOD9097483
_publ_section_title
;
Structure prediction by ZEFSAII (Michael W. Deem and Ramdas Pophale) SiO2 
 PCOD9097483
Probable space group: P -1
;
_chemical_formula_sum "Si O2"
_cell_formula_units_Z 16
_cell_length_a 13.130912
_cell_length_b 18.468865
_cell_length_c 11.267234
_cell_angle_alpha 147.826159
_cell_angle_beta 124.297334
_cell_angle_gamma 32.447467
_cell_volume 663.028827
_symmetry_space_group_name_H-M "P -1"
_symmetry_group_IT_number 2
_symmetry_cell_setting 'triclinic'
loop_
_space_group_symop_operation_xyz
x,y,z
-x,-y,-z
loop_
_atom_site_type_symbol
_atom_site_label
_atom_site_fract_x
_atom_site_fract_y
_atom_site_fract_z
Si Si1 0.412572 0.292426 0.666077
Si Si2 0.344657 0.750561 0.400545
Si Si3 0.864649 0.886793 0.537867
Si Si4 0.117011 0.685235 0.201532
Si Si5 0.578410 0.208405 0.235856
Si Si6 0.013122 0.032545 0.919473
Si Si7 0.690224 0.811777 0.762232
Si Si8 0.091280 0.608330 0.534882
O O1 0.475114 0.376509 0.756792
O O2 0.381811 0.211914 0.429956
O O3 0.626648 0.065371 0.575039
O O4 0.198422 0.508018 0.907863
O O5 0.304125 0.632515 0.249506
O O6 0.397568 0.787395 0.603244
O O7 0.111126 0.029100 0.588489
O O8 0.056981 0.672970 0.271010
O O9 0.902998 0.795966 0.570321
O O10 0.891829 0.027228 0.758791
O O11 0.315067 0.433486 0.360293
O O12 0.727009 0.190184 0.251583
O O13 0.703131 0.955310 0.929620
O O14 0.905950 0.279550 0.204165
O O15 0.000000 0.000000 0.000000
O O16 0.883756 0.557117 0.610058
O O17 0.500000 0.000000 0.000000
#
# Coordination Sequence:
#
# PCOD9097483 Si02
#       8
#     2   2   2   2   2   2   2   2
#     4  11  22  39  64  92 132 169 214 265 319 381
#     4  10  20  36  60  96 126 165 208 272 314 381
#     4  10  23  40  62  96 133 165 212 266 324 389
#     4  10  22  36  61  94 133 164 214 259 336 378
#     4  11  22  41  66  91 134 163 215 271 314 371
#     4  10  23  40  63 100 132 166 215 262 328 391
#     4  10  22  43  66  94 126 173 223 265 312 376
#     4  10  23  41  66  95 129 176 213 259 328 377
#
# _framework density 24.131681
#
# number of rings (size 3 to 8) (size 9 to 14) (size 15 to 20)
#    0.000    1.750    3.750    0.375    3.500    4.500 
#    0.000    2.500    0.000    6.000    0.000    0.000 
#    0.000    0.000    0.000    0.000    0.000    0.000 
#
# Total GULP energy -89375.231874 kJ/mol
# GULP energy per Si atom -5585.951992 kJ/mol
# Density = 2.407676 g / cm^3
# Si number density = 24.131681 Si / 1000 Ang^3
#
#
#
# Elastic Constant Matrix: (Units=GPa)
#
#
# Indices 1 2 3 4 5 6 
#
# 1 67.7662 29.4948 15.1814 -5.8620 -17.7815 0.2011
# 2 29.4948 114.0724 20.4351 -20.8385 -1.6996 12.2848
# 3 15.1814 20.4351 111.8964 -24.9032 -16.2620 1.4207
# 4 -5.8620 -20.8385 -24.9032 34.1890 1.9717 -7.6857
# 5 -17.7815 -1.6996 -16.2620 1.9717 37.5113 -5.9803
# 6 0.2011 12.2848 1.4207 -7.6857 -5.9803 22.2819
#
#
#
# Elastic Compliance Matrix: (Units=1/GPa)
#
#
# Indices 1 2 3 4 5 6 
#
# 1 0.019814 -0.005439 -0.000172 0.000672 0.009950 0.005733
# 2 -0.005439 0.011714 -0.000845 0.004503 -0.003569 -0.005760
# 3 -0.000172 -0.000845 0.011731 0.008620 0.005163 0.004078
# 4 0.000672 0.004503 0.008620 0.040886 0.004047 0.012151
# 5 0.009950 -0.003569 0.005163 0.004047 0.035215 0.012396
# 6 0.005733 -0.005760 0.004078 0.012151 0.012396 0.055262
#
#
# Mechanical properties :
#
#
# Convention : Reuss Voigt Hill
#
# Bulk Modulus (GPa) = 32.95112 47.10641 40.02877
# Shear Modulus (GPa) = 25.29731 34.03802 29.66767
#
# Velocity S-wave (km/s) = 3.24126 3.75975 3.51009
# Velocity P-wave (km/s) = 5.26233 6.19763 5.74903
#
# Compressibility (1/GPa) = 0.03034798
#
# Stress axis : x y z
#
# Youngs Moduli (GPa) = 50.46832 85.37061 85.24127
#
# Poissons Ratio (x) = 0.46432 0.01468
# Poissons Ratio (y) = 0.27449 0.07200
# Poissons Ratio (z) = 0.00869 0.07211
#
# Static dielectric constant tensor:
#      x y z
#    x 2.068360 -0.040890 0.062940 
#    y -0.040890 1.908920 0.052230 
#    z 0.062940 0.052230 2.034940 
# 
# From -- ./inp_files/457748.got.cif
#   From: 2010.05.17/outbox.cif.g08.bks.cpg/sg2_229_cif.got.tgz:457748.got - 2010.06.03 11:33:40.
