data_PCOD9097748
_publ_section_title
;
Structure prediction by ZEFSAII (Michael W. Deem and Ramdas Pophale) SiO2 
 PCOD9097748
Probable space group: P -1
;
_chemical_formula_sum "Si O2"
_cell_formula_units_Z 16
_cell_length_a 12.158333
_cell_length_b 14.733598
_cell_length_c 8.604623
_cell_angle_alpha 115.603162
_cell_angle_beta 115.659077
_cell_angle_gamma 37.484694
_cell_volume 834.430953
_symmetry_space_group_name_H-M "P -1"
_symmetry_group_IT_number 2
_symmetry_cell_setting 'triclinic'
loop_
_space_group_symop_operation_xyz
x,y,z
-x,-y,-z
loop_
_atom_site_type_symbol
_atom_site_label
_atom_site_fract_x
_atom_site_fract_y
_atom_site_fract_z
Si Si1 0.297880 0.861414 0.555136
Si Si2 0.812547 0.617471 0.876720
Si Si3 0.058358 0.869643 0.637209
Si Si4 0.170238 0.619334 0.304658
Si Si5 0.906654 0.774242 0.957101
Si Si6 0.203315 0.702949 0.902042
Si Si7 0.445742 0.918174 0.931510
Si Si8 0.567695 0.403398 0.738464
O O1 0.178597 0.879244 0.628988
O O2 0.394939 0.894309 0.721934
O O3 0.428678 0.697673 0.439125
O O4 0.151731 0.983749 0.426788
O O5 0.798725 0.514184 0.723341
O O6 0.833247 0.704758 0.848558
O O7 0.631844 0.747184 0.968838
O O8 0.000000 0.500000 0.000000
O O9 0.114542 0.728997 0.488118
O O10 0.105896 0.837475 0.822589
O O11 0.349220 0.556295 0.283504
O O12 0.009927 0.719982 0.148275
O O13 0.056603 0.711324 0.875797
O O14 0.738824 0.957000 0.988744
O O15 0.373895 0.549709 0.801106
O O16 0.289802 0.697489 0.106170
O O17 0.500000 0.000000 0.000000
#
# Coordination Sequence:
#
# PCOD9097748 Si02
#       8
#     2   2   2   2   2   2   2   2
#     4  10  21  38  58  87 113 150 199 241 282 332
#     4   9  19  33  59  86 106 147 196 238 281 328
#     4  10  21  34  58  86 116 152 190 241 287 340
#     4   9  17  34  57  83 113 142 197 244 271 333
#     4   9  18  38  55  81 116 150 186 236 287 337
#     4  10  21  37  55  83 124 155 181 235 297 347
#     4  10  20  36  62  84 111 147 197 243 277 331
#     4   9  21  37  55  84 122 150 189 239 287 345
#
# _framework density 19.174744
#
# number of rings (size 3 to 8) (size 9 to 14) (size 15 to 20)
#    0.000    2.500    1.250    0.000    5.250    1.500 
#    0.000    0.625    0.000    3.000    0.000    0.000 
#    0.000    0.000    0.000    0.000    0.000    0.000 
#
# Total GULP energy -89194.084626 kJ/mol
# GULP energy per Si atom -5574.630289 kJ/mol
# Density = 1.913110 g / cm^3
# Si number density = 19.174744 Si / 1000 Ang^3
#
#
#
# Elastic Constant Matrix: (Units=GPa)
#
#
# Indices 1 2 3 4 5 6 
#
# 1 63.3538 35.6949 35.3637 5.0747 13.8345 -11.0515
# 2 35.6949 90.7905 22.8299 -2.6115 12.1053 -11.5535
# 3 35.3637 22.8299 70.4939 -1.5446 23.7342 6.8024
# 4 5.0747 -2.6115 -1.5446 33.9208 10.4818 -4.1092
# 5 13.8345 12.1053 23.7342 10.4818 24.5229 0.7675
# 6 -11.0515 -11.5535 6.8024 -4.1092 0.7675 29.5053
#
#
#
# Elastic Compliance Matrix: (Units=1/GPa)
#
#
# Indices 1 2 3 4 5 6 
#
# 1 0.029729 -0.007126 -0.014767 -0.005252 0.002940 0.010942
# 2 -0.007126 0.015142 0.000366 0.004544 -0.005875 0.003961
# 3 -0.014767 0.000366 0.031758 0.010700 -0.026831 -0.010521
# 4 -0.005252 0.004544 0.010700 0.039808 -0.026763 0.003585
# 5 0.002940 -0.005875 -0.026831 -0.026763 0.079453 -0.000807
# 6 0.010942 0.003961 -0.010521 0.003585 -0.000807 0.042488
#
#
# Mechanical properties :
#
#
# Convention : Reuss Voigt Hill
#
# Bulk Modulus (GPa) = 29.78254 45.82390 37.80322
# Shear Modulus (GPa) = 17.08680 26.30645 21.69663
#
# Velocity S-wave (km/s) = 2.98838 3.70798 3.36746
# Velocity P-wave (km/s) = 5.24148 6.50247 5.90573
#
# Compressibility (1/GPa) = 0.03357672
#
# Stress axis : x y z
#
# Youngs Moduli (GPa) = 33.63676 66.04166 31.48768
#
# Poissons Ratio (x) = 0.47059 0.46498
# Poissons Ratio (y) = 0.23969 -0.01153
# Poissons Ratio (z) = 0.49672 -0.02419
#
# Static dielectric constant tensor:
#      x y z
#    x 1.663890 -0.015640 0.020910 
#    y -0.015640 1.729860 -0.020010 
#    z 0.020910 -0.020010 1.660550 
# 
# From -- ./inp_files/204319.got.cif
#   From: 2010.05.17/outbox.cif.g08.bks.cpg/sg2_103_cif.got.tgz:204319.got - 2010.06.03 11:33:40.
