data_PCOD9097656
_publ_section_title
;
Structure prediction by ZEFSAII (Michael W. Deem and Ramdas Pophale) SiO2 
 PCOD9097656
Probable space group: P -1
;
_chemical_formula_sum "Si O2"
_cell_formula_units_Z 16
_cell_length_a 19.232916
_cell_length_b 8.060891
_cell_length_c 14.013478
_cell_angle_alpha 118.590221
_cell_angle_beta 142.146555
_cell_angle_gamma 93.447820
_cell_volume 681.828669
_symmetry_space_group_name_H-M "P -1"
_symmetry_group_IT_number 2
_symmetry_cell_setting 'triclinic'
loop_
_space_group_symop_operation_xyz
x,y,z
-x,-y,-z
loop_
_atom_site_type_symbol
_atom_site_label
_atom_site_fract_x
_atom_site_fract_y
_atom_site_fract_z
Si Si1 0.002169 0.641732 0.449945
Si Si2 0.986724 0.025929 0.317743
Si Si3 0.038735 0.365273 0.290928
Si Si4 0.442342 0.183467 0.081805
Si Si5 0.453165 0.082854 0.867488
Si Si6 0.166229 0.873207 0.168069
Si Si7 0.839500 0.100182 0.614752
Si Si8 0.530447 0.475628 0.637631
O O1 0.936002 0.756593 0.445341
O O2 0.928152 0.406764 0.220400
O O3 0.000000 0.500000 0.500000
O O4 0.230502 0.977302 0.771647
O O5 0.043769 0.231681 0.346386
O O6 0.089888 0.967796 0.397737
O O7 0.750908 0.705658 0.962341
O O8 0.250708 0.716412 0.585201
O O9 0.931993 0.131553 0.020960
O O10 0.513194 0.403001 0.307342
O O11 0.429206 0.946922 0.037936
O O12 0.537030 0.303961 0.111846
O O13 0.370221 0.101918 0.700316
O O14 0.176959 0.973623 0.312280
O O15 0.375646 0.116655 0.414483
O O16 0.013157 0.492119 0.904890
O O17 0.500000 0.500000 0.500000
#
# Coordination Sequence:
#
# PCOD9097656 Si02
#       8
#     2   2   2   2   2   2   2   2
#     4   8  16  33  59  86 115 145 198 248 292 340
#     4  10  20  36  61  92 117 155 200 247 301 354
#     4   9  17  34  61  87 112 156 203 245 285 344
#     4   9  19  36  63  86 113 150 208 250 290 349
#     4   9  19  39  62  86 116 154 200 253 295 349
#     4  10  22  40  58  85 124 164 200 240 293 362
#     4  10  23  40  60  86 126 162 195 241 309 363
#     4  11  22  37  61  93 119 153 206 256 287 348
#
# _framework density 23.466307
#
# number of rings (size 3 to 8) (size 9 to 14) (size 15 to 20)
#    0.000    2.500    1.250    0.000    1.750    4.000 
#    0.000   10.625    0.000    0.000    0.000    0.000 
#    0.000    0.000    0.000    0.000    0.000    0.000 
#
# Total GULP energy -89128.705611 kJ/mol
# GULP energy per Si atom -5570.544101 kJ/mol
# Density = 2.341290 g / cm^3
# Si number density = 23.466307 Si / 1000 Ang^3
#
#
#
# Elastic Constant Matrix: (Units=GPa)
#
#
# Indices 1 2 3 4 5 6 
#
# 1 121.4907 37.3736 36.7489 -14.8825 -23.2420 -12.6157
# 2 37.3736 45.9334 11.6617 -7.3451 -7.1234 -5.6355
# 3 36.7489 11.6617 74.6297 2.9195 -6.9468 4.6509
# 4 -14.8825 -7.3451 2.9195 27.8088 10.6768 9.3475
# 5 -23.2420 -7.1234 -6.9468 10.6768 38.5231 5.3011
# 6 -12.6157 -5.6355 4.6509 9.3475 5.3011 41.4131
#
#
#
# Elastic Compliance Matrix: (Units=1/GPa)
#
#
# Indices 1 2 3 4 5 6 
#
# 1 0.014025 -0.008500 -0.005417 0.003223 0.004690 0.002396
# 2 -0.008500 0.029356 -0.000664 0.003321 -0.000855 0.000840
# 3 -0.005417 -0.000664 0.016625 -0.004343 0.001193 -0.002780
# 4 0.003223 0.003321 -0.004343 0.045125 -0.009766 -0.007014
# 5 0.004690 -0.000855 0.001193 -0.009766 0.031644 -0.000668
# 6 0.002396 0.000840 -0.002780 -0.007014 -0.000668 0.026972
#
#
# Mechanical properties :
#
#
# Convention : Reuss Voigt Hill
#
# Bulk Modulus (GPa) = 32.41936 45.95799 39.18867
# Shear Modulus (GPa) = 24.60756 31.96697 28.28726
#
# Velocity S-wave (km/s) = 3.24177 3.69487 3.47571
# Velocity P-wave (km/s) = 5.27801 6.15061 5.73094
#
# Compressibility (1/GPa) = 0.03084577
#
# Stress axis : x y z
#
# Youngs Moduli (GPa) = 71.29996 34.06429 60.15085
#
# Poissons Ratio (x) = 0.28953 0.32584
# Poissons Ratio (y) = 0.60602 0.03993
# Poissons Ratio (z) = 0.38623 0.02261
#
# Static dielectric constant tensor:
#      x y z
#    x 1.969440 -0.017690 0.022600 
#    y -0.017690 1.963840 0.035430 
#    z 0.022600 0.035430 1.985280 
# 
# From -- ./inp_files/537514.got.cif
#   From: 2010.05.17/outbox.cif.g08.bks.cpg/sg2_269_cif.got.tgz:537514.got - 2010.06.03 11:33:40.
