data_PCOD9097391
_publ_section_title
;
Structure prediction by ZEFSAII (Michael W. Deem and Ramdas Pophale) SiO2 
 PCOD9097391
Probable space group: P -1
;
_chemical_formula_sum "Si O2"
_cell_formula_units_Z 15
_cell_length_a 6.625698
_cell_length_b 23.169172
_cell_length_c 12.516588
_cell_angle_alpha 159.160519
_cell_angle_beta 114.267106
_cell_angle_gamma 68.129794
_cell_volume 622.758168
_symmetry_space_group_name_H-M "P -1"
_symmetry_group_IT_number 2
_symmetry_cell_setting 'triclinic'
loop_
_space_group_symop_operation_xyz
x,y,z
-x,-y,-z
loop_
_atom_site_type_symbol
_atom_site_label
_atom_site_fract_x
_atom_site_fract_y
_atom_site_fract_z
Si Si1 0.545011 0.031299 0.213186
Si Si2 0.000000 0.500000 0.000000
Si Si3 0.836466 0.122130 0.233894
Si Si4 0.801242 0.636171 0.980396
Si Si5 0.703844 0.347355 0.140494
Si Si6 0.867687 0.113850 0.593899
Si Si7 0.773065 0.674162 0.385512
Si Si8 0.958741 0.621065 0.559301
O O1 0.729140 0.056109 0.204214
O O2 0.673237 0.017004 0.324336
O O3 0.400533 0.194671 0.459635
O O4 0.377163 0.879467 0.891149
O O5 0.182816 0.436537 0.023978
O O6 0.220368 0.509063 0.969507
O O7 0.988428 0.286042 0.562120
O O8 0.000000 0.000000 0.000000
O O9 0.955808 0.798483 0.294166
O O10 0.558531 0.665771 0.932654
O O11 0.903661 0.511169 0.703177
O O12 0.856129 0.287997 0.169298
O O13 0.787476 0.531865 0.449202
O O14 0.761430 0.247619 0.875632
O O15 0.000000 0.000000 0.500000
O O16 0.829600 0.698201 0.564396
#
# Coordination Sequence:
#
# PCOD9097391 Si02
#       8
#     2   1   2   2   2   2   2   2
#     4  10  21  39  59  83 116 152 194 243 291 342
#     4  10  20  36  60  90 122 150 190 238 286 350
#     4   9  20  37  59  83 111 148 192 242 289 341
#     4  10  21  39  61  86 116 154 192 237 292 343
#     4  10  21  40  59  81 118 154 189 238 289 342
#     4  11  25  39  56  85 118 155 198 237 282 345
#     4  10  20  36  61  90 117 151 191 240 296 348
#     4   9  21  37  59  89 114 145 194 239 286 350
#
# _framework density 24.086397000000002
#
# number of rings (size 3 to 8) (size 9 to 14) (size 15 to 20)
#    0.000    2.133    0.000    2.000    0.000    9.067 
#    0.000    7.333    0.000    0.000    0.000    0.000 
#    0.000    0.000    0.000    0.000    0.000    0.000 
#
# Total GULP energy -83597.654521 kJ/mol
# GULP energy per Si atom -5573.176968 kJ/mol
# Density = 2.403158 g / cm^3
# Si number density = 24.086397 Si / 1000 Ang^3
#
#
#
# Elastic Constant Matrix: (Units=GPa)
#
#
# Indices 1 2 3 4 5 6 
#
# 1 74.7532 9.8184 18.8990 5.0323 -6.9371 -11.2695
# 2 9.8184 106.0887 12.3988 -25.2863 -4.2637 -11.8787
# 3 18.8990 12.3988 68.3005 -24.6330 8.4495 -7.5339
# 4 5.0323 -25.2863 -24.6330 51.4394 -8.1057 -3.6549
# 5 -6.9371 -4.2637 8.4495 -8.1057 31.7660 -1.5816
# 6 -11.2695 -11.8787 -7.5339 -3.6549 -1.5816 30.0926
#
#
#
# Elastic Compliance Matrix: (Units=1/GPa)
#
#
# Indices 1 2 3 4 5 6 
#
# 1 0.016240 -0.001185 -0.005811 -0.004033 0.004097 0.003884
# 2 -0.001185 0.011930 0.001044 0.007387 0.003228 0.005594
# 3 -0.005811 0.001044 0.020939 0.010853 -0.003700 0.004602
# 4 -0.004033 0.007387 0.010853 0.030070 0.005298 0.008053
# 5 0.004097 0.003228 -0.003700 0.005298 0.035363 0.004384
# 6 0.003884 0.005594 0.004602 0.008053 0.004384 0.039254
#
#
# Mechanical properties :
#
#
# Convention : Reuss Voigt Hill
#
# Bulk Modulus (GPa) = 26.87886 36.81943 31.84914
# Shear Modulus (GPa) = 28.07373 36.52803 32.30088
#
# Velocity S-wave (km/s) = 3.41771 3.89850 3.66600
# Velocity P-wave (km/s) = 5.17280 5.96524 5.58310
#
# Compressibility (1/GPa) = 0.03720396
#
# Stress axis : x y z
#
# Youngs Moduli (GPa) = 61.57822 83.81910 47.75750
#
# Poissons Ratio (x) = 0.09935 0.27753
# Poissons Ratio (y) = 0.07299 -0.04986
# Poissons Ratio (z) = 0.35784 -0.08750
#
# Static dielectric constant tensor:
#      x y z
#    x 1.959730 0.005420 0.102850 
#    y 0.005420 1.971570 0.050190 
#    z 0.102850 0.050190 2.071010 
# 
# From -- ./inp_files/72242.got.cif
#   From: 2010.05.17/outbox.cif.g08.bks.cpg/sg2_37_cif.got.tgz:72242.got - 2010.06.03 11:33:40.
