data_PCOD9097224
_publ_section_title
;
Structure prediction by ZEFSAII (Michael W. Deem and Ramdas Pophale) SiO2 
 PCOD9097224
Probable space group: P -1
;
_chemical_formula_sum "Si O2"
_cell_formula_units_Z 16
_cell_length_a 14.445976
_cell_length_b 8.129386
_cell_length_c 9.599826
_cell_angle_alpha 62.950237
_cell_angle_beta 111.913102
_cell_angle_gamma 142.700952
_cell_volume 608.294213
_symmetry_space_group_name_H-M "P -1"
_symmetry_group_IT_number 2
_symmetry_cell_setting 'triclinic'
loop_
_space_group_symop_operation_xyz
x,y,z
-x,-y,-z
loop_
_atom_site_type_symbol
_atom_site_label
_atom_site_fract_x
_atom_site_fract_y
_atom_site_fract_z
Si Si1 0.053992 0.397511 0.982744
Si Si2 0.901413 0.200339 0.696511
Si Si3 0.618953 0.002634 0.550119
Si Si4 0.860079 0.913180 0.516700
Si Si5 0.758677 0.802135 0.010808
Si Si6 0.340859 0.644645 0.194620
Si Si7 0.523060 0.780022 0.853670
Si Si8 0.597946 0.772141 0.349098
O O1 0.924226 0.059164 0.072917
O O2 0.217936 0.552595 0.054241
O O3 0.034655 0.413631 0.801121
O O4 0.000000 0.500000 0.000000
O O5 0.921601 0.145745 0.576966
O O6 0.792143 0.227303 0.618706
O O7 0.803098 0.902939 0.836524
O O8 0.589969 0.074872 0.804617
O O9 0.500000 0.000000 0.500000
O O10 0.534256 0.743621 0.709281
O O11 0.638687 0.980813 0.409618
O O12 0.751922 0.610153 0.648582
O O13 0.751665 0.875385 0.363242
O O14 0.000000 0.000000 0.500000
O O15 0.653060 0.481896 0.103694
O O16 0.642293 0.805779 0.981991
O O17 0.485696 0.721553 0.200590
O O18 0.500000 0.500000 0.500000
#
# Coordination Sequence:
#
# PCOD9097224 Si02
#       8
#     2   2   2   2   2   2   2   2
#     4  10  18  36  64 100 149 191 221 288 368 439
#     4   8  19  37  61 100 146 186 243 294 363 424
#     4  10  16  30  60  96 133 188 231 291 355 420
#     4  10  22  43  69 100 140 198 248 304 361 426
#     4   8  18  34  59  97 150 184 239 284 355 426
#     4  11  20  36  67 106 143 184 239 292 372 424
#     4  10  17  33  60 103 139 194 238 287 350 441
#     4   9  20  37  60 100 136 184 237 302 359 419
#
# _framework density 26.303062000000001
#
# number of rings (size 3 to 8) (size 9 to 14) (size 15 to 20)
#    0.750    1.750    2.500    0.000    0.000    0.500 
#    4.500    0.625    0.000   14.250    3.250    2.625 
#    0.000    0.000    0.000    0.000    0.000    0.000 
#
# Total GULP energy -89311.393154 kJ/mol
# GULP energy per Si atom -5581.962072 kJ/mol
# Density = 2.624319 g / cm^3
# Si number density = 26.303062 Si / 1000 Ang^3
#
#
#
# Elastic Constant Matrix: (Units=GPa)
#
#
# Indices 1 2 3 4 5 6 
#
# 1 216.3870 48.8197 57.3326 29.2486 25.1507 29.0698
# 2 48.8197 120.9021 53.1561 16.4997 7.3668 16.3317
# 3 57.3326 53.1561 79.2510 32.3147 23.2972 21.8949
# 4 29.2486 16.4997 32.3147 43.6233 21.4376 10.0591
# 5 25.1507 7.3668 23.2972 21.4376 46.7418 5.5453
# 6 29.0698 16.3317 21.8949 10.0591 5.5453 36.9241
#
#
#
# Elastic Compliance Matrix: (Units=1/GPa)
#
#
# Indices 1 2 3 4 5 6 
#
# 1 0.006046 -0.000853 -0.002429 -0.000715 -0.001277 -0.002556
# 2 -0.000853 0.012142 -0.008672 0.001343 0.002284 -0.000265
# 3 -0.002429 -0.008672 0.028627 -0.012093 -0.005200 -0.007152
# 4 -0.000715 0.001343 -0.012093 0.037511 -0.010831 -0.001452
# 5 -0.001277 0.002284 -0.005200 -0.010831 0.029084 0.001662
# 6 -0.002556 -0.000265 -0.007152 -0.001452 0.001662 0.033599
#
#
# Mechanical properties :
#
#
# Convention : Reuss Voigt Hill
#
# Bulk Modulus (GPa) = 43.65401 81.68410 62.66906
# Shear Modulus (GPa) = 28.00306 42.60663 35.30484
#
# Velocity S-wave (km/s) = 3.26641 4.02908 3.66762
# Velocity P-wave (km/s) = 5.55504 7.26410 6.46628
#
# Compressibility (1/GPa) = 0.02290740
#
# Stress axis : x y z
#
# Youngs Moduli (GPa) = 165.40854 82.35918 34.93154
#
# Poissons Ratio (x) = 0.07024 0.08483
# Poissons Ratio (y) = 0.14107 0.30294
# Poissons Ratio (z) = 0.40170 0.71426
#
# Static dielectric constant tensor:
#      x y z
#    x 2.075800 -0.064810 -0.020760 
#    y -0.064810 2.148810 0.009350 
#    z -0.020760 0.009350 2.136640 
# 
# From -- ./inp_files/414714.got.cif
#   From: 2010.05.17/outbox.cif.g08.bks.cpg/sg2_208_cif.got.tgz:414714.got - 2010.06.03 11:33:40.
