data_PCOD9098018
_publ_section_title
;
Structure prediction by ZEFSAII (Michael W. Deem and Ramdas Pophale) SiO2 
 PCOD9098018
Probable space group: P -1
;
_chemical_formula_sum "Si O2"
_cell_formula_units_Z 16
_cell_length_a 7.848974
_cell_length_b 12.570355
_cell_length_c 16.606861
_cell_angle_alpha 23.069945
_cell_angle_beta 102.168285
_cell_angle_gamma 104.518932
_cell_volume 620.698821
_symmetry_space_group_name_H-M "P -1"
_symmetry_group_IT_number 2
_symmetry_cell_setting 'triclinic'
loop_
_space_group_symop_operation_xyz
x,y,z
-x,-y,-z
loop_
_atom_site_type_symbol
_atom_site_label
_atom_site_fract_x
_atom_site_fract_y
_atom_site_fract_z
Si Si1 0.760682 0.017306 0.868659
Si Si2 0.964549 0.288545 0.329916
Si Si3 0.080047 0.799910 0.858512
Si Si4 0.284123 0.384157 0.102769
Si Si5 0.836299 0.945647 0.160217
Si Si6 0.585903 0.423973 0.476148
Si Si7 0.605511 0.478390 0.161676
Si Si8 0.261647 0.578221 0.263749
O O1 0.680532 0.164648 0.682847
O O2 0.757870 0.230585 0.793065
O O3 0.964370 0.982190 0.901351
O O4 0.644669 0.718657 0.064168
O O5 0.089326 0.380705 0.354482
O O6 0.758224 0.295694 0.318076
O O7 0.021817 0.543453 0.094338
O O8 0.000000 0.000000 0.500000
O O9 0.901693 0.814475 0.782833
O O10 0.146773 0.062279 0.736297
O O11 0.229737 0.688449 0.899681
O O12 0.408084 0.333993 0.224943
O O13 0.360304 0.383718 0.020558
O O14 0.741765 0.671174 0.302685
O O15 0.715415 0.178045 0.969622
O O16 0.500000 0.500000 0.500000
O O17 0.427940 0.421500 0.399900
#
# Coordination Sequence:
#
# PCOD9098018 Si02
#       8
#     2   2   2   2   2   2   2   2
#     4  11  21  40  61  92 125 154 209 252 301 365
#     4  10  21  41  58  86 119 156 202 246 293 367
#     4   9  19  36  59  86 115 157 199 240 301 359
#     4   9  18  35  57  89 111 151 198 238 298 348
#     4  11  20  40  62  86 126 162 202 250 303 369
#     4  10  24  38  57  94 120 158 205 253 302 356
#     4  10  20  36  63  87 117 157 200 248 299 357
#     4  10  22  40  62  89 123 167 199 242 316 362
#
# _framework density 25.777398000000002
#
# number of rings (size 3 to 8) (size 9 to 14) (size 15 to 20)
#    0.000    2.000    3.750    1.125    3.500    3.000 
#    9.000    0.625    0.000    0.000    0.000    0.000 
#    0.000    0.000    0.000    0.000    0.000    0.000 
#
# Total GULP energy -89435.977496 kJ/mol
# GULP energy per Si atom -5589.748593 kJ/mol
# Density = 2.571873 g / cm^3
# Si number density = 25.777398 Si / 1000 Ang^3
#
#
#
# Elastic Constant Matrix: (Units=GPa)
#
#
# Indices 1 2 3 4 5 6 
#
# 1 97.5609 57.9592 33.4692 2.6572 20.4082 38.3323
# 2 57.9592 191.3738 49.1349 -13.3031 21.5318 45.4391
# 3 33.4692 49.1349 93.5341 -6.4431 15.0939 37.2163
# 4 2.6572 -13.3031 -6.4431 44.4687 2.2437 11.5179
# 5 20.4082 21.5318 15.0939 2.2437 31.6391 21.0494
# 6 38.3323 45.4391 37.2163 11.5179 21.0494 47.5336
#
#
#
# Elastic Compliance Matrix: (Units=1/GPa)
#
#
# Indices 1 2 3 4 5 6 
#
# 1 0.015899 -0.002071 -0.000201 0.001097 -0.002187 -0.009981
# 2 -0.002071 0.007766 -0.000553 0.004017 0.000308 -0.006430
# 3 -0.000201 -0.000553 0.017174 0.006148 0.001920 -0.015095
# 4 0.001097 0.004017 0.006148 0.029044 0.003677 -0.018204
# 5 -0.002187 0.000308 0.001920 0.003677 0.045714 -0.021168
# 6 -0.009981 -0.006430 -0.015095 -0.018204 -0.021168 0.060837
#
#
# Mechanical properties :
#
#
# Convention : Reuss Voigt Hill
#
# Bulk Modulus (GPa) = 28.41906 73.73281 51.07594
# Shear Modulus (GPa) = 25.79794 40.85533 33.32663
#
# Velocity S-wave (km/s) = 3.16697 3.98543 3.59954
# Velocity P-wave (km/s) = 4.94183 7.06003 6.09367
#
# Compressibility (1/GPa) = 0.03518765
#
# Stress axis : x y z
#
# Youngs Moduli (GPa) = 62.89816 128.76645 58.22896
#
# Poissons Ratio (x) = 0.26671 0.01171
# Poissons Ratio (y) = 0.13028 0.03219
# Poissons Ratio (z) = 0.01265 0.07119
#
# Static dielectric constant tensor:
#      x y z
#    x 2.057910 -0.007480 -0.061630 
#    y -0.007480 2.119030 0.059390 
#    z -0.061630 0.059390 2.054830 
# 
# From -- ./inp_files/590203.got.cif
#   From: 2010.05.17/outbox.cif.g08.bks.cpg/sg2_296_cif.got.tgz:590203.got - 2010.06.03 11:33:40.
