data_PCOD9098034
_publ_section_title
;
Structure prediction by ZEFSAII (Michael W. Deem and Ramdas Pophale) SiO2 
 PCOD9098034
Probable space group: P -1
;
_chemical_formula_sum "Si O2"
_cell_formula_units_Z 16
_cell_length_a 13.757424
_cell_length_b 19.078160
_cell_length_c 8.806540
_cell_angle_alpha 43.831153
_cell_angle_beta 134.335075
_cell_angle_gamma 149.795009
_cell_volume 786.235017
_symmetry_space_group_name_H-M "P -1"
_symmetry_group_IT_number 2
_symmetry_cell_setting 'triclinic'
loop_
_space_group_symop_operation_xyz
x,y,z
-x,-y,-z
loop_
_atom_site_type_symbol
_atom_site_label
_atom_site_fract_x
_atom_site_fract_y
_atom_site_fract_z
Si Si1 0.705157 0.082414 0.797637
Si Si2 0.674720 0.629494 0.101944
Si Si3 0.395755 0.067955 0.393424
Si Si4 0.280325 0.126498 0.722437
Si Si5 0.930462 0.587844 0.398228
Si Si6 0.227956 0.590681 0.797556
Si Si7 0.527176 0.407865 0.756209
Si Si8 0.161025 0.090497 0.314139
O O1 0.508234 0.044113 0.653065
O O2 0.895225 0.257569 0.742157
O O3 0.705913 0.040123 0.691953
O O4 0.705426 0.985560 0.056619
O O5 0.800451 0.598487 0.328559
O O6 0.592005 0.640938 0.140680
O O7 0.500000 0.500000 0.000000
O O8 0.810296 0.782969 0.921835
O O9 0.574072 0.233785 0.262794
O O10 0.245928 0.054717 0.345766
O O11 0.440761 0.275872 0.757537
O O12 0.283896 0.150582 0.510419
O O13 0.067364 0.047803 0.676666
O O14 0.798235 0.466071 0.312856
O O15 0.040345 0.562620 0.657109
O O16 0.261917 0.519229 0.066068
O O17 0.500000 0.500000 0.500000
#
# Coordination Sequence:
#
# PCOD9098034 Si02
#       8
#     2   2   2   2   2   2   2   2
#     4  10  20  36  63  89 119 153 204 252 305 360
#     4  12  21  38  63  89 119 161 210 246 306 373
#     4  10  20  38  61  89 117 161 201 250 304 369
#     4  11  24  39  57  90 126 160 201 262 304 353
#     4  10  21  35  63  91 117 161 202 250 296 369
#     4  10  20  39  60  87 124 157 204 248 303 361
#     4  12  25  40  62  90 124 160 204 260 309 363
#     4  11  23  38  59  87 126 160 204 253 303 365
#
# _framework density 20.350149999999999
#
# number of rings (size 3 to 8) (size 9 to 14) (size 15 to 20)
#    0.000    1.250    5.000    0.750    1.750    1.500 
#    0.000    0.625    0.000    1.500    0.000    0.000 
#    0.000    0.000    0.000    0.000    0.000    0.000 
#
# Total GULP energy -89385.500212 kJ/mol
# GULP energy per Si atom -5586.593763 kJ/mol
# Density = 2.030383 g / cm^3
# Si number density = 20.350150 Si / 1000 Ang^3
#
#
#
# Elastic Constant Matrix: (Units=GPa)
#
#
# Indices 1 2 3 4 5 6 
#
# 1 53.3760 -10.9042 18.9045 2.4428 27.8740 -3.4960
# 2 -10.9042 38.0858 4.9506 0.9493 -0.8633 -11.2583
# 3 18.9045 4.9506 134.9012 12.8286 27.8153 -0.0488
# 4 2.4428 0.9493 12.8286 20.9285 3.5562 5.1544
# 5 27.8740 -0.8633 27.8153 3.5562 37.9231 0.4237
# 6 -3.4960 -11.2583 -0.0488 5.1544 0.4237 16.7897
#
#
#
# Elastic Compliance Matrix: (Units=1/GPa)
#
#
# Indices 1 2 3 4 5 6 
#
# 1 0.038186 0.016875 0.000304 -0.006101 -0.027578 0.021837
# 2 0.016875 0.041465 -0.000779 -0.010164 -0.010323 0.034697
# 3 0.000304 -0.000779 0.009211 -0.004831 -0.006557 0.001216
# 4 -0.006101 -0.010164 -0.004831 0.057850 0.002661 -0.025927
# 5 -0.027578 -0.010323 -0.006557 0.002661 0.051130 -0.014791
# 6 0.021837 0.034697 0.001216 -0.025927 -0.014791 0.095709
#
#
# Mechanical properties :
#
#
# Convention : Reuss Voigt Hill
#
# Bulk Modulus (GPa) = 8.21949 28.02943 18.12446
# Shear Modulus (GPa) = 16.59455 29.35573 22.97514
#
# Velocity S-wave (km/s) = 2.85871 3.80219 3.36369
# Velocity P-wave (km/s) = 3.86576 5.75143 4.90016
#
# Compressibility (1/GPa) = 0.12166203
#
# Stress axis : x y z
#
# Youngs Moduli (GPa) = 26.18760 24.11677 108.56824
#
# Poissons Ratio (x) = -0.40698 -0.03298
# Poissons Ratio (y) = -0.44192 0.08456
# Poissons Ratio (z) = -0.00796 0.01878
#
# Static dielectric constant tensor:
#      x y z
#    x 1.692720 0.011390 0.038090 
#    y 0.011390 1.710940 0.004770 
#    z 0.038090 0.004770 1.762750 
# 
# From -- ./inp_files/314488.got.cif
#   From: 2010.05.17/outbox.cif.g08.bks.cpg/sg2_158_cif.got.tgz:314488.got - 2010.06.03 11:33:40.
