data_PCOD9098102
_publ_section_title
;
Structure prediction by ZEFSAII (Michael W. Deem and Ramdas Pophale) SiO2 
 PCOD9098102
Probable space group: P -1
;
_chemical_formula_sum "Si O2"
_cell_formula_units_Z 14
_cell_length_a 11.314505
_cell_length_b 8.408897
_cell_length_c 23.970141
_cell_angle_alpha 144.992747
_cell_angle_beta 149.694632
_cell_angle_gamma 57.985848
_cell_volume 522.367627
_symmetry_space_group_name_H-M "P -1"
_symmetry_group_IT_number 2
_symmetry_cell_setting 'triclinic'
loop_
_space_group_symop_operation_xyz
x,y,z
-x,-y,-z
loop_
_atom_site_type_symbol
_atom_site_label
_atom_site_fract_x
_atom_site_fract_y
_atom_site_fract_z
Si Si1 0.581812 0.641866 0.485951
Si Si2 0.981150 0.542981 0.070049
Si Si3 0.974360 0.031658 0.564902
Si Si4 0.414058 0.400051 0.223944
Si Si5 0.075883 0.374695 0.284653
Si Si6 0.729914 0.096988 0.260711
Si Si7 0.340018 0.181231 0.970527
O O1 0.266879 0.459206 0.333080
O O2 0.719709 0.495928 0.538456
O O3 0.768235 0.056603 0.692093
O O4 0.437773 0.432565 0.607626
O O5 0.100799 0.334230 0.081691
O O6 0.678114 0.491187 0.946224
O O7 0.000000 0.500000 0.000000
O O8 0.041538 0.403951 0.703504
O O9 0.650110 0.703829 0.362114
O O10 0.000000 0.000000 0.500000
O O11 0.216248 0.075513 0.717168
O O12 0.441264 0.085299 0.139915
O O13 0.855615 0.973738 0.096480
O O14 0.761165 0.978806 0.179018
O O15 0.000000 0.500000 0.500000
O O16 0.500000 0.000000 0.000000
#
# Coordination Sequence:
#
# PCOD9098102 Si02
#       7
#     2   2   2   2   2   2   2
#     4  10  21  38  64  96 126 160 213 263 309 372
#     4  11  22  37  64  93 123 167 211 251 312 378
#     4  11  20  33  60  96 129 158 211 262 311 366
#     4  11  21  38  64  94 127 168 214 255 311 379
#     4  10  20  36  63  94 124 158 212 263 312 361
#     4  10  21  38  63  93 127 165 210 256 315 376
#     4  11  24  44  66  89 131 171 209 260 326 384
#
# _framework density 26.801048999999999
#
# number of rings (size 3 to 8) (size 9 to 14) (size 15 to 20)
#    0.000    1.429    1.429    7.286    2.000    0.000 
#    0.000    0.714    3.143    8.571    0.000    0.000 
#    0.000    0.000    0.000    0.000    0.000    0.000 
#
# Total GULP energy -78054.503171 kJ/mol
# GULP energy per Si atom -5575.321655 kJ/mol
# Density = 2.674005 g / cm^3
# Si number density = 26.801049 Si / 1000 Ang^3
#
#
#
# Elastic Constant Matrix: (Units=GPa)
#
#
# Indices 1 2 3 4 5 6 
#
# 1 173.3306 82.4114 39.2820 -14.5721 -32.4104 7.7985
# 2 82.4114 206.1882 40.2832 -32.6220 -11.9050 -36.6955
# 3 39.2820 40.2832 61.4685 -13.1446 -20.9360 1.6782
# 4 -14.5721 -32.6220 -13.1446 51.3044 11.1284 4.2627
# 5 -32.4104 -11.9050 -20.9360 11.1284 46.7525 4.1534
# 6 7.7985 -36.6955 1.6782 4.2627 4.1534 56.3226
#
#
#
# Elastic Compliance Matrix: (Units=1/GPa)
#
#
# Indices 1 2 3 4 5 6 
#
# 1 0.009041 -0.003900 -0.001581 -0.001106 0.005189 -0.004045
# 2 -0.003900 0.008638 -0.003790 0.003681 -0.003635 0.006270
# 3 -0.001581 -0.003790 0.022983 0.001558 0.008185 -0.003657
# 4 -0.001106 0.003681 0.001558 0.022836 -0.004667 0.001121
# 5 0.005189 -0.003635 0.008185 -0.004667 0.029294 -0.005138
# 6 -0.004045 0.006270 -0.003657 0.001121 -0.005138 0.022803
#
#
# Mechanical properties :
#
#
# Convention : Reuss Voigt Hill
#
# Bulk Modulus (GPa) = 45.20740 84.99337 65.10038
# Shear Modulus (GPa) = 35.33296 49.47662 42.40479
#
# Velocity S-wave (km/s) = 3.63484 4.30125 3.98201
# Velocity P-wave (km/s) = 5.87541 7.51327 6.74425
#
# Compressibility (1/GPa) = 0.02212027
#
# Stress axis : x y z
#
# Youngs Moduli (GPa) = 110.60473 115.77144 43.50962
#
# Poissons Ratio (x) = 0.45153 0.06877
# Poissons Ratio (y) = 0.43138 0.16491
# Poissons Ratio (z) = 0.17482 0.43881
#
# Static dielectric constant tensor:
#      x y z
#    x 1.940380 0.087660 0.085890 
#    y 0.087660 2.140180 -0.089080 
#    z 0.085890 -0.089080 2.377150 
# 
# From -- ./inp_files/609942.got.cif
#   From: 2010.05.17/outbox.cif.g08.bks.cpg/sg2_305_cif.got.tgz:609942.got - 2010.06.03 11:33:40.
