data_PCOD9098136
_publ_section_title
;
Structure prediction by ZEFSAII (Michael W. Deem and Ramdas Pophale) SiO2 
 PCOD9098136
Probable space group: P -1
;
_chemical_formula_sum "Si O2"
_cell_formula_units_Z 16
_cell_length_a 10.372946
_cell_length_b 10.834584
_cell_length_c 17.173618
_cell_angle_alpha 58.091858
_cell_angle_beta 146.815913
_cell_angle_gamma 136.262490
_cell_volume 715.412139
_symmetry_space_group_name_H-M "P -1"
_symmetry_group_IT_number 2
_symmetry_cell_setting 'triclinic'
loop_
_space_group_symop_operation_xyz
x,y,z
-x,-y,-z
loop_
_atom_site_type_symbol
_atom_site_label
_atom_site_fract_x
_atom_site_fract_y
_atom_site_fract_z
Si Si1 0.886172 0.857328 0.420754
Si Si2 0.656708 0.372598 0.853102
Si Si3 0.337809 0.307017 0.211446
Si Si4 0.393287 0.792683 0.968493
Si Si5 0.185835 0.461855 0.868301
Si Si6 0.732160 0.269215 0.305863
Si Si7 0.956059 0.054898 0.232948
Si Si8 0.149588 0.901090 0.091088
O O1 0.526582 0.723602 0.284992
O O2 0.017136 0.746203 0.534624
O O3 0.987093 0.954966 0.353795
O O4 0.000000 0.000000 0.500000
O O5 0.537087 0.483999 0.784353
O O6 0.577630 0.210590 0.922619
O O7 0.000000 0.500000 0.000000
O O8 0.551078 0.280683 0.279627
O O9 0.251539 0.210489 0.284062
O O10 0.039424 0.221582 0.037730
O O11 0.248650 0.596818 0.925439
O O12 0.178249 0.847021 0.830136
O O13 0.746881 0.930136 0.093715
O O14 0.142205 0.554897 0.743132
O O15 0.940435 0.251389 0.837596
O O16 0.500000 0.500000 0.000000
O O17 0.492704 0.076658 0.202607
O O18 0.000000 0.000000 0.000000
#
# Coordination Sequence:
#
# PCOD9098136 Si02
#       8
#     2   2   2   2   2   2   2   2
#     4  11  27  47  64  96 142 183 221 285 359 412
#     4  11  22  41  70  99 130 173 229 285 335 409
#     4  11  21  40  67 100 130 170 236 282 331 411
#     4  10  20  36  63  97 128 170 228 288 329 399
#     4  12  20  37  66 100 138 182 231 281 344 405
#     4  11  25  43  64 100 146 186 222 284 353 411
#     4  10  22  39  65  93 129 178 226 280 348 398
#     4  10  21  37  64 103 135 176 224 285 340 403
#
# _framework density 22.364730000000002
#
# number of rings (size 3 to 8) (size 9 to 14) (size 15 to 20)
#    0.000    1.250    5.000    1.500    3.500    1.000 
#    2.250    0.625    0.000    0.000    0.000    0.000 
#    0.000    0.000    0.000    0.000    0.000    0.000 
#
# Total GULP energy -89130.568955 kJ/mol
# GULP energy per Si atom -5570.660560 kJ/mol
# Density = 2.231383 g / cm^3
# Si number density = 22.364730 Si / 1000 Ang^3
#
#
#
# Elastic Constant Matrix: (Units=GPa)
#
#
# Indices 1 2 3 4 5 6 
#
# 1 76.2901 29.9902 31.2587 -13.2343 -4.1625 -5.5605
# 2 29.9902 119.0635 35.8291 -24.6994 -3.8311 0.3045
# 3 31.2587 35.8291 127.5895 -20.9072 3.9360 3.8667
# 4 -13.2343 -24.6994 -20.9072 53.9862 1.4962 -12.5549
# 5 -4.1625 -3.8311 3.9360 1.4962 23.2281 -6.1138
# 6 -5.5605 0.3045 3.8667 -12.5549 -6.1138 44.3655
#
#
#
# Elastic Compliance Matrix: (Units=1/GPa)
#
#
# Indices 1 2 3 4 5 6 
#
# 1 0.016253 -0.002566 -0.003105 0.002318 0.003788 0.003503
# 2 -0.002566 0.010378 -0.001771 0.003623 0.001583 0.001005
# 3 -0.003105 -0.001771 0.009537 0.001957 -0.002867 -0.001049
# 4 0.002318 0.003623 0.001957 0.023050 0.000974 0.006752
# 5 0.003788 0.001583 -0.002867 0.000974 0.046356 0.007377
# 6 0.003503 0.001005 -0.001049 0.006752 0.007377 0.025991
#
#
# Mechanical properties :
#
#
# Convention : Reuss Voigt Hill
#
# Bulk Modulus (GPa) = 46.98366 57.45546 52.21956
# Shear Modulus (GPa) = 32.56421 39.37363 35.96892
#
# Velocity S-wave (km/s) = 3.81996 4.20041 4.01470
# Velocity P-wave (km/s) = 6.36472 7.01930 6.70001
#
# Compressibility (1/GPa) = 0.02128400
#
# Stress axis : x y z
#
# Youngs Moduli (GPa) = 61.52865 96.35608 104.85931
#
# Poissons Ratio (x) = 0.24723 0.32554
# Poissons Ratio (y) = 0.15787 0.18574
# Poissons Ratio (z) = 0.19102 0.17068
#
# Static dielectric constant tensor:
#      x y z
#    x 2.168400 0.432830 0.213110 
#    y 0.432830 2.438930 0.373120 
#    z 0.213110 0.373120 2.033150 
# 
# From -- ./inp_files/568694.got.cif
#   From: 2010.05.17/outbox.cif.g08.bks.cpg/sg2_285_cif.got.tgz:568694.got - 2010.06.03 11:33:40.
