data_PCOD9098702
_publ_section_title
;
Structure prediction by ZEFSAII (Michael W. Deem and Ramdas Pophale) SiO2 
 PCOD9098702
Probable space group: P -1
;
_chemical_formula_sum "Si O2"
_cell_formula_units_Z 14
_cell_length_a 8.438508
_cell_length_b 19.615878
_cell_length_c 9.046273
_cell_angle_alpha 110.782439
_cell_angle_beta 77.532080
_cell_angle_gamma 152.313304
_cell_volume 633.611913
_symmetry_space_group_name_H-M "P -1"
_symmetry_group_IT_number 2
_symmetry_cell_setting 'triclinic'
loop_
_space_group_symop_operation_xyz
x,y,z
-x,-y,-z
loop_
_atom_site_type_symbol
_atom_site_label
_atom_site_fract_x
_atom_site_fract_y
_atom_site_fract_z
Si Si1 0.686849 0.766520 0.423294
Si Si2 0.303417 0.751909 0.478964
Si Si3 0.584481 0.544992 0.693563
Si Si4 0.601655 0.013073 0.652695
Si Si5 0.023032 0.418963 0.180578
Si Si6 0.884301 0.271849 0.810585
Si Si7 0.423415 0.624027 0.676838
O O1 0.614649 0.822218 0.510962
O O2 0.362840 0.605731 0.270682
O O3 0.653999 0.717827 0.554868
O O4 0.038114 0.886761 0.363231
O O5 0.330960 0.777776 0.317611
O O6 0.949064 0.564289 0.428752
O O7 0.325380 0.840567 0.616421
O O8 0.500000 0.500000 0.500000
O O9 0.879237 0.610872 0.756470
O O10 0.608071 0.643032 0.770792
O O11 0.239571 0.389205 0.742970
O O12 0.686697 0.122447 0.801321
O O13 0.500000 0.000000 0.500000
O O14 0.697881 0.342839 0.228030
O O15 0.971202 0.364470 0.988639
#
# Coordination Sequence:
#
# PCOD9098702 Si02
#       7
#     2   2   2   2   2   2   2
#     4  11  20  36  61  88 115 155 200 249 298 345
#     4   9  20  34  59  84 117 154 196 238 295 358
#     4  11  20  33  57  87 120 157 192 239 302 351
#     4  10  20  37  56  84 118 158 199 243 286 365
#     4  11  21  36  59  90 128 145 197 256 302 347
#     4  10  21  36  55  90 122 152 195 251 300 345
#     4  10  22  37  59  93 115 153 199 249 297 349
#
# _framework density 22.095544
#
# number of rings (size 3 to 8) (size 9 to 14) (size 15 to 20)
#    0.000    1.714    2.857    2.571    2.000    5.143 
#    0.000    0.000    0.000    6.857    0.000    0.000 
#    0.000    0.000    0.000    0.000    0.000    0.000 
#
# Total GULP energy -78055.242855 kJ/mol
# GULP energy per Si atom -5575.374490 kJ/mol
# Density = 2.204525 g / cm^3
# Si number density = 22.095544 Si / 1000 Ang^3
#
#
#
# Elastic Constant Matrix: (Units=GPa)
#
#
# Indices 1 2 3 4 5 6 
#
# 1 138.1790 7.9464 10.6579 -0.4158 -10.7015 -15.0407
# 2 7.9464 55.5150 17.2239 -0.8478 -5.0193 -22.7588
# 3 10.6579 17.2239 87.0794 -1.6353 -19.2809 -8.6539
# 4 -0.4158 -0.8478 -1.6353 16.1985 -2.2732 -7.7935
# 5 -10.7015 -5.0193 -19.2809 -2.2732 23.3074 -1.2762
# 6 -15.0407 -22.7588 -8.6539 -7.7935 -1.2762 29.2264
#
#
#
# Elastic Compliance Matrix: (Units=1/GPa)
#
#
# Indices 1 2 3 4 5 6 
#
# 1 0.008397 0.002532 0.000686 0.005160 0.005917 0.008131
# 2 0.002532 0.032008 -0.000763 0.018281 0.010924 0.031354
# 3 0.000686 -0.000763 0.015433 0.006732 0.013943 0.006733
# 4 0.005160 0.018281 0.006732 0.087488 0.022774 0.043208
# 5 0.005917 0.010924 0.013943 0.022774 0.063072 0.024508
# 6 0.008131 0.031354 0.006733 0.043208 0.024508 0.077401
#
#
# Mechanical properties :
#
#
# Convention : Reuss Voigt Hill
#
# Bulk Modulus (GPa) = 16.46084 39.15886 27.80985
# Shear Modulus (GPa) = 16.71468 30.07614 23.39541
#
# Velocity S-wave (km/s) = 2.75339 3.69343 3.25750
# Velocity P-wave (km/s) = 4.19216 5.99579 5.17319
#
# Compressibility (1/GPa) = 0.06075024
#
# Stress axis : x y z
#
# Youngs Moduli (GPa) = 119.08679 31.24209 64.79413
#
# Poissons Ratio (x) = -0.07911 -0.04448
# Poissons Ratio (y) = -0.30153 0.04943
# Poissons Ratio (z) = -0.08175 0.02383
#
# Static dielectric constant tensor:
#      x y z
#    x 1.909110 0.002300 -0.036450 
#    y 0.002300 1.884480 0.014650 
#    z -0.036450 0.014650 1.796800 
# 
# From -- ./inp_files/222315.got.cif
#   From: 2010.05.17/outbox.cif.g08.bks.cpg/sg2_112_cif.got.tgz:222315.got - 2010.06.03 11:33:40.
