data_PCOD9098172
_publ_section_title
;
Structure prediction by ZEFSAII (Michael W. Deem and Ramdas Pophale) SiO2 
 PCOD9098172
Probable space group: P -1
;
_chemical_formula_sum "Si O2"
_cell_formula_units_Z 15
_cell_length_a 23.776486
_cell_length_b 9.325097
_cell_length_c 21.686200
_cell_angle_alpha 150.325957
_cell_angle_beta 160.645905
_cell_angle_gamma 39.731122
_cell_volume 750.255941
_symmetry_space_group_name_H-M "P -1"
_symmetry_group_IT_number 2
_symmetry_cell_setting 'triclinic'
loop_
_space_group_symop_operation_xyz
x,y,z
-x,-y,-z
loop_
_atom_site_type_symbol
_atom_site_label
_atom_site_fract_x
_atom_site_fract_y
_atom_site_fract_z
Si Si1 0.777095 0.580486 0.101205
Si Si2 0.229154 0.600079 0.392424
Si Si3 0.080124 0.978398 0.474175
Si Si4 0.690218 0.447475 0.674735
Si Si5 0.938650 0.132289 0.172306
Si Si6 0.435151 0.279706 0.558800
Si Si7 0.142616 0.924536 0.209090
Si Si8 0.000000 0.500000 0.500000
O O1 0.821032 0.292444 0.069598
O O2 0.917093 0.725879 0.245320
O O3 0.807511 0.826078 0.279596
O O4 0.580948 0.475325 0.830327
O O5 0.194257 0.827967 0.491953
O O6 0.274880 0.715385 0.412862
O O7 0.394445 0.483767 0.539055
O O8 0.045447 0.320080 0.093855
O O9 0.012230 0.204555 0.445513
O O10 0.500000 0.500000 0.500000
O O11 0.729267 0.259596 0.701739
O O12 0.832442 0.782126 0.945346
O O13 0.989815 0.303502 0.352988
O O14 0.104184 0.131873 0.300900
O O15 0.500000 0.000000 0.500000
O O16 0.243261 0.134633 0.337262
#
# Coordination Sequence:
#
# PCOD9098172 Si02
#       8
#     2   2   2   2   2   2   2   1
#     4  10  22  39  59  83 119 153 189 239 289 342
#     4  11  22  37  60  86 115 152 197 237 283 347
#     4  10  21  40  61  85 113 153 194 234 291 347
#     4  11  22  37  57  85 119 151 188 240 293 337
#     4  10  20  38  59  84 113 153 194 232 287 342
#     4  12  23  37  59  88 118 152 195 240 286 337
#     4  11  21  37  59  84 118 152 190 239 289 342
#     4  10  20  36  64  84 106 144 196 236 274 348
#
# _framework density 19.993176999999999
#
# number of rings (size 3 to 8) (size 9 to 14) (size 15 to 20)
#    0.000    1.333    0.000    8.400    0.000    1.600 
#    0.000    1.333    0.000    7.200    0.000    0.000 
#    0.000    0.000    0.000    0.000    0.000    0.000 
#
# Total GULP energy -83543.981516 kJ/mol
# GULP energy per Si atom -5569.598768 kJ/mol
# Density = 1.994767 g / cm^3
# Si number density = 19.993177 Si / 1000 Ang^3
#
#
#
# Elastic Constant Matrix: (Units=GPa)
#
#
# Indices 1 2 3 4 5 6 
#
# 1 86.5369 15.1289 4.2913 0.7808 -15.9703 -9.0071
# 2 15.1289 63.8474 2.5648 -7.2637 -23.8473 7.1086
# 3 4.2913 2.5648 30.2361 -15.3960 -9.2318 -2.4415
# 4 0.7808 -7.2637 -15.3960 29.3238 -0.2276 -5.0738
# 5 -15.9703 -23.8473 -9.2318 -0.2276 22.8678 1.0575
# 6 -9.0071 7.1086 -2.4415 -5.0738 1.0575 40.9896
#
#
#
# Elastic Compliance Matrix: (Units=1/GPa)
#
#
# Indices 1 2 3 4 5 6 
#
# 1 0.013663 0.000709 0.002546 0.001747 0.011189 0.002959
# 2 0.000709 0.033374 0.019285 0.018129 0.043420 -0.003360
# 3 0.002546 0.019285 0.067723 0.041535 0.049406 0.005115
# 4 0.001747 0.018129 0.041535 0.061749 0.037212 0.006397
# 5 0.011189 0.043420 0.049406 0.037212 0.117164 -0.000545
# 6 0.002959 -0.003360 0.005115 0.006397 -0.000545 0.026740
#
#
# Mechanical properties :
#
#
# Convention : Reuss Voigt Hill
#
# Bulk Modulus (GPa) = 6.25631 24.95450 15.60541
# Shear Modulus (GPa) = 15.21553 29.21193 22.21373
#
# Velocity S-wave (km/s) = 2.76168 3.82657 3.33688
# Velocity P-wave (km/s) = 3.64763 5.65970 4.76116
#
# Compressibility (1/GPa) = 0.15983861
#
# Stress axis : x y z
#
# Youngs Moduli (GPa) = 73.19185 29.96379 14.76610
#
# Poissons Ratio (x) = -0.02124 -0.03759
# Poissons Ratio (y) = -0.05188 -0.28477
# Poissons Ratio (z) = -0.18631 -0.57786
#
# Static dielectric constant tensor:
#      x y z
#    x 1.704260 -0.004920 -0.005420 
#    y -0.004920 1.703440 0.000130 
#    z -0.005420 0.000130 1.690360 
# 
# From -- ./inp_files/204249.got.cif
#   From: 2010.05.17/outbox.cif.g08.bks.cpg/sg2_103_cif.got.tgz:204249.got - 2010.06.03 11:33:40.
