data_PCOD9098478
_publ_section_title
;
Structure prediction by ZEFSAII (Michael W. Deem and Ramdas Pophale) SiO2 
 PCOD9098478
Probable space group: P -1
;
_chemical_formula_sum "Si O2"
_cell_formula_units_Z 14
_cell_length_a 13.609075
_cell_length_b 10.892678
_cell_length_c 8.298131
_cell_angle_alpha 135.480653
_cell_angle_beta 132.777775
_cell_angle_gamma 55.119345
_cell_volume 623.819727
_symmetry_space_group_name_H-M "P -1"
_symmetry_group_IT_number 2
_symmetry_cell_setting 'triclinic'
loop_
_space_group_symop_operation_xyz
x,y,z
-x,-y,-z
loop_
_atom_site_type_symbol
_atom_site_label
_atom_site_fract_x
_atom_site_fract_y
_atom_site_fract_z
Si Si1 0.393166 0.298362 0.507612
Si Si2 0.049699 0.717433 0.665952
Si Si3 0.220366 0.411950 0.737403
Si Si4 0.893024 0.580508 0.821200
Si Si5 0.586670 0.043582 0.981696
Si Si6 0.901453 0.975565 0.219740
Si Si7 0.453947 0.439361 0.218823
O O1 0.326650 0.342754 0.649099
O O2 0.272193 0.376443 0.317380
O O3 0.515110 0.405599 0.719122
O O4 0.435247 0.092896 0.313085
O O5 0.144491 0.614972 0.814275
O O6 0.081620 0.567836 0.424247
O O7 0.891260 0.716424 0.517541
O O8 0.082356 0.896156 0.792182
O O9 0.300112 0.410427 0.992283
O O10 0.928021 0.773102 0.001680
O O11 0.000000 0.500000 0.000000
O O12 0.748808 0.014047 0.156102
O O13 0.458087 0.748846 0.907043
O O14 0.500000 0.000000 0.000000
O O15 0.000000 0.000000 0.500000
O O16 0.500000 0.500000 0.500000
#
# Coordination Sequence:
#
# PCOD9098478 Si02
#       7
#     2   2   2   2   2   2   2
#     4  10  23  45  62  97 138 178 223 280 345 402
#     4  10  22  45  65  97 140 177 230 280 342 412
#     4  10  24  44  71  97 139 189 222 284 351 410
#     4  10  20  36  66  96 131 171 223 279 338 393
#     4  11  24  42  64 101 137 173 229 284 341 404
#     4  11  23  37  68 100 135 180 229 284 341 398
#     4  12  25  41  71  99 132 179 234 282 341 410
#
# _framework density 22.44238
#
# number of rings (size 3 to 8) (size 9 to 14) (size 15 to 20)
#    0.000    1.429    2.857    2.143    4.000    0.571 
#    0.000   15.714    0.000    0.000    0.000    0.000 
#    0.000    0.000    0.000    0.000    0.000    0.000 
#
# Total GULP energy -78165.006918 kJ/mol
# GULP energy per Si atom -5583.214780 kJ/mol
# Density = 2.239130 g / cm^3
# Si number density = 22.442380 Si / 1000 Ang^3
#
#
#
# Elastic Constant Matrix: (Units=GPa)
#
#
# Indices 1 2 3 4 5 6 
#
# 1 84.5190 19.1901 19.9514 4.4873 14.2926 5.8244
# 2 19.1901 98.5154 53.2521 14.6154 -0.5889 -7.8936
# 3 19.9514 53.2521 100.9714 7.9927 5.8127 -9.5611
# 4 4.4873 14.6154 7.9927 52.8550 4.0209 6.8215
# 5 14.2926 -0.5889 5.8127 4.0209 26.1320 5.0676
# 6 5.8244 -7.8936 -9.5611 6.8215 5.0676 24.6526
#
#
#
# Elastic Compliance Matrix: (Units=1/GPa)
#
#
# Indices 1 2 3 4 5 6 
#
# 1 0.014083 -0.002323 -0.001540 0.000644 -0.006844 -0.003440
# 2 -0.002323 0.015297 -0.007229 -0.003566 0.003195 0.002973
# 3 -0.001540 -0.007229 0.014682 -0.000420 -0.003406 0.004560
# 4 0.000644 -0.003566 -0.000420 0.020963 -0.002247 -0.006795
# 5 -0.006844 0.003195 -0.003406 -0.002247 0.044587 -0.007224
# 6 -0.003440 0.002973 0.004560 -0.006795 -0.007224 0.047462
#
#
# Mechanical properties :
#
#
# Convention : Reuss Voigt Hill
#
# Bulk Modulus (GPa) = 45.70828 52.08810 48.89819
# Shear Modulus (GPa) = 26.80253 33.50206 30.15229
#
# Velocity S-wave (km/s) = 3.45959 3.86787 3.66941
# Velocity P-wave (km/s) = 6.03071 6.57323 6.30781
#
# Compressibility (1/GPa) = 0.02187787
#
# Stress axis : x y z
#
# Youngs Moduli (GPa) = 71.00814 65.37214 68.11214
#
# Poissons Ratio (x) = 0.15184 0.10492
# Poissons Ratio (y) = 0.16493 0.49237
# Poissons Ratio (z) = 0.10938 0.47256
#
# Static dielectric constant tensor:
#      x y z
#    x 2.175000 0.308920 0.045670 
#    y 0.308920 2.204950 -0.015590 
#    z 0.045670 -0.015590 1.817380 
# 
# From -- ./inp_files/304466.got.cif
#   From: 2010.05.17/outbox.cif.g08.bks.cpg/sg2_153_cif.got.tgz:304466.got - 2010.06.03 11:33:40.
