data_PCOD9098878
_publ_section_title
;
Structure prediction by ZEFSAII (Michael W. Deem and Ramdas Pophale) SiO2 
 PCOD9098878
Probable space group: P -1
;
_chemical_formula_sum "Si O2"
_cell_formula_units_Z 15
_cell_length_a 19.405523
_cell_length_b 16.543199
_cell_length_c 19.857174
_cell_angle_alpha 19.701840
_cell_angle_beta 21.003613
_cell_angle_gamma 19.635413
_cell_volume 657.533390
_symmetry_space_group_name_H-M "P -1"
_symmetry_group_IT_number 2
_symmetry_cell_setting 'triclinic'
loop_
_space_group_symop_operation_xyz
x,y,z
-x,-y,-z
loop_
_atom_site_type_symbol
_atom_site_label
_atom_site_fract_x
_atom_site_fract_y
_atom_site_fract_z
Si Si1 0.593639 0.692517 0.245947
Si Si2 0.349111 0.340086 0.929769
Si Si3 0.000000 0.500000 0.000000
Si Si4 0.112699 0.987525 0.997020
Si Si5 0.602278 0.244168 0.947459
Si Si6 0.660182 0.122971 0.264369
Si Si7 0.168414 0.853636 0.327382
Si Si8 0.861210 0.592091 0.799924
O O1 0.500000 0.500000 0.500000
O O2 0.740279 0.592757 0.117957
O O3 0.814178 0.608960 0.151200
O O4 0.423686 0.017976 0.132422
O O5 0.581868 0.337407 0.717278
O O6 0.190900 0.512592 0.999876
O O7 0.061051 0.156765 0.220798
O O8 0.998333 0.326099 0.834796
O O9 0.262899 0.849218 0.902582
O O10 0.900446 0.943294 0.224233
O O11 0.261693 0.885580 0.007290
O O12 0.478938 0.580111 0.804615
O O13 0.761947 0.151661 0.809835
O O14 0.390640 0.201738 0.161531
O O15 0.500000 0.000000 0.500000
O O16 0.002046 0.737443 0.572436
#
# Coordination Sequence:
#
# PCOD9098878 Si02
#       8
#     2   2   1   2   2   2   2   2
#     4  10  20  37  58  82 112 153 199 255 317 367
#     4   9  21  38  55  82 119 149 201 261 301 368
#     4  10  22  36  60  86 116 150 214 256 300 376
#     4  10  22  38  61  92 123 160 200 247 300 368
#     4  10  22  39  60  91 127 155 208 252 294 378
#     4  10  21  39  63  91 126 159 196 246 304 362
#     4  10  21  40  59  86 118 162 203 259 317 360
#     4  10  21  40  59  85 125 162 200 256 309 359
#
# _framework density 22.812529999999999
#
# number of rings (size 3 to 8) (size 9 to 14) (size 15 to 20)
#    0.000    2.133    0.000    2.000    1.867    2.667 
#    7.200    4.000    0.000    0.000    0.000    0.000 
#    0.000    0.000    0.000    0.000    0.000    0.000 
#
# Total GULP energy -83597.425806 kJ/mol
# GULP energy per Si atom -5573.161720 kJ/mol
# Density = 2.276061 g / cm^3
# Si number density = 22.812530 Si / 1000 Ang^3
#
#
#
# Elastic Constant Matrix: (Units=GPa)
#
#
# Indices 1 2 3 4 5 6 
#
# 1 146.8868 32.1399 29.6012 18.0927 -16.7735 -18.8629
# 2 32.1399 75.5061 33.7322 14.9257 -0.0921 9.3064
# 3 29.6012 33.7322 140.4112 25.5120 -51.6392 -12.6789
# 4 18.0927 14.9257 25.5120 22.6285 -3.3515 -9.1215
# 5 -16.7735 -0.0921 -51.6392 -3.3515 40.3732 12.9930
# 6 -18.8629 9.3064 -12.6789 -9.1215 12.9930 46.3828
#
#
#
# Elastic Compliance Matrix: (Units=1/GPa)
#
#
# Indices 1 2 3 4 5 6 
#
# 1 0.008785 -0.004015 0.002149 -0.005013 0.005157 0.002535
# 2 -0.004015 0.019837 -0.006339 -0.006493 -0.008238 -0.006315
# 3 0.002149 -0.006339 0.021807 -0.019395 0.028333 -0.003644
# 4 -0.005013 -0.006493 -0.019395 0.077123 -0.025763 0.016346
# 5 0.005157 -0.008238 0.028333 -0.025763 0.064763 -0.011713
# 6 0.002535 -0.006315 -0.003644 0.016346 -0.011713 0.029357
#
#
# Mechanical properties :
#
#
# Convention : Reuss Voigt Hill
#
# Bulk Modulus (GPa) = 29.39555 61.52786 45.46171
# Shear Modulus (GPa) = 20.04629 39.69893 29.87261
#
# Velocity S-wave (km/s) = 2.96757 4.17613 3.62260
# Velocity P-wave (km/s) = 4.96545 7.09105 6.12122
#
# Compressibility (1/GPa) = 0.03401875
#
# Stress axis : x y z
#
# Youngs Moduli (GPa) = 113.82554 50.41153 45.85703
#
# Poissons Ratio (x) = 0.20239 -0.09854
# Poissons Ratio (y) = 0.45699 0.29070
# Poissons Ratio (z) = -0.24460 0.31957
#
# Static dielectric constant tensor:
#      x y z
#    x 1.929690 -0.031650 -0.036510 
#    y -0.031650 1.884950 0.034300 
#    z -0.036510 0.034300 1.879430 
# 
# From -- ./inp_files/601640.got.cif
#   From: 2010.05.17/outbox.cif.g08.bks.cpg/sg2_301_cif.got.tgz:601640.got - 2010.06.03 11:33:40.
