data_PCOD9098029
_publ_section_title
;
Structure prediction by ZEFSAII (Michael W. Deem and Ramdas Pophale) SiO2 
 PCOD9098029
Probable space group: P -1
;
_chemical_formula_sum "Si O2"
_cell_formula_units_Z 14
_cell_length_a 18.547406
_cell_length_b 6.906570
_cell_length_c 11.080926
_cell_angle_alpha 96.662543
_cell_angle_beta 141.460682
_cell_angle_gamma 57.141868
_cell_volume 600.271004
_symmetry_space_group_name_H-M "P -1"
_symmetry_group_IT_number 2
_symmetry_cell_setting 'triclinic'
loop_
_space_group_symop_operation_xyz
x,y,z
-x,-y,-z
loop_
_atom_site_type_symbol
_atom_site_label
_atom_site_fract_x
_atom_site_fract_y
_atom_site_fract_z
Si Si1 0.532740 0.596592 0.159815
Si Si2 0.196837 0.843039 0.108697
Si Si3 0.201150 0.629610 0.340017
Si Si4 0.254017 0.041762 0.013694
Si Si5 0.637356 0.883949 0.334612
Si Si6 0.908311 0.476191 0.474044
Si Si7 0.295343 0.431022 0.997866
O O1 0.715945 0.343585 0.442605
O O2 0.500000 0.500000 0.000000
O O3 0.387391 0.770512 0.082356
O O4 0.537989 0.818077 0.144575
O O5 0.278173 0.945255 0.176266
O O6 0.263852 0.647112 0.299241
O O7 0.224000 0.669771 0.017265
O O8 0.999870 0.123183 0.899758
O O9 0.274097 0.326454 0.447655
O O10 0.063092 0.213240 0.739430
O O11 0.275649 0.242975 0.024586
O O12 0.781900 0.748459 0.416842
O O13 0.494224 0.209113 0.210118
O O14 0.000000 0.500000 0.500000
O O15 0.806149 0.452227 0.253632
#
# Coordination Sequence:
#
# PCOD9098029 Si02
#       7
#     2   2   2   2   2   2   2
#     4   9  20  36  62  88 127 162 201 254 322 360
#     4  11  22  41  68  89 121 174 213 248 320 370
#     4   9  22  41  63  89 126 165 211 260 306 379
#     4  10  21  40  59  93 130 156 209 271 295 377
#     4   9  19  41  59  89 130 160 203 270 309 364
#     4  10  20  36  63  88 127 162 204 262 314 368
#     4  10  23  37  62  96 122 165 210 253 322 371
#
# _framework density 23.322797999999999
#
# number of rings (size 3 to 8) (size 9 to 14) (size 15 to 20)
#    0.857    1.429    1.429    0.429    4.000    1.714 
#    0.000    2.857    0.000    0.000    0.000    0.000 
#    0.000    0.000    0.000    0.000    0.000    0.000 
#
# Total GULP energy -78144.238307 kJ/mol
# GULP energy per Si atom -5581.731308 kJ/mol
# Density = 2.326971 g / cm^3
# Si number density = 23.322798 Si / 1000 Ang^3
#
#
#
# Elastic Constant Matrix: (Units=GPa)
#
#
# Indices 1 2 3 4 5 6 
#
# 1 128.0651 6.2705 18.2100 -11.3421 -20.3285 -23.0786
# 2 6.2705 48.0474 -1.6626 -15.6523 -0.8837 2.9331
# 3 18.2100 -1.6626 51.9230 -15.7000 -5.4995 -4.3068
# 4 -11.3421 -15.6523 -15.7000 24.0719 -8.3025 1.1253
# 5 -20.3285 -0.8837 -5.4995 -8.3025 38.6906 -4.9657
# 6 -23.0786 2.9331 -4.3068 1.1253 -4.9657 22.0429
#
#
#
# Elastic Compliance Matrix: (Units=1/GPa)
#
#
# Indices 1 2 3 4 5 6 
#
# 1 0.013303 0.001179 0.001318 0.011166 0.011664 0.016086
# 2 0.001179 0.031592 0.011221 0.031782 0.009730 -0.000207
# 3 0.001318 0.011221 0.030924 0.032303 0.013207 0.007255
# 4 0.011166 0.031782 0.032303 0.099735 0.034703 0.016499
# 5 0.011664 0.009730 0.013207 0.034703 0.044307 0.021708
# 6 0.016086 -0.000207 0.007255 0.016499 0.021708 0.067701
#
#
# Mechanical properties :
#
#
# Convention : Reuss Voigt Hill
#
# Bulk Modulus (GPa) = 9.68455 30.40792 20.04623
# Shear Modulus (GPa) = 16.97543 30.64227 23.80885
#
# Velocity S-wave (km/s) = 2.70079 3.62862 3.19853
# Velocity P-wave (km/s) = 3.72654 5.53371 4.71747
#
# Compressibility (1/GPa) = 0.10325729
#
# Stress axis : x y z
#
# Youngs Moduli (GPa) = 75.17359 31.65323 32.33689
#
# Poissons Ratio (x) = -0.03733 -0.04263
# Poissons Ratio (y) = -0.08866 -0.36286
# Poissons Ratio (z) = -0.09910 -0.35519
#
# Static dielectric constant tensor:
#      x y z
#    x 1.968820 0.054440 -0.050850 
#    y 0.054440 1.848480 -0.018780 
#    z -0.050850 -0.018780 1.959330 
# 
# From -- ./inp_files/328902.got.cif
#   From: 2010.05.17/outbox.cif.g08.bks.cpg/sg2_165_cif.got.tgz:328902.got - 2010.06.03 11:33:40.
