data_PCOD9098007
_publ_section_title
;
Structure prediction by ZEFSAII (Michael W. Deem and Ramdas Pophale) SiO2 
 PCOD9098007
Probable space group: P -1
;
_chemical_formula_sum "Si O2"
_cell_formula_units_Z 16
_cell_length_a 5.282240
_cell_length_b 20.533872
_cell_length_c 23.217323
_cell_angle_alpha 18.154399
_cell_angle_beta 101.658026
_cell_angle_gamma 94.031825
_cell_volume 704.692197
_symmetry_space_group_name_H-M "P -1"
_symmetry_group_IT_number 2
_symmetry_cell_setting 'triclinic'
loop_
_space_group_symop_operation_xyz
x,y,z
-x,-y,-z
loop_
_atom_site_type_symbol
_atom_site_label
_atom_site_fract_x
_atom_site_fract_y
_atom_site_fract_z
Si Si1 0.101514 0.058190 0.210104
Si Si2 0.669649 0.645065 0.861270
Si Si3 0.798196 0.017527 0.117197
Si Si4 0.164877 0.149482 0.856993
Si Si5 0.647758 0.473643 0.890119
Si Si6 0.902060 0.319669 0.385320
Si Si7 0.870102 0.700916 0.152337
Si Si8 0.576369 0.056240 0.297483
O O1 0.423381 0.027549 0.255581
O O2 0.106599 0.892426 0.401452
O O3 0.971106 0.979552 0.216163
O O4 0.922632 0.328340 0.986584
O O5 0.617095 0.672368 0.767211
O O6 0.600799 0.851102 0.730116
O O7 0.500000 0.500000 0.000000
O O8 0.000000 0.500000 0.000000
O O9 0.458340 0.121066 0.022853
O O10 0.898293 0.202005 0.936736
O O11 0.893008 0.815959 0.242968
O O12 0.894344 0.659087 0.257536
O O13 0.500000 0.000000 0.000000
O O14 0.000000 0.000000 0.000000
O O15 0.375687 0.558883 0.766229
O O16 0.655547 0.264738 0.106683
O O17 0.923470 0.491336 0.289497
O O18 0.182029 0.188273 0.471743
#
# Coordination Sequence:
#
# PCOD9098007 Si02
#       8
#     2   2   2   2   2   2   2   2
#     4  11  22  37  59  88 123 157 202 249 297 359
#     4  10  20  40  66  87 115 160 203 245 300 359
#     4  10  20  36  63  86 117 161 201 243 300 353
#     4   8  16  32  56  87 112 150 203 243 286 355
#     4  10  21  41  62  83 120 162 200 246 306 355
#     4  11  24  37  58  94 122 157 203 249 299 361
#     4  10  20  37  61  87 120 158 199 246 300 355
#     4  10  23  39  61  86 123 157 201 253 298 358
#
# _framework density 22.70495
#
# number of rings (size 3 to 8) (size 9 to 14) (size 15 to 20)
#    0.000    2.000    2.500    0.750    3.500    1.500 
#    0.000    1.250    0.000    0.750    0.000    0.000 
#    0.000    0.000    0.000    0.000    0.000    0.000 
#
# Total GULP energy -89102.017303 kJ/mol
# GULP energy per Si atom -5568.876081 kJ/mol
# Density = 2.265327 g / cm^3
# Si number density = 22.704950 Si / 1000 Ang^3
#
#
#
# Elastic Constant Matrix: (Units=GPa)
#
#
# Indices 1 2 3 4 5 6 
#
# 1 72.3302 -8.3820 1.0748 -2.4245 11.6886 -0.7288
# 2 -8.3820 149.3328 23.8292 -10.1810 0.3366 1.2389
# 3 1.0748 23.8292 62.0905 0.5162 12.3267 -9.4021
# 4 -2.4245 -10.1810 0.5162 20.6287 -4.5607 7.1437
# 5 11.6886 0.3366 12.3267 -4.5607 16.1944 -2.1724
# 6 -0.7288 1.2389 -9.4021 7.1437 -2.1724 31.1301
#
#
#
# Elastic Compliance Matrix: (Units=1/GPa)
#
#
# Indices 1 2 3 4 5 6 
#
# 1 0.016007 0.000490 0.002286 -0.001048 -0.013553 0.000340
# 2 0.000490 0.007811 -0.004249 0.005818 0.004003 -0.002638
# 3 0.002286 -0.004249 0.023128 -0.009786 -0.020849 0.007999
# 4 -0.001048 0.005818 -0.009786 0.062139 0.023460 -0.015834
# 5 -0.013553 0.004003 -0.020849 0.023460 0.093166 -0.005656
# 6 0.000340 -0.002638 0.007999 -0.015834 -0.005656 0.037891
#
#
# Mechanical properties :
#
#
# Convention : Reuss Voigt Hill
#
# Bulk Modulus (GPa) = 22.72725 35.19971 28.96348
# Shear Modulus (GPa) = 19.39819 31.40607 25.40213
#
# Velocity S-wave (km/s) = 2.92611 3.72321 3.34846
# Velocity P-wave (km/s) = 4.63117 5.83265 5.26629
#
# Compressibility (1/GPa) = 0.04400005
#
# Stress axis : x y z
#
# Youngs Moduli (GPa) = 62.47386 128.01723 43.23709
#
# Poissons Ratio (x) = -0.06272 -0.09883
# Poissons Ratio (y) = -0.03061 0.18371
# Poissons Ratio (z) = -0.14280 0.54393
#
# Static dielectric constant tensor:
#      x y z
#    x 2.058800 -0.010860 -0.017820 
#    y -0.010860 1.972560 0.001100 
#    z -0.017820 0.001100 1.812440 
# 
# From -- ./inp_files/605100.got.cif
#   From: 2010.05.17/outbox.cif.g08.bks.cpg/sg2_303_cif.got.tgz:605100.got - 2010.06.03 11:33:40.
