data_PCOD9098012
_publ_section_title
;
Structure prediction by ZEFSAII (Michael W. Deem and Ramdas Pophale) SiO2 
 PCOD9098012
Probable space group: P -1
;
_chemical_formula_sum "Si O2"
_cell_formula_units_Z 14
_cell_length_a 5.078097
_cell_length_b 20.967378
_cell_length_c 17.741583
_cell_angle_alpha 20.820888
_cell_angle_beta 101.244583
_cell_angle_gamma 100.469755
_cell_volume 658.559191
_symmetry_space_group_name_H-M "P -1"
_symmetry_group_IT_number 2
_symmetry_cell_setting 'triclinic'
loop_
_space_group_symop_operation_xyz
x,y,z
-x,-y,-z
loop_
_atom_site_type_symbol
_atom_site_label
_atom_site_fract_x
_atom_site_fract_y
_atom_site_fract_z
Si Si1 0.144239 0.322776 0.298509
Si Si2 0.726995 0.632195 0.899661
Si Si3 0.447813 0.415296 0.900334
Si Si4 0.051689 0.613522 0.550370
Si Si5 0.479944 0.485857 0.603582
Si Si6 0.880190 0.070606 0.683632
Si Si7 0.379344 0.835786 0.939130
O O1 0.207836 0.245526 0.304023
O O2 0.402801 0.400320 0.270993
O O3 0.964793 0.193553 0.481561
O O4 0.978982 0.505828 0.072206
O O5 0.500000 0.500000 0.000000
O O6 0.625567 0.693448 0.907890
O O7 0.190700 0.478509 0.767778
O O8 0.628483 0.294786 0.989152
O O9 0.225428 0.585379 0.515740
O O10 0.746302 0.567483 0.566668
O O11 0.074819 0.808033 0.374276
O O12 0.500000 0.500000 0.500000
O O13 0.482011 0.280018 0.859125
O O14 0.093971 0.908707 0.869372
O O15 0.580096 0.995374 0.750892
#
# Coordination Sequence:
#
# PCOD9098012 Si02
#       7
#     2   2   2   2   2   2   2
#     4  10  20  36  63  86 123 167 215 263 300 364
#     4   9  19  34  61  89 117 160 228 256 298 352
#     4  10  20  38  63  89 119 169 223 255 294 371
#     4  11  22  40  70  93 122 169 212 245 301 379
#     4  11  24  46  69  95 123 162 208 253 304 377
#     4  12  23  40  60  97 130 162 204 256 315 364
#     4  11  25  38  63  93 129 159 203 262 316 363
#
# _framework density 21.258531999999999
#
# number of rings (size 3 to 8) (size 9 to 14) (size 15 to 20)
#    0.000    1.429    1.429    5.571    4.000    0.000 
#    0.000    5.714    0.000    0.000    0.000    0.000 
#    0.000    0.000    0.000    0.000    0.000    0.000 
#
# Total GULP energy -78226.310011 kJ/mol
# GULP energy per Si atom -5587.593572 kJ/mol
# Density = 2.121015 g / cm^3
# Si number density = 21.258532 Si / 1000 Ang^3
#
#
#
# Elastic Constant Matrix: (Units=GPa)
#
#
# Indices 1 2 3 4 5 6 
#
# 1 60.7973 -3.9042 0.4951 -11.2639 -10.8307 -4.2960
# 2 -3.9042 87.3594 30.7910 8.5033 -15.1897 -25.1252
# 3 0.4951 30.7910 54.2641 0.3737 -11.1758 -14.3749
# 4 -11.2639 8.5033 0.3737 25.5063 -15.9820 -2.8223
# 5 -10.8307 -15.1897 -11.1758 -15.9820 36.7204 -0.8151
# 6 -4.2960 -25.1252 -14.3749 -2.8223 -0.8151 47.1836
#
#
#
# Elastic Compliance Matrix: (Units=1/GPa)
#
#
# Indices 1 2 3 4 5 6 
#
# 1 0.024965 0.002904 0.003876 0.023299 0.020034 0.006740
# 2 0.002904 0.017056 -0.006405 0.000501 0.006348 0.007535
# 3 0.003876 -0.006405 0.025787 0.011204 0.011344 0.005665
# 4 0.023299 0.000501 0.011204 0.078568 0.044935 0.011277
# 5 0.020034 0.006348 0.011344 0.044935 0.059052 0.012368
# 6 0.006740 0.007535 0.005665 0.011277 0.012368 0.028434
#
#
# Mechanical properties :
#
#
# Convention : Reuss Voigt Hill
#
# Bulk Modulus (GPa) = 14.58630 28.57608 21.58119
# Shear Modulus (GPa) = 19.53390 33.55133 26.54261
#
# Velocity S-wave (km/s) = 3.03458 3.97703 3.53733
# Velocity P-wave (km/s) = 4.37659 5.87881 5.18242
#
# Compressibility (1/GPa) = 0.06855746
#
# Stress axis : x y z
#
# Youngs Moduli (GPa) = 40.05640 58.62937 38.77925
#
# Poissons Ratio (x) = -0.17024 -0.15029
# Poissons Ratio (y) = -0.11631 0.24837
# Poissons Ratio (z) = -0.15524 0.37550
#
# Static dielectric constant tensor:
#      x y z
#    x 1.833470 -0.003720 -0.009450 
#    y -0.003720 1.780500 0.016030 
#    z -0.009450 0.016030 1.804440 
# 
# From -- ./inp_files/112272.got.cif
#   From: 2010.05.17/outbox.cif.g08.bks.cpg/sg2_57_cif.got.tgz:112272.got - 2010.06.03 11:33:40.
