data_PCOD9098282
_publ_section_title
;
Structure prediction by ZEFSAII (Michael W. Deem and Ramdas Pophale) SiO2 
 PCOD9098282
Probable space group: P -1
;
_chemical_formula_sum "Si O2"
_cell_formula_units_Z 16
_cell_length_a 11.779422
_cell_length_b 8.431063
_cell_length_c 15.992925
_cell_angle_alpha 114.383078
_cell_angle_beta 120.186255
_cell_angle_gamma 116.659324
_cell_volume 690.782751
_symmetry_space_group_name_H-M "P -1"
_symmetry_group_IT_number 2
_symmetry_cell_setting 'triclinic'
loop_
_space_group_symop_operation_xyz
x,y,z
-x,-y,-z
loop_
_atom_site_type_symbol
_atom_site_label
_atom_site_fract_x
_atom_site_fract_y
_atom_site_fract_z
Si Si1 0.367176 0.365058 0.255767
Si Si2 0.433622 0.026056 0.565680
Si Si3 0.241673 0.677744 0.096172
Si Si4 0.974407 0.706165 0.359097
Si Si5 0.178930 0.303037 0.542753
Si Si6 0.103012 0.122268 0.934763
Si Si7 0.263273 0.119196 0.831674
Si Si8 0.589815 0.174466 0.982996
O O1 0.465979 0.669573 0.349326
O O2 0.575635 0.454784 0.362387
O O3 0.225665 0.181488 0.076427
O O4 0.173550 0.150915 0.209969
O O5 0.564012 0.088986 0.708014
O O6 0.500000 0.000000 0.500000
O O7 0.155135 0.745902 0.423835
O O8 0.208538 0.430531 0.021918
O O9 0.314219 0.820824 0.061403
O O10 0.000000 0.500000 0.000000
O O11 0.810345 0.545935 0.345489
O O12 0.815507 0.536574 0.180132
O O13 0.134663 0.056606 0.505678
O O14 0.944858 0.082866 0.355286
O O15 0.150998 0.039283 0.861858
O O16 0.500000 0.500000 0.000000
O O17 0.370962 0.048549 0.844454
O O18 0.500000 0.000000 0.000000
#
# Coordination Sequence:
#
# PCOD9098282 Si02
#       8
#     2   2   2   2   2   2   2   2
#     4   9  21  38  63  96 125 160 212 268 321 388
#     4  10  21  38  63  92 132 172 211 260 332 398
#     4  11  23  41  65  91 129 177 218 264 330 395
#     4  10  20  37  62  88 124 164 209 265 323 382
#     4  10  20  36  64  95 119 160 214 268 323 377
#     4  10  21  40  65  93 126 166 216 267 320 389
#     4  12  22  39  67  93 123 162 220 268 321 386
#     4  12  26  43  63  94 132 174 221 270 328 389
#
# _framework density 23.162130999999999
#
# number of rings (size 3 to 8) (size 9 to 14) (size 15 to 20)
#    0.000    1.500    2.500    2.250    3.500    6.500 
#    0.000    5.000    0.000    0.000    0.000    0.000 
#    0.000    0.000    0.000    0.000    0.000    0.000 
#
# Total GULP energy -89371.638248 kJ/mol
# GULP energy per Si atom -5585.727391 kJ/mol
# Density = 2.310941 g / cm^3
# Si number density = 23.162131 Si / 1000 Ang^3
#
#
#
# Elastic Constant Matrix: (Units=GPa)
#
#
# Indices 1 2 3 4 5 6 
#
# 1 179.4666 35.2635 79.1778 -19.6112 16.1719 43.4279
# 2 35.2635 60.3674 11.1773 0.5089 3.8033 24.3278
# 3 79.1778 11.1773 114.2587 -20.4222 18.6972 19.2879
# 4 -19.6112 0.5089 -20.4222 23.3632 1.0116 -3.1938
# 5 16.1719 3.8033 18.6972 1.0116 51.4034 -2.9888
# 6 43.4279 24.3278 19.2879 -3.1938 -2.9888 45.3934
#
#
#
# Elastic Compliance Matrix: (Units=1/GPa)
#
#
# Indices 1 2 3 4 5 6 
#
# 1 0.010297 -0.002496 -0.004902 0.003627 -0.001709 -0.006288
# 2 -0.002496 0.022084 0.001052 -0.002978 -0.001767 -0.010220
# 3 -0.004902 0.001052 0.014524 0.008500 -0.004085 -0.001716
# 4 0.003627 -0.002978 0.008500 0.053282 -0.005182 -0.002078
# 5 -0.001709 -0.001767 -0.004085 -0.005182 0.022024 0.005403
# 6 -0.006288 -0.010220 -0.001716 -0.002078 0.005403 0.034461
#
#
# Mechanical properties :
#
#
# Convention : Reuss Voigt Hill
#
# Bulk Modulus (GPa) = 29.23041 67.25888 48.24464
# Shear Modulus (GPa) = 27.65955 39.26361 33.46158
#
# Velocity S-wave (km/s) = 3.45943 4.12170 3.80500
# Velocity P-wave (km/s) = 5.34829 7.19393 6.33864
#
# Compressibility (1/GPa) = 0.03421095
#
# Stress axis : x y z
#
# Youngs Moduli (GPa) = 97.11395 45.28219 68.85349
#
# Poissons Ratio (x) = 0.11304 0.33752
# Poissons Ratio (y) = 0.24244 -0.07241
# Poissons Ratio (z) = 0.47605 -0.04762
#
# Static dielectric constant tensor:
#      x y z
#    x 1.853350 -0.009600 -0.005450 
#    y -0.009600 1.982720 0.063030 
#    z -0.005450 0.063030 1.884810 
# 
# From -- ./inp_files/515963.got.cif
#   From: 2010.05.17/outbox.cif.g08.bks.cpg/sg2_258_cif.got.tgz:515963.got - 2010.06.03 11:33:40.
