data_PCOD9098274
_publ_section_title
;
Structure prediction by ZEFSAII (Michael W. Deem and Ramdas Pophale) SiO2 
 PCOD9098274
Probable space group: P -1
;
_chemical_formula_sum "Si O2"
_cell_formula_units_Z 15
_cell_length_a 18.732736
_cell_length_b 12.456274
_cell_length_c 10.906911
_cell_angle_alpha 142.456350
_cell_angle_beta 45.205975
_cell_angle_gamma 154.060900
_cell_volume 678.023649
_symmetry_space_group_name_H-M "P -1"
_symmetry_group_IT_number 2
_symmetry_cell_setting 'triclinic'
loop_
_space_group_symop_operation_xyz
x,y,z
-x,-y,-z
loop_
_atom_site_type_symbol
_atom_site_label
_atom_site_fract_x
_atom_site_fract_y
_atom_site_fract_z
Si Si1 0.074167 0.586309 0.622238
Si Si2 0.500000 0.000000 0.500000
Si Si3 0.308583 0.208979 0.941809
Si Si4 0.278231 0.921284 0.044760
Si Si5 0.093529 0.989238 0.245588
Si Si6 0.808265 0.433157 0.957430
Si Si7 0.376050 0.600391 0.055107
Si Si8 0.795781 0.487066 0.425859
O O1 0.099871 0.430886 0.507781
O O2 0.000000 0.500000 0.500000
O O3 0.948706 0.513784 0.795042
O O4 0.252522 0.930380 0.726664
O O5 0.413833 0.763878 0.279376
O O6 0.385718 0.743104 0.510361
O O7 0.500000 0.500000 0.000000
O O8 0.204286 0.118774 0.104741
O O9 0.274483 0.290166 0.942116
O O10 0.208172 0.682890 0.816133
O O11 0.452026 0.219569 0.050501
O O12 0.292897 0.838387 0.079668
O O13 0.156906 0.919691 0.192876
O O14 0.133614 0.239160 0.467411
O O15 0.909402 0.705097 0.167481
O O16 0.711528 0.401798 0.941964
#
# Coordination Sequence:
#
# PCOD9098274 Si02
#       8
#     2   1   2   2   2   2   2   2
#     4  11  25  40  62  99 137 168 214 283 336 384
#     4  10  20  36  64  94 126 156 218 268 318 388
#     4  11  20  40  66  96 131 168 221 272 330 392
#     4  11  23  46  64  94 131 176 221 261 325 396
#     4  11  23  39  68  93 129 174 218 268 326 386
#     4  11  25  43  64  93 137 173 212 272 325 393
#     4  11  22  39  72  94 128 173 215 274 332 389
#     4  11  22  38  65  94 124 173 218 258 326 388
#
# _framework density 22.123121999999999
#
# number of rings (size 3 to 8) (size 9 to 14) (size 15 to 20)
#    0.000    1.067    5.333    2.400    1.867    1.600 
#    0.000    0.000    0.000    4.800    0.000    0.000 
#    0.000    0.000    0.000    0.000    0.000    0.000 
#
# Total GULP energy -83655.351853 kJ/mol
# GULP energy per Si atom -5577.023457 kJ/mol
# Density = 2.207277 g / cm^3
# Si number density = 22.123122 Si / 1000 Ang^3
#
#
#
# Elastic Constant Matrix: (Units=GPa)
#
#
# Indices 1 2 3 4 5 6 
#
# 1 129.7364 20.8749 16.2201 1.9462 -7.6209 -23.7521
# 2 20.8749 74.0992 5.2853 6.1435 -0.0533 -17.0221
# 3 16.2201 5.2853 63.0603 8.2135 -5.7179 -7.9839
# 4 1.9462 6.1435 8.2135 25.0239 -10.8108 -4.0165
# 5 -7.6209 -0.0533 -5.7179 -10.8108 27.1649 3.0244
# 6 -23.7521 -17.0221 -7.9839 -4.0165 3.0244 42.9096
#
#
#
# Elastic Compliance Matrix: (Units=1/GPa)
#
#
# Indices 1 2 3 4 5 6 
#
# 1 0.009047 -0.001663 -0.001708 0.002004 0.002523 0.004040
# 2 -0.001663 0.015443 0.000055 -0.003984 -0.002569 0.005024
# 3 -0.001708 0.000055 0.017236 -0.004806 0.001040 0.001760
# 4 0.002004 -0.003984 -0.004806 0.051195 0.019690 0.002039
# 5 0.002523 -0.002569 0.001040 0.019690 0.045659 -0.000804
# 6 0.004040 0.005024 0.001760 0.002039 -0.000804 0.028109
#
#
# Mechanical properties :
#
#
# Convention : Reuss Voigt Hill
#
# Bulk Modulus (GPa) = 28.49556 39.07295 33.78425
# Shear Modulus (GPa) = 27.02437 33.98739 30.50588
#
# Velocity S-wave (km/s) = 3.49885 3.92380 3.71740
# Velocity P-wave (km/s) = 5.40657 6.18289 5.80772
#
# Compressibility (1/GPa) = 0.03509319
#
# Stress axis : x y z
#
# Youngs Moduli (GPa) = 110.53541 64.75628 58.01896
#
# Poissons Ratio (x) = 0.10769 0.09912
# Poissons Ratio (y) = 0.18383 -0.00322
# Poissons Ratio (z) = 0.18883 -0.00359
#
# Static dielectric constant tensor:
#      x y z
#    x 1.877130 0.062620 -0.072600 
#    y 0.062620 1.926200 -0.084880 
#    z -0.072600 -0.084880 1.899400 
# 
# From -- ./inp_files/464895.got.cif
#   From: 2010.05.17/outbox.cif.g08.bks.cpg/sg2_233_cif.got.tgz:464895.got - 2010.06.03 11:33:40.
