data_PCOD9098736
_publ_section_title
;
Structure prediction by ZEFSAII (Michael W. Deem and Ramdas Pophale) SiO2 
 PCOD9098736
Probable space group: P -1
;
_chemical_formula_sum "Si O2"
_cell_formula_units_Z 14
_cell_length_a 14.269747
_cell_length_b 11.849145
_cell_length_c 12.152078
_cell_angle_alpha 88.944727
_cell_angle_beta 160.310508
_cell_angle_gamma 89.073120
_cell_volume 688.731546
_symmetry_space_group_name_H-M "P -1"
_symmetry_group_IT_number 2
_symmetry_cell_setting 'triclinic'
loop_
_space_group_symop_operation_xyz
x,y,z
-x,-y,-z
loop_
_atom_site_type_symbol
_atom_site_label
_atom_site_fract_x
_atom_site_fract_y
_atom_site_fract_z
Si Si1 0.000445 0.171204 0.231328
Si Si2 0.685390 0.581638 0.769790
Si Si3 0.545761 0.285782 0.880753
Si Si4 0.741391 0.000833 0.630556
Si Si5 0.213580 0.578270 0.676300
Si Si6 0.561878 0.186524 0.573554
Si Si7 0.706624 0.466290 0.479683
O O1 0.248689 0.235665 0.555373
O O2 0.135047 0.045358 0.347990
O O3 0.748409 0.198339 0.036131
O O4 0.851606 0.215874 0.950459
O O5 0.500000 0.500000 0.500000
O O6 0.652809 0.703048 0.672896
O O7 0.517716 0.597311 0.699976
O O8 0.003539 0.529687 0.134836
O O9 0.459232 0.409521 0.727625
O O10 0.719685 0.313106 0.181394
O O11 0.548305 0.908344 0.466322
O O12 0.595160 0.125798 0.492087
O O13 0.000000 0.000000 0.000000
O O14 0.181413 0.592058 0.509876
O O15 0.000000 0.500000 0.500000
O O16 0.500000 0.500000 0.000000
#
# Coordination Sequence:
#
# PCOD9098736 Si02
#       7
#     2   2   2   2   2   2   2
#     4  11  20  33  56  86 111 141 186 246 289 325
#     4  12  25  36  56  84 123 162 186 220 280 354
#     4  11  20  34  57  82 113 146 186 248 284 327
#     4   9  20  36  60  78 115 148 198 244 280 328
#     4  10  20  37  57  78 109 153 200 241 283 331
#     4  10  21  38  55  84 119 154 193 232 282 342
#     4  11  23  38  52  81 117 159 193 221 278 352
#
# _framework density 20.327223
#
# number of rings (size 3 to 8) (size 9 to 14) (size 15 to 20)
#    0.000    1.429    1.429    6.429    4.000    0.000 
#    0.000    0.000    0.000    0.000    0.000    6.000 
#    0.000    0.000    0.000    0.000    0.000    0.000 
#
# Total GULP energy -77970.224193 kJ/mol
# GULP energy per Si atom -5569.301728 kJ/mol
# Density = 2.028096 g / cm^3
# Si number density = 20.327223 Si / 1000 Ang^3
#
#
#
# Elastic Constant Matrix: (Units=GPa)
#
#
# Indices 1 2 3 4 5 6 
#
# 1 80.9282 4.5535 20.4372 6.0527 9.0426 -18.1633
# 2 4.5535 45.6537 4.2906 3.8854 -6.6001 -18.1993
# 3 20.4372 4.2906 91.2093 18.4595 13.5492 1.7892
# 4 6.0527 3.8854 18.4595 29.4166 -6.6133 2.4124
# 5 9.0426 -6.6001 13.5492 -6.6133 38.3453 8.6855
# 6 -18.1633 -18.1993 1.7892 2.4124 8.6855 30.9619
#
#
#
# Elastic Compliance Matrix: (Units=1/GPa)
#
#
# Indices 1 2 3 4 5 6 
#
# 1 0.017213 0.003882 -0.002200 -0.005450 -0.006922 0.014873
# 2 0.003882 0.030348 -0.001377 -0.005874 -0.000957 0.020922
# 3 -0.002200 -0.001377 0.014488 -0.009880 -0.006461 -0.000355
# 4 -0.005450 -0.005874 -0.009880 0.046593 0.014950 -0.013903
# 5 -0.006922 -0.000957 -0.006461 0.014950 0.035917 -0.015491
# 6 0.014873 0.020922 -0.000355 -0.013903 -0.015491 0.058770
#
#
# Mechanical properties :
#
#
# Convention : Reuss Voigt Hill
#
# Bulk Modulus (GPa) = 15.95927 30.70597 23.33262
# Shear Modulus (GPa) = 22.36093 32.31208 27.33650
#
# Velocity S-wave (km/s) = 3.32030 3.99130 3.67116
# Velocity P-wave (km/s) = 4.75051 6.03152 5.42893
#
# Compressibility (1/GPa) = 0.06265950
#
# Stress axis : x y z
#
# Youngs Moduli (GPa) = 58.09568 32.95120 69.02294
#
# Poissons Ratio (x) = -0.12792 0.15185
# Poissons Ratio (y) = -0.22553 0.09503
# Poissons Ratio (z) = 0.12781 0.04537
#
# Static dielectric constant tensor:
#      x y z
#    x 1.923080 -0.075180 -0.066750 
#    y -0.075180 1.752410 0.041990 
#    z -0.066750 0.041990 1.791570 
# 
# From -- ./inp_files/452425.got.cif
#   From: 2010.05.17/outbox.cif.g08.bks.cpg/sg2_227_cif.got.tgz:452425.got - 2010.06.03 11:33:40.
