data_PCOD9098870
_publ_section_title
;
Structure prediction by ZEFSAII (Michael W. Deem and Ramdas Pophale) SiO2 
 PCOD9098870
Probable space group: P -1
;
_chemical_formula_sum "Si O2"
_cell_formula_units_Z 14
_cell_length_a 17.013866
_cell_length_b 11.695148
_cell_length_c 6.445711
_cell_angle_alpha 87.073970
_cell_angle_beta 51.863779
_cell_angle_gamma 56.099994
_cell_volume 748.001684
_symmetry_space_group_name_H-M "P -1"
_symmetry_group_IT_number 2
_symmetry_cell_setting 'triclinic'
loop_
_space_group_symop_operation_xyz
x,y,z
-x,-y,-z
loop_
_atom_site_type_symbol
_atom_site_label
_atom_site_fract_x
_atom_site_fract_y
_atom_site_fract_z
Si Si1 0.559897 0.882904 0.108803
Si Si2 0.917978 0.216357 0.488251
Si Si3 0.674527 0.989458 0.198557
Si Si4 0.811005 0.058405 0.682868
Si Si5 0.102171 0.127337 0.834660
Si Si6 0.192963 0.448267 0.248206
Si Si7 0.988931 0.439936 0.812725
O O1 0.446595 0.923070 0.446930
O O2 0.650307 0.902948 0.091087
O O3 0.658627 0.702300 0.911338
O O4 0.500000 0.000000 0.000000
O O5 0.813475 0.193088 0.686974
O O6 0.855193 0.389239 0.616287
O O7 0.044091 0.094494 0.446757
O O8 0.983426 0.159788 0.156569
O O9 0.806155 0.883477 0.137952
O O10 0.699140 0.080561 0.002116
O O11 0.812605 0.018827 0.443417
O O12 0.042679 0.272178 0.777153
O O13 0.094003 0.429382 0.505438
O O14 0.157976 0.460671 0.059746
O O15 0.000000 0.500000 0.000000
#
# Coordination Sequence:
#
# PCOD9098870 Si02
#       7
#     2   2   2   2   2   2   2
#     4  11  23  40  60  82 113 151 193 236 281 337
#     4  10  21  35  55  90 116 150 190 228 287 343
#     4  10  22  38  59  84 110 152 198 228 279 342
#     4  10  20  37  58  81 121 151 188 235 276 341
#     4  11  19  36  60  85 117 152 184 231 293 342
#     4  11  22  35  55  86 118 145 185 236 285 342
#     4  11  20  32  54  86 120 143 175 232 298 340
#
# _framework density 18.716533999999999
#
# number of rings (size 3 to 8) (size 9 to 14) (size 15 to 20)
#    0.000    1.429    2.857    3.857    4.000    1.143 
#    0.000    0.714    0.000    3.429    0.000    0.000 
#    0.000    0.000    0.000    0.000    0.000    0.000 
#
# Total GULP energy -78036.222057 kJ/mol
# GULP energy per Si atom -5574.015861 kJ/mol
# Density = 1.867393 g / cm^3
# Si number density = 18.716534 Si / 1000 Ang^3
#
#
#
# Elastic Constant Matrix: (Units=GPa)
#
#
# Indices 1 2 3 4 5 6 
#
# 1 49.9497 18.7510 28.6210 -21.2625 -1.4734 -13.4304
# 2 18.7510 78.3880 35.1360 -9.2283 -6.3116 -8.7694
# 3 28.6210 35.1360 86.6543 -16.1304 -2.2365 9.6602
# 4 -21.2625 -9.2283 -16.1304 25.0831 1.8389 -15.1304
# 5 -1.4734 -6.3116 -2.2365 1.8389 29.9966 -15.4421
# 6 -13.4304 -8.7694 9.6602 -15.1304 -15.4421 10.0703
#
#
#
# Elastic Compliance Matrix: (Units=1/GPa)
#
#
# Indices 1 2 3 4 5 6 
#
# 1 0.011497 -0.008235 0.000673 -0.008186 -0.014618 -0.027199
# 2 -0.008235 0.014946 -0.004117 -0.007814 -0.000247 -0.006137
# 3 0.000673 -0.004117 0.014606 0.012689 0.003303 0.007431
# 4 -0.008186 -0.007814 0.012689 0.016689 -0.021860 -0.038339
# 5 -0.014618 -0.000247 0.003303 -0.021860 0.025962 -0.015912
# 6 -0.027199 -0.006137 0.007431 -0.038339 -0.015912 -0.031448
#
#
# Mechanical properties :
#
#
# Convention : Reuss Voigt Hill
#
# Bulk Modulus (GPa) = 56.52775 42.22309 49.37542
# Shear Modulus (GPa) = 61.34440 21.86226 41.60333
#
# Velocity S-wave (km/s) = 5.73120 3.42141 4.71978
# Velocity P-wave (km/s) = 8.60600 6.18194 7.49265
#
# Compressibility (1/GPa) = 0.01769043
#
# Stress axis : x y z
#
# Youngs Moduli (GPa) = 86.97932 66.90779 68.46518
#
# Poissons Ratio (x) = 0.55100 -0.04607
# Poissons Ratio (y) = 0.71630 0.28186
# Poissons Ratio (z) = -0.05852 0.27545
#
# Static dielectric constant tensor:
#      x y z
#    x 1.677430 -0.103370 0.068570 
#    y -0.103370 1.165760 0.157340 
#    z 0.068570 0.157340 1.648180 
# 
# From -- ./inp_files/65923.got.cif
#   From: 2010.05.17/outbox.cif.g08.bks.cpg/sg2_33_cif.got.tgz:65923.got - 2010.06.03 11:33:40.
