data_PCOD9098133
_publ_section_title
;
Structure prediction by ZEFSAII (Michael W. Deem and Ramdas Pophale) SiO2 
 PCOD9098133
Probable space group: P -1
;
_chemical_formula_sum "Si O2"
_cell_formula_units_Z 16
_cell_length_a 12.493694
_cell_length_b 12.326476
_cell_length_c 8.173569
_cell_angle_alpha 144.277758
_cell_angle_beta 110.478276
_cell_angle_gamma 82.463494
_cell_volume 661.050491
_symmetry_space_group_name_H-M "P -1"
_symmetry_group_IT_number 2
_symmetry_cell_setting 'triclinic'
loop_
_space_group_symop_operation_xyz
x,y,z
-x,-y,-z
loop_
_atom_site_type_symbol
_atom_site_label
_atom_site_fract_x
_atom_site_fract_y
_atom_site_fract_z
Si Si1 0.813974 0.972421 0.853622
Si Si2 0.811329 0.294739 0.588299
Si Si3 0.947534 0.737791 0.805685
Si Si4 0.663008 0.677074 0.173304
Si Si5 0.407526 0.712051 0.167475
Si Si6 0.036046 0.485675 0.768625
Si Si7 0.370368 0.058248 0.777603
Si Si8 0.641984 0.233402 0.155091
O O1 0.856378 0.864542 0.895093
O O2 0.771467 0.808884 0.493141
O O3 0.709971 0.069456 0.958241
O O4 0.924957 0.127978 0.022201
O O5 0.731759 0.085066 0.347073
O O6 0.721906 0.358699 0.493708
O O7 0.932078 0.307745 0.566998
O O8 0.867926 0.426182 0.934464
O O9 0.913590 0.571518 0.443767
O O10 0.968969 0.644750 0.873308
O O11 0.545224 0.721011 0.239603
O O12 0.667591 0.762387 0.098911
O O13 0.644360 0.454055 0.931188
O O14 0.387379 0.911653 0.462510
O O15 0.359861 0.668145 0.902636
O O16 0.504243 0.143944 0.023639
#
# Coordination Sequence:
#
# PCOD9098133 Si02
#       8
#     2   2   2   2   2   2   2   2
#     4  11  20  36  64  96 120 156 209 274 318 356
#     4  11  24  38  65  90 131 174 201 250 326 394
#     4  10  23  39  67  90 117 161 225 275 306 356
#     4  10  20  36  63  97 123 158 213 270 306 356
#     4  10  21  36  66  96 124 161 216 264 304 367
#     4  10  23  44  62  92 120 167 221 263 312 371
#     4  11  21  41  64  95 131 171 206 255 316 382
#     4  11  21  41  64  96 130 167 204 260 321 377
#
# _framework density 24.203900999999998
#
# number of rings (size 3 to 8) (size 9 to 14) (size 15 to 20)
#    0.000    1.500    3.750    1.875    3.500    0.000 
#    0.000    1.875    0.000    3.750    0.000    0.000 
#    0.000    0.000    0.000    0.000    0.000    0.000 
#
# Total GULP energy -89422.776637 kJ/mol
# GULP energy per Si atom -5588.923540 kJ/mol
# Density = 2.414881 g / cm^3
# Si number density = 24.203901 Si / 1000 Ang^3
#
#
#
# Elastic Constant Matrix: (Units=GPa)
#
#
# Indices 1 2 3 4 5 6 
#
# 1 79.4020 33.0782 22.6027 2.0490 26.6122 -2.2144
# 2 33.0782 118.7007 43.6698 -3.4455 18.0453 -21.3733
# 3 22.6027 43.6698 110.0876 -20.5006 28.4350 -11.0125
# 4 2.0490 -3.4455 -20.5006 50.2491 -2.9539 2.5147
# 5 26.6122 18.0453 28.4350 -2.9539 39.0733 2.2751
# 6 -2.2144 -21.3733 -11.0125 2.5147 2.2751 29.5657
#
#
#
# Elastic Compliance Matrix: (Units=1/GPa)
#
#
# Indices 1 2 3 4 5 6 
#
# 1 0.017559 -0.003421 0.000209 -0.001484 -0.010636 -0.000135
# 2 -0.003421 0.012069 -0.003092 -0.000757 -0.001488 0.007496
# 3 0.000209 -0.003092 0.013639 0.004690 -0.008467 0.003113
# 4 -0.001484 -0.000757 0.004690 0.021839 -0.000359 -0.000741
# 5 -0.010636 -0.001488 -0.008467 -0.000359 0.040129 -0.008083
# 6 -0.000135 0.007496 0.003113 -0.000741 -0.008083 0.041076
#
#
# Mechanical properties :
#
#
# Convention : Reuss Voigt Hill
#
# Bulk Modulus (GPa) = 32.61594 56.32130 44.46862
# Shear Modulus (GPa) = 29.56155 37.70025 33.63090
#
# Velocity S-wave (km/s) = 3.49858 3.95094 3.73162
# Velocity P-wave (km/s) = 5.46121 6.64329 6.08104
#
# Compressibility (1/GPa) = 0.03065985
#
# Stress axis : x y z
#
# Youngs Moduli (GPa) = 56.95164 82.85503 73.31831
#
# Poissons Ratio (x) = 0.28341 -0.01533
# Poissons Ratio (y) = 0.19480 0.22672
# Poissons Ratio (z) = -0.01191 0.25621
#
# Static dielectric constant tensor:
#      x y z
#    x 1.952590 0.018870 -0.025510 
#    y 0.018870 1.959780 -0.013230 
#    z -0.025510 -0.013230 1.940060 
# 
# From -- ./inp_files/306048.got.cif
#   From: 2010.05.17/outbox.cif.g08.bks.cpg/sg2_154_cif.got.tgz:306048.got - 2010.06.03 11:33:40.
