data_PCOD9098756
_publ_section_title
;
Structure prediction by ZEFSAII (Michael W. Deem and Ramdas Pophale) SiO2 
 PCOD9098756
Probable space group: P -1
;
_chemical_formula_sum "Si O2"
_cell_formula_units_Z 16
_cell_length_a 8.052783
_cell_length_b 13.646430
_cell_length_c 14.565128
_cell_angle_alpha 35.545462
_cell_angle_beta 120.950197
_cell_angle_gamma 138.647018
_cell_volume 595.066603
_symmetry_space_group_name_H-M "P -1"
_symmetry_group_IT_number 2
_symmetry_cell_setting 'triclinic'
loop_
_space_group_symop_operation_xyz
x,y,z
-x,-y,-z
loop_
_atom_site_type_symbol
_atom_site_label
_atom_site_fract_x
_atom_site_fract_y
_atom_site_fract_z
Si Si1 0.673332 0.038671 0.431949
Si Si2 0.427563 0.339385 0.222350
Si Si3 0.220626 0.690856 0.298388
Si Si4 0.774781 0.442317 0.079976
Si Si5 0.033966 0.055181 0.732430
Si Si6 0.745970 0.585709 0.624090
Si Si7 0.310699 0.872190 0.955352
Si Si8 0.202112 0.384391 0.674730
O O1 0.659077 0.185482 0.244023
O O2 0.985377 0.218936 0.397623
O O3 0.500000 0.000000 0.500000
O O4 0.583290 0.788827 0.592044
O O5 0.679073 0.461076 0.137660
O O6 0.213022 0.119548 0.266389
O O7 0.334726 0.481436 0.081936
O O8 0.226169 0.577502 0.294963
O O9 0.228667 0.561902 0.481732
O O10 0.955413 0.644210 0.260566
O O11 0.463892 0.951888 0.186016
O O12 0.091116 0.622497 0.039582
O O13 0.246965 0.274016 0.563401
O O14 0.005448 0.149350 0.742144
O O15 0.139424 0.936544 0.875288
O O16 0.475321 0.443565 0.709229
O O17 0.500000 0.000000 0.000000
#
# Coordination Sequence:
#
# PCOD9098756 Si02
#       8
#     2   2   2   2   2   2   2   2
#     4   9  17  29  50  76  99 133 177 216 261 312
#     4   8  16  29  47  71 101 132 172 223 253 307
#     4  10  19  31  48  78 102 135 175 213 263 315
#     4   9  17  28  45  74 101 132 178 211 259 319
#     4   9  16  30  49  71  98 134 170 211 262 301
#     4  10  16  31  53  74 106 134 171 220 261 310
#     4  11  19  29  47  71 106 139 165 212 265 311
#     4  10  18  30  53  75 102 132 176 220 257 316
#
# _framework density 26.887747999999998
#
# number of rings (size 3 to 8) (size 9 to 14) (size 15 to 20)
#    0.000    2.500    2.500    1.500    0.000    0.000 
#    0.000    0.625    0.000    1.500    0.000    0.000 
#    0.000    0.000    0.000    0.000    0.000    0.000 
#
# Total GULP energy -89217.256784 kJ/mol
# GULP energy per Si atom -5576.078549 kJ/mol
# Density = 2.682655 g / cm^3
# Si number density = 26.887748 Si / 1000 Ang^3
#
#
#
# Elastic Constant Matrix: (Units=GPa)
#
#
# Indices 1 2 3 4 5 6 
#
# 1 113.3560 50.5080 27.4979 -7.0652 9.0719 24.2473
# 2 50.5080 93.4437 18.6839 -12.2542 0.0904 25.9057
# 3 27.4979 18.6839 149.5292 -9.0112 22.3974 5.2953
# 4 -7.0652 -12.2542 -9.0112 48.8809 10.7806 -10.5430
# 5 9.0719 0.0904 22.3974 10.7806 -1.0001 -1.0454
# 6 24.2473 25.9057 5.2953 -10.5430 -1.0454 45.1941
#
#
#
# Elastic Compliance Matrix: (Units=1/GPa)
#
#
# Indices 1 2 3 4 5 6 
#
# 1 0.011617 -0.005138 -0.002979 -0.002993 0.009513 -0.003417
# 2 -0.005138 0.015373 0.000109 0.002996 -0.004745 -0.005479
# 3 -0.002979 0.000109 0.003998 -0.003902 0.019809 0.000615
# 4 -0.002993 0.002996 -0.003902 0.013975 0.031825 0.004342
# 5 0.009513 -0.004745 0.019809 0.031825 -0.127116 -0.000221
# 6 -0.003417 -0.005479 0.000615 0.004342 -0.000221 0.028036
#
#
# Mechanical properties :
#
#
# Convention : Reuss Voigt Hill
#
# Bulk Modulus (GPa) = 66.78621 61.07874 63.93247
# Shear Modulus (GPa) = -151.00140 35.92425 -57.53857
#
# Velocity S-wave (km/s) = -7.50212 3.65921 -4.63098
# Velocity P-wave (km/s) = 7.08164 6.37327 2.18300
#
# Compressibility (1/GPa) = 0.01497315
#
# Stress axis : x y z
#
# Youngs Moduli (GPa) = 86.08411 65.04705 250.14910
#
# Poissons Ratio (x) = 0.33421 0.74508
# Poissons Ratio (y) = 0.44230 -0.02732
# Poissons Ratio (z) = 0.25640 -0.00711
#
# Static dielectric constant tensor:
#      x y z
#    x 2.119170 -0.041180 -0.100050 
#    y -0.041180 2.097160 0.082290 
#    z -0.100050 0.082290 2.383700 
# 
# From -- ./inp_files/311699.got.cif
#   From: 2010.05.17/outbox.cif.g08.bks.cpg/sg2_156_cif.got.tgz:311699.got - 2010.06.03 11:33:40.
