data_PCOD9098457
_publ_section_title
;
Structure prediction by ZEFSAII (Michael W. Deem and Ramdas Pophale) SiO2 
 PCOD9098457
Probable space group: P -1
;
_chemical_formula_sum "Si O2"
_cell_formula_units_Z 11
_cell_length_a 7.036929
_cell_length_b 11.247406
_cell_length_c 14.121192
_cell_angle_alpha 148.659449
_cell_angle_beta 48.542316
_cell_angle_gamma 121.985945
_cell_volume 433.829081
_symmetry_space_group_name_H-M "P -1"
_symmetry_group_IT_number 2
_symmetry_cell_setting 'triclinic'
loop_
_space_group_symop_operation_xyz
x,y,z
-x,-y,-z
loop_
_atom_site_type_symbol
_atom_site_label
_atom_site_fract_x
_atom_site_fract_y
_atom_site_fract_z
Si Si1 0.000000 0.000000 0.500000
Si Si2 0.502085 0.869688 0.680480
Si Si3 0.931852 0.415727 0.568369
Si Si4 0.108711 0.093507 0.816541
Si Si5 0.295361 0.623236 0.744780
Si Si6 0.440368 0.661869 0.219955
O O1 0.802407 0.171064 0.618684
O O2 0.239142 0.028716 0.365637
O O3 0.271590 0.021348 0.808967
O O4 0.440026 0.816098 0.773719
O O5 0.533904 0.611575 0.448792
O O6 0.972378 0.142715 0.355619
O O7 0.651391 0.460794 0.739322
O O8 0.000000 0.500000 0.500000
O O9 0.106530 0.534162 0.666707
O O10 0.308692 0.205178 0.758018
O O11 0.874464 0.272472 0.043056
O O12 0.500000 0.500000 0.000000
#
# Coordination Sequence:
#
# PCOD9098457 Si02
#       6
#     1   2   2   2   2   2
#     4  10  20  36  66  94 120 172 220 250 318 388
#     4  10  21  38  65  92 128 172 213 260 317 393
#     4  12  24  40  66 104 130 162 224 268 316 391
#     4  11  23  41  69  92 127 173 214 264 327 371
#     4  11  22  43  63  93 132 171 209 265 325 381
#     4  11  22  43  68  91 130 175 212 262 323 383
#
# _framework density 25.355609999999999
#
# number of rings (size 3 to 8) (size 9 to 14) (size 15 to 20)
#    0.000    1.091    5.455    1.091    0.000    0.000 
#    0.000    7.273    0.000    6.545    0.000    0.000 
#    0.000    0.000    0.000    0.000    0.000    0.000 
#
# Total GULP energy -61293.889928 kJ/mol
# GULP energy per Si atom -5572.171812 kJ/mol
# Density = 2.529790 g / cm^3
# Si number density = 25.355610 Si / 1000 Ang^3
#
#
#
# Elastic Constant Matrix: (Units=GPa)
#
#
# Indices 1 2 3 4 5 6 
#
# 1 49.1619 24.0628 19.9638 -8.1970 0.5528 8.4844
# 2 24.0628 169.6215 25.6428 -36.5245 10.4189 17.6742
# 3 19.9638 25.6428 127.6927 -22.0547 -2.6682 8.7791
# 4 -8.1970 -36.5245 -22.0547 40.2078 5.5875 -1.6743
# 5 0.5528 10.4189 -2.6682 5.5875 46.0388 -0.5863
# 6 8.4844 17.6742 8.7791 -1.6743 -0.5863 39.8372
#
#
#
# Elastic Compliance Matrix: (Units=1/GPa)
#
#
# Indices 1 2 3 4 5 6 
#
# 1 0.023346 -0.002331 -0.002787 0.000987 -0.000076 -0.003283
# 2 -0.002331 0.008269 0.000119 0.007365 -0.002768 -0.002930
# 3 -0.002787 0.000119 0.009105 0.004485 -0.000026 -0.001278
# 4 0.000987 0.007365 0.004485 0.034884 -0.005692 -0.003083
# 5 -0.000076 -0.002768 -0.000026 -0.005692 0.023054 0.001350
# 6 -0.003283 -0.002930 -0.001278 -0.003083 0.001350 0.027273
#
#
# Mechanical properties :
#
#
# Convention : Reuss Voigt Hill
#
# Bulk Modulus (GPa) = 32.55001 53.97944 43.26472
# Shear Modulus (GPa) = 34.20654 43.67054 38.93854
#
# Velocity S-wave (km/s) = 3.67696 4.15459 3.92305
# Velocity P-wave (km/s) = 5.55805 6.65953 6.13357
#
# Compressibility (1/GPa) = 0.03072196
#
# Stress axis : x y z
#
# Youngs Moduli (GPa) = 42.83417 120.93052 109.82967
#
# Poissons Ratio (x) = 0.28192 0.30612
# Poissons Ratio (y) = 0.09986 -0.01312
# Poissons Ratio (z) = 0.11939 -0.01445
#
# Static dielectric constant tensor:
#      x y z
#    x 2.107230 -0.002770 0.035240 
#    y -0.002770 2.069400 -0.009460 
#    z 0.035240 -0.009460 1.971750 
# 
# From -- ./inp_files/167161.got.cif
#   From: 2010.05.17/outbox.cif.g08.bks.cpg/sg2_84_cif.got.tgz:167161.got - 2010.06.03 11:33:40.
