data_PCOD9098800
_publ_section_title
;
Structure prediction by ZEFSAII (Michael W. Deem and Ramdas Pophale) SiO2 
 PCOD9098800
Probable space group: P -1
;
_chemical_formula_sum "Si O2"
_cell_formula_units_Z 14
_cell_length_a 13.926668
_cell_length_b 9.506493
_cell_length_c 14.561220
_cell_angle_alpha 46.882327
_cell_angle_beta 31.913998
_cell_angle_gamma 69.748693
_cell_volume 591.468394
_symmetry_space_group_name_H-M "P -1"
_symmetry_group_IT_number 2
_symmetry_cell_setting 'triclinic'
loop_
_space_group_symop_operation_xyz
x,y,z
-x,-y,-z
loop_
_atom_site_type_symbol
_atom_site_label
_atom_site_fract_x
_atom_site_fract_y
_atom_site_fract_z
Si Si1 0.340154 0.455797 0.852772
Si Si2 0.752630 0.871573 0.213135
Si Si3 0.024405 0.222439 0.059318
Si Si4 0.719352 0.745963 0.633374
Si Si5 0.714280 0.213964 0.170738
Si Si6 0.799505 0.065235 0.764697
Si Si7 0.499800 0.797543 0.962012
O O1 0.570028 0.661894 0.522616
O O2 0.306448 0.572152 0.916399
O O3 0.134507 0.393319 0.980704
O O4 0.311693 0.211798 0.994897
O O5 0.715689 0.076400 0.143465
O O6 0.767922 0.772567 0.150180
O O7 0.000000 0.000000 0.000000
O O8 0.929815 0.290294 0.023832
O O9 0.830467 0.952455 0.373440
O O10 0.594331 0.477601 0.813039
O O11 0.932296 0.792176 0.498363
O O12 0.579754 0.795761 0.794123
O O13 0.500000 0.000000 0.500000
O O14 0.693911 0.170997 0.864434
O O15 0.716156 0.018759 0.746761
#
# Coordination Sequence:
#
# PCOD9098800 Si02
#       7
#     2   2   2   2   2   2   2
#     4  10  20  37  57  86 120 152 193 242 296 352
#     4   9  19  35  55  81 118 152 193 233 284 356
#     4  10  20  37  57  86 120 152 193 242 296 352
#     4  10  22  41  64  92 120 157 203 249 304 359
#     4   9  19  35  55  81 118 152 193 233 284 356
#     4  10  22  41  64  92 120 157 203 249 304 359
#     4  10  22  42  66  86 122 158 200 258 302 352
#
# _framework density 23.669902
#
# number of rings (size 3 to 8) (size 9 to 14) (size 15 to 20)
#    0.000    2.286    0.000    1.714    6.000    0.000 
#   23.143    1.429    0.000    0.000    0.000    0.000 
#    0.000    0.000    0.000    0.000    0.000    0.000 
#
# Total GULP energy -78067.173051 kJ/mol
# GULP energy per Si atom -5576.226646 kJ/mol
# Density = 2.361603 g / cm^3
# Si number density = 23.669902 Si / 1000 Ang^3
#
#
#
# Elastic Constant Matrix: (Units=GPa)
#
#
# Indices 1 2 3 4 5 6 
#
# 1 43.0717 17.4468 -0.9988 4.7350 -20.1961 -6.6698
# 2 17.4468 234.1860 28.7100 20.1320 5.8944 -3.9682
# 3 -0.9988 28.7100 61.0669 -5.7103 -3.6061 -5.1802
# 4 4.7350 20.1320 -5.7103 24.3724 8.1998 -0.2400
# 5 -20.1961 5.8944 -3.6061 8.1998 28.8364 -1.8379
# 6 -6.6698 -3.9682 -5.1802 -0.2400 -1.8379 30.5588
#
#
#
# Elastic Compliance Matrix: (Units=1/GPa)
#
#
# Indices 1 2 3 4 5 6 
#
# 1 0.048125 -0.003219 0.004024 -0.019495 0.041244 0.013095
# 2 -0.003219 0.005245 -0.003072 -0.003505 -0.002761 -0.000736
# 3 0.004024 -0.003072 0.018940 0.004633 0.004753 0.004012
# 4 -0.019495 -0.003505 0.004633 0.058625 -0.029362 -0.005230
# 5 0.041244 -0.002761 0.004753 -0.029362 0.073943 0.013666
# 6 0.013095 -0.000736 0.004012 -0.005230 0.013666 0.036947
#
#
# Mechanical properties :
#
#
# Convention : Reuss Voigt Hill
#
# Bulk Modulus (GPa) = 14.75456 47.62675 31.19066
# Shear Modulus (GPa) = 18.59080 36.29795 27.44438
#
# Velocity S-wave (km/s) = 2.80557 3.92025 3.40878
# Velocity P-wave (km/s) = 4.09170 6.37621 5.35715
#
# Compressibility (1/GPa) = 0.06777564
#
# Stress axis : x y z
#
# Youngs Moduli (GPa) = 20.77943 190.66443 52.79926
#
# Poissons Ratio (x) = 0.61372 -0.21246
# Poissons Ratio (y) = 0.06689 0.16218
# Poissons Ratio (z) = -0.08361 0.58565
#
# Static dielectric constant tensor:
#      x y z
#    x 2.085540 0.117310 -0.025120 
#    y 0.117310 2.112180 -0.000690 
#    z -0.025120 -0.000690 1.877340 
# 
# From -- ./inp_files/529367.got.cif
#   From: 2010.05.17/outbox.cif.g08.bks.cpg/sg2_265_cif.got.tgz:529367.got - 2010.06.03 11:33:40.
