data_PCOD9098942
_publ_section_title
;
Structure prediction by ZEFSAII (Michael W. Deem and Ramdas Pophale) SiO2 
 PCOD9098942
Probable space group: P -1
;
_chemical_formula_sum "Si O2"
_cell_formula_units_Z 16
_cell_length_a 22.757059
_cell_length_b 10.473046
_cell_length_c 8.611214
_cell_angle_alpha 50.466888
_cell_angle_beta 61.448956
_cell_angle_gamma 30.388100
_cell_volume 787.293066
_symmetry_space_group_name_H-M "P -1"
_symmetry_group_IT_number 2
_symmetry_cell_setting 'triclinic'
loop_
_space_group_symop_operation_xyz
x,y,z
-x,-y,-z
loop_
_atom_site_type_symbol
_atom_site_label
_atom_site_fract_x
_atom_site_fract_y
_atom_site_fract_z
Si Si1 0.088732 0.771114 0.427829
Si Si2 0.070746 0.517011 0.440520
Si Si3 0.702989 0.087447 0.197049
Si Si4 0.248899 0.621096 0.092980
Si Si5 0.495655 0.016293 0.801812
Si Si6 0.714496 0.793969 0.174995
Si Si7 0.215576 0.393369 0.107532
Si Si8 0.446697 0.753287 0.474347
O O1 0.023522 0.758420 0.423699
O O2 0.147652 0.779122 0.223541
O O3 0.206225 0.459868 0.601920
O O4 0.000000 0.000000 0.500000
O O5 0.107519 0.531979 0.224961
O O6 0.000000 0.500000 0.500000
O O7 0.186026 0.217493 0.616935
O O8 0.592974 0.249111 0.313315
O O9 0.692650 0.021542 0.093717
O O10 0.727327 0.232762 0.056409
O O11 0.380805 0.276070 0.214986
O O12 0.215904 0.587021 0.003162
O O13 0.402152 0.073114 0.817925
O O14 0.467324 0.264469 0.603790
O O15 0.500000 0.000000 0.000000
O O16 0.785596 0.644427 0.040914
O O17 0.332893 0.066544 0.286773
O O18 0.500000 0.500000 0.500000
#
# Coordination Sequence:
#
# PCOD9098942 Si02
#       8
#     2   2   2   2   2   2   2   2
#     4  10  24  43  60  88 122 157 204 256 302 350
#     4   9  20  41  62  82 116 158 201 248 297 356
#     4  10  23  37  59  91 121 152 200 252 297 349
#     4  10  21  41  62  87 124 160 203 240 299 370
#     4  11  20  38  65  89 123 163 197 241 300 368
#     4  11  22  40  62  89 124 157 197 252 305 347
#     4   9  20  38  61  86 119 158 197 241 296 366
#     4  10  20  37  58  86 124 157 199 237 291 363
#
# _framework density 20.322800999999998
#
# number of rings (size 3 to 8) (size 9 to 14) (size 15 to 20)
#    0.000    2.000    2.500    3.000    0.000    5.500 
#    4.500    5.000    0.000    0.000    0.000    0.000 
#    0.000    0.000    0.000    0.000    0.000    0.000 
#
# Total GULP energy -89180.549421 kJ/mol
# GULP energy per Si atom -5573.784339 kJ/mol
# Density = 2.027655 g / cm^3
# Si number density = 20.322801 Si / 1000 Ang^3
#
#
#
# Elastic Constant Matrix: (Units=GPa)
#
#
# Indices 1 2 3 4 5 6 
#
# 1 151.3280 53.0380 54.0489 18.5263 -32.9987 35.8881
# 2 53.0380 113.4222 40.3572 24.1487 -23.3621 35.5391
# 3 54.0489 40.3572 82.7558 11.4203 -28.8618 35.1165
# 4 18.5263 24.1487 11.4203 29.8621 1.6859 5.4777
# 5 -32.9987 -23.3621 -28.8618 1.6859 39.6687 -11.5186
# 6 35.8881 35.5391 35.1165 5.4777 -11.5186 40.7507
#
#
#
# Elastic Compliance Matrix: (Units=1/GPa)
#
#
# Indices 1 2 3 4 5 6 
#
# 1 0.010463 -0.000450 -0.001770 -0.004873 0.005915 -0.004970
# 2 -0.000450 0.015979 0.001333 -0.011531 0.007279 -0.011081
# 3 -0.001770 0.001333 0.025267 -0.007329 0.013167 -0.016671
# 4 -0.004873 -0.011531 -0.007329 0.047683 -0.015322 0.009923
# 5 0.005915 0.007279 0.013167 -0.015322 0.042046 -0.008960
# 6 -0.004970 -0.011081 -0.016671 0.009923 -0.008960 0.049080
#
#
# Mechanical properties :
#
#
# Convention : Reuss Voigt Hill
#
# Bulk Modulus (GPa) = 20.02554 71.37714 45.70134
# Shear Modulus (GPa) = 23.93090 35.39376 29.66233
#
# Velocity S-wave (km/s) = 3.43525 4.17775 3.82456
# Velocity P-wave (km/s) = 5.06061 7.64653 6.48379
#
# Compressibility (1/GPa) = 0.04993623
#
# Stress axis : x y z
#
# Youngs Moduli (GPa) = 95.57466 62.58291 39.57728
#
# Poissons Ratio (x) = 0.02815 0.07004
# Poissons Ratio (y) = 0.04299 -0.05276
# Poissons Ratio (z) = 0.16914 -0.08343
#
# Static dielectric constant tensor:
#      x y z
#    x 1.771250 -0.006310 0.001300 
#    y -0.006310 1.752140 -0.010670 
#    z 0.001300 -0.010670 1.742870 
# 
# From -- ./inp_files/215736.got.cif
#   From: 2010.05.17/outbox.cif.g08.bks.cpg/sg2_108_cif.got.tgz:215736.got - 2010.06.03 11:33:40.
