data_PCOD9098095
_publ_section_title
;
Structure prediction by ZEFSAII (Michael W. Deem and Ramdas Pophale) SiO2 
 PCOD9098095
Probable space group: P -1
;
_chemical_formula_sum "Si O2"
_cell_formula_units_Z 14
_cell_length_a 8.773967
_cell_length_b 9.358989
_cell_length_c 9.851685
_cell_angle_alpha 130.694664
_cell_angle_beta 75.907144
_cell_angle_gamma 109.142171
_cell_volume 578.949404
_symmetry_space_group_name_H-M "P -1"
_symmetry_group_IT_number 2
_symmetry_cell_setting 'triclinic'
loop_
_space_group_symop_operation_xyz
x,y,z
-x,-y,-z
loop_
_atom_site_type_symbol
_atom_site_label
_atom_site_fract_x
_atom_site_fract_y
_atom_site_fract_z
Si Si1 0.427312 0.220122 0.290997
Si Si2 0.077923 0.882043 0.568286
Si Si3 0.780031 0.158325 0.216874
Si Si4 0.643033 0.703689 0.941676
Si Si5 0.143678 0.850395 0.095430
Si Si6 0.229531 0.242406 0.605783
Si Si7 0.287832 0.555467 0.022245
O O1 0.613440 0.221304 0.266965
O O2 0.391057 0.326478 0.228909
O O3 0.641375 0.713227 0.514807
O O4 0.318898 0.002279 0.154830
O O5 0.144891 0.779280 0.614110
O O6 0.941304 0.753734 0.424489
O O7 0.209703 0.023558 0.533391
O O8 0.981463 0.030251 0.751409
O O9 0.885862 0.217389 0.095481
O O10 0.739470 0.923141 0.081025
O O11 0.471154 0.678743 0.040163
O O12 0.727392 0.546720 0.892778
O O13 0.162785 0.680674 0.085544
O O14 0.270564 0.387067 0.810058
#
# Coordination Sequence:
#
# PCOD9098095 Si02
#       7
#     2   2   2   2   2   2   2
#     4  10  20  39  66  88 120 157 201 241 300 360
#     4  10  22  40  60  85 124 164 202 232 296 368
#     4  11  18  39  64  94 109 162 202 250 278 370
#     4  10  20  36  63  94 118 149 200 255 295 348
#     4  10  20  37  66  89 116 158 204 247 288 354
#     4  10  23  40  59  86 126 162 192 245 303 356
#     4  11  20  38  63  92 122 148 201 255 301 337
#
# _framework density 24.181733000000001
#
# number of rings (size 3 to 8) (size 9 to 14) (size 15 to 20)
#    0.000    1.714    4.286    1.286    0.000    1.714 
#    0.000    2.143    0.000    0.000    0.000    0.000 
#    0.000    0.000    0.000    0.000    0.000    0.000 
#
# Total GULP energy -78396.941515 kJ/mol
# GULP energy per Si atom -5599.781537 kJ/mol
# Density = 2.412669 g / cm^3
# Si number density = 24.181733 Si / 1000 Ang^3
#
#
#
# Elastic Constant Matrix: (Units=GPa)
#
#
# Indices 1 2 3 4 5 6 
#
# 1 66.0923 54.1124 24.3958 -20.8749 8.5581 -11.2704
# 2 54.1124 145.1287 28.2945 -32.8071 -3.7247 -39.6196
# 3 24.3958 28.2945 42.5701 -22.9503 4.0640 -13.1873
# 4 -20.8749 -32.8071 -22.9503 40.3221 1.4015 11.0497
# 5 8.5581 -3.7247 4.0640 1.4015 25.7450 -17.4030
# 6 -11.2704 -39.6196 -13.1873 11.0497 -17.4030 39.4246
#
#
#
# Elastic Compliance Matrix: (Units=1/GPa)
#
#
# Indices 1 2 3 4 5 6 
#
# 1 0.034614 -0.017498 -0.010086 0.006209 -0.030556 -0.026291
# 2 -0.017498 0.022447 0.002504 0.001042 0.029715 0.031219
# 3 -0.010086 0.002504 0.039060 0.016347 0.003059 0.009467
# 4 0.006209 0.001042 0.016347 0.041020 -0.012676 -0.008802
# 5 -0.030556 0.029715 0.003059 -0.012676 0.101026 0.070298
# 6 -0.026291 0.031219 0.009467 -0.008802 0.070298 0.085887
#
#
# Mechanical properties :
#
#
# Convention : Reuss Voigt Hill
#
# Bulk Modulus (GPa) = 21.75769 51.93296 36.84533
# Shear Modulus (GPa) = 12.83583 30.89757 21.86670
#
# Velocity S-wave (km/s) = 2.30642 3.57840 3.01036
# Velocity P-wave (km/s) = 4.01371 6.21257 5.23001
#
# Compressibility (1/GPa) = 0.04596075
#
# Stress axis : x y z
#
# Youngs Moduli (GPa) = 28.89031 44.54892 25.60144
#
# Poissons Ratio (x) = 0.77950 0.25823
# Poissons Ratio (y) = 0.50551 -0.06410
# Poissons Ratio (z) = 0.29140 -0.11154
#
# Static dielectric constant tensor:
#      x y z
#    x 1.919830 0.030040 0.011730 
#    y 0.030040 1.962910 0.009890 
#    z 0.011730 0.009890 1.926780 
# 
# From -- ./inp_files/199384.got.cif
#   From: 2010.05.17/outbox.cif.g08.bks.cpg/sg2_100_cif.got.tgz:199384.got - 2010.06.03 11:33:40.
