data_PCOD9098271
_publ_section_title
;
Structure prediction by ZEFSAII (Michael W. Deem and Ramdas Pophale) SiO2 
 PCOD9098271
Probable space group: P -1
;
_chemical_formula_sum "Si O2"
_cell_formula_units_Z 15
_cell_length_a 15.883545
_cell_length_b 9.842182
_cell_length_c 8.647754
_cell_angle_alpha 59.965795
_cell_angle_beta 83.485710
_cell_angle_gamma 41.618119
_cell_volume 692.805047
_symmetry_space_group_name_H-M "P -1"
_symmetry_group_IT_number 2
_symmetry_cell_setting 'triclinic'
loop_
_space_group_symop_operation_xyz
x,y,z
-x,-y,-z
loop_
_atom_site_type_symbol
_atom_site_label
_atom_site_fract_x
_atom_site_fract_y
_atom_site_fract_z
Si Si1 0.612060 0.351250 0.926547
Si Si2 0.838115 0.272940 0.929738
Si Si3 0.455777 0.721247 0.469962
Si Si4 0.872040 0.771102 0.678801
Si Si5 0.609872 0.782555 0.466483
Si Si6 0.271984 0.155047 0.845817
Si Si7 0.882042 0.460360 0.066159
Si Si8 0.000000 0.500000 0.500000
O O1 0.756927 0.229947 0.998702
O O2 0.528629 0.589287 0.694811
O O3 0.500000 0.500000 0.000000
O O4 0.647644 0.127189 0.979012
O O5 0.750097 0.503762 0.685526
O O6 0.842138 0.365017 0.035309
O O7 0.000000 0.000000 0.000000
O O8 0.500000 0.500000 0.500000
O O9 0.529281 0.775001 0.379300
O O10 0.288539 0.969940 0.380262
O O11 0.973451 0.753963 0.740405
O O12 0.879154 0.746361 0.507542
O O13 0.911725 0.545538 0.878349
O O14 0.654336 0.854272 0.299706
O O15 0.500000 0.000000 0.500000
O O16 0.239194 0.300862 0.925779
O O17 0.117073 0.342853 0.703458
#
# Coordination Sequence:
#
# PCOD9098271 Si02
#       8
#     2   2   2   2   2   2   2   1
#     4  11  25  43  66  99 137 177 222 280 345 407
#     4  11  26  43  70 100 139 177 225 289 356 399
#     4  11  24  42  65  96 136 174 214 278 345 397
#     4  10  21  39  68  96 132 176 228 272 338 408
#     4  11  24  45  70  96 134 185 229 268 337 426
#     4  11  23  41  69  98 130 176 233 270 330 412
#     4  10  23  40  67  99 131 172 227 284 334 404
#     4  10  20  36  64  94 124 168 224 272 322 392
#
# _framework density 21.651112000000001
#
# number of rings (size 3 to 8) (size 9 to 14) (size 15 to 20)
#    0.000    1.333    0.000    5.600   11.200    1.067 
#    0.000    4.667    0.000    0.000    0.000    0.000 
#    0.000    0.000    0.000    0.000    0.000    0.000 
#
# Total GULP energy -83540.778281 kJ/mol
# GULP energy per Si atom -5569.385219 kJ/mol
# Density = 2.160183 g / cm^3
# Si number density = 21.651112 Si / 1000 Ang^3
#
#
#
# Elastic Constant Matrix: (Units=GPa)
#
#
# Indices 1 2 3 4 5 6 
#
# 1 115.9177 58.1180 31.5997 -2.9726 -1.6454 -1.0324
# 2 58.1180 134.0329 27.5899 5.1623 6.1197 1.1675
# 3 31.5997 27.5899 54.5635 -1.3416 1.3063 -2.5343
# 4 -2.9726 5.1623 -1.3416 38.5439 -3.8005 6.7904
# 5 -1.6454 6.1197 1.3063 -3.8005 33.6261 2.9232
# 6 -1.0324 1.1675 -2.5343 6.7904 2.9232 40.1912
#
#
#
# Elastic Compliance Matrix: (Units=1/GPa)
#
#
# Indices 1 2 3 4 5 6 
#
# 1 0.012247 -0.004452 -0.004858 0.001596 0.001801 -0.000263
# 2 -0.004452 0.010087 -0.002522 -0.001983 -0.002173 -0.000073
# 3 -0.004858 -0.002522 0.022506 0.000438 -0.000720 0.001346
# 4 0.001596 -0.001983 0.000438 0.027588 0.003959 -0.004823
# 5 0.001801 -0.002173 -0.000720 0.003959 0.030946 -0.002856
# 6 -0.000263 -0.000073 0.001346 -0.004823 -0.002856 0.025984
#
#
# Mechanical properties :
#
#
# Convention : Reuss Voigt Hill
#
# Bulk Modulus (GPa) = 47.22205 59.90326 53.56265
# Shear Modulus (GPa) = 31.23400 34.95267 33.09333
#
# Velocity S-wave (km/s) = 3.80228 4.02227 3.91382
# Velocity P-wave (km/s) = 6.41360 7.02133 6.72434
#
# Compressibility (1/GPa) = 0.02117655
#
# Stress axis : x y z
#
# Youngs Moduli (GPa) = 81.65026 99.14009 44.43171
#
# Poissons Ratio (x) = 0.44138 0.21584
# Poissons Ratio (y) = 0.36351 0.11206
# Poissons Ratio (z) = 0.39664 0.25004
#
# Static dielectric constant tensor:
#      x y z
#    x 1.964180 0.095370 -0.185260 
#    y 0.095370 1.831810 -0.111670 
#    z -0.185260 -0.111670 2.112830 
# 
# From -- ./inp_files/294487.got.cif
#   From: 2010.05.17/outbox.cif.g08.bks.cpg/sg2_148_cif.got.tgz:294487.got - 2010.06.03 11:33:40.
