data_PCOD9098170
_publ_section_title
;
Structure prediction by ZEFSAII (Michael W. Deem and Ramdas Pophale) SiO2 
 PCOD9098170
Probable space group: P -1
;
_chemical_formula_sum "Si O2"
_cell_formula_units_Z 13
_cell_length_a 8.918457
_cell_length_b 7.617357
_cell_length_c 7.967328
_cell_angle_alpha 97.805481
_cell_angle_beta 78.254778
_cell_angle_gamma 107.694265
_cell_volume 503.269630
_symmetry_space_group_name_H-M "P -1"
_symmetry_group_IT_number 2
_symmetry_cell_setting 'triclinic'
loop_
_space_group_symop_operation_xyz
x,y,z
-x,-y,-z
loop_
_atom_site_type_symbol
_atom_site_label
_atom_site_fract_x
_atom_site_fract_y
_atom_site_fract_z
Si Si1 0.377425 0.599349 0.849676
Si Si2 0.000000 0.500000 0.000000
Si Si3 0.073076 0.607482 0.306383
Si Si4 0.868516 0.041418 0.913779
Si Si5 0.558451 0.303726 0.768705
Si Si6 0.331162 0.923938 0.730216
Si Si7 0.009293 0.160564 0.384654
O O1 0.190345 0.507249 0.920433
O O2 0.467631 0.451449 0.760084
O O3 0.389371 0.744227 0.716317
O O4 0.445095 0.692170 0.025144
O O5 0.988018 0.575173 0.813277
O O6 0.256184 0.648124 0.315254
O O7 0.969250 0.657713 0.483018
O O8 0.073913 0.751147 0.159858
O O9 0.850247 0.875717 0.766052
O O10 0.722741 0.043487 0.062209
O O11 0.000000 0.000000 0.000000
O O12 0.469334 0.107292 0.684861
O O13 0.170802 0.896298 0.656153
O O14 0.000000 0.000000 0.500000
#
# Coordination Sequence:
#
# PCOD9098170 Si02
#       7
#     2   1   2   2   2   2   2
#     4  10  22  37  59  97 121 160 215 254 305 367
#     4  10  20  36  64  82 126 166 206 264 300 362
#     4  10  20  40  57  91 126 163 209 252 320 367
#     4   9  18  33  59  92 114 156 214 254 297 363
#     4  10  22  37  63  92 128 164 201 258 316 372
#     4  11  20  38  66  89 125 163 210 256 306 377
#     4   9  21  36  60  91 127 158 209 263 307 366
#
# _framework density 25.831081000000001
#
# number of rings (size 3 to 8) (size 9 to 14) (size 15 to 20)
#    0.000    2.154    3.077    0.462    6.462    0.615 
#    0.000    1.538    0.000    0.000    0.000    1.077 
#    0.000    0.000    0.000    0.000    0.000    0.000 
#
# Total GULP energy -72520.398273 kJ/mol
# GULP energy per Si atom -5578.492175 kJ/mol
# Density = 2.577229 g / cm^3
# Si number density = 25.831081 Si / 1000 Ang^3
#
#
#
# Elastic Constant Matrix: (Units=GPa)
#
#
# Indices 1 2 3 4 5 6 
#
# 1 132.5036 88.0648 22.6294 -7.7344 19.5001 -17.7581
# 2 88.0648 130.8418 5.9056 -0.8573 18.5128 -18.5323
# 3 22.6294 5.9056 89.4122 14.0892 -7.2475 2.2972
# 4 -7.7344 -0.8573 14.0892 23.8503 -7.1289 2.1221
# 5 19.5001 18.5128 -7.2475 -7.1289 26.6010 1.4692
# 6 -17.7581 -18.5323 2.2972 2.1221 1.4692 53.1900
#
#
#
# Elastic Compliance Matrix: (Units=1/GPa)
#
#
# Indices 1 2 3 4 5 6 
#
# 1 0.016120 -0.009585 -0.004862 0.006082 -0.004960 0.002147
# 2 -0.009585 0.014911 0.001844 -0.005163 -0.004356 0.002242
# 3 -0.004862 0.001844 0.013980 -0.008486 0.003891 -0.001354
# 4 0.006082 -0.005163 -0.008486 0.052143 0.010895 -0.001783
# 5 -0.004960 -0.004356 0.003891 0.010895 0.048523 -0.005117
# 6 0.002147 0.002242 -0.001354 -0.001783 -0.005117 0.020569
#
#
# Mechanical properties :
#
#
# Convention : Reuss Voigt Hill
#
# Bulk Modulus (GPa) = 50.49294 65.10635 57.79964
# Shear Modulus (GPa) = 25.24550 36.47211 30.85880
#
# Velocity S-wave (km/s) = 3.12962 3.76166 3.46010
# Velocity P-wave (km/s) = 5.71394 6.64276 6.19578
#
# Compressibility (1/GPa) = 0.01980475
#
# Stress axis : x y z
#
# Youngs Moduli (GPa) = 62.03328 67.06534 71.52907
#
# Poissons Ratio (x) = 0.64281 0.34781
# Poissons Ratio (y) = 0.59458 -0.13189
# Poissons Ratio (z) = 0.30163 -0.12366
#
# Static dielectric constant tensor:
#      x y z
#    x 1.854330 -0.176180 -0.164720 
#    y -0.176180 2.131890 -0.395050 
#    z -0.164720 -0.395050 1.291660 
# 
# From -- ./inp_files/155480.got.cif
#   From: 2010.05.17/outbox.cif.g08.bks.cpg/sg2_78_cif.got.tgz:155480.got - 2010.06.03 11:33:40.
