data_PCOD9098897
_publ_section_title
;
Structure prediction by ZEFSAII (Michael W. Deem and Ramdas Pophale) SiO2 
 PCOD9098897
Probable space group: P -1
;
_chemical_formula_sum "Si O2"
_cell_formula_units_Z 10
_cell_length_a 9.383489
_cell_length_b 6.630427
_cell_length_c 8.840820
_cell_angle_alpha 107.617274
_cell_angle_beta 62.001811
_cell_angle_gamma 127.604250
_cell_volume 384.665542
_symmetry_space_group_name_H-M "P -1"
_symmetry_group_IT_number 2
_symmetry_cell_setting 'triclinic'
loop_
_space_group_symop_operation_xyz
x,y,z
-x,-y,-z
loop_
_atom_site_type_symbol
_atom_site_label
_atom_site_fract_x
_atom_site_fract_y
_atom_site_fract_z
Si Si1 0.261999 0.098501 0.827419
Si Si2 0.799152 0.447883 0.021705
Si Si3 0.369011 0.511081 0.440500
Si Si4 0.034474 0.561493 0.670529
Si Si5 0.394558 0.245452 0.104622
O O1 0.475828 0.238038 0.676427
O O2 0.123852 0.849054 0.742617
O O3 0.272582 0.043557 0.988113
O O4 0.190972 0.289437 0.899661
O O5 0.832607 0.400032 0.820615
O O6 0.566575 0.250006 0.108725
O O7 0.000000 0.500000 0.000000
O O8 0.500000 0.500000 0.500000
O O9 0.201997 0.514048 0.611539
O O10 0.286002 0.288675 0.304066
O O11 0.000000 0.500000 0.500000
O O12 0.500000 0.500000 0.000000
#
# Coordination Sequence:
#
# PCOD9098897 Si02
#       5
#     2   2   2   2   2
#     4  10  21  39  57  79 113 157 187 213 279 354
#     4  10  20  37  58  84 113 142 182 237 282 326
#     4  10  20  37  58  84 113 142 182 237 282 326
#     4  12  22  36  58  84 111 148 192 235 270 321
#     4   8  17  37  57  75 107 151 183 214 272 347
#
# _framework density 25.996611000000001
#
# number of rings (size 3 to 8) (size 9 to 14) (size 15 to 20)
#    0.000    2.400    0.000    7.200    0.000    0.000 
#    0.000   12.000    0.000    0.000    0.000    0.000 
#    0.000    0.000    0.000    0.000    0.000    0.000 
#
# Total GULP energy -55826.571099 kJ/mol
# GULP energy per Si atom -5582.657110 kJ/mol
# Density = 2.593744 g / cm^3
# Si number density = 25.996611 Si / 1000 Ang^3
#
#
#
# Elastic Constant Matrix: (Units=GPa)
#
#
# Indices 1 2 3 4 5 6 
#
# 1 140.1249 43.1250 8.2306 25.6360 5.7727 -16.9852
# 2 43.1250 45.2010 17.6300 22.5576 5.4859 -6.1987
# 3 8.2306 17.6300 127.1413 27.1427 -5.4370 7.1920
# 4 25.6360 22.5576 27.1427 33.8435 -0.8447 -2.8966
# 5 5.7727 5.4859 -5.4370 -0.8447 74.0648 13.4940
# 6 -16.9852 -6.1987 7.1920 -2.8966 13.4940 53.0290
#
#
#
# Elastic Compliance Matrix: (Units=1/GPa)
#
#
# Indices 1 2 3 4 5 6 
#
# 1 0.010556 -0.008673 0.000972 -0.002818 -0.000546 0.002220
# 2 -0.008673 0.041502 -0.001144 -0.020088 -0.003059 0.001910
# 3 0.000972 -0.001144 0.009809 -0.007973 0.000972 -0.001836
# 4 -0.002818 -0.020088 -0.007973 0.051527 0.001670 0.000220
# 5 -0.000546 -0.003059 0.000972 0.001670 0.014645 -0.004300
# 6 0.002220 0.001910 -0.001836 0.000220 -0.004300 0.021147
#
#
# Mechanical properties :
#
#
# Convention : Reuss Voigt Hill
#
# Bulk Modulus (GPa) = 22.63599 50.04870 36.34234
# Shear Modulus (GPa) = 27.53292 48.41956 37.97624
#
# Velocity S-wave (km/s) = 3.25791 4.32039 3.82621
# Velocity P-wave (km/s) = 4.78311 6.64692 5.79049
#
# Compressibility (1/GPa) = 0.04417744
#
# Stress axis : x y z
#
# Youngs Moduli (GPa) = 94.73442 24.09496 101.95204
#
# Poissons Ratio (x) = 0.20897 -0.09910
# Poissons Ratio (y) = 0.82163 0.11661
# Poissons Ratio (z) = -0.09208 0.02756
#
# Static dielectric constant tensor:
#      x y z
#    x 2.231450 -0.032440 0.041200 
#    y -0.032440 2.282370 -0.062360 
#    z 0.041200 -0.062360 2.073680 
# 
# From -- ./inp_files/143759.got.cif
#   From: 2010.05.17/outbox.cif.g08.bks.cpg/sg2_72_cif.got.tgz:143759.got - 2010.06.03 11:33:40.
