data_PCOD9098808
_publ_section_title
;
Structure prediction by ZEFSAII (Michael W. Deem and Ramdas Pophale) SiO2 
 PCOD9098808
Probable space group: P -1
;
_chemical_formula_sum "Si O2"
_cell_formula_units_Z 14
_cell_length_a 9.470901
_cell_length_b 8.658991
_cell_length_c 15.414334
_cell_angle_alpha 78.727287
_cell_angle_beta 35.923545
_cell_angle_gamma 75.005958
_cell_volume 716.186291
_symmetry_space_group_name_H-M "P -1"
_symmetry_group_IT_number 2
_symmetry_cell_setting 'triclinic'
loop_
_space_group_symop_operation_xyz
x,y,z
-x,-y,-z
loop_
_atom_site_type_symbol
_atom_site_label
_atom_site_fract_x
_atom_site_fract_y
_atom_site_fract_z
Si Si1 0.749066 0.501345 0.427301
Si Si2 0.860263 0.792471 0.679800
Si Si3 0.361336 0.365294 0.853405
Si Si4 0.604495 0.317011 0.991788
Si Si5 0.997991 0.588936 0.124476
Si Si6 0.736787 0.608548 0.605827
Si Si7 0.657167 0.089143 0.843833
O O1 0.500000 0.500000 0.500000
O O2 0.926215 0.550058 0.260990
O O3 0.701701 0.622311 0.518593
O O4 0.887406 0.329742 0.414429
O O5 0.765055 0.762845 0.632891
O O6 0.855119 0.967648 0.703914
O O7 0.640405 0.740700 0.850027
O O8 0.236348 0.350849 0.824267
O O9 0.538965 0.498498 0.746750
O O10 0.492923 0.196560 0.842544
O O11 0.143019 0.433025 0.020863
O O12 0.732486 0.221816 0.855912
O O13 0.800806 0.299214 0.973557
O O14 0.500000 0.500000 0.000000
O O15 0.000000 0.500000 0.500000
O O16 0.500000 0.000000 0.000000
#
# Coordination Sequence:
#
# PCOD9098808 Si02
#       7
#     2   2   2   2   2   2   2
#     4  11  21  37  59  87 120 152 195 246 294 345
#     4  10  20  37  57  87 115 151 195 243 290 348
#     4  11  21  38  61  90 118 153 193 249 290 350
#     4  11  17  34  63  91 110 149 201 242 283 348
#     4  11  21  34  62  90 116 147 205 243 288 340
#     4  10  21  37  61  88 114 153 202 239 286 349
#     4  10  21  36  59  89 122 149 195 247 297 340
#
# _framework density 19.547986000000002
#
# number of rings (size 3 to 8) (size 9 to 14) (size 15 to 20)
#    0.000    1.429    5.714    0.857    2.000    0.000 
#    0.000    7.143    0.000    1.714    0.000    0.000 
#    0.000    0.000    0.000    0.000    0.000    0.000 
#
# Total GULP energy -77935.417185 kJ/mol
# GULP energy per Si atom -5566.815513 kJ/mol
# Density = 1.950349 g / cm^3
# Si number density = 19.547986 Si / 1000 Ang^3
#
#
#
# Elastic Constant Matrix: (Units=GPa)
#
#
# Indices 1 2 3 4 5 6 
#
# 1 154.4084 40.7849 28.1361 21.8545 8.3375 7.2757
# 2 40.7849 59.5580 18.0496 23.9316 13.1744 7.3815
# 3 28.1361 18.0496 66.7557 9.6446 13.3190 3.5186
# 4 21.8545 23.9316 9.6446 31.0000 8.2178 10.5230
# 5 8.3375 13.1744 13.3190 8.2178 46.8738 5.3084
# 6 7.2757 7.3815 3.5186 10.5230 5.3084 26.3834
#
#
#
# Elastic Compliance Matrix: (Units=1/GPa)
#
#
# Indices 1 2 3 4 5 6 
#
# 1 0.008265 -0.004377 -0.002160 -0.001918 0.000727 -0.000148
# 2 -0.004377 0.028174 -0.002636 -0.017360 -0.003495 0.001303
# 3 -0.002160 -0.002636 0.017468 -0.000940 -0.003687 0.000120
# 4 -0.001918 -0.017360 -0.000940 0.053023 -0.002085 -0.015217
# 5 0.000727 -0.003495 -0.003687 -0.002085 0.023907 -0.002709
# 6 -0.000148 0.001303 0.000120 -0.015217 -0.002709 0.044177
#
#
# Mechanical properties :
#
#
# Convention : Reuss Voigt Hill
#
# Bulk Modulus (GPa) = 28.12107 50.51815 39.31961
# Shear Modulus (GPa) = 24.36475 33.76821 29.06648
#
# Velocity S-wave (km/s) = 3.53428 4.16077 3.86026
# Velocity P-wave (km/s) = 5.57420 6.99871 6.32668
#
# Compressibility (1/GPa) = 0.03556053
#
# Stress axis : x y z
#
# Youngs Moduli (GPa) = 120.98727 35.49421 57.24609
#
# Poissons Ratio (x) = 0.15536 0.12367
# Poissons Ratio (y) = 0.52956 0.15091
# Poissons Ratio (z) = 0.26137 0.09357
#
# Static dielectric constant tensor:
#      x y z
#    x 1.750750 0.045520 0.016820 
#    y 0.045520 1.755230 -0.008910 
#    z 0.016820 -0.008910 1.763700 
# 
# From -- ./inp_files/167537.got.cif
#   From: 2010.05.17/outbox.cif.g08.bks.cpg/sg2_84_cif.got.tgz:167537.got - 2010.06.03 11:33:40.
