data_PCOD9098958
_publ_section_title
;
Structure prediction by ZEFSAII (Michael W. Deem and Ramdas Pophale) SiO2 
 PCOD9098958
Probable space group: P -1
;
_chemical_formula_sum "Si O2"
_cell_formula_units_Z 16
_cell_length_a 7.777494
_cell_length_b 10.972926
_cell_length_c 11.452846
_cell_angle_alpha 113.459401
_cell_angle_beta 89.851469
_cell_angle_gamma 134.934670
_cell_volume 573.354448
_symmetry_space_group_name_H-M "P -1"
_symmetry_group_IT_number 2
_symmetry_cell_setting 'triclinic'
loop_
_space_group_symop_operation_xyz
x,y,z
-x,-y,-z
loop_
_atom_site_type_symbol
_atom_site_label
_atom_site_fract_x
_atom_site_fract_y
_atom_site_fract_z
Si Si1 0.465211 0.594122 0.898712
Si Si2 0.515749 0.023881 0.710444
Si Si3 0.223005 0.052270 0.442005
Si Si4 0.921849 0.840266 0.139690
Si Si5 0.804159 0.371309 0.269590
Si Si6 0.225404 0.813434 0.998866
Si Si7 0.411209 0.519338 0.340727
Si Si8 0.949603 0.710756 0.533979
O O1 0.225245 0.373756 0.879760
O O2 0.377799 0.647618 0.824373
O O3 0.601959 0.555664 0.811914
O O4 0.680707 0.777822 0.059482
O O5 0.709658 0.063111 0.632570
O O6 0.363917 0.818215 0.710402
O O7 0.259233 0.945511 0.623390
O O8 0.695283 0.200289 0.878858
O O9 0.502378 0.277710 0.569535
O O10 0.000000 0.000000 0.500000
O O11 0.109906 0.024069 0.302238
O O12 0.101818 0.881537 0.056509
O O13 0.961649 0.572399 0.422468
O O14 0.947109 0.370934 0.166083
O O15 0.500000 0.000000 0.000000
O O16 0.686570 0.616256 0.433270
O O17 0.154630 0.348112 0.356293
#
# Coordination Sequence:
#
# PCOD9098958 Si02
#       8
#     2   2   2   2   2   2   2   2
#     4  10  22  38  59  85 113 151 193 238 282 340
#     4  10  21  38  60  87 116 151 193 235 287 348
#     4  11  21  39  61  84 118 156 188 236 289 341
#     4  10  22  40  59  83 114 152 196 229 285 348
#     4  10  20  37  58  88 114 144 192 239 286 330
#     4   9  21  37  56  82 115 153 182 234 285 334
#     4  10  21  37  61  87 118 148 187 246 285 335
#     4  10  21  37  60  92 114 144 196 240 287 340
#
# _framework density 27.905947000000001
#
# number of rings (size 3 to 8) (size 9 to 14) (size 15 to 20)
#    0.000    2.000    2.500    0.375    3.500    1.500 
#    0.000    6.250    0.000    0.000    0.000    0.000 
#    0.000    0.000    0.000    0.000    0.000    0.000 
#
# Total GULP energy -89345.608797 kJ/mol
# GULP energy per Si atom -5584.100550 kJ/mol
# Density = 2.784243 g / cm^3
# Si number density = 27.905947 Si / 1000 Ang^3
#
#
#
# Elastic Constant Matrix: (Units=GPa)
#
#
# Indices 1 2 3 4 5 6 
#
# 1 120.8874 28.8850 20.3560 -12.0516 1.1355 32.5263
# 2 28.8850 82.7087 15.7098 -22.7621 0.1138 11.0232
# 3 20.3560 15.7098 141.1607 -6.3627 -8.3490 16.8578
# 4 -12.0516 -22.7621 -6.3627 36.2783 16.9419 -3.9277
# 5 1.1355 0.1138 -8.3490 16.9419 54.2897 -2.2965
# 6 32.5263 11.0232 16.8578 -3.9277 -2.2965 43.4677
#
#
#
# Elastic Compliance Matrix: (Units=1/GPa)
#
#
# Indices 1 2 3 4 5 6 
#
# 1 0.011096 -0.002259 -0.000444 0.001955 -0.001221 -0.007446
# 2 -0.002259 0.016212 -0.001057 0.010766 -0.003561 -0.001226
# 3 -0.000444 -0.001057 0.007598 -0.000274 0.001168 -0.002310
# 4 0.001955 0.010766 -0.000274 0.040824 -0.012891 -0.001079
# 5 -0.001221 -0.003561 0.001168 -0.012891 0.022714 0.001399
# 6 -0.007446 -0.001226 -0.002310 -0.001079 0.001399 0.029761
#
#
# Mechanical properties :
#
#
# Convention : Reuss Voigt Hill
#
# Bulk Modulus (GPa) = 36.51422 52.73983 44.62703
# Shear Modulus (GPa) = 34.51752 45.46089 39.98920
#
# Velocity S-wave (km/s) = 3.52081 4.04056 3.78960
# Velocity P-wave (km/s) = 5.44438 6.38031 5.93083
#
# Compressibility (1/GPa) = 0.02738659
#
# Stress axis : x y z
#
# Youngs Moduli (GPa) = 90.11867 61.68448 131.60777
#
# Poissons Ratio (x) = 0.13934 0.05838
# Poissons Ratio (y) = 0.20357 0.13916
# Poissons Ratio (z) = 0.03998 0.06522
#
# Static dielectric constant tensor:
#      x y z
#    x 2.397400 -0.095200 0.057350 
#    y -0.095200 2.285620 -0.013950 
#    z 0.057350 -0.013950 2.190830 
# 
# From -- ./inp_files/399430.got.cif
#   From: 2010.05.17/outbox.cif.g08.bks.cpg/sg2_200_cif.got.tgz:399430.got - 2010.06.03 11:33:40.
