data_PCOD9098703
_publ_section_title
;
Structure prediction by ZEFSAII (Michael W. Deem and Ramdas Pophale) SiO2 
 PCOD9098703
Probable space group: P -1
;
_chemical_formula_sum "Si O2"
_cell_formula_units_Z 16
_cell_length_a 17.770725
_cell_length_b 10.932421
_cell_length_c 10.811178
_cell_angle_alpha 67.302340
_cell_angle_beta 134.529535
_cell_angle_gamma 146.952577
_cell_volume 697.718552
_symmetry_space_group_name_H-M "P -1"
_symmetry_group_IT_number 2
_symmetry_cell_setting 'triclinic'
loop_
_space_group_symop_operation_xyz
x,y,z
-x,-y,-z
loop_
_atom_site_type_symbol
_atom_site_label
_atom_site_fract_x
_atom_site_fract_y
_atom_site_fract_z
Si Si1 0.605380 0.879467 0.892675
Si Si2 0.980199 0.523461 0.318471
Si Si3 0.071036 0.992116 0.399422
Si Si4 0.296583 0.975938 0.666830
Si Si5 0.020482 0.210409 0.350453
Si Si6 0.699861 0.451787 0.104533
Si Si7 0.387477 0.736111 0.476051
Si Si8 0.167605 0.608015 0.062588
O O1 0.426513 0.656659 0.873030
O O2 0.536030 0.797955 0.700654
O O3 0.665236 0.098176 0.893859
O O4 0.805350 0.011549 0.111633
O O5 0.851463 0.248798 0.306399
O O6 0.848890 0.485653 0.266454
O O7 0.217947 0.801318 0.529583
O O8 0.952023 0.549721 0.139403
O O9 0.868028 0.752440 0.172259
O O10 0.242696 0.069167 0.533095
O O11 0.012074 0.877628 0.515017
O O12 0.126871 0.205076 0.398815
O O13 0.528924 0.232589 0.888439
O O14 0.178178 0.504732 0.409856
O O15 0.285577 0.619084 0.267375
O O16 0.500000 0.000000 0.500000
O O17 0.000000 0.500000 0.000000
#
# Coordination Sequence:
#
# PCOD9098703 Si02
#       8
#     2   2   2   2   2   2   2   2
#     4  11  21  35  58  86 123 156 191 243 298 356
#     4  10  22  35  57  89 117 157 198 241 314 355
#     4  10  22  33  58  87 123 159 195 247 301 358
#     4  10  20  37  56  84 122 156 191 249 299 359
#     4  11  20  37  56  88 125 158 198 242 303 357
#     4  11  20  36  57  85 123 155 193 247 296 369
#     4  10  23  37  57  87 119 161 195 242 293 361
#     4  11  21  38  58  84 122 156 194 247 300 357
#
# _framework density 22.931882999999999
#
# number of rings (size 3 to 8) (size 9 to 14) (size 15 to 20)
#    0.000    1.500    5.000    0.375    0.000    2.500 
#    4.500    0.000    0.000    3.000    0.000    5.250 
#    0.000    0.000    0.000    0.000    0.000    0.000 
#
# Total GULP energy -89162.280299 kJ/mol
# GULP energy per Si atom -5572.642519 kJ/mol
# Density = 2.287969 g / cm^3
# Si number density = 22.931883 Si / 1000 Ang^3
#
#
#
# Elastic Constant Matrix: (Units=GPa)
#
#
# Indices 1 2 3 4 5 6 
#
# 1 33.2512 5.6775 13.2812 -5.7172 -1.7504 -10.3950
# 2 5.6775 47.7850 20.4710 7.6206 1.2828 -1.9769
# 3 13.2812 20.4710 186.4874 7.0972 -32.5127 0.7462
# 4 -5.7172 7.6206 7.0972 28.0339 5.7657 -3.1555
# 5 -1.7504 1.2828 -32.5127 5.7657 41.5912 0.5666
# 6 -10.3950 -1.9769 0.7462 -3.1555 0.5666 21.8960
#
#
#
# Elastic Compliance Matrix: (Units=1/GPa)
#
#
# Indices 1 2 3 4 5 6 
#
# 1 0.041084 -0.004553 -0.003564 0.013544 -0.003084 0.021246
# 2 -0.004553 0.023507 -0.002326 -0.006448 -0.001830 -0.000842
# 3 -0.003564 -0.002326 0.007049 -0.003415 0.005943 -0.002788
# 4 0.013544 -0.006448 -0.003415 0.044147 -0.008192 0.012538
# 5 -0.003084 -0.001830 0.005943 -0.008192 0.029803 -0.003784
# 6 0.021246 -0.000842 -0.002788 0.012538 -0.003784 0.057681
#
#
# Mechanical properties :
#
#
# Convention : Reuss Voigt Hill
#
# Bulk Modulus (GPa) = 19.70325 38.48701 29.09513
# Shear Modulus (GPa) = 20.74041 33.51048 27.12545
#
# Velocity S-wave (km/s) = 3.01065 3.82685 3.44302
# Velocity P-wave (km/s) = 4.54929 6.02876 5.34051
#
# Compressibility (1/GPa) = 0.05075305
#
# Stress axis : x y z
#
# Youngs Moduli (GPa) = 24.34061 42.54010 141.86735
#
# Poissons Ratio (x) = 0.19367 0.50565
# Poissons Ratio (y) = 0.11081 0.33005
# Poissons Ratio (z) = 0.08676 0.09897
#
# Static dielectric constant tensor:
#      x y z
#    x 1.944100 0.000080 -0.036050 
#    y 0.000080 1.887630 0.019100 
#    z -0.036050 0.019100 1.932510 
# 
# From -- ./inp_files/470975.got.cif
#   From: 2010.05.17/outbox.cif.g08.bks.cpg/sg2_236_cif.got.tgz:470975.got - 2010.06.03 11:33:40.
