data_PCOD9098242
_publ_section_title
;
Structure prediction by ZEFSAII (Michael W. Deem and Ramdas Pophale) SiO2 
 PCOD9098242
Probable space group: P -1
;
_chemical_formula_sum "Si O2"
_cell_formula_units_Z 16
_cell_length_a 16.026066
_cell_length_b 15.525924
_cell_length_c 12.908154
_cell_angle_alpha 57.436074
_cell_angle_beta 25.834986
_cell_angle_gamma 41.686048
_cell_volume 825.492346
_symmetry_space_group_name_H-M "P -1"
_symmetry_group_IT_number 2
_symmetry_cell_setting 'triclinic'
loop_
_space_group_symop_operation_xyz
x,y,z
-x,-y,-z
loop_
_atom_site_type_symbol
_atom_site_label
_atom_site_fract_x
_atom_site_fract_y
_atom_site_fract_z
Si Si1 0.170565 0.845860 0.461480
Si Si2 0.966399 0.690667 0.576731
Si Si3 0.401327 0.563152 0.899474
Si Si4 0.410887 0.336732 0.073375
Si Si5 0.636751 0.157321 0.528953
Si Si6 0.117147 0.827546 0.188565
Si Si7 0.552425 0.548317 0.512976
Si Si8 0.871687 0.748975 0.879750
O O1 0.297005 0.837522 0.430662
O O2 0.980989 0.822333 0.715859
O O3 0.396594 0.728354 0.201392
O O4 0.000000 0.000000 0.500000
O O5 0.285014 0.545235 0.340194
O O6 0.971503 0.799004 0.445118
O O7 0.812161 0.664062 0.699607
O O8 0.820721 0.751229 0.812717
O O9 0.408465 0.558678 0.770116
O O10 0.297993 0.495040 0.105988
O O11 0.225871 0.722458 0.037642
O O12 0.617594 0.235319 0.002502
O O13 0.548271 0.297264 0.485749
O O14 0.382292 0.177646 0.810937
O O15 0.903203 0.997892 0.292130
O O16 0.500000 0.500000 0.500000
O O17 0.875622 0.418702 0.259352
#
# Coordination Sequence:
#
# PCOD9098242 Si02
#       8
#     2   2   2   2   2   2   2   2
#     4  12  21  36  60  96 126 152 190 251 307 353
#     4  10  20  36  64  92 120 156 195 244 296 354
#     4  10  23  42  59  88 120 157 208 240 289 361
#     4  11  19  37  64  88 123 159 194 243 301 351
#     4  12  24  37  61  90 122 161 197 248 304 343
#     4  11  24  38  57  90 128 159 193 239 297 369
#     4  11  22  44  66  84 110 158 208 257 296 343
#     4  11  22  38  62  94 119 152 202 249 297 356
#
# _framework density 19.382373000000001
#
# number of rings (size 3 to 8) (size 9 to 14) (size 15 to 20)
#    0.000    1.000    7.500    1.875    1.750    3.500 
#    0.000    0.000    0.000    0.750    0.000    0.000 
#    0.000    0.000    0.000    0.000    0.000    0.000 
#
# Total GULP energy -89384.259790 kJ/mol
# GULP energy per Si atom -5586.516237 kJ/mol
# Density = 1.933826 g / cm^3
# Si number density = 19.382373 Si / 1000 Ang^3
#
#
#
# Elastic Constant Matrix: (Units=GPa)
#
#
# Indices 1 2 3 4 5 6 
#
# 1 67.8589 15.6017 17.5679 -0.5013 -9.9437 6.3297
# 2 15.6017 130.6344 31.0680 10.8413 -9.3908 -4.2886
# 3 17.5679 31.0680 44.1169 -3.7552 -6.4482 5.8133
# 4 -0.5013 10.8413 -3.7552 27.8770 13.8068 1.9359
# 5 -9.9437 -9.3908 -6.4482 13.8068 30.1610 -3.4400
# 6 6.3297 -4.2886 5.8133 1.9359 -3.4400 30.3703
#
#
#
# Elastic Compliance Matrix: (Units=1/GPa)
#
#
# Indices 1 2 3 4 5 6 
#
# 1 0.017276 0.000020 -0.006130 -0.003233 0.005692 -0.001574
# 2 0.000020 0.010872 -0.008076 -0.008644 0.006115 0.004320
# 3 -0.006130 -0.008076 0.032094 0.009141 -0.002644 -0.006888
# 4 -0.003233 -0.008644 0.009141 0.054868 -0.027941 -0.008959
# 5 0.005692 0.006115 -0.002644 -0.027941 0.050031 0.007631
# 6 -0.001574 0.004320 -0.006888 -0.008959 0.007631 0.036619
#
#
# Mechanical properties :
#
#
# Convention : Reuss Voigt Hill
#
# Bulk Modulus (GPa) = 31.37546 41.23172 36.30359
# Shear Modulus (GPa) = 20.76815 29.57316 25.17065
#
# Velocity S-wave (km/s) = 3.27692 3.91036 3.60757
# Velocity P-wave (km/s) = 5.52634 6.45808 6.01029
#
# Compressibility (1/GPa) = 0.03187204
#
# Stress axis : x y z
#
# Youngs Moduli (GPa) = 57.88506 91.98048 31.15833
#
# Poissons Ratio (x) = -0.00186 0.19099
# Poissons Ratio (y) = -0.00117 0.25162
# Poissons Ratio (z) = 0.35481 0.74279
#
# Static dielectric constant tensor:
#      x y z
#    x 1.693230 0.037910 -0.007080 
#    y 0.037910 1.577340 0.044530 
#    z -0.007080 0.044530 1.679640 
# 
# From -- ./inp_files/428940.got.cif
#   From: 2010.05.17/outbox.cif.g08.bks.cpg/sg2_215_cif.got.tgz:428940.got - 2010.06.03 11:33:40.
