data_PCOD9098940
_publ_section_title
;
Structure prediction by ZEFSAII (Michael W. Deem and Ramdas Pophale) SiO2 
 PCOD9098940
Probable space group: P -1
;
_chemical_formula_sum "Si O2"
_cell_formula_units_Z 16
_cell_length_a 10.740824
_cell_length_b 20.159642
_cell_length_c 16.460756
_cell_angle_alpha 160.454047
_cell_angle_beta 135.409089
_cell_angle_gamma 36.236461
_cell_volume 683.845278
_symmetry_space_group_name_H-M "P -1"
_symmetry_group_IT_number 2
_symmetry_cell_setting 'triclinic'
loop_
_space_group_symop_operation_xyz
x,y,z
-x,-y,-z
loop_
_atom_site_type_symbol
_atom_site_label
_atom_site_fract_x
_atom_site_fract_y
_atom_site_fract_z
Si Si1 0.526335 0.422142 0.674759
Si Si2 0.348392 0.048077 0.728960
Si Si3 0.715888 0.194988 0.324296
Si Si4 0.350931 0.312625 0.183368
Si Si5 0.878244 0.595423 0.300821
Si Si6 0.206358 0.899894 0.172846
Si Si7 0.585674 0.200295 0.671613
Si Si8 0.149134 0.645639 0.129843
O O1 0.600660 0.308686 0.488564
O O2 0.728336 0.414902 0.798465
O O3 0.507240 0.223112 0.481567
O O4 0.319106 0.687502 0.912367
O O5 0.101777 0.138920 0.734166
O O6 0.367303 0.035287 0.626053
O O7 0.389885 0.208845 0.990395
O O8 0.561693 0.150647 0.149267
O O9 0.701591 0.421470 0.538117
O O10 0.971115 0.979921 0.189738
O O11 0.122201 0.371254 0.177042
O O12 0.669089 0.608321 0.246633
O O13 0.835452 0.852295 0.595488
O O14 0.860678 0.562816 0.158116
O O15 0.359683 0.830000 0.243056
O O16 0.727554 0.275120 0.778716
#
# Coordination Sequence:
#
# PCOD9098940 Si02
#       8
#     2   2   2   2   2   2   2   2
#     4  11  22  37  60  89 119 152 194 242 292 346
#     4  10  22  37  60  89 114 158 200 231 291 357
#     4  10  22  44  63  81 117 159 194 250 292 329
#     4   9  22  44  61  81 113 157 204 238 287 348
#     4  10  21  36  58  87 118 152 191 238 291 346
#     4  11  23  37  59  93 121 151 194 239 294 354
#     4  11  20  35  58  88 124 150 182 243 294 345
#     4  10  20  37  58  86 121 156 193 231 292 360
#
# _framework density 23.397105
#
# number of rings (size 3 to 8) (size 9 to 14) (size 15 to 20)
#    0.000    1.750    1.250    3.750    3.500    0.500 
#    2.250    6.250    0.000    0.000    0.000    0.000 
#    0.000    0.000    0.000    0.000    0.000    0.000 
#
# Total GULP energy -89215.380814 kJ/mol
# GULP energy per Si atom -5575.961301 kJ/mol
# Density = 2.334385 g / cm^3
# Si number density = 23.397105 Si / 1000 Ang^3
#
#
#
# Elastic Constant Matrix: (Units=GPa)
#
#
# Indices 1 2 3 4 5 6 
#
# 1 55.2584 27.8772 9.5947 0.1980 -27.5505 -14.4952
# 2 27.8772 126.0913 39.5455 -11.0714 -27.0171 -28.9934
# 3 9.5947 39.5455 100.3043 6.6234 -24.6524 -16.3814
# 4 0.1980 -11.0714 6.6234 33.5969 0.6113 -4.5830
# 5 -27.5505 -27.0171 -24.6524 0.6113 41.2781 7.0947
# 6 -14.4952 -28.9934 -16.3814 -4.5830 7.0947 22.9877
#
#
#
# Elastic Compliance Matrix: (Units=1/GPa)
#
#
# Indices 1 2 3 4 5 6 
#
# 1 0.032730 -0.000022 0.005068 0.000812 0.021812 0.017652
# 2 -0.000022 0.013973 -0.002140 0.007113 0.005005 0.015958
# 3 0.005068 -0.002140 0.013896 -0.002678 0.009108 0.007054
# 4 0.000812 0.007113 -0.002678 0.034567 0.000633 0.014270
# 5 0.021812 0.005005 0.009108 0.000633 0.045307 0.012699
# 6 0.017652 0.015958 0.007054 0.014270 0.012699 0.078712
#
#
# Mechanical properties :
#
#
# Convention : Reuss Voigt Hill
#
# Bulk Modulus (GPa) = 15.05777 48.40986 31.73382
# Shear Modulus (GPa) = 21.23046 33.21498 27.22272
#
# Velocity S-wave (km/s) = 3.01557 3.77187 3.41472
# Velocity P-wave (km/s) = 4.30983 6.30117 5.39812
#
# Compressibility (1/GPa) = 0.06641091
#
# Stress axis : x y z
#
# Youngs Moduli (GPa) = 30.55277 71.56619 71.96263
#
# Poissons Ratio (x) = 0.00156 -0.36470
# Poissons Ratio (y) = 0.00067 0.15402
# Poissons Ratio (z) = -0.15484 0.15317
#
# Static dielectric constant tensor:
#      x y z
#    x 1.947490 -0.009390 -0.024310 
#    y -0.009390 1.892410 0.017240 
#    z -0.024310 0.017240 2.001700 
# 
# From -- ./inp_files/391632.got.cif
#   From: 2010.05.17/outbox.cif.g08.bks.cpg/sg2_196_cif.got.tgz:391632.got - 2010.06.03 11:33:40.
