data_PCOD9098068
_publ_section_title
;
Structure prediction by ZEFSAII (Michael W. Deem and Ramdas Pophale) SiO2 
 PCOD9098068
Probable space group: P -1
;
_chemical_formula_sum "Si O2"
_cell_formula_units_Z 16
_cell_length_a 9.976993
_cell_length_b 8.369148
_cell_length_c 11.484058
_cell_angle_alpha 94.165105
_cell_angle_beta 85.116974
_cell_angle_gamma 138.263504
_cell_volume 635.972803
_symmetry_space_group_name_H-M "P -1"
_symmetry_group_IT_number 2
_symmetry_cell_setting 'triclinic'
loop_
_space_group_symop_operation_xyz
x,y,z
-x,-y,-z
loop_
_atom_site_type_symbol
_atom_site_label
_atom_site_fract_x
_atom_site_fract_y
_atom_site_fract_z
Si Si1 0.953842 0.603885 0.353561
Si Si2 0.926598 0.971089 0.854069
Si Si3 0.774567 0.346314 0.126646
Si Si4 0.895573 0.879118 0.382511
Si Si5 0.474227 0.870007 0.249783
Si Si6 0.249502 0.898993 0.559531
Si Si7 0.858208 0.540860 0.885539
Si Si8 0.659914 0.763537 0.058285
O O1 0.918869 0.574097 0.214270
O O2 0.799632 0.617689 0.393537
O O3 0.868013 0.354948 0.386635
O O4 0.155197 0.812783 0.430251
O O5 0.861975 0.729037 0.864557
O O6 0.778251 0.938277 0.945515
O O7 0.932514 0.001221 0.719366
O O8 0.160371 0.175804 0.887945
O O9 0.915268 0.315194 0.101280
O O10 0.572837 0.112734 0.194147
O O11 0.742875 0.394014 0.005581
O O12 0.797158 0.965215 0.374759
O O13 0.000000 0.000000 0.500000
O O14 0.241401 0.642840 0.224096
O O15 0.565174 0.800887 0.161733
O O16 0.529100 0.922976 0.385638
O O17 0.500000 0.500000 0.000000
#
# Coordination Sequence:
#
# PCOD9098068 Si02
#       8
#     2   2   2   2   2   2   2   2
#     4   9  19  34  62  87 118 169 211 259 317 369
#     4  11  22  36  59  89 119 165 212 250 320 385
#     4  10  22  37  55  86 124 161 213 261 313 391
#     4  10  20  36  63  92 121 162 213 264 312 374
#     4  11  20  38  58  86 125 168 206 262 323 376
#     4   9  18  37  59  89 122 161 216 260 309 380
#     4  11  22  36  59  87 123 168 206 260 327 379
#     4  11  22  35  57  87 123 157 205 258 308 383
#
# _framework density 25.158308999999999
#
# number of rings (size 3 to 8) (size 9 to 14) (size 15 to 20)
#    0.000    1.750    3.750    1.125    3.500    0.000 
#    0.000    0.625    0.000    6.750    0.000    0.000 
#    0.000    0.000    0.000    0.000    0.000    0.000 
#
# Total GULP energy -89103.937376 kJ/mol
# GULP energy per Si atom -5568.996086 kJ/mol
# Density = 2.510105 g / cm^3
# Si number density = 25.158309 Si / 1000 Ang^3
#
#
#
# Elastic Constant Matrix: (Units=GPa)
#
#
# Indices 1 2 3 4 5 6 
#
# 1 58.6378 42.7379 6.1295 5.2707 14.7852 -6.6980
# 2 42.7379 99.3722 41.7051 33.9730 17.1565 -2.8068
# 3 6.1295 41.7051 171.2173 37.5439 24.9548 1.2126
# 4 5.2707 33.9730 37.5439 45.5493 2.5021 9.0735
# 5 14.7852 17.1565 24.9548 2.5021 26.7616 -2.1915
# 6 -6.6980 -2.8068 1.2126 9.0735 -2.1915 33.2557
#
#
#
# Elastic Compliance Matrix: (Units=1/GPa)
#
#
# Indices 1 2 3 4 5 6 
#
# 1 0.028879 -0.013173 0.002709 0.004259 -0.010208 0.002771
# 2 -0.013173 0.021836 -0.001175 -0.014132 -0.004073 0.002820
# 3 0.002709 -0.001175 0.008582 -0.006334 -0.008045 0.001332
# 4 0.004259 -0.014132 -0.006334 0.038797 0.008154 -0.010152
# 5 -0.010208 -0.004073 -0.008045 0.008154 0.052284 -0.000886
# 6 0.002771 0.002820 0.001332 -0.010152 -0.000886 0.033529
#
#
# Mechanical properties :
#
#
# Convention : Reuss Voigt Hill
#
# Bulk Modulus (GPa) = 27.76264 56.70803 42.23534
# Shear Modulus (GPa) = 22.81130 37.02365 29.91747
#
# Velocity S-wave (km/s) = 3.01443 3.84034 3.45217
# Velocity P-wave (km/s) = 4.81403 6.50028 5.71964
#
# Compressibility (1/GPa) = 0.03601963
#
# Stress axis : x y z
#
# Youngs Moduli (GPa) = 34.62728 45.79668 116.52756
#
# Poissons Ratio (x) = 0.60326 -0.31567
# Poissons Ratio (y) = 0.45613 0.13688
# Poissons Ratio (z) = -0.09380 0.05380
#
# Static dielectric constant tensor:
#      x y z
#    x 2.148520 -0.113980 -0.052270 
#    y -0.113980 2.020070 -0.004810 
#    z -0.052270 -0.004810 2.022240 
# 
# From -- ./inp_files/417392.got.cif
#   From: 2010.05.17/outbox.cif.g08.bks.cpg/sg2_209_cif.got.tgz:417392.got - 2010.06.03 11:33:40.
