data_PCOD9098211
_publ_section_title
;
Structure prediction by ZEFSAII (Michael W. Deem and Ramdas Pophale) SiO2 
 PCOD9098211
Probable space group: P -1
;
_chemical_formula_sum "Si O2"
_cell_formula_units_Z 16
_cell_length_a 17.660389
_cell_length_b 9.750525
_cell_length_c 9.862681
_cell_angle_alpha 129.927515
_cell_angle_beta 34.468338
_cell_angle_gamma 138.278055
_cell_volume 638.095080
_symmetry_space_group_name_H-M "P -1"
_symmetry_group_IT_number 2
_symmetry_cell_setting 'triclinic'
loop_
_space_group_symop_operation_xyz
x,y,z
-x,-y,-z
loop_
_atom_site_type_symbol
_atom_site_label
_atom_site_fract_x
_atom_site_fract_y
_atom_site_fract_z
Si Si1 0.207615 0.859298 0.818093
Si Si2 0.299978 0.478293 0.143254
Si Si3 0.695695 0.034227 0.947287
Si Si4 0.185316 0.125746 0.809126
Si Si5 0.975469 0.094707 0.454988
Si Si6 0.139637 0.333935 0.798908
Si Si7 0.357787 0.901602 0.351896
Si Si8 0.386247 0.438729 0.290669
O O1 0.262655 0.902028 0.917178
O O2 0.217041 0.065867 0.872363
O O3 0.317302 0.842029 0.534093
O O4 0.026224 0.677259 0.958888
O O5 0.297660 0.682536 0.230152
O O6 0.368038 0.515304 0.219960
O O7 0.128490 0.289288 0.295986
O O8 0.438576 0.464943 0.854491
O O9 0.540187 0.034707 0.143543
O O10 0.850847 0.164710 0.716006
O O11 0.661934 0.801203 0.819274
O O12 0.270545 0.028310 0.533052
O O13 0.216004 0.340625 0.836140
O O14 0.000000 0.000000 0.000000
O O15 0.913148 0.896047 0.325774
O O16 0.000000 0.000000 0.500000
O O17 0.273328 0.468609 0.579779
#
# Coordination Sequence:
#
# PCOD9098211 Si02
#       8
#     2   2   2   2   2   2   2   2
#     4   9  16  29  52  75 100 130 170 206 241 291
#     4  10  17  32  45  78 110 124 161 208 266 295
#     4  10  16  31  50  80 102 124 173 206 246 295
#     4   8  18  32  51  74  97 141 172 202 233 304
#     4  11  18  30  54  76  99 130 168 209 246 302
#     4  10  16  33  53  76  96 132 183 196 237 308
#     4   9  20  30  50  79 106 131 161 210 256 290
#     4   9  18  28  52  75 104 133 156 211 256 297
#
# _framework density 25.074632999999999
#
# number of rings (size 3 to 8) (size 9 to 14) (size 15 to 20)
#    0.750    1.750    3.750    0.375    0.000    0.000 
#    0.000    8.750    0.000    0.000    0.000   16.625 
#    0.000    0.000    0.000    0.000    0.000    0.000 
#
# Total GULP energy -89127.738660 kJ/mol
# GULP energy per Si atom -5570.483666 kJ/mol
# Density = 2.501756 g / cm^3
# Si number density = 25.074633 Si / 1000 Ang^3
#
#
#
# Elastic Constant Matrix: (Units=GPa)
#
#
# Indices 1 2 3 4 5 6 
#
# 1 42.3380 10.6946 -1.5791 2.8235 -7.1726 -2.4840
# 2 10.6946 54.1579 29.7158 -12.7256 -20.1487 12.8598
# 3 -1.5791 29.7158 146.3768 -26.0213 -30.3336 12.7514
# 4 2.8235 -12.7256 -26.0213 32.3009 -0.7935 -0.5681
# 5 -7.1726 -20.1487 -30.3336 -0.7935 41.0620 -4.5236
# 6 -2.4840 12.8598 12.7514 -0.5681 -4.5236 15.6682
#
#
#
# Elastic Compliance Matrix: (Units=1/GPa)
#
#
# Indices 1 2 3 4 5 6 
#
# 1 0.027255 -0.008923 0.000594 -0.005167 0.001994 0.011549
# 2 -0.008923 0.034368 0.000470 0.014569 0.013104 -0.025693
# 3 0.000594 0.000470 0.010352 0.008546 0.007458 -0.006254
# 4 -0.005167 0.014569 0.008546 0.044065 0.011788 -0.014731
# 5 0.001994 0.013104 0.007458 0.011788 0.036250 -0.005615
# 6 0.011549 -0.025693 -0.006254 -0.014731 -0.005615 0.089677
#
#
# Mechanical properties :
#
#
# Convention : Reuss Voigt Hill
#
# Bulk Modulus (GPa) = 17.77514 35.61504 26.69509
# Shear Modulus (GPa) = 18.08728 31.40900 24.74814
#
# Velocity S-wave (km/s) = 2.68869 3.54308 3.14503
# Velocity P-wave (km/s) = 4.09182 5.56528 4.88443
#
# Compressibility (1/GPa) = 0.05625834
#
# Stress axis : x y z
#
# Youngs Moduli (GPa) = 36.68987 29.09719 96.59789
#
# Poissons Ratio (x) = 0.25963 -0.05738
# Poissons Ratio (y) = 0.32738 -0.04544
# Poissons Ratio (z) = -0.02179 -0.01369
#
# Static dielectric constant tensor:
#      x y z
#    x 1.773020 -0.117530 0.166250 
#    y -0.117530 1.971700 0.026460 
#    z 0.166250 0.026460 2.042360 
# 
# From -- ./inp_files/448743.got.cif
#   From: 2010.05.17/outbox.cif.g08.bks.cpg/sg2_225_cif.got.tgz:448743.got - 2010.06.03 11:33:40.
