data_PCOD9098612
_publ_section_title
;
Structure prediction by ZEFSAII (Michael W. Deem and Ramdas Pophale) SiO2 
 PCOD9098612
Probable space group: P -1
;
_chemical_formula_sum "Si O2"
_cell_formula_units_Z 16
_cell_length_a 15.451861
_cell_length_b 11.377550
_cell_length_c 11.580466
_cell_angle_alpha 83.007525
_cell_angle_beta 50.432003
_cell_angle_gamma 43.973878
_cell_volume 847.108441
_symmetry_space_group_name_H-M "P -1"
_symmetry_group_IT_number 2
_symmetry_cell_setting 'triclinic'
loop_
_space_group_symop_operation_xyz
x,y,z
-x,-y,-z
loop_
_atom_site_type_symbol
_atom_site_label
_atom_site_fract_x
_atom_site_fract_y
_atom_site_fract_z
Si Si1 0.331102 0.027352 0.148057
Si Si2 0.213900 0.475724 0.165534
Si Si3 0.978536 0.158848 0.392628
Si Si4 0.510809 0.888583 0.409864
Si Si5 0.180427 0.325186 0.028935
Si Si6 0.747043 0.300636 0.803239
Si Si7 0.791118 0.752285 0.541491
Si Si8 0.778417 0.553778 0.394178
O O1 0.158130 0.080361 0.306612
O O2 0.266079 0.162068 0.076441
O O3 0.322002 0.116641 0.259149
O O4 0.552791 0.770568 0.974659
O O5 0.173675 0.462060 0.073177
O O6 0.199007 0.626930 0.183988
O O7 0.032881 0.566164 0.376229
O O8 0.819778 0.255088 0.613773
O O9 0.859660 0.354475 0.386942
O O10 0.108420 0.936865 0.252266
O O11 0.591061 0.711730 0.443593
O O12 0.500000 0.000000 0.500000
O O13 0.299318 0.072512 0.495834
O O14 0.672895 0.792993 0.189489
O O15 0.955190 0.470211 0.184654
O O16 0.500000 0.500000 0.000000
O O17 0.752811 0.659789 0.519737
#
# Coordination Sequence:
#
# PCOD9098612 Si02
#       8
#     2   2   2   2   2   2   2   2
#     4  11  20  35  56  90 123 142 178 237 288 351
#     4  11  21  33  56  84 116 148 184 234 282 342
#     4  10  22  38  57  85 113 151 187 233 285 336
#     4  10  20  37  54  80 121 156 188 225 275 342
#     4  10  21  33  56  89 115 148 185 226 287 343
#     4  11  22  37  57  83 116 149 190 230 288 332
#     4  10  21  35  56  90 117 151 183 222 296 342
#     4   9  21  37  59  82 119 152 188 232 273 343
#
# _framework density 18.887782999999999
#
# number of rings (size 3 to 8) (size 9 to 14) (size 15 to 20)
#    0.000    1.750    3.750    0.750    1.750    2.500 
#    0.000    0.000    0.000    1.500    0.000    0.000 
#    0.000    0.000    0.000    0.000    0.000    0.000 
#
# Total GULP energy -89165.714040 kJ/mol
# GULP energy per Si atom -5572.857127 kJ/mol
# Density = 1.884479 g / cm^3
# Si number density = 18.887783 Si / 1000 Ang^3
#
#
#
# Elastic Constant Matrix: (Units=GPa)
#
#
# Indices 1 2 3 4 5 6 
#
# 1 47.5243 38.7499 28.6310 3.1440 4.7128 9.1259
# 2 38.7499 137.2448 34.1717 24.1248 7.6530 0.7775
# 3 28.6310 34.1717 107.5420 10.4202 10.2127 6.2812
# 4 3.1440 24.1248 10.4202 26.6927 -0.1523 0.9387
# 5 4.7128 7.6530 10.2127 -0.1523 33.3721 8.8791
# 6 9.1259 0.7775 6.2812 0.9387 8.8791 32.7420
#
#
#
# Elastic Compliance Matrix: (Units=1/GPa)
#
#
# Indices 1 2 3 4 5 6 
#
# 1 0.033271 -0.009111 -0.006307 0.007085 0.001611 -0.008487
# 2 -0.009111 0.011722 -0.000357 -0.009507 -0.002186 0.003195
# 3 -0.006307 -0.000357 0.011668 -0.003518 -0.002711 0.000364
# 4 0.007085 -0.009507 -0.003518 0.046731 0.003354 -0.003323
# 5 0.001611 -0.002186 -0.002711 0.003354 0.033493 -0.009056
# 6 -0.008487 0.003195 0.000364 -0.003323 -0.009056 0.035313
#
#
# Mechanical properties :
#
#
# Convention : Reuss Voigt Hill
#
# Bulk Modulus (GPa) = 39.82035 55.04626 47.43331
# Shear Modulus (GPa) = 23.57171 31.27861 27.42516
#
# Velocity S-wave (km/s) = 3.53652 4.07384 3.81465
# Velocity P-wave (km/s) = 6.14852 7.16487 6.67606
#
# Compressibility (1/GPa) = 0.02511279
#
# Stress axis : x y z
#
# Youngs Moduli (GPa) = 30.05600 85.30654 85.70268
#
# Poissons Ratio (x) = 0.77721 0.54050
# Poissons Ratio (y) = 0.27383 0.03061
# Poissons Ratio (z) = 0.18955 0.03046
#
# Static dielectric constant tensor:
#      x y z
#    x 1.670190 -0.027540 -0.023060 
#    y -0.027540 1.752380 0.042960 
#    z -0.023060 0.042960 1.723230 
# 
# From -- ./inp_files/464582.got.cif
#   From: 2010.05.17/outbox.cif.g08.bks.cpg/sg2_233_cif.got.tgz:464582.got - 2010.06.03 11:33:40.
