data_PCOD9098365
_publ_section_title
;
Structure prediction by ZEFSAII (Michael W. Deem and Ramdas Pophale) SiO2 
 PCOD9098365
Probable space group: P -1
;
_chemical_formula_sum "Si O2"
_cell_formula_units_Z 16
_cell_length_a 11.089624
_cell_length_b 9.029805
_cell_length_c 16.163103
_cell_angle_alpha 37.729406
_cell_angle_beta 100.875237
_cell_angle_gamma 119.220451
_cell_volume 803.163983
_symmetry_space_group_name_H-M "P -1"
_symmetry_group_IT_number 2
_symmetry_cell_setting 'triclinic'
loop_
_space_group_symop_operation_xyz
x,y,z
-x,-y,-z
loop_
_atom_site_type_symbol
_atom_site_label
_atom_site_fract_x
_atom_site_fract_y
_atom_site_fract_z
Si Si1 0.781646 0.103410 0.115583
Si Si2 0.965416 0.766176 0.795456
Si Si3 0.550472 0.691439 0.135528
Si Si4 0.460557 0.054653 0.380132
Si Si5 0.343257 0.754054 0.198891
Si Si6 0.000554 0.714696 0.644419
Si Si7 0.523944 0.805641 0.347491
Si Si8 0.114384 0.765559 0.458554
O O1 0.920861 0.113870 0.166333
O O2 0.695410 0.874404 0.131842
O O3 0.662712 0.996265 0.220721
O O4 0.838409 0.428717 0.949148
O O5 0.050580 0.760792 0.726365
O O6 0.904949 0.967747 0.680814
O O7 0.521320 0.393391 0.231985
O O8 0.413515 0.626068 0.204851
O O9 0.576034 0.913562 0.968382
O O10 0.500000 0.000000 0.500000
O O11 0.534841 0.966002 0.361543
O O12 0.283534 0.868427 0.423494
O O13 0.167799 0.568071 0.249772
O O14 0.384563 0.740069 0.304010
O O15 0.079117 0.688360 0.586165
O O16 0.000000 0.000000 0.500000
O O17 0.500000 0.500000 0.500000
O O18 0.000000 0.500000 0.500000
#
# Coordination Sequence:
#
# PCOD9098365 Si02
#       8
#     2   2   2   2   2   2   2   2
#     4  10  22  42  66  98 127 177 217 276 318 402
#     4  10  22  41  69  93 132 173 228 259 332 396
#     4  10  21  39  68  93 137 166 219 271 334 392
#     4  12  27  44  66  99 135 175 221 280 336 387
#     4  10  20  39  65  96 126 175 214 267 329 396
#     4  10  20  36  65  91 125 167 220 258 315 396
#     4  11  26  41  68  92 130 171 225 271 337 397
#     4  11  26  42  67  97 136 175 216 280 330 389
#
# _framework density 19.921211
#
# number of rings (size 3 to 8) (size 9 to 14) (size 15 to 20)
#    0.000    1.500    1.250    3.750   12.250    0.500 
#    2.250    0.000    0.000    3.750    0.000    0.000 
#    0.000    0.000    0.000    0.000    0.000    0.000 
#
# Total GULP energy -89387.910825 kJ/mol
# GULP energy per Si atom -5586.744427 kJ/mol
# Density = 1.987587 g / cm^3
# Si number density = 19.921211 Si / 1000 Ang^3
#
#
#
# Elastic Constant Matrix: (Units=GPa)
#
#
# Indices 1 2 3 4 5 6 
#
# 1 38.9750 26.0979 29.0009 -8.5975 -2.2018 -1.2838
# 2 26.0979 110.1196 50.2296 0.0223 7.2209 -8.5417
# 3 29.0009 50.2296 105.9111 6.9245 2.0273 -21.3840
# 4 -8.5975 0.0223 6.9245 34.5150 3.6715 3.9639
# 5 -2.2018 7.2209 2.0273 3.6715 25.3132 1.1796
# 6 -1.2838 -8.5417 -21.3840 3.9639 1.1796 42.4810
#
#
#
# Elastic Compliance Matrix: (Units=1/GPa)
#
#
# Indices 1 2 3 4 5 6 
#
# 1 0.039898 -0.005438 -0.010542 0.012334 0.004378 -0.006467
# 2 -0.005438 0.012625 -0.004360 -0.000126 -0.003721 0.000295
# 3 -0.010542 -0.004360 0.016400 -0.006759 -0.000365 0.007701
# 4 0.012334 -0.000126 -0.006759 0.034436 -0.003057 -0.006183
# 5 0.004378 -0.003721 -0.000365 -0.003057 0.041498 -0.001667
# 6 -0.006467 0.000295 0.007701 -0.006183 -0.001667 0.027904
#
#
# Mechanical properties :
#
#
# Convention : Reuss Voigt Hill
#
# Bulk Modulus (GPa) = 35.40588 51.74027 43.57307
# Shear Modulus (GPa) = 22.43617 30.44031 26.43824
#
# Velocity S-wave (km/s) = 3.35960 3.91325 3.64695
# Velocity P-wave (km/s) = 5.73243 6.81519 6.29713
#
# Compressibility (1/GPa) = 0.02824390
#
# Stress axis : x y z
#
# Youngs Moduli (GPa) = 25.06394 79.20565 60.97662
#
# Poissons Ratio (x) = 0.43076 0.64279
# Poissons Ratio (y) = 0.13631 0.26583
# Poissons Ratio (z) = 0.26421 0.34530
#
# Static dielectric constant tensor:
#      x y z
#    x 1.705190 0.020680 -0.002580 
#    y 0.020680 1.723610 0.025680 
#    z -0.002580 0.025680 1.686870 
# 
# From -- ./inp_files/514920.got.cif
#   From: 2010.05.17/outbox.cif.g08.bks.cpg/sg2_258_cif.got.tgz:514920.got - 2010.06.03 11:33:40.
