data_PCOD9098738
_publ_section_title
;
Structure prediction by ZEFSAII (Michael W. Deem and Ramdas Pophale) SiO2 
 PCOD9098738
Probable space group: P -1
;
_chemical_formula_sum "Si O2"
_cell_formula_units_Z 16
_cell_length_a 11.096861
_cell_length_b 9.226565
_cell_length_c 7.945267
_cell_angle_alpha 49.289157
_cell_angle_beta 92.884953
_cell_angle_gamma 92.675976
_cell_volume 615.744560
_symmetry_space_group_name_H-M "P -1"
_symmetry_group_IT_number 2
_symmetry_cell_setting 'triclinic'
loop_
_space_group_symop_operation_xyz
x,y,z
-x,-y,-z
loop_
_atom_site_type_symbol
_atom_site_label
_atom_site_fract_x
_atom_site_fract_y
_atom_site_fract_z
Si Si1 0.785232 0.231917 0.888146
Si Si2 0.038581 0.292699 0.723808
Si Si3 0.567717 0.426108 0.312963
Si Si4 0.713017 0.642880 0.398896
Si Si5 0.943757 0.158341 0.489936
Si Si6 0.794119 0.417372 0.087419
Si Si7 0.324296 0.272211 0.309870
Si Si8 0.318035 0.949552 0.287065
O O1 0.749532 0.433639 0.639849
O O2 0.714487 0.068616 0.900402
O O3 0.930798 0.217866 0.889327
O O4 0.763826 0.259310 0.062497
O O5 0.179286 0.304567 0.763914
O O6 0.000000 0.500000 0.500000
O O7 0.030540 0.177482 0.638390
O O8 0.593623 0.594905 0.320013
O O9 0.680550 0.434497 0.188839
O O10 0.437019 0.421104 0.226157
O O11 0.585738 0.215796 0.552276
O O12 0.698268 0.779286 0.456185
O O13 0.912754 0.353556 0.241584
O O14 0.811955 0.103429 0.597270
O O15 0.000000 0.000000 0.500000
O O16 0.795943 0.620158 0.840084
O O17 0.357394 0.127203 0.273056
#
# Coordination Sequence:
#
# PCOD9098738 Si02
#       8
#     2   2   2   2   2   2   2   2
#     4   8  17  34  54  77 113 147 177 222 277 326
#     4   9  16  33  56  79 108 143 181 224 269 328
#     4  10  20  37  57  80 113 151 183 225 273 321
#     4   9  18  33  55  82 108 143 189 224 265 331
#     4  10  20  37  57  79 110 147 180 222 280 336
#     4  10  21  37  56  81 114 146 183 229 273 324
#     4  11  20  35  58  85 110 143 188 234 271 311
#     4   9  19  36  56  81 112 146 186 222 267 335
#
# _framework density 25.984801999999998
#
# number of rings (size 3 to 8) (size 9 to 14) (size 15 to 20)
#    0.000    2.500    0.000    4.125    0.000    0.000 
#    0.000   23.750    0.000    0.000    0.000    0.000 
#    0.000    0.000    0.000    0.000    0.000    0.000 
#
# Total GULP energy -89369.782547 kJ/mol
# GULP energy per Si atom -5585.611409 kJ/mol
# Density = 2.592566 g / cm^3
# Si number density = 25.984802 Si / 1000 Ang^3
#
#
#
# Elastic Constant Matrix: (Units=GPa)
#
#
# Indices 1 2 3 4 5 6 
#
# 1 106.0445 19.2191 7.2465 16.4587 8.2501 3.1261
# 2 19.2191 131.2879 22.4544 20.5845 -2.6117 -8.6461
# 3 7.2465 22.4544 56.2012 4.2220 12.1689 -3.0203
# 4 16.4587 20.5845 4.2220 34.5041 -14.1608 0.7792
# 5 8.2501 -2.6117 12.1689 -14.1608 18.1479 6.9990
# 6 3.1261 -8.6461 -3.0203 0.7792 6.9990 42.8424
#
#
#
# Elastic Compliance Matrix: (Units=1/GPa)
#
#
# Indices 1 2 3 4 5 6 
#
# 1 0.013539 -0.000475 0.005107 -0.016764 -0.024084 0.003516
# 2 -0.000475 0.009141 -0.002579 -0.005828 -0.002116 0.002149
# 3 0.005107 -0.002579 0.029833 -0.022731 -0.043821 0.008782
# 4 -0.016764 -0.005828 -0.022731 0.081748 0.092834 -0.018208
# 5 -0.024084 -0.002116 -0.043821 0.092834 0.180256 -0.032895
# 6 0.003516 0.002149 0.008782 -0.018208 -0.032895 0.029843
#
#
# Mechanical properties :
#
#
# Convention : Reuss Voigt Hill
#
# Bulk Modulus (GPa) = 17.66199 43.48596 30.57398
# Shear Modulus (GPa) = 13.92266 35.40643 24.66454
#
# Velocity S-wave (km/s) = 2.31725 3.69532 3.08424
# Velocity P-wave (km/s) = 3.73782 5.91428 4.94722
#
# Compressibility (1/GPa) = 0.05661875
#
# Stress axis : x y z
#
# Youngs Moduli (GPa) = 73.86105 109.40076 33.51973
#
# Poissons Ratio (x) = 0.05192 -0.17119
# Poissons Ratio (y) = 0.03505 0.08646
# Poissons Ratio (z) = -0.37721 0.28220
#
# Static dielectric constant tensor:
#      x y z
#    x 2.037130 0.094580 -0.057920 
#    y 0.094580 2.136480 -0.034570 
#    z -0.057920 -0.034570 2.144910 
# 
# From -- ./inp_files/178196.got.cif
#   From: 2010.05.17/outbox.cif.g08.bks.cpg/sg2_90_cif.got.tgz:178196.got - 2010.06.03 11:33:40.
