data_PCOD9098464
_publ_section_title
;
Structure prediction by ZEFSAII (Michael W. Deem and Ramdas Pophale) SiO2 
 PCOD9098464
Probable space group: P -1
;
_chemical_formula_sum "Si O2"
_cell_formula_units_Z 16
_cell_length_a 16.143717
_cell_length_b 7.786685
_cell_length_c 11.561510
_cell_angle_alpha 126.805107
_cell_angle_beta 144.895902
_cell_angle_gamma 53.619381
_cell_volume 652.217050
_symmetry_space_group_name_H-M "P -1"
_symmetry_group_IT_number 2
_symmetry_cell_setting 'triclinic'
loop_
_space_group_symop_operation_xyz
x,y,z
-x,-y,-z
loop_
_atom_site_type_symbol
_atom_site_label
_atom_site_fract_x
_atom_site_fract_y
_atom_site_fract_z
Si Si1 0.072859 0.620534 0.933838
Si Si2 0.150043 0.375873 0.684989
Si Si3 0.201463 0.532770 0.420729
Si Si4 0.711284 0.325997 0.169883
Si Si5 0.534265 0.066089 0.740942
Si Si6 0.667723 0.563757 0.700439
Si Si7 0.016325 0.995279 0.379310
Si Si8 0.683233 0.145980 0.699773
O O1 0.127672 0.452801 0.822296
O O2 0.898529 0.646259 0.750921
O O3 0.158147 0.499578 0.092559
O O4 0.148160 0.828923 0.085638
O O5 0.280343 0.467882 0.817285
O O6 0.144613 0.126496 0.555010
O O7 0.000000 0.500000 0.500000
O O8 0.260529 0.605077 0.639378
O O9 0.328710 0.467113 0.445802
O O10 0.083339 0.746711 0.324169
O O11 0.854370 0.132938 0.213219
O O12 0.569081 0.231842 0.942752
O O13 0.610094 0.818251 0.766311
O O14 0.369551 0.042184 0.510719
O O15 0.611447 0.127385 0.735598
O O16 0.617100 0.376986 0.646121
O O17 0.000000 0.000000 0.500000
#
# Coordination Sequence:
#
# PCOD9098464 Si02
#       8
#     2   2   2   2   2   2   2   2
#     4  10  18  34  55  82 114 146 183 229 276 331
#     4  10  16  31  51  81 116 138 188 234 267 327
#     4  11  20  35  52  88 119 146 172 229 294 343
#     4  10  19  31  57  83 108 142 194 229 271 332
#     4  11  20  41  61  83 104 152 196 238 272 319
#     4  10  23  37  57  83 120 149 180 231 288 340
#     4   9  17  28  50  78 112 145 176 219 274 333
#     4   9  23  37  61  80 109 147 201 232 267 338
#
# _framework density 24.531708999999999
#
# number of rings (size 3 to 8) (size 9 to 14) (size 15 to 20)
#    0.750    1.250    5.000    1.500    1.750    0.000 
#    2.250    1.250    0.000    3.000    0.000    0.000 
#    0.000    0.000    0.000    0.000    0.000    0.000 
#
# Total GULP energy -89290.186978 kJ/mol
# GULP energy per Si atom -5580.636686 kJ/mol
# Density = 2.447587 g / cm^3
# Si number density = 24.531709 Si / 1000 Ang^3
#
#
#
# Elastic Constant Matrix: (Units=GPa)
#
#
# Indices 1 2 3 4 5 6 
#
# 1 103.9882 37.4049 54.7149 10.5115 15.5547 5.9157
# 2 37.4049 71.3513 31.8847 8.5913 22.7326 18.4877
# 3 54.7149 31.8847 168.8610 31.7378 26.6154 9.5908
# 4 10.5115 8.5913 31.7378 33.1562 15.5662 8.5240
# 5 15.5547 22.7326 26.6154 15.5662 44.5021 1.5349
# 6 5.9157 18.4877 9.5908 8.5240 1.5349 32.5405
#
#
#
# Elastic Compliance Matrix: (Units=1/GPa)
#
#
# Indices 1 2 3 4 5 6 
#
# 1 0.013442 -0.006233 -0.003332 -0.000229 0.000486 0.002117
# 2 -0.006233 0.023927 -0.001031 0.005171 -0.010787 -0.013003
# 3 -0.003332 -0.001031 0.008569 -0.006419 -0.001202 0.000404
# 4 -0.000229 0.005171 -0.006419 0.044677 -0.013934 -0.012050
# 5 0.000486 -0.010787 -0.001202 -0.013934 0.033112 0.008483
# 6 0.002117 -0.013003 0.000404 -0.012050 0.008483 0.040371
#
#
# Mechanical properties :
#
#
# Convention : Reuss Voigt Hill
#
# Bulk Modulus (GPa) = 40.41299 65.80105 53.10702
# Shear Modulus (GPa) = 25.83446 36.71950 31.27698
#
# Velocity S-wave (km/s) = 3.24868 3.87307 3.57453
# Velocity P-wave (km/s) = 5.53005 6.84704 6.22348
#
# Compressibility (1/GPa) = 0.02474452
#
# Stress axis : x y z
#
# Youngs Moduli (GPa) = 74.39345 41.79371 116.69357
#
# Poissons Ratio (x) = 0.26052 0.38886
# Poissons Ratio (y) = 0.46373 0.12034
# Poissons Ratio (z) = 0.24790 0.04310
#
# Static dielectric constant tensor:
#      x y z
#    x 1.424980 0.403390 0.891320 
#    y 0.403390 1.705050 -0.617310 
#    z 0.891320 -0.617310 0.797900 
# 
# From -- ./inp_files/461640.got.cif
#   From: 2010.05.17/outbox.cif.g08.bks.cpg/sg2_231_cif.got.tgz:461640.got - 2010.06.03 11:33:40.
