data_PCOD9098501
_publ_section_title
;
Structure prediction by ZEFSAII (Michael W. Deem and Ramdas Pophale) SiO2 
 PCOD9098501
Probable space group: P -1
;
_chemical_formula_sum "Si O2"
_cell_formula_units_Z 14
_cell_length_a 18.532761
_cell_length_b 8.171461
_cell_length_c 11.969527
_cell_angle_alpha 126.642476
_cell_angle_beta 37.310440
_cell_angle_gamma 100.322118
_cell_volume 700.186850
_symmetry_space_group_name_H-M "P -1"
_symmetry_group_IT_number 2
_symmetry_cell_setting 'triclinic'
loop_
_space_group_symop_operation_xyz
x,y,z
-x,-y,-z
loop_
_atom_site_type_symbol
_atom_site_label
_atom_site_fract_x
_atom_site_fract_y
_atom_site_fract_z
Si Si1 0.194997 0.603772 0.670565
Si Si2 0.345909 0.144739 0.150236
Si Si3 0.137234 0.508785 0.353261
Si Si4 0.431389 0.250359 0.757740
Si Si5 0.490402 0.439676 0.357426
Si Si6 0.572088 0.200671 0.796620
Si Si7 0.879372 0.061860 0.325628
O O1 0.248777 0.326271 0.448479
O O2 0.320390 0.557710 0.581455
O O3 0.182620 0.765955 0.642423
O O4 0.030446 0.784945 0.999314
O O5 0.237018 0.315522 0.251574
O O6 0.487462 0.154790 0.974461
O O7 0.407117 0.859161 0.926815
O O8 0.089809 0.783573 0.564538
O O9 0.000000 0.500000 0.500000
O O10 0.255841 0.404417 0.063920
O O11 0.459155 0.429060 0.730628
O O12 0.524509 0.152252 0.718347
O O13 0.500000 0.000000 0.500000
O O14 0.500000 0.500000 0.500000
O O15 0.747451 0.056766 0.532103
O O16 0.500000 0.500000 0.000000
#
# Coordination Sequence:
#
# PCOD9098501 Si02
#       7
#     2   2   2   2   2   2   2
#     4  10  21  37  61  94 118 164 204 259 308 363
#     4  10  22  39  64  92 123 166 205 263 314 369
#     4  10  22  39  64  95 125 161 213 266 314 367
#     4  11  23  38  65  92 119 167 213 259 305 373
#     4  12  24  40  61  92 134 166 208 254 319 379
#     4  11  17  39  63  92 119 156 222 255 300 370
#     4  10  20  36  67  91 121 157 215 266 305 356
#
# _framework density 19.994664
#
# number of rings (size 3 to 8) (size 9 to 14) (size 15 to 20)
#    0.000    1.429    5.714    2.143    4.000    1.143 
#    0.000    1.429    0.000    0.000    0.000    0.000 
#    0.000    0.000    0.000    0.000    0.000    0.000 
#
# Total GULP energy -78189.752653 kJ/mol
# GULP energy per Si atom -5584.982332 kJ/mol
# Density = 1.994916 g / cm^3
# Si number density = 19.994664 Si / 1000 Ang^3
#
#
#
# Elastic Constant Matrix: (Units=GPa)
#
#
# Indices 1 2 3 4 5 6 
#
# 1 111.0747 16.6317 69.0856 -1.8661 9.0153 21.0644
# 2 16.6317 76.7928 63.5793 6.5989 1.7779 22.4480
# 3 69.0856 63.5793 198.7965 9.2045 3.4711 27.3715
# 4 -1.8661 6.5989 9.2045 38.3149 9.9949 -1.9315
# 5 9.0153 1.7779 3.4711 9.9949 41.4796 -0.0581
# 6 21.0644 22.4480 27.3715 -1.9315 -0.0581 30.4273
#
#
#
# Elastic Compliance Matrix: (Units=1/GPa)
#
#
# Indices 1 2 3 4 5 6 
#
# 1 0.012948 0.002867 -0.004484 0.001638 -0.002966 -0.006947
# 2 0.002867 0.021181 -0.005929 -0.002600 -0.000426 -0.012443
# 3 -0.004484 -0.005929 0.008586 -0.001504 0.000872 -0.000339
# 4 0.001638 -0.002600 -0.001504 0.029044 -0.007111 0.003968
# 5 -0.002966 -0.000426 0.000872 -0.007111 0.026413 0.001182
# 6 -0.006947 -0.012443 -0.000339 0.003968 0.001182 0.047413
#
#
# Mechanical properties :
#
#
# Convention : Reuss Voigt Hill
#
# Bulk Modulus (GPa) = 36.20282 76.13969 56.17126
# Shear Modulus (GPa) = 29.43138 37.86885 33.65012
#
# Velocity S-wave (km/s) = 3.84078 4.35667 4.10683
# Velocity P-wave (km/s) = 6.14933 7.96681 7.11633
#
# Compressibility (1/GPa) = 0.02762216
#
# Stress axis : x y z
#
# Youngs Moduli (GPa) = 77.22905 47.21232 116.46785
#
# Poissons Ratio (x) = -0.13536 0.52228
# Poissons Ratio (y) = -0.22142 0.69058
# Poissons Ratio (z) = 0.34632 0.27994
#
# Static dielectric constant tensor:
#      x y z
#    x 1.741370 -0.027210 0.019930 
#    y -0.027210 1.723820 -0.005330 
#    z 0.019930 -0.005330 1.703800 
# 
# From -- ./inp_files/175060.got.cif
#   From: 2010.05.17/outbox.cif.g08.bks.cpg/sg2_88_cif.got.tgz:175060.got - 2010.06.03 11:33:40.
