data_PCOD9098980
_publ_section_title
;
Structure prediction by ZEFSAII (Michael W. Deem and Ramdas Pophale) SiO2 
 PCOD9098980
Probable space group: P -1
;
_chemical_formula_sum "Si O2"
_cell_formula_units_Z 13
_cell_length_a 7.808560
_cell_length_b 13.392980
_cell_length_c 6.931902
_cell_angle_alpha 61.126919
_cell_angle_beta 123.806882
_cell_angle_gamma 88.229780
_cell_volume 480.708758
_symmetry_space_group_name_H-M "P -1"
_symmetry_group_IT_number 2
_symmetry_cell_setting 'triclinic'
loop_
_space_group_symop_operation_xyz
x,y,z
-x,-y,-z
loop_
_atom_site_type_symbol
_atom_site_label
_atom_site_fract_x
_atom_site_fract_y
_atom_site_fract_z
Si Si1 0.364978 0.370485 0.750521
Si Si2 0.947906 0.891764 0.154681
Si Si3 0.450427 0.019515 0.721750
Si Si4 0.784778 0.425397 0.046034
Si Si5 0.937792 0.364356 0.639424
Si Si6 0.000000 0.000000 0.500000
Si Si7 0.293784 0.302598 0.362868
O O1 0.224807 0.515342 0.459321
O O2 0.378578 0.287347 0.652469
O O3 0.198544 0.346927 0.821415
O O4 0.605077 0.365318 0.964229
O O5 0.092701 0.762920 0.254405
O O6 0.974932 0.904468 0.391060
O O7 0.693788 0.922914 0.896166
O O8 0.000000 0.000000 0.000000
O O9 0.402098 0.160446 0.492584
O O10 0.239997 0.986896 0.577832
O O11 0.500000 0.000000 0.000000
O O12 0.865526 0.405690 0.334968
O O13 0.019106 0.353498 0.143511
O O14 0.670019 0.575587 0.799823
#
# Coordination Sequence:
#
# PCOD9098980 Si02
#       7
#     2   2   2   2   2   1   2
#     4  10  20  39  63  91 123 169 193 263 331 363
#     4  11  26  46  66 100 134 172 225 272 318 399
#     4  10  22  42  67  95 133 174 220 273 320 395
#     4  10  20  37  58  89 124 159 201 261 310 380
#     4  10  23  41  59  93 129 156 214 255 318 390
#     4  10  22  46  68  90 126 184 216 260 340 360
#     4  10  22  37  60  98 122 152 222 255 312 393
#
# _framework density 27.043406000000001
#
# number of rings (size 3 to 8) (size 9 to 14) (size 15 to 20)
#    0.000    1.846    0.000    4.615    2.154    8.000 
#   13.846    0.000    0.000    0.000    0.000    0.000 
#    0.000    0.000    0.000    0.000    0.000    0.000 
#
# Total GULP energy -72466.401691 kJ/mol
# GULP energy per Si atom -5574.338592 kJ/mol
# Density = 2.698185 g / cm^3
# Si number density = 27.043406 Si / 1000 Ang^3
#
#
#
# Elastic Constant Matrix: (Units=GPa)
#
#
# Indices 1 2 3 4 5 6 
#
# 1 48.9635 18.3100 8.3249 12.5732 20.7410 23.7301
# 2 18.3100 163.1664 37.8894 -7.6825 24.7010 16.0505
# 3 8.3249 37.8894 67.4933 -19.5303 6.5386 10.3445
# 4 12.5732 -7.6825 -19.5303 59.5360 13.1231 3.0742
# 5 20.7410 24.7010 6.5386 13.1231 33.8722 13.4184
# 6 23.7301 16.0505 10.3445 3.0742 13.4184 52.6689
#
#
#
# Elastic Compliance Matrix: (Units=1/GPa)
#
#
# Indices 1 2 3 4 5 6 
#
# 1 0.032892 -0.000264 -0.002144 -0.004106 -0.013755 -0.010574
# 2 -0.000264 0.007837 -0.003506 0.001071 -0.005161 -0.000328
# 3 -0.002144 -0.003506 0.019491 0.006898 -0.001886 -0.001716
# 4 -0.004106 0.001071 0.006898 0.021883 -0.008495 0.001055
# 5 -0.013755 -0.005161 -0.001886 -0.008495 0.046651 -0.003249
# 6 -0.010574 -0.000328 -0.001716 0.001055 -0.003249 0.024954
#
#
# Mechanical properties :
#
#
# Convention : Reuss Voigt Hill
#
# Bulk Modulus (GPa) = 20.66476 45.40795 33.03636
# Shear Modulus (GPa) = 27.52288 43.55535 35.53912
#
# Velocity S-wave (km/s) = 3.19365 4.01755 3.62905
# Velocity P-wave (km/s) = 4.61054 6.19259 5.45918
#
# Compressibility (1/GPa) = 0.04839156
#
# Stress axis : x y z
#
# Youngs Moduli (GPa) = 30.40224 127.60546 51.30583
#
# Poissons Ratio (x) = 0.03370 0.10998
# Poissons Ratio (y) = 0.00803 0.17990
# Poissons Ratio (z) = 0.06517 0.44744
#
# Static dielectric constant tensor:
#      x y z
#    x 2.136140 -0.015090 -0.042880 
#    y -0.015090 2.107860 -0.005930 
#    z -0.042880 -0.005930 2.170920 
# 
# From -- ./inp_files/195416.got.cif
#   From: 2010.05.17/outbox.cif.g08.bks.cpg/sg2_98_cif.got.tgz:195416.got - 2010.06.03 11:33:40.
