data_PCOD9098749
_publ_section_title
;
Structure prediction by ZEFSAII (Michael W. Deem and Ramdas Pophale) SiO2 
 PCOD9098749
Probable space group: P -1
;
_chemical_formula_sum "Si O2"
_cell_formula_units_Z 14
_cell_length_a 6.315674
_cell_length_b 15.368097
_cell_length_c 14.994197
_cell_angle_alpha 26.474516
_cell_angle_beta 73.056704
_cell_angle_gamma 75.763494
_cell_volume 620.245529
_symmetry_space_group_name_H-M "P -1"
_symmetry_group_IT_number 2
_symmetry_cell_setting 'triclinic'
loop_
_space_group_symop_operation_xyz
x,y,z
-x,-y,-z
loop_
_atom_site_type_symbol
_atom_site_label
_atom_site_fract_x
_atom_site_fract_y
_atom_site_fract_z
Si Si1 0.110074 0.530455 0.091494
Si Si2 0.410881 0.254963 0.790210
Si Si3 0.457199 0.801186 0.907809
Si Si4 0.859412 0.115327 0.837568
Si Si5 0.322805 0.513027 0.710359
Si Si6 0.305589 0.192616 0.651725
Si Si7 0.138913 0.186922 0.274634
O O1 0.284249 0.653519 0.016101
O O2 0.008823 0.685717 0.891820
O O3 0.204463 0.346792 0.195778
O O4 0.908311 0.443379 0.256465
O O5 0.675298 0.252394 0.775357
O O6 0.305143 0.440592 0.677052
O O7 0.370550 0.235773 0.707263
O O8 0.291362 0.060059 0.025358
O O9 0.640798 0.876492 0.744983
O O10 0.338967 0.974035 0.814177
O O11 0.589904 0.675577 0.077068
O O12 0.041395 0.219831 0.656716
O O13 0.000000 0.000000 0.000000
O O14 0.518723 0.674781 0.545660
O O15 0.000000 0.000000 0.500000
#
# Coordination Sequence:
#
# PCOD9098749 Si02
#       7
#     2   2   2   2   2   2   2
#     4  10  23  41  62  89 120 151 188 239 294 349
#     4  10  20  37  57  80 119 161 199 245 287 332
#     4  11  23  39  61  89 121 153 190 240 293 346
#     4   9  18  33  54  77 107 148 195 241 288 333
#     4  11  23  38  58  87 120 156 199 242 287 341
#     4  11  23  37  58  87 117 158 204 240 285 341
#     4  10  22  42  66  90 116 149 190 236 292 356
#
# _framework density 22.571705999999999
#
# number of rings (size 3 to 8) (size 9 to 14) (size 15 to 20)
#    0.000    1.714    0.000    5.143    0.000    5.714 
#    0.000    0.000    0.000    0.000    0.000    0.000 
#    0.000    0.000    0.000    0.000    0.000    0.000 
#
# Total GULP energy -78212.181209 kJ/mol
# GULP energy per Si atom -5586.584372 kJ/mol
# Density = 2.252033 g / cm^3
# Si number density = 22.571706 Si / 1000 Ang^3
#
#
#
# Elastic Constant Matrix: (Units=GPa)
#
#
# Indices 1 2 3 4 5 6 
#
# 1 68.6227 29.4351 18.8406 17.8377 -21.0820 -11.7009
# 2 29.4351 120.3982 21.7872 -0.5082 -2.2622 2.4746
# 3 18.8406 21.7872 105.8212 14.2441 -36.2423 -1.7808
# 4 17.8377 -0.5082 14.2441 23.7230 -11.1047 -11.1583
# 5 -21.0820 -2.2622 -36.2423 -11.1047 36.9102 2.2019
# 6 -11.7009 2.4746 -1.7808 -11.1583 2.2019 29.1428
#
#
#
# Elastic Compliance Matrix: (Units=1/GPa)
#
#
# Indices 1 2 3 4 5 6 
#
# 1 0.024308 -0.006398 0.002971 -0.012028 0.012496 0.004935
# 2 -0.006398 0.010417 -0.003243 0.003811 -0.004945 -0.001819
# 3 0.002971 -0.003243 0.015445 -0.004670 0.015291 -0.000531
# 4 -0.012028 0.003811 -0.004670 0.066928 0.007745 0.019602
# 5 0.012496 -0.004945 0.015291 0.007745 0.050944 0.005488
# 6 0.004935 -0.001819 -0.000531 0.019602 0.005488 0.043508
#
#
# Mechanical properties :
#
#
# Convention : Reuss Voigt Hill
#
# Bulk Modulus (GPa) = 27.15069 48.32976 37.74023
# Shear Modulus (GPa) = 21.08222 32.94048 27.01135
#
# Velocity S-wave (km/s) = 3.05947 3.82432 3.46307
# Velocity P-wave (km/s) = 4.95331 6.39990 5.72250
#
# Compressibility (1/GPa) = 0.03683147
#
# Stress axis : x y z
#
# Youngs Moduli (GPa) = 41.13852 95.99393 64.74573
#
# Poissons Ratio (x) = 0.61417 -0.19238
# Poissons Ratio (y) = 0.26320 0.20996
# Poissons Ratio (z) = -0.12223 0.31129
#
# Static dielectric constant tensor:
#      x y z
#    x 1.834580 0.022880 0.003710 
#    y 0.022880 1.863190 0.058240 
#    z 0.003710 0.058240 1.900710 
# 
# From -- ./inp_files/50877.got.cif
#   From: 2010.05.17/outbox.cif.g08.bks.cpg/sg2_26_cif.got.tgz:50877.got - 2010.06.03 11:33:40.
