data_PCOD9098225
_publ_section_title
;
Structure prediction by ZEFSAII (Michael W. Deem and Ramdas Pophale) SiO2 
 PCOD9098225
Probable space group: P -1
;
_chemical_formula_sum "Si O2"
_cell_formula_units_Z 16
_cell_length_a 8.392304
_cell_length_b 14.099644
_cell_length_c 14.142359
_cell_angle_alpha 40.137957
_cell_angle_beta 84.795517
_cell_angle_gamma 54.934444
_cell_volume 662.938484
_symmetry_space_group_name_H-M "P -1"
_symmetry_group_IT_number 2
_symmetry_cell_setting 'triclinic'
loop_
_space_group_symop_operation_xyz
x,y,z
-x,-y,-z
loop_
_atom_site_type_symbol
_atom_site_label
_atom_site_fract_x
_atom_site_fract_y
_atom_site_fract_z
Si Si1 0.960097 0.205513 0.747501
Si Si2 0.707530 0.047637 0.520534
Si Si3 0.778009 0.843085 0.853053
Si Si4 0.042158 0.133264 0.006053
Si Si5 0.620373 0.116415 0.172414
Si Si6 0.127400 0.356097 0.289671
Si Si7 0.147609 0.631630 0.568293
Si Si8 0.535122 0.483262 0.190123
O O1 0.969452 0.253778 0.816731
O O2 0.809157 0.399139 0.523913
O O3 0.257897 0.984680 0.862450
O O4 0.873640 0.097112 0.836494
O O5 0.810562 0.950268 0.695329
O O6 0.847714 0.820941 0.625564
O O7 0.406191 0.216017 0.407991
O O8 0.696722 0.222716 0.352913
O O9 0.541805 0.911628 0.779813
O O10 0.754366 0.928440 0.893604
O O11 0.005882 0.559755 0.068680
O O12 0.771082 0.327882 0.929888
O O13 0.451494 0.385256 0.979122
O O14 0.885480 0.922654 0.364695
O O15 0.942037 0.457212 0.312240
O O16 0.366107 0.541095 0.692068
#
# Coordination Sequence:
#
# PCOD9098225 Si02
#       8
#     2   2   2   2   2   2   2   2
#     4   8  19  39  58  92 121 154 199 241 296 355
#     4  11  24  39  63  90 118 158 206 243 301 351
#     4  12  21  41  64  86 123 160 196 249 299 351
#     4  10  20  36  64  91 118 157 202 241 294 356
#     4   9  21  38  60  86 124 159 191 241 303 345
#     4  11  23  41  61  88 122 156 202 251 293 358
#     4  10  20  40  61  83 126 160 189 249 300 346
#     4  11  21  38  63  88 120 161 196 249 291 357
#
# _framework density 24.134972000000001
#
# number of rings (size 3 to 8) (size 9 to 14) (size 15 to 20)
#    0.750    1.000    3.750    1.125    0.000    1.500 
#    0.000    2.500    0.000    0.000    0.000    0.000 
#    0.000    0.000    0.000    0.000    0.000    0.000 
#
# Total GULP energy -89304.954936 kJ/mol
# GULP energy per Si atom -5581.559683 kJ/mol
# Density = 2.408004 g / cm^3
# Si number density = 24.134972 Si / 1000 Ang^3
#
#
#
# Elastic Constant Matrix: (Units=GPa)
#
#
# Indices 1 2 3 4 5 6 
#
# 1 47.3919 1.4307 21.3920 -7.9753 -5.8708 6.1379
# 2 1.4307 30.8717 0.3378 4.4240 -7.6570 12.4068
# 3 21.3920 0.3378 102.1925 0.0545 0.2415 8.3995
# 4 -7.9753 4.4240 0.0545 28.2647 6.2551 1.2538
# 5 -5.8708 -7.6570 0.2415 6.2551 22.1707 -8.4280
# 6 6.1379 12.4068 8.3995 1.2538 -8.4280 22.6074
#
#
#
# Elastic Compliance Matrix: (Units=1/GPa)
#
#
# Indices 1 2 3 4 5 6 
#
# 1 0.025430 0.000588 -0.004971 0.006525 0.003457 -0.004453
# 2 0.000588 0.044330 0.001433 -0.008004 0.009747 -0.020943
# 3 -0.004971 0.001433 0.011191 -0.000929 -0.002363 -0.004424
# 4 0.006525 -0.008004 -0.000929 0.041943 -0.014700 -0.004840
# 5 0.003457 0.009747 -0.002363 -0.014700 0.060368 0.017911
# 6 -0.004453 -0.020943 -0.004424 -0.004840 0.017911 0.065525
#
#
# Mechanical properties :
#
#
# Convention : Reuss Voigt Hill
#
# Bulk Modulus (GPa) = 13.32432 25.19747 19.26089
# Shear Modulus (GPa) = 17.87604 25.09492 21.48548
#
# Velocity S-wave (km/s) = 2.72448 3.22805 2.98690
# Velocity P-wave (km/s) = 3.92807 4.93525 4.46018
#
# Compressibility (1/GPa) = 0.07505076
#
# Stress axis : x y z
#
# Youngs Moduli (GPa) = 39.32400 22.55808 89.35781
#
# Poissons Ratio (x) = -0.01326 0.44418
# Poissons Ratio (y) = -0.02312 -0.12805
# Poissons Ratio (z) = 0.19547 -0.03232
#
# Static dielectric constant tensor:
#      x y z
#    x 1.942160 -0.010430 -0.024230 
#    y -0.010430 1.980010 -0.000110 
#    z -0.024230 -0.000110 1.916740 
# 
# From -- ./inp_files/505271.got.cif
#   From: 2010.05.17/outbox.cif.g08.bks.cpg/sg2_253_cif.got.tgz:505271.got - 2010.06.03 11:33:40.
