data_PCOD9098842
_publ_section_title
;
Structure prediction by ZEFSAII (Michael W. Deem and Ramdas Pophale) SiO2 
 PCOD9098842
Probable space group: P -1
;
_chemical_formula_sum "Si O2"
_cell_formula_units_Z 14
_cell_length_a 7.697994
_cell_length_b 8.781905
_cell_length_c 11.945880
_cell_angle_alpha 129.110668
_cell_angle_beta 74.893709
_cell_angle_gamma 113.946073
_cell_volume 572.676419
_symmetry_space_group_name_H-M "P -1"
_symmetry_group_IT_number 2
_symmetry_cell_setting 'triclinic'
loop_
_space_group_symop_operation_xyz
x,y,z
-x,-y,-z
loop_
_atom_site_type_symbol
_atom_site_label
_atom_site_fract_x
_atom_site_fract_y
_atom_site_fract_z
Si Si1 0.198317 0.987537 0.414011
Si Si2 0.796044 0.399169 0.645472
Si Si3 0.649420 0.694733 0.654122
Si Si4 0.792124 0.419188 0.266149
Si Si5 0.946043 0.676093 0.155203
Si Si6 0.709106 0.993869 0.979321
Si Si7 0.302543 0.356169 0.015261
O O1 0.269593 0.850803 0.431711
O O2 0.133687 0.828508 0.247859
O O3 0.301658 0.204149 0.431978
O O4 0.000000 0.000000 0.500000
O O5 0.706251 0.499276 0.606232
O O6 0.757054 0.506037 0.816611
O O7 0.027538 0.478473 0.636266
O O8 0.578595 0.353725 0.318116
O O9 0.754942 0.878095 0.810025
O O10 0.806958 0.577783 0.235345
O O11 0.828201 0.220782 0.107272
O O12 0.832795 0.747668 0.113270
O O13 0.000000 0.500000 0.000000
O O14 0.684296 0.837974 0.011371
O O15 0.500000 0.000000 0.000000
O O16 0.500000 0.500000 0.000000
#
# Coordination Sequence:
#
# PCOD9098842 Si02
#       7
#     2   2   2   2   2   2   2
#     4  11  25  43  67  95 130 175 219 268 329 388
#     4  10  23  40  63  93 130 165 217 268 326 385
#     4  10  22  39  63  89 129 171 216 265 326 386
#     4  10  20  37  57  94 129 164 214 266 327 378
#     4  11  20  39  64  92 128 164 211 269 318 379
#     4   9  19  31  54  92 125 156 204 258 321 379
#     4  11  21  33  62  97 128 166 208 265 329 380
#
# _framework density 24.446612999999999
#
# number of rings (size 3 to 8) (size 9 to 14) (size 15 to 20)
#    0.000    1.714    2.857    3.429    6.000    1.714 
#    0.000    2.857    0.000   10.286    0.000    0.000 
#    0.000    0.000    0.000    0.000    0.000    0.000 
#
# Total GULP energy -78103.311608 kJ/mol
# GULP energy per Si atom -5578.807972 kJ/mol
# Density = 2.439097 g / cm^3
# Si number density = 24.446613 Si / 1000 Ang^3
#
#
#
# Elastic Constant Matrix: (Units=GPa)
#
#
# Indices 1 2 3 4 5 6 
#
# 1 102.1824 68.2103 15.5588 -11.8600 -5.3275 -8.5611
# 2 68.2103 215.2338 32.0367 -17.6707 -12.5792 -23.5080
# 3 15.5588 32.0367 66.5558 -1.1464 5.2314 -5.1055
# 4 -11.8600 -17.6707 -1.1464 36.0274 7.7674 -10.0714
# 5 -5.3275 -12.5792 5.2314 7.7674 30.3181 0.4733
# 6 -8.5611 -23.5080 -5.1055 -10.0714 0.4733 58.5128
#
#
#
# Elastic Compliance Matrix: (Units=1/GPa)
#
#
# Indices 1 2 3 4 5 6 
#
# 1 0.012707 -0.003538 -0.001188 0.002561 0.000302 0.000772
# 2 -0.003538 0.006665 -0.002315 0.002268 0.001926 0.002333
# 3 -0.001188 -0.002315 0.016766 -0.000007 -0.004067 0.000391
# 4 0.002561 0.002268 -0.000007 0.033247 -0.007236 0.007066
# 5 0.000302 0.001926 -0.004067 -0.007236 0.036408 -0.001077
# 6 0.000772 0.002333 0.000391 0.007066 -0.001077 0.019400
#
#
# Mechanical properties :
#
#
# Convention : Reuss Voigt Hill
#
# Bulk Modulus (GPa) = 45.33584 68.39818 56.86701
# Shear Modulus (GPa) = 34.10022 42.84940 38.47481
#
# Velocity S-wave (km/s) = 3.73887 4.19116 3.97146
# Velocity P-wave (km/s) = 6.10114 7.17359 6.65899
#
# Compressibility (1/GPa) = 0.02205760
#
# Stress axis : x y z
#
# Youngs Moduli (GPa) = 78.69939 150.02851 59.64320
#
# Poissons Ratio (x) = 0.53077 0.07085
# Poissons Ratio (y) = 0.27842 0.13806
# Poissons Ratio (z) = 0.09348 0.34727
#
# Static dielectric constant tensor:
#      x y z
#    x 2.063020 -0.048300 0.079170 
#    y -0.048300 1.996620 -0.048980 
#    z 0.079170 -0.048980 2.248730 
# 
# From -- ./inp_files/176317.got.cif
#   From: 2010.05.17/outbox.cif.g08.bks.cpg/sg2_89_cif.got.tgz:176317.got - 2010.06.03 11:33:40.
