data_PCOD9098686
_publ_section_title
;
Structure prediction by ZEFSAII (Michael W. Deem and Ramdas Pophale) SiO2 
 PCOD9098686
Probable space group: P -1
;
_chemical_formula_sum "Si O2"
_cell_formula_units_Z 16
_cell_length_a 9.320948
_cell_length_b 8.760441
_cell_length_c 18.073254
_cell_angle_alpha 36.726237
_cell_angle_beta 114.350084
_cell_angle_gamma 101.143384
_cell_volume 778.087220
_symmetry_space_group_name_H-M "P -1"
_symmetry_group_IT_number 2
_symmetry_cell_setting 'triclinic'
loop_
_space_group_symop_operation_xyz
x,y,z
-x,-y,-z
loop_
_atom_site_type_symbol
_atom_site_label
_atom_site_fract_x
_atom_site_fract_y
_atom_site_fract_z
Si Si1 0.736902 0.578624 0.506083
Si Si2 0.729633 0.105765 0.487742
Si Si3 0.653949 0.235853 0.821174
Si Si4 0.784762 0.976092 0.802033
Si Si5 0.537646 0.015071 0.626766
Si Si6 0.884013 0.565791 0.687498
Si Si7 0.269066 0.343461 0.696764
Si Si8 0.886523 0.970474 0.101838
O O1 0.763262 0.265759 0.646565
O O2 0.563966 0.753548 0.431002
O O3 0.861740 0.641658 0.567284
O O4 0.763377 0.645824 0.401772
O O5 0.628466 0.110925 0.540101
O O6 0.794110 0.363849 0.397971
O O7 0.599213 0.105946 0.393946
O O8 0.872910 0.836378 0.621914
O O9 0.703783 0.027576 0.845604
O O10 0.718602 0.485173 0.709888
O O11 0.463220 0.286783 0.771155
O O12 0.753173 0.140965 0.953298
O O13 0.680634 0.841827 0.776846
O O14 0.976768 0.887558 0.894835
O O15 0.019267 0.289846 0.825060
O O16 0.194535 0.138506 0.804111
#
# Coordination Sequence:
#
# PCOD9098686 Si02
#       8
#     2   2   2   2   2   2   2   2
#     4   9  17  29  53  85 104 132 181 227 281 300
#     4  10  20  30  55  88 116 134 172 228 286 332
#     4  10  19  35  58  79 104 146 194 230 250 309
#     4  10  17  31  57  78 105 134 183 237 264 302
#     4  10  16  31  52  86 105 135 181 225 272 313
#     4   9  20  36  57  80 107 144 179 234 268 318
#     4  12  20  33  56  87 113 141 173 227 281 335
#     4  10  23  35  52  81 116 148 182 217 269 324
#
# _framework density 20.563247
#
# number of rings (size 3 to 8) (size 9 to 14) (size 15 to 20)
#    0.000    2.250    2.500    5.250    0.000    2.500 
#    0.000    0.000    0.000    7.500    0.000    0.000 
#    0.000    0.000    0.000    0.000    0.000    0.000 
#
# Total GULP energy -89177.944202 kJ/mol
# GULP energy per Si atom -5573.621513 kJ/mol
# Density = 2.051644 g / cm^3
# Si number density = 20.563247 Si / 1000 Ang^3
#
#
#
# Elastic Constant Matrix: (Units=GPa)
#
#
# Indices 1 2 3 4 5 6 
#
# 1 68.1818 0.1559 3.0311 -5.5212 4.2282 -0.7461
# 2 0.1559 53.5895 5.8380 9.2941 -9.0612 -7.9303
# 3 3.0311 5.8380 40.1335 11.4834 -2.0361 -6.3049
# 4 -5.5212 9.2941 11.4834 12.8768 -5.2821 -4.9603
# 5 4.2282 -9.0612 -2.0361 -5.2821 19.0381 3.4946
# 6 -0.7461 -7.9303 -6.3049 -4.9603 3.4946 7.2197
#
#
#
# Elastic Compliance Matrix: (Units=1/GPa)
#
#
# Indices 1 2 3 4 5 6 
#
# 1 0.016097 -0.001221 -0.003740 0.012888 -0.002267 0.007009
# 2 -0.001221 0.023925 0.002955 -0.011047 0.005518 0.018473
# 3 -0.003740 0.002955 0.036124 -0.032586 -0.005648 0.014752
# 4 0.012888 -0.011047 -0.032586 0.148981 0.019917 0.053458
# 5 -0.002267 0.005518 -0.005648 0.019917 0.063548 -0.016181
# 6 0.007009 0.018473 0.014752 0.053458 -0.016181 0.216969
#
#
# Mechanical properties :
#
#
# Convention : Reuss Voigt Hill
#
# Bulk Modulus (GPa) = 13.86300 19.99497 16.92898
# Shear Modulus (GPa) = 9.36858 18.01890 13.69374
#
# Velocity S-wave (km/s) = 2.13679 2.96339 2.58337
# Velocity P-wave (km/s) = 3.58387 4.63181 4.14112
#
# Compressibility (1/GPa) = 0.07213445
#
# Stress axis : x y z
#
# Youngs Moduli (GPa) = 62.12491 41.79790 27.68232
#
# Poissons Ratio (x) = 0.05102 0.10352
# Poissons Ratio (y) = 0.07584 -0.08180
# Poissons Ratio (z) = 0.23233 -0.12351
#
# Static dielectric constant tensor:
#      x y z
#    x 1.770110 0.005420 0.053530 
#    y 0.005420 1.816690 -0.010910 
#    z 0.053530 -0.010910 1.746940 
# 
# From -- ./inp_files/556799.got.cif
#   From: 2010.05.17/outbox.cif.g08.bks.cpg/sg2_279_cif.got.tgz:556799.got - 2010.06.03 11:33:40.
