data_PCOD9098921
_publ_section_title
;
Structure prediction by ZEFSAII (Michael W. Deem and Ramdas Pophale) SiO2 
 PCOD9098921
Probable space group: P -1
;
_chemical_formula_sum "Si O2"
_cell_formula_units_Z 14
_cell_length_a 12.968642
_cell_length_b 12.303457
_cell_length_c 16.873921
_cell_angle_alpha 31.903516
_cell_angle_beta 32.675322
_cell_angle_gamma 54.223138
_cell_volume 683.878946
_symmetry_space_group_name_H-M "P -1"
_symmetry_group_IT_number 2
_symmetry_cell_setting 'triclinic'
loop_
_space_group_symop_operation_xyz
x,y,z
-x,-y,-z
loop_
_atom_site_type_symbol
_atom_site_label
_atom_site_fract_x
_atom_site_fract_y
_atom_site_fract_z
Si Si1 0.747336 0.070653 0.806561
Si Si2 0.311391 0.082480 0.486340
Si Si3 0.182351 0.200084 0.207113
Si Si4 0.508485 0.721746 0.903079
Si Si5 0.808754 0.319071 0.073534
Si Si6 0.026519 0.608434 0.247322
Si Si7 0.976163 0.734254 0.358228
O O1 0.812112 0.075925 0.853183
O O2 0.890923 0.331046 0.518071
O O3 0.801179 0.896950 0.828379
O O4 0.500000 0.000000 0.000000
O O5 0.324944 0.074696 0.387505
O O6 0.559807 0.194436 0.283137
O O7 0.208899 0.243420 0.486099
O O8 0.181688 0.838232 0.764426
O O9 0.398622 0.259873 0.081155
O O10 0.145425 0.424933 0.090377
O O11 0.000000 0.000000 0.500000
O O12 0.500000 0.500000 0.000000
O O13 0.271243 0.695443 0.065566
O O14 0.951604 0.332196 0.896269
O O15 0.938640 0.733854 0.288768
O O16 0.000000 0.500000 0.500000
#
# Coordination Sequence:
#
# PCOD9098921 Si02
#       7
#     2   2   2   2   2   2   2
#     4  11  23  35  56  92 119 150 199 253 300 338
#     4  10  21  38  60  92 120 150 206 244 293 353
#     4  12  21  36  61  90 122 156 197 246 301 348
#     4  11  18  35  62  84 116 152 202 245 279 354
#     4  10  22  37  60  92 121 157 192 249 300 350
#     4  10  20  37  58  85 118 157 202 242 294 347
#     4  10  21  36  60  86 114 154 201 245 288 350
#
# _framework density 20.471457999999998
#
# number of rings (size 3 to 8) (size 9 to 14) (size 15 to 20)
#    0.000    1.429    4.286    3.429    4.000    0.571 
#    0.000    2.857    0.000    0.857    0.000    0.000 
#    0.000    0.000    0.000    0.000    0.000    0.000 
#
# Total GULP energy -78127.573647 kJ/mol
# GULP energy per Si atom -5580.540975 kJ/mol
# Density = 2.042486 g / cm^3
# Si number density = 20.471458 Si / 1000 Ang^3
#
#
#
# Elastic Constant Matrix: (Units=GPa)
#
#
# Indices 1 2 3 4 5 6 
#
# 1 55.1711 22.5068 25.6550 -8.2582 5.9497 18.6685
# 2 22.5068 87.0728 29.0937 2.1702 10.1612 28.3191
# 3 25.6550 29.0937 101.2728 -2.3310 16.9595 7.3867
# 4 -8.2582 2.1702 -2.3310 32.1658 -2.7149 -5.2496
# 5 5.9497 10.1612 16.9595 -2.7149 37.5613 3.1125
# 6 18.6685 28.3191 7.3867 -5.2496 3.1125 37.4781
#
#
#
# Elastic Compliance Matrix: (Units=1/GPa)
#
#
# Indices 1 2 3 4 5 6 
#
# 1 0.025124 -0.001840 -0.005022 0.004656 -0.000093 -0.009475
# 2 -0.001840 0.017300 -0.003366 -0.004005 -0.002174 -0.011873
# 3 -0.005022 -0.003366 0.012609 -0.000031 -0.004230 0.002907
# 4 0.004656 -0.004005 -0.000031 0.033604 0.002356 0.005224
# 5 -0.000093 -0.002174 -0.004230 0.002356 0.029271 0.000422
# 6 -0.009475 -0.011873 0.002907 0.005224 0.000422 0.040497
#
#
# Mechanical properties :
#
#
# Convention : Reuss Voigt Hill
#
# Bulk Modulus (GPa) = 28.92060 44.22530 36.57295
# Shear Modulus (GPa) = 26.26228 32.52514 29.39371
#
# Velocity S-wave (km/s) = 3.58561 3.99030 3.79336
# Velocity P-wave (km/s) = 5.59465 6.54831 6.09017
#
# Compressibility (1/GPa) = 0.03457743
#
# Stress axis : x y z
#
# Youngs Moduli (GPa) = 39.80184 57.80428 79.30687
#
# Poissons Ratio (x) = 0.10635 0.39831
# Poissons Ratio (y) = 0.07323 0.26694
# Poissons Ratio (z) = 0.19990 0.19456
#
# Static dielectric constant tensor:
#      x y z
#    x 1.793200 0.009260 0.036230 
#    y 0.009260 1.738160 0.027280 
#    z 0.036230 0.027280 1.789500 
# 
# From -- ./inp_files/154268.got.cif
#   From: 2010.05.17/outbox.cif.g08.bks.cpg/sg2_78_cif.got.tgz:154268.got - 2010.06.03 11:33:40.
