data_PCOD9098715
_publ_section_title
;
Structure prediction by ZEFSAII (Michael W. Deem and Ramdas Pophale) SiO2 
 PCOD9098715
Probable space group: P -1
;
_chemical_formula_sum "Si O2"
_cell_formula_units_Z 16
_cell_length_a 18.382195
_cell_length_b 13.258390
_cell_length_c 12.426649
_cell_angle_alpha 131.188665
_cell_angle_beta 151.812683
_cell_angle_gamma 37.792787
_cell_volume 869.091069
_symmetry_space_group_name_H-M "P -1"
_symmetry_group_IT_number 2
_symmetry_cell_setting 'triclinic'
loop_
_space_group_symop_operation_xyz
x,y,z
-x,-y,-z
loop_
_atom_site_type_symbol
_atom_site_label
_atom_site_fract_x
_atom_site_fract_y
_atom_site_fract_z
Si Si1 0.676336 0.337043 0.060464
Si Si2 0.538266 0.778428 0.966711
Si Si3 0.174655 0.941735 0.765370
Si Si4 0.529141 0.159666 0.639076
Si Si5 0.122832 0.070318 0.227032
Si Si6 0.333300 0.097928 0.184046
Si Si7 0.602179 0.041357 0.304299
Si Si8 0.888442 0.431757 0.253999
O O1 0.793815 0.186426 0.192338
O O2 0.811288 0.374934 0.207318
O O3 0.500000 0.500000 0.000000
O O4 0.576179 0.289362 0.810496
O O5 0.368385 0.846348 0.879167
O O6 0.449261 0.833390 0.770804
O O7 0.703051 0.585796 0.060948
O O8 0.630069 0.878185 0.177894
O O9 0.000000 0.000000 0.500000
O O10 0.160864 0.094232 0.914210
O O11 0.342449 0.210886 0.364804
O O12 0.710479 0.015316 0.704628
O O13 0.538856 0.080953 0.712115
O O14 0.012043 0.268658 0.225620
O O15 0.220040 0.007904 0.426953
O O16 0.000000 0.000000 0.000000
O O17 0.431146 0.110077 0.215170
O O18 0.000000 0.500000 0.500000
#
# Coordination Sequence:
#
# PCOD9098715 Si02
#       8
#     2   2   2   2   2   2   2   2
#     4  11  22  38  61  89 121 155 203 260 306 351
#     4  10  20  37  56  86 123 158 198 250 303 356
#     4  10  21  34  58  88 118 155 204 246 300 360
#     4   9  18  34  60  84 115 155 201 245 295 364
#     4  11  21  36  59  88 117 158 202 243 298 363
#     4   8  17  33  57  82 108 149 198 241 289 350
#     4   9  19  34  59  84 117 156 198 244 297 362
#     4  12  24  37  60  92 127 156 204 258 305 351
#
# _framework density 18.410039000000001
#
# number of rings (size 3 to 8) (size 9 to 14) (size 15 to 20)
#    0.000    2.000    3.750    0.000    1.750    2.000 
#    0.000    0.625    0.000    1.500    0.000    0.000 
#    0.000    0.000    0.000    0.000    0.000    0.000 
#
# Total GULP energy -89128.502777 kJ/mol
# GULP energy per Si atom -5570.531424 kJ/mol
# Density = 1.836814 g / cm^3
# Si number density = 18.410039 Si / 1000 Ang^3
#
#
#
# Elastic Constant Matrix: (Units=GPa)
#
#
# Indices 1 2 3 4 5 6 
#
# 1 79.9934 35.1894 17.2158 1.8626 -5.2251 13.7688
# 2 35.1894 98.6104 53.7481 6.6983 -1.4026 -2.0434
# 3 17.2158 53.7481 153.5393 19.5385 -8.6257 9.3699
# 4 1.8626 6.6983 19.5385 33.0617 8.6120 -2.6228
# 5 -5.2251 -1.4026 -8.6257 8.6120 29.6579 -0.3667
# 6 13.7688 -2.0434 9.3699 -2.6228 -0.3667 36.8231
#
#
#
# Elastic Compliance Matrix: (Units=1/GPa)
#
#
# Indices 1 2 3 4 5 6 
#
# 1 0.016598 -0.006606 0.001302 -0.001815 0.003431 -0.006999
# 2 -0.006606 0.015309 -0.005201 0.001310 -0.002275 0.004714
# 3 0.001302 -0.005201 0.009420 -0.006022 0.004428 -0.003557
# 4 -0.001815 0.001310 -0.006022 0.037358 -0.012798 0.004817
# 5 0.003431 -0.002275 0.004428 -0.012798 0.039181 -0.003057
# 6 -0.006999 0.004714 -0.003557 0.004817 -0.003057 0.031253
#
#
# Mechanical properties :
#
#
# Convention : Reuss Voigt Hill
#
# Bulk Modulus (GPa) = 49.21642 60.49441 54.85541
# Shear Modulus (GPa) = 28.26463 34.97453 31.61958
#
# Velocity S-wave (km/s) = 3.92252 4.36334 4.14879
# Velocity P-wave (km/s) = 6.87796 7.63648 7.26713
#
# Compressibility (1/GPa) = 0.02031842
#
# Stress axis : x y z
#
# Youngs Moduli (GPa) = 60.24916 65.32060 106.16083
#
# Poissons Ratio (x) = 0.43149 -0.13825
# Poissons Ratio (y) = 0.39799 0.55210
# Poissons Ratio (z) = -0.07846 0.33971
#
# Static dielectric constant tensor:
#      x y z
#    x 1.660000 -0.016720 0.005870 
#    y -0.016720 1.642340 0.030360 
#    z 0.005870 0.030360 1.685930 
# 
# From -- ./inp_files/278098.got.cif
#   From: 2010.05.17/outbox.cif.g08.bks.cpg/sg2_140_cif.got.tgz:278098.got - 2010.06.03 11:33:40.
