data_PCOD9098319
_publ_section_title
;
Structure prediction by ZEFSAII (Michael W. Deem and Ramdas Pophale) SiO2 
 PCOD9098319
Probable space group: P -1
;
_chemical_formula_sum "Si O2"
_cell_formula_units_Z 16
_cell_length_a 10.173540
_cell_length_b 18.721858
_cell_length_c 13.595724
_cell_angle_alpha 145.398842
_cell_angle_beta 50.143161
_cell_angle_gamma 149.809603
_cell_volume 716.519141
_symmetry_space_group_name_H-M "P -1"
_symmetry_group_IT_number 2
_symmetry_cell_setting 'triclinic'
loop_
_space_group_symop_operation_xyz
x,y,z
-x,-y,-z
loop_
_atom_site_type_symbol
_atom_site_label
_atom_site_fract_x
_atom_site_fract_y
_atom_site_fract_z
Si Si1 0.326633 0.157381 0.020819
Si Si2 0.435711 0.989058 0.905999
Si Si3 0.472284 0.851307 0.564311
Si Si4 0.607545 0.541550 0.237722
Si Si5 0.186566 0.334635 0.928979
Si Si6 0.966038 0.040093 0.404252
Si Si7 0.870830 0.583781 0.756633
Si Si8 0.689478 0.036431 0.369537
O O1 0.399303 0.110878 0.026277
O O2 0.403236 0.122916 0.845075
O O3 0.525948 0.389780 0.183150
O O4 0.000000 0.000000 0.000000
O O5 0.604224 0.008724 0.766474
O O6 0.147618 0.758825 0.768137
O O7 0.500000 0.000000 0.000000
O O8 0.299133 0.634400 0.432131
O O9 0.271959 0.825959 0.567554
O O10 0.718027 0.939353 0.479998
O O11 0.791985 0.612065 0.134516
O O12 0.319389 0.411582 0.182172
O O13 0.758032 0.747212 0.444563
O O14 0.055303 0.122984 0.773170
O O15 0.500000 0.500000 0.000000
O O16 0.075937 0.373255 0.103092
O O17 0.909145 0.084599 0.381583
O O18 0.500000 0.000000 0.500000
#
# Coordination Sequence:
#
# PCOD9098319 Si02
#       8
#     2   2   2   2   2   2   2   2
#     4  11  23  46  69  94 136 181 228 274 340 401
#     4  11  26  44  67  95 132 181 224 275 332 407
#     4  10  22  41  63  92 135 174 215 267 340 401
#     4  11  23  37  65  99 132 168 222 283 334 386
#     4  10  20  36  64  98 125 169 213 270 332 386
#     4  11  21  38  64 103 131 164 223 278 330 400
#     4  11  22  40  66  94 131 178 219 269 339 398
#     4   9  21  40  65  91 132 180 216 269 340 402
#
# _framework density 22.330176999999999
#
# number of rings (size 3 to 8) (size 9 to 14) (size 15 to 20)
#    0.000    1.500    3.750    2.250    3.500    1.000 
#    0.000    6.250    0.000    0.000    0.000    0.000 
#    0.000    0.000    0.000    0.000    0.000    0.000 
#
# Total GULP energy -89185.052083 kJ/mol
# GULP energy per Si atom -5574.065755 kJ/mol
# Density = 2.227935 g / cm^3
# Si number density = 22.330177 Si / 1000 Ang^3
#
#
#
# Elastic Constant Matrix: (Units=GPa)
#
#
# Indices 1 2 3 4 5 6 
#
# 1 124.1456 33.1943 28.3121 3.3632 -2.3753 -30.6866
# 2 33.1943 75.5236 33.1508 15.2979 -3.4447 -8.7321
# 3 28.3121 33.1508 84.3075 14.7261 -10.0904 -13.4078
# 4 3.3632 15.2979 14.7261 39.7061 -6.6203 0.6968
# 5 -2.3753 -3.4447 -10.0904 -6.6203 30.6040 -1.6302
# 6 -30.6866 -8.7321 -13.4078 0.6968 -1.6302 33.7968
#
#
#
# Elastic Compliance Matrix: (Units=1/GPa)
#
#
# Indices 1 2 3 4 5 6 
#
# 1 0.011523 -0.003690 -0.001009 0.000794 0.000804 0.009131
# 2 -0.003690 0.018012 -0.005241 -0.004850 -0.001075 -0.000727
# 3 -0.001009 -0.005241 0.016011 -0.003218 0.004146 0.004348
# 4 0.000794 -0.004850 -0.003218 0.028987 0.004609 -0.002185
# 5 0.000804 -0.001075 0.004146 0.004609 0.035178 0.003699
# 6 0.009131 -0.000727 0.004348 -0.002185 0.003699 0.039640
#
#
# Mechanical properties :
#
#
# Convention : Reuss Voigt Hill
#
# Bulk Modulus (GPa) = 38.96081 52.58790 45.77436
# Shear Modulus (GPa) = 28.12384 33.44269 30.78326
#
# Velocity S-wave (km/s) = 3.55273 3.87414 3.71691
# Velocity P-wave (km/s) = 5.85787 6.60403 6.24211
#
# Compressibility (1/GPa) = 0.02566681
#
# Stress axis : x y z
#
# Youngs Moduli (GPa) = 86.78516 55.51731 62.45819
#
# Poissons Ratio (x) = 0.20486 0.06301
# Poissons Ratio (y) = 0.32024 0.32733
# Poissons Ratio (z) = 0.08755 0.29095
#
# Static dielectric constant tensor:
#      x y z
#    x 1.880720 0.023980 0.020860 
#    y 0.023980 1.951560 -0.080110 
#    z 0.020860 -0.080110 1.857140 
# 
# From -- ./inp_files/524092.got.cif
#   From: 2010.05.17/outbox.cif.g08.bks.cpg/sg2_263_cif.got.tgz:524092.got - 2010.06.03 11:33:40.
