data_PCOD9098204
_publ_section_title
;
Structure prediction by ZEFSAII (Michael W. Deem and Ramdas Pophale) SiO2 
 PCOD9098204
Probable space group: P -1
;
_chemical_formula_sum "Si O2"
_cell_formula_units_Z 15
_cell_length_a 13.320539
_cell_length_b 20.641454
_cell_length_c 5.186165
_cell_angle_alpha 90.942752
_cell_angle_beta 88.327553
_cell_angle_gamma 156.428930
_cell_volume 569.791190
_symmetry_space_group_name_H-M "P -1"
_symmetry_group_IT_number 2
_symmetry_cell_setting 'triclinic'
loop_
_space_group_symop_operation_xyz
x,y,z
-x,-y,-z
loop_
_atom_site_type_symbol
_atom_site_label
_atom_site_fract_x
_atom_site_fract_y
_atom_site_fract_z
Si Si1 0.500000 0.500000 0.500000
Si Si2 0.302300 0.927859 0.150353
Si Si3 0.265426 0.667789 0.353983
Si Si4 0.254032 0.246372 0.832686
Si Si5 0.264737 0.548358 0.051080
Si Si6 0.054212 0.227515 0.233568
Si Si7 0.269735 0.045118 0.373632
Si Si8 0.054329 0.675535 0.433585
O O1 0.360133 0.349540 0.592079
O O2 0.229614 0.368632 0.426184
O O3 0.207063 0.832558 0.400517
O O4 0.372582 0.043718 0.209245
O O5 0.069278 0.799955 0.968314
O O6 0.500000 0.000000 0.000000
O O7 0.272036 0.630725 0.089199
O O8 0.495570 0.777932 0.518943
O O9 0.000000 0.500000 0.500000
O O10 0.263745 0.744260 0.349166
O O11 0.454443 0.311790 0.906797
O O12 0.247706 0.297211 0.060353
O O13 0.961246 0.057760 0.770669
O O14 0.076029 0.415343 0.288833
O O15 0.151852 0.456464 0.786048
O O16 0.859465 0.065196 0.375417
#
# Coordination Sequence:
#
# PCOD9098204 Si02
#       8
#     1   2   2   2   2   2   2   2
#     4  10  20  36  64  88 144 174 222 272 346 412
#     4  11  25  40  68 101 140 180 228 292 357 425
#     4  10  24  49  72  96 136 186 241 294 347 411
#     4  10  23  39  65  99 139 180 233 280 350 416
#     4  11  26  45  73 103 139 189 238 286 343 419
#     4  10  22  39  60 102 138 180 221 283 352 416
#     4  10  24  45  68 100 141 181 230 292 357 414
#     4  11  26  44  72 104 143 178 240 290 355 413
#
# _framework density 26.325431999999999
#
# number of rings (size 3 to 8) (size 9 to 14) (size 15 to 20)
#    0.000    1.600    0.000    2.400   14.933    1.600 
#    9.600    0.667    0.000    0.000    0.000    0.000 
#    0.000    0.000    0.000    0.000    0.000    0.000 
#
# Total GULP energy -83729.068667 kJ/mol
# GULP energy per Si atom -5581.937911 kJ/mol
# Density = 2.626551 g / cm^3
# Si number density = 26.325432 Si / 1000 Ang^3
#
#
#
# Elastic Constant Matrix: (Units=GPa)
#
#
# Indices 1 2 3 4 5 6 
#
# 1 88.9722 -12.3603 21.3754 -54.5175 -34.2700 48.7379
# 2 -12.3603 8.6578 85.0115 -227.6458 -90.5767 93.5851
# 3 21.3754 85.0115 57.1061 141.5763 49.0377 -36.1295
# 4 -54.5175 -227.6458 141.5763 -491.7610 -190.6490 159.4519
# 5 -34.2700 -90.5767 49.0377 -190.6490 -36.7406 57.2926
# 6 48.7379 93.5851 -36.1295 159.4519 57.2926 -11.7104
#
#
#
# Elastic Compliance Matrix: (Units=1/GPa)
#
#
# Indices 1 2 3 4 5 6 
#
# 1 0.014658 0.000289 0.000443 -0.006775 0.003905 -0.011194
# 2 0.000289 0.009809 -0.001503 -0.006498 -0.000096 -0.004718
# 3 0.000443 -0.001503 0.010788 0.002497 0.001509 -0.002068
# 4 -0.006775 -0.006498 0.002497 0.011500 -0.011044 0.014722
# 5 0.003905 -0.000096 0.001509 -0.011044 0.028498 -0.000130
# 6 -0.011194 -0.004718 -0.002068 0.014722 -0.000130 0.036523
#
#
# Mechanical properties :
#
#
# Convention : Reuss Voigt Hill
#
# Bulk Modulus (GPa) = 29.66075 38.08770 33.87422
# Shear Modulus (GPa) = 40.14306 -103.99511 -31.92603
#
# Velocity S-wave (km/s) = 3.90920 -6.29201 -3.48623
# Velocity P-wave (km/s) = 5.62737 6.18761 1.81923
#
# Compressibility (1/GPa) = 0.03371459
#
# Stress axis : x y z
#
# Youngs Moduli (GPa) = 68.22225 101.94884 92.69402
#
# Poissons Ratio (x) = -0.02951 -0.04109
# Poissons Ratio (y) = -0.01975 0.13932
# Poissons Ratio (z) = -0.03024 0.15323
#
# Static dielectric constant tensor:
#      x y z
#    x 2.201130 -0.020370 -0.011780 
#    y -0.020370 2.088240 0.059480 
#    z -0.011780 0.059480 2.157670 
# 
# From -- ./inp_files/101168.got.cif
#   From: 2010.05.17/outbox.cif.g08.bks.cpg/sg2_51_cif.got.tgz:101168.got - 2010.06.03 11:33:40.
