data_PCOD9098267
_publ_section_title
;
Structure prediction by ZEFSAII (Michael W. Deem and Ramdas Pophale) SiO2 
 PCOD9098267
Probable space group: P -1
;
_chemical_formula_sum "Si O2"
_cell_formula_units_Z 16
_cell_length_a 7.804349
_cell_length_b 8.883944
_cell_length_c 11.009742
_cell_angle_alpha 117.066386
_cell_angle_beta 94.444471
_cell_angle_gamma 105.663095
_cell_volume 636.382768
_symmetry_space_group_name_H-M "P -1"
_symmetry_group_IT_number 2
_symmetry_cell_setting 'triclinic'
loop_
_space_group_symop_operation_xyz
x,y,z
-x,-y,-z
loop_
_atom_site_type_symbol
_atom_site_label
_atom_site_fract_x
_atom_site_fract_y
_atom_site_fract_z
Si Si1 0.848996 0.380702 0.538956
Si Si2 0.043518 0.120658 0.429892
Si Si3 0.194765 0.950381 0.174631
Si Si4 0.702828 0.028439 0.074728
Si Si5 0.375014 0.363620 0.683603
Si Si6 0.573455 0.275803 0.304092
Si Si7 0.234440 0.614178 0.198373
Si Si8 0.698526 0.659396 0.064739
O O1 0.654525 0.367320 0.469505
O O2 0.876018 0.432548 0.699356
O O3 0.000000 0.500000 0.500000
O O4 0.876282 0.192157 0.455315
O O5 0.241684 0.266915 0.530583
O O6 0.060111 0.026413 0.270426
O O7 0.000000 0.000000 0.500000
O O8 0.203706 0.772801 0.176825
O O9 0.167023 0.928627 0.020371
O O10 0.390631 0.109694 0.255445
O O11 0.693109 0.844181 0.074109
O O12 0.500000 0.000000 0.000000
O O13 0.721426 0.198010 0.223329
O O14 0.450465 0.575269 0.732765
O O15 0.552614 0.314863 0.715692
O O16 0.250718 0.322901 0.784107
O O17 0.194382 0.436104 0.049216
O O18 0.500000 0.500000 0.000000
#
# Coordination Sequence:
#
# PCOD9098267 Si02
#       8
#     2   2   2   2   2   2   2   2
#     4  12  27  44  63  90 128 169 209 256 312 369
#     4  12  27  44  63  90 128 169 209 256 312 369
#     4  11  23  41  67  94 125 163 210 257 308 371
#     4  10  20  36  64  94 124 157 205 262 307 363
#     4  11  23  41  67  94 125 164 208 258 310 368
#     4  11  23  41  67  94 125 163 210 257 308 371
#     4  11  23  41  67  94 125 164 208 258 310 368
#     4  10  20  36  64  94 124 156 207 260 309 364
#
# _framework density 25.142101
#
# number of rings (size 3 to 8) (size 9 to 14) (size 15 to 20)
#    0.000    1.000    2.500    7.500    7.000    2.000 
#    0.000    2.500    0.000    0.000    0.000    0.000 
#    0.000    0.000    0.000    0.000    0.000    0.000 
#
# Total GULP energy -89495.369166 kJ/mol
# GULP energy per Si atom -5593.460573 kJ/mol
# Density = 2.508488 g / cm^3
# Si number density = 25.142101 Si / 1000 Ang^3
#
#
#
# Elastic Constant Matrix: (Units=GPa)
#
#
# Indices 1 2 3 4 5 6 
#
# 1 64.6697 19.2442 17.2620 -0.6961 4.6508 5.3507
# 2 19.2442 176.6462 37.9039 -16.7024 -12.3240 -8.4956
# 3 17.2620 37.9039 132.5900 -26.0229 -31.9328 -8.3003
# 4 -0.6961 -16.7024 -26.0229 38.5176 5.0223 -4.3998
# 5 4.6508 -12.3240 -31.9328 5.0223 51.1543 -1.0116
# 6 5.3507 -8.4956 -8.3003 -4.3998 -1.0116 39.4667
#
#
#
# Elastic Compliance Matrix: (Units=1/GPa)
#
#
# Indices 1 2 3 4 5 6 
#
# 1 0.017553 -0.001895 -0.003516 -0.002802 -0.004050 -0.003943
# 2 -0.001895 0.006407 -0.000776 0.002284 0.001042 0.001754
# 3 -0.003516 -0.000776 0.011394 0.006847 0.006645 0.003639
# 4 -0.002802 0.002284 0.006847 0.031936 0.002061 0.005925
# 5 -0.004050 0.001042 0.006645 0.002061 0.024173 0.003020
# 6 -0.003943 0.001754 0.003639 0.005925 0.003020 0.027753
#
#
# Mechanical properties :
#
#
# Convention : Reuss Voigt Hill
#
# Bulk Modulus (GPa) = 43.51504 58.08068 50.79786
# Shear Modulus (GPa) = 35.90685 45.79410 40.85048
#
# Velocity S-wave (km/s) = 3.78320 4.27243 4.03523
# Velocity P-wave (km/s) = 6.03561 6.89125 6.47757
#
# Compressibility (1/GPa) = 0.02298056
#
# Stress axis : x y z
#
# Youngs Moduli (GPa) = 56.97069 156.07918 87.76927
#
# Poissons Ratio (x) = 0.29577 0.30857
# Poissons Ratio (y) = 0.10796 0.06809
# Poissons Ratio (z) = 0.20029 0.12108
#
# Static dielectric constant tensor:
#      x y z
#    x 1.962860 0.090320 -0.046180 
#    y 0.090320 1.887400 0.042240 
#    z -0.046180 0.042240 2.106640 
# 
# From -- ./inp_files/380310.got.cif
#   From: 2010.05.17/outbox.cif.g08.bks.cpg/sg2_191_cif.got.tgz:380310.got - 2010.06.03 11:33:40.
