data_PCOD9098564
_publ_section_title
;
Structure prediction by ZEFSAII (Michael W. Deem and Ramdas Pophale) SiO2 
 PCOD9098564
Probable space group: P -1
;
_chemical_formula_sum "Si O2"
_cell_formula_units_Z 14
_cell_length_a 11.182821
_cell_length_b 15.573684
_cell_length_c 20.303471
_cell_angle_alpha 20.655625
_cell_angle_beta 149.241576
_cell_angle_gamma 138.217824
_cell_volume 603.548427
_symmetry_space_group_name_H-M "P -1"
_symmetry_group_IT_number 2
_symmetry_cell_setting 'triclinic'
loop_
_space_group_symop_operation_xyz
x,y,z
-x,-y,-z
loop_
_atom_site_type_symbol
_atom_site_label
_atom_site_fract_x
_atom_site_fract_y
_atom_site_fract_z
Si Si1 0.227392 0.079698 0.398424
Si Si2 0.072068 0.259896 0.853423
Si Si3 0.465878 0.370547 0.645464
Si Si4 0.679499 0.665558 0.947940
Si Si5 0.763472 0.432948 0.866817
Si Si6 0.528570 0.860818 0.976344
Si Si7 0.057857 0.163852 0.467807
O O1 0.234100 0.292179 0.303583
O O2 0.508539 0.895476 0.656974
O O3 0.075001 0.904457 0.481864
O O4 0.044740 0.239953 0.141148
O O5 0.824490 0.504137 0.566191
O O6 0.232680 0.241333 0.009187
O O7 0.227243 0.279205 0.848418
O O8 0.000000 0.000000 0.000000
O O9 0.500000 0.500000 0.500000
O O10 0.622050 0.439098 0.727942
O O11 0.554542 0.062735 0.898269
O O12 0.500000 0.500000 0.000000
O O13 0.923575 0.463471 0.177424
O O14 0.606072 0.327411 0.921673
O O15 0.344548 0.051519 0.699816
O O16 0.000000 0.000000 0.500000
#
# Coordination Sequence:
#
# PCOD9098564 Si02
#       7
#     2   2   2   2   2   2   2
#     4   9  20  40  69  95 138 184 221 289 348 404
#     4  12  24  41  70 105 141 176 238 291 342 418
#     4  12  25  43  71 100 135 184 238 286 344 418
#     4  10  20  38  67 104 133 175 239 289 335 411
#     4  10  23  43  68 100 147 180 230 284 355 424
#     4  11  23  43  66 103 137 188 224 283 360 407
#     4  10  20  36  69 102 134 180 233 291 343 407
#
# _framework density 23.196149999999999
#
# number of rings (size 3 to 8) (size 9 to 14) (size 15 to 20)
#    0.000    1.429    2.857    3.000    2.000    0.571 
#    0.000    0.000    6.286    6.857    0.000    0.000 
#    0.000    0.000    0.000    0.000    0.000    0.000 
#
# Total GULP energy -78306.881074 kJ/mol
# GULP energy per Si atom -5593.348648 kJ/mol
# Density = 2.314335 g / cm^3
# Si number density = 23.196150 Si / 1000 Ang^3
#
#
#
# Elastic Constant Matrix: (Units=GPa)
#
#
# Indices 1 2 3 4 5 6 
#
# 1 98.7693 31.0785 60.7596 12.3427 18.7837 2.8899
# 2 31.0785 131.3505 27.0876 18.1116 -7.3397 -4.4215
# 3 60.7596 27.0876 134.8719 18.6098 13.6210 -0.1662
# 4 12.3427 18.1116 18.6098 42.6022 0.5667 -7.5168
# 5 18.7837 -7.3397 13.6210 0.5667 40.9068 6.3725
# 6 2.8899 -4.4215 -0.1662 -7.5168 6.3725 26.1042
#
#
#
# Elastic Compliance Matrix: (Units=1/GPa)
#
#
# Indices 1 2 3 4 5 6 
#
# 1 0.015830 -0.002751 -0.005879 -0.000980 -0.005609 -0.001169
# 2 -0.002751 0.008923 -0.000474 -0.002781 0.003017 0.000275
# 3 -0.005879 -0.000474 0.010622 -0.002710 -0.000897 0.000077
# 4 -0.000980 -0.002781 -0.002710 0.027494 -0.000729 0.007715
# 5 -0.005609 0.003017 -0.000897 -0.000729 0.028825 -0.006120
# 6 -0.001169 0.000275 0.000077 0.007715 -0.006120 0.042200
#
#
# Mechanical properties :
#
#
# Convention : Reuss Voigt Hill
#
# Bulk Modulus (GPa) = 58.24175 66.98255 62.61215
# Shear Modulus (GPa) = 31.68080 38.32704 35.00392
#
# Velocity S-wave (km/s) = 3.69965 4.06926 3.88885
# Velocity P-wave (km/s) = 6.58884 7.14267 6.87134
#
# Compressibility (1/GPa) = 0.01716981
#
# Stress axis : x y z
#
# Youngs Moduli (GPa) = 63.17144 112.06866 94.13990
#
# Poissons Ratio (x) = 0.30828 0.55341
# Poissons Ratio (y) = 0.17377 0.04458
# Poissons Ratio (z) = 0.37136 0.05307
#
# Static dielectric constant tensor:
#      x y z
#    x 1.898080 0.011190 0.026520 
#    y 0.011190 1.826910 0.004000 
#    z 0.026520 0.004000 1.924460 
# 
# From -- ./inp_files/595583.got.cif
#   From: 2010.05.17/outbox.cif.g08.bks.cpg/sg2_298_cif.got.tgz:595583.got - 2010.06.03 11:33:40.
