data_PCOD9098671
_publ_section_title
;
Structure prediction by ZEFSAII (Michael W. Deem and Ramdas Pophale) SiO2 
 PCOD9098671
Probable space group: P -1
;
_chemical_formula_sum "Si O2"
_cell_formula_units_Z 16
_cell_length_a 9.135248
_cell_length_b 8.477688
_cell_length_c 20.663682
_cell_angle_alpha 114.355121
_cell_angle_beta 142.215521
_cell_angle_gamma 48.040955
_cell_volume 705.088775
_symmetry_space_group_name_H-M "P -1"
_symmetry_group_IT_number 2
_symmetry_cell_setting 'triclinic'
loop_
_space_group_symop_operation_xyz
x,y,z
-x,-y,-z
loop_
_atom_site_type_symbol
_atom_site_label
_atom_site_fract_x
_atom_site_fract_y
_atom_site_fract_z
Si Si1 0.573029 0.172782 0.227397
Si Si2 0.679938 0.965689 0.992161
Si Si3 0.844068 0.509405 0.603521
Si Si4 0.234810 0.715968 0.356837
Si Si5 0.396272 0.070892 0.694823
Si Si6 0.350188 0.789662 0.083209
Si Si7 0.170283 0.896523 0.230737
Si Si8 0.709010 0.369216 0.209460
O O1 0.581058 0.359841 0.231660
O O2 0.512256 0.152753 0.278136
O O3 0.367130 0.157666 0.100973
O O4 0.917561 0.949572 0.302132
O O5 0.023356 0.850819 0.113952
O O6 0.500000 0.000000 0.000000
O O7 0.554424 0.195694 0.952828
O O8 0.520465 0.674064 0.485303
O O9 0.793904 0.459881 0.650301
O O10 0.040687 0.270407 0.595545
O O11 0.040219 0.594905 0.684571
O O12 0.275768 0.726883 0.296934
O O13 0.481777 0.158541 0.799504
O O14 0.587566 0.069723 0.703606
O O15 0.456552 0.555899 0.104194
O O16 0.000000 0.000000 0.000000
O O17 0.886926 0.133695 0.198323
#
# Coordination Sequence:
#
# PCOD9098671 Si02
#       8
#     2   2   2   2   2   2   2   2
#     4   9  19  35  55  80 116 149 186 221 274 326
#     4  11  19  35  55  79 113 153 174 225 272 327
#     4   9  19  37  60  79 109 145 190 224 273 336
#     4   9  18  35  60  82 103 151 187 223 274 336
#     4   9  19  37  55  77 113 151 179 224 276 331
#     4  10  20  37  56  72 109 150 182 216 277 329
#     4  11  21  34  57  84 114 143 187 229 275 315
#     4  10  21  35  56  85 106 140 191 233 265 328
#
# _framework density 22.692177000000001
#
# number of rings (size 3 to 8) (size 9 to 14) (size 15 to 20)
#    0.000    2.250    3.750    0.750    0.000    3.000 
#    0.000    6.250    0.000    7.500    0.000    0.000 
#    0.000    0.000    0.000    0.000    0.000    0.000 
#
# Total GULP energy -89178.237011 kJ/mol
# GULP energy per Si atom -5573.639813 kJ/mol
# Density = 2.264053 g / cm^3
# Si number density = 22.692177 Si / 1000 Ang^3
#
#
#
# Elastic Constant Matrix: (Units=GPa)
#
#
# Indices 1 2 3 4 5 6 
#
# 1 142.6962 37.7371 28.9693 -14.3499 -8.7890 36.0857
# 2 37.7371 57.3853 41.0295 -11.0446 -2.0466 16.6924
# 3 28.9693 41.0295 99.3529 -26.5188 3.6965 21.5742
# 4 -14.3499 -11.0446 -26.5188 20.6410 11.0045 1.1244
# 5 -8.7890 -2.0466 3.6965 11.0045 33.0754 -3.7551
# 6 36.0857 16.6924 21.5742 1.1244 -3.7551 46.0034
#
#
#
# Elastic Compliance Matrix: (Units=1/GPa)
#
#
# Indices 1 2 3 4 5 6 
#
# 1 0.010993 -0.005454 0.004728 0.013116 -0.003382 -0.009458
# 2 -0.005454 0.028523 -0.011716 -0.005383 0.003397 -0.000168
# 3 0.004728 -0.011716 0.031209 0.049416 -0.021332 -0.017043
# 4 0.013116 -0.005383 0.049416 0.150762 -0.057055 -0.039852
# 5 -0.003382 0.003397 -0.021332 -0.057055 0.052857 0.017134
# 6 -0.009458 -0.000168 -0.017043 -0.039852 0.017134 0.039582
#
#
# Mechanical properties :
#
#
# Convention : Reuss Voigt Hill
#
# Bulk Modulus (GPa) = 21.81467 57.21180 39.51324
# Shear Modulus (GPa) = 14.12065 32.72387 23.42226
#
# Velocity S-wave (km/s) = 2.49724 3.80159 3.21623
# Velocity P-wave (km/s) = 4.23664 6.67355 5.58952
#
# Compressibility (1/GPa) = 0.04584071
#
# Stress axis : x y z
#
# Youngs Moduli (GPa) = 90.96735 35.05901 32.04209
#
# Poissons Ratio (x) = 0.19123 -0.15148
# Poissons Ratio (y) = 0.49617 0.37539
# Poissons Ratio (z) = -0.43006 0.41073
#
# Static dielectric constant tensor:
#      x y z
#    x 1.988030 0.024920 0.006570 
#    y 0.024920 1.948350 -0.009710 
#    z 0.006570 -0.009710 1.837420 
# 
# From -- ./inp_files/214474.got.cif
#   From: 2010.05.17/outbox.cif.g08.bks.cpg/sg2_108_cif.got.tgz:214474.got - 2010.06.03 11:33:40.
