data_PCOD9098545
_publ_section_title
;
Structure prediction by ZEFSAII (Michael W. Deem and Ramdas Pophale) SiO2 
 PCOD9098545
Probable space group: P -1
;
_chemical_formula_sum "Si O2"
_cell_formula_units_Z 14
_cell_length_a 8.941777
_cell_length_b 17.543438
_cell_length_c 11.664077
_cell_angle_alpha 136.202553
_cell_angle_beta 38.246880
_cell_angle_gamma 106.749432
_cell_volume 595.474988
_symmetry_space_group_name_H-M "P -1"
_symmetry_group_IT_number 2
_symmetry_cell_setting 'triclinic'
loop_
_space_group_symop_operation_xyz
x,y,z
-x,-y,-z
loop_
_atom_site_type_symbol
_atom_site_label
_atom_site_fract_x
_atom_site_fract_y
_atom_site_fract_z
Si Si1 0.866096 0.505396 0.844507
Si Si2 0.297839 0.045702 0.558313
Si Si3 0.504167 0.035914 0.185932
Si Si4 0.354989 0.507012 0.268967
Si Si5 0.772693 0.177641 0.742115
Si Si6 0.179468 0.627561 0.760822
Si Si7 0.549249 0.802253 0.807016
O O1 0.884832 0.462652 0.652881
O O2 0.904107 0.623752 0.959036
O O3 0.170775 0.363982 0.569804
O O4 0.559106 0.542779 0.125561
O O5 0.500209 0.042962 0.331298
O O6 0.500000 0.000000 0.500000
O O7 0.257117 0.929001 0.423110
O O8 0.966374 0.209695 0.952247
O O9 0.589329 0.112865 0.137994
O O10 0.134953 0.110685 0.464056
O O11 0.694061 0.872565 0.851099
O O12 0.232419 0.588972 0.552451
O O13 0.573142 0.335890 0.979361
O O14 0.643613 0.188668 0.959228
O O15 0.500000 0.500000 0.500000
#
# Coordination Sequence:
#
# PCOD9098545 Si02
#       7
#     2   2   2   2   2   2   2
#     4  11  24  42  71  95 133 173 234 277 326 397
#     4  11  25  42  66 100 141 174 213 275 349 399
#     4  10  22  40  65  96 126 167 230 267 322 397
#     4  11  24  44  70 100 128 178 233 279 327 394
#     4  11  21  42  72  95 125 173 231 274 318 401
#     4  12  27  44  68 102 142 181 214 276 352 405
#     4  10  20  36  68  95 118 167 227 276 310 377
#
# _framework density 23.510646000000001
#
# number of rings (size 3 to 8) (size 9 to 14) (size 15 to 20)
#    0.000    1.143    2.857    3.857    6.000    0.571 
#    0.000    1.429    0.000   16.286    0.000    0.000 
#    0.000    0.000    0.000    0.000    0.000    0.000 
#
# Total GULP energy -78300.302818 kJ/mol
# GULP energy per Si atom -5592.878773 kJ/mol
# Density = 2.345713 g / cm^3
# Si number density = 23.510646 Si / 1000 Ang^3
#
#
#
# Elastic Constant Matrix: (Units=GPa)
#
#
# Indices 1 2 3 4 5 6 
#
# 1 115.4175 60.0473 17.0695 0.0189 15.8655 -14.1273
# 2 60.0473 132.7109 23.0433 -7.5446 12.6504 -0.5493
# 3 17.0695 23.0433 54.4571 10.7076 17.8666 3.8035
# 4 0.0189 -7.5446 10.7076 45.1355 2.3560 5.0382
# 5 15.8655 12.6504 17.8666 2.3560 28.7341 -3.0195
# 6 -14.1273 -0.5493 3.8035 5.0382 -3.0195 46.2037
#
#
#
# Elastic Compliance Matrix: (Units=1/GPa)
#
#
# Indices 1 2 3 4 5 6 
#
# 1 0.012414 -0.005207 -0.000511 -0.000962 -0.003783 0.003634
# 2 -0.005207 0.010618 -0.003235 0.002721 -0.000170 -0.001507
# 3 -0.000511 -0.003235 0.025833 -0.005635 -0.014171 -0.002633
# 4 -0.000962 0.002721 -0.005635 0.024184 0.000603 -0.002396
# 5 -0.003783 -0.000170 -0.014171 0.000603 0.046038 0.002951
# 6 0.003634 -0.001507 -0.002633 -0.002396 0.002951 0.023407
#
#
# Mechanical properties :
#
#
# Convention : Reuss Voigt Hill
#
# Bulk Modulus (GPa) = 32.30089 55.87838 44.08963
# Shear Modulus (GPa) = 29.28792 37.50968 33.39880
#
# Velocity S-wave (km/s) = 3.53332 3.99862 3.77315
# Velocity P-wave (km/s) = 5.51493 6.71844 6.14622
#
# Compressibility (1/GPa) = 0.03095890
#
# Stress axis : x y z
#
# Youngs Moduli (GPa) = 80.55536 94.18360 38.70959
#
# Poissons Ratio (x) = 0.49043 0.01978
# Poissons Ratio (y) = 0.41946 0.12522
# Poissons Ratio (z) = 0.04116 0.30467
#
# Static dielectric constant tensor:
#      x y z
#    x 1.898460 0.021760 -0.034240 
#    y 0.021760 1.946140 -0.029460 
#    z -0.034240 -0.029460 1.929720 
# 
# From -- ./inp_files/403307.got.cif
#   From: 2010.05.17/outbox.cif.g08.bks.cpg/sg2_202_cif.got.tgz:403307.got - 2010.06.03 11:33:40.
