data_PCOD9098835
_publ_section_title
;
Structure prediction by ZEFSAII (Michael W. Deem and Ramdas Pophale) SiO2 
 PCOD9098835
Probable space group: P -1
;
_chemical_formula_sum "Si O2"
_cell_formula_units_Z 16
_cell_length_a 5.244119
_cell_length_b 14.243264
_cell_length_c 11.517805
_cell_angle_alpha 47.462950
_cell_angle_beta 86.380939
_cell_angle_gamma 82.014039
_cell_volume 627.199300
_symmetry_space_group_name_H-M "P -1"
_symmetry_group_IT_number 2
_symmetry_cell_setting 'triclinic'
loop_
_space_group_symop_operation_xyz
x,y,z
-x,-y,-z
loop_
_atom_site_type_symbol
_atom_site_label
_atom_site_fract_x
_atom_site_fract_y
_atom_site_fract_z
Si Si1 0.660551 0.612195 0.441226
Si Si2 0.581686 0.876655 0.322381
Si Si3 0.938604 0.404784 0.185977
Si Si4 0.631324 0.866820 0.840004
Si Si5 0.537992 0.649524 0.839606
Si Si6 0.113348 0.892522 0.176646
Si Si7 0.059092 0.450171 0.725309
Si Si8 0.852604 0.222220 0.956535
O O1 0.500000 0.500000 0.500000
O O2 0.533854 0.728074 0.429340
O O3 0.754499 0.646652 0.280076
O O4 0.904475 0.552318 0.560208
O O5 0.384847 0.927111 0.182315
O O6 0.885593 0.877092 0.287934
O O7 0.462011 0.986213 0.325913
O O8 0.751281 0.305290 0.233554
O O9 0.804111 0.482051 0.233610
O O10 0.229432 0.350086 0.259004
O O11 0.000000 0.500000 0.000000
O O12 0.624135 0.748801 0.848524
O O13 0.902146 0.846432 0.919128
O O14 0.393345 0.841277 0.948710
O O15 0.500000 0.500000 0.000000
O O16 0.154782 0.773709 0.187043
O O17 0.000000 0.000000 0.000000
O O18 0.859774 0.370418 0.863503
#
# Coordination Sequence:
#
# PCOD9098835 Si02
#       8
#     2   2   2   2   2   2   2   2
#     4  11  27  45  65  93 134 186 229 260 311 394
#     4  12  24  41  60  90 132 173 220 265 321 398
#     4  10  21  39  64  93 126 160 211 275 332 377
#     4  12  23  37  64  97 132 169 206 271 346 393
#     4  10  20  37  57  91 126 158 201 258 325 395
#     4  12  21  37  55  91 131 171 208 260 327 398
#     4  11  25  42  66  97 130 179 220 272 323 392
#     4  12  22  35  62  92 132 168 210 262 336 396
#
# _framework density 25.510231999999998
#
# number of rings (size 3 to 8) (size 9 to 14) (size 15 to 20)
#    0.000    0.750    3.750    5.625    5.250    0.000 
#    0.000    0.000    0.000    1.500    0.000    0.000 
#    0.000    0.000    0.000    0.000    0.000    0.000 
#
# Total GULP energy -89103.348868 kJ/mol
# GULP energy per Si atom -5568.959304 kJ/mol
# Density = 2.545217 g / cm^3
# Si number density = 25.510232 Si / 1000 Ang^3
#
#
#
# Elastic Constant Matrix: (Units=GPa)
#
#
# Indices 1 2 3 4 5 6 
#
# 1 147.0633 19.9646 3.9341 7.1220 -6.2085 22.0754
# 2 19.9646 144.4445 22.1950 -7.3817 4.8643 4.2764
# 3 3.9341 22.1950 24.5409 -4.8525 5.8953 -1.9342
# 4 7.1220 -7.3817 -4.8525 35.4517 3.6482 5.1009
# 5 -6.2085 4.8643 5.8953 3.6482 29.8330 -9.4458
# 6 22.0754 4.2764 -1.9342 5.1009 -9.4458 44.2373
#
#
#
# Elastic Compliance Matrix: (Units=1/GPa)
#
#
# Indices 1 2 3 4 5 6 
#
# 1 0.007572 -0.000869 -0.001251 -0.001504 0.001090 -0.003343
# 2 -0.000869 0.008224 -0.007015 0.001117 -0.000562 -0.000917
# 3 -0.001251 -0.007015 0.051024 0.006687 -0.009805 0.000668
# 4 -0.001504 0.001117 0.006687 0.030959 -0.006903 -0.004109
# 5 0.001090 -0.000562 -0.009805 -0.006903 0.039234 0.008255
# 6 -0.003343 -0.000917 0.000668 -0.004109 0.008255 0.026628
#
#
# Mechanical properties :
#
#
# Convention : Reuss Voigt Hill
#
# Bulk Modulus (GPa) = 20.59724 45.35959 32.97842
# Shear Modulus (GPa) = 25.24050 39.90141 32.57096
#
# Velocity S-wave (km/s) = 3.14893 3.95920 3.57708
# Velocity P-wave (km/s) = 4.61656 6.22253 5.47871
#
# Compressibility (1/GPa) = 0.04855019
#
# Stress axis : x y z
#
# Youngs Moduli (GPa) = 132.06696 121.59133 19.59867
#
# Poissons Ratio (x) = 0.10566 0.02451
# Poissons Ratio (y) = 0.11477 0.13749
# Poissons Ratio (z) = 0.16518 0.85298
#
# Static dielectric constant tensor:
#      x y z
#    x 2.270850 -0.153480 0.041950 
#    y -0.153480 2.461250 -0.070880 
#    z 0.041950 -0.070880 2.196720 
# 
# From -- ./inp_files/366724.got.cif
#   From: 2010.05.17/outbox.cif.g08.bks.cpg/sg2_184_cif.got.tgz:366724.got - 2010.06.03 11:33:40.
