data_PCOD9098775
_publ_section_title
;
Structure prediction by ZEFSAII (Michael W. Deem and Ramdas Pophale) SiO2 
 PCOD9098775
Probable space group: P -1
;
_chemical_formula_sum "Si O2"
_cell_formula_units_Z 16
_cell_length_a 14.782808
_cell_length_b 12.273216
_cell_length_c 8.965484
_cell_angle_alpha 70.964335
_cell_angle_beta 81.916174
_cell_angle_gamma 29.955405
_cell_volume 732.253776
_symmetry_space_group_name_H-M "P -1"
_symmetry_group_IT_number 2
_symmetry_cell_setting 'triclinic'
loop_
_space_group_symop_operation_xyz
x,y,z
-x,-y,-z
loop_
_atom_site_type_symbol
_atom_site_label
_atom_site_fract_x
_atom_site_fract_y
_atom_site_fract_z
Si Si1 0.578543 0.593515 0.014215
Si Si2 0.148142 0.698408 0.660974
Si Si3 0.927929 0.129284 0.705488
Si Si4 0.953480 0.689195 0.820879
Si Si5 0.780256 0.153464 0.001101
Si Si6 0.436987 0.181813 0.306752
Si Si7 0.333256 0.149344 0.083907
Si Si8 0.173549 0.312232 0.432883
O O1 0.665345 0.531949 0.180994
O O2 0.363403 0.792004 0.992040
O O3 0.685445 0.366290 0.015315
O O4 0.599142 0.672167 0.856445
O O5 0.995598 0.767540 0.706578
O O6 0.178962 0.680867 0.484173
O O7 0.072446 0.898511 0.669008
O O8 0.821846 0.152924 0.824558
O O9 0.038871 0.075356 0.834315
O O10 0.766740 0.866399 0.885032
O O11 0.913856 0.645496 0.714479
O O12 0.147938 0.435062 0.969799
O O13 0.430128 0.075611 0.250801
O O14 0.261544 0.343394 0.381392
O O15 0.642658 0.962809 0.430853
O O16 0.500000 0.000000 0.000000
O O17 0.000000 0.500000 0.500000
#
# Coordination Sequence:
#
# PCOD9098775 Si02
#       8
#     2   2   2   2   2   2   2   2
#     4  10  20  37  58  83 116 151 184 240 287 337
#     4  10  20  37  57  83 119 147 187 238 290 336
#     4   9  20  38  59  84 113 149 191 235 280 351
#     4  10  21  36  57  85 113 150 188 235 284 338
#     4   9  20  38  59  84 112 149 193 230 287 341
#     4  10  21  38  57  85 116 148 193 238 281 342
#     4  10  20  37  58  80 115 149 188 232 284 341
#     4  10  22  39  58  84 117 152 191 238 285 338
#
# _framework density 21.850345999999998
#
# number of rings (size 3 to 8) (size 9 to 14) (size 15 to 20)
#    0.000    2.250    1.250    0.750    1.750    2.500 
#    4.500    0.000    0.000    0.000    0.000    0.000 
#    0.000    0.000    0.000    0.000    0.000    0.000 
#
# Total GULP energy -89112.209227 kJ/mol
# GULP energy per Si atom -5569.513077 kJ/mol
# Density = 2.180061 g / cm^3
# Si number density = 21.850346 Si / 1000 Ang^3
#
#
#
# Elastic Constant Matrix: (Units=GPa)
#
#
# Indices 1 2 3 4 5 6 
#
# 1 76.8963 25.5371 45.8293 -1.8352 -2.0931 -32.0987
# 2 25.5371 69.5650 34.5865 14.6892 2.4937 -33.1382
# 3 45.8293 34.5865 156.7851 3.9967 -4.3309 -19.9339
# 4 -1.8352 14.6892 3.9967 30.1712 -4.4888 -6.0049
# 5 -2.0931 2.4937 -4.3309 -4.4888 23.6502 5.0979
# 6 -32.0987 -33.1382 -19.9339 -6.0049 5.0979 37.8241
#
#
#
# Elastic Compliance Matrix: (Units=1/GPa)
#
#
# Indices 1 2 3 4 5 6 
#
# 1 0.024085 0.003205 -0.005194 0.004453 -0.002972 0.021617
# 2 0.003205 0.031228 -0.004361 -0.010678 -0.011800 0.027676
# 3 -0.005194 -0.004361 0.008400 0.000246 0.002468 -0.004095
# 4 0.004453 -0.010678 0.000246 0.039881 0.009211 -0.000357
# 5 -0.002972 -0.011800 0.002468 0.009211 0.049066 -0.016711
# 6 0.021617 0.027676 -0.004095 -0.000357 -0.016711 0.069068
#
#
# Mechanical properties :
#
#
# Convention : Reuss Voigt Hill
#
# Bulk Modulus (GPa) = 19.60294 57.23914 38.42104
# Shear Modulus (GPa) = 19.88602 31.48199 25.68400
#
# Velocity S-wave (km/s) = 3.02006 3.79991 3.43220
# Velocity P-wave (km/s) = 4.59912 6.74576 5.77309
#
# Compressibility (1/GPa) = 0.05101276
#
# Stress axis : x y z
#
# Youngs Moduli (GPa) = 41.51968 32.02210 119.05231
#
# Poissons Ratio (x) = -0.10263 0.61840
# Poissons Ratio (y) = -0.13307 0.51915
# Poissons Ratio (z) = 0.21567 0.13964
#
# Static dielectric constant tensor:
#      x y z
#    x 1.797300 -0.002630 -0.052940 
#    y -0.002630 1.879310 0.040610 
#    z -0.052940 0.040610 1.878680 
# 
# From -- ./inp_files/312662.got.cif
#   From: 2010.05.17/outbox.cif.g08.bks.cpg/sg2_157_cif.got.tgz:312662.got - 2010.06.03 11:33:40.
