data_PCOD9098022
_publ_section_title
;
Structure prediction by ZEFSAII (Michael W. Deem and Ramdas Pophale) SiO2 
 PCOD9098022
Probable space group: P -1
;
_chemical_formula_sum "Si O2"
_cell_formula_units_Z 14
_cell_length_a 10.174483
_cell_length_b 20.110728
_cell_length_c 7.479312
_cell_angle_alpha 119.533544
_cell_angle_beta 102.631958
_cell_angle_gamma 27.416275
_cell_volume 513.514677
_symmetry_space_group_name_H-M "P -1"
_symmetry_group_IT_number 2
_symmetry_cell_setting 'triclinic'
loop_
_space_group_symop_operation_xyz
x,y,z
-x,-y,-z
loop_
_atom_site_type_symbol
_atom_site_label
_atom_site_fract_x
_atom_site_fract_y
_atom_site_fract_z
Si Si1 0.751733 0.954083 0.900958
Si Si2 0.368390 0.423341 0.577614
Si Si3 0.439872 0.868643 0.272621
Si Si4 0.632732 0.410578 0.146636
Si Si5 0.764955 0.068280 0.324349
Si Si6 0.837493 0.781387 0.125562
Si Si7 0.448635 0.347827 0.093287
O O1 0.095869 0.743120 0.812740
O O2 0.774280 0.997925 0.791498
O O3 0.592245 0.092635 0.187345
O O4 0.489600 0.028492 0.843539
O O5 0.535581 0.420701 0.638021
O O6 0.572926 0.247718 0.490827
O O7 0.324137 0.425629 0.360096
O O8 0.028966 0.615962 0.846484
O O9 0.229780 0.960820 0.508762
O O10 0.676820 0.820904 0.297442
O O11 0.659261 0.677770 0.047337
O O12 0.414512 0.447518 0.115737
O O13 0.884904 0.296288 0.901526
O O14 0.139990 0.877685 0.097928
#
# Coordination Sequence:
#
# PCOD9098022 Si02
#       7
#     2   2   2   2   2   2   2
#     4   9  19  39  64  84 113 156 195 234 292 341
#     4  10  20  36  63  88 117 155 191 239 298 341
#     4  10  22  38  63  89 112 154 203 238 281 352
#     4   9  20  36  65  85 118 154 192 239 296 346
#     4  11  22  37  62  88 119 153 196 245 281 345
#     4   8  20  37  61  89 116 150 197 233 298 345
#     4  11  21  39  58  89 116 156 201 233 289 347
#
# _framework density 27.263095
#
# number of rings (size 3 to 8) (size 9 to 14) (size 15 to 20)
#    1.714    0.571    1.429    1.714    2.000    2.857 
#    0.000    3.571    6.286    0.000    0.000    0.000 
#    0.000    0.000    0.000    0.000    0.000    0.000 
#
# Total GULP energy -78214.742853 kJ/mol
# GULP energy per Si atom -5586.767347 kJ/mol
# Density = 2.720104 g / cm^3
# Si number density = 27.263095 Si / 1000 Ang^3
#
#
#
# Elastic Constant Matrix: (Units=GPa)
#
#
# Indices 1 2 3 4 5 6 
#
# 1 115.6875 45.5363 14.6568 1.9677 7.6856 27.3390
# 2 45.5363 111.5552 50.8733 -1.5612 12.3481 24.9921
# 3 14.6568 50.8733 97.7244 -11.4008 18.0681 11.7219
# 4 1.9677 -1.5612 -11.4008 28.4722 15.6381 1.6285
# 5 7.6856 12.3481 18.0681 15.6381 51.4899 1.0848
# 6 27.3390 24.9921 11.7219 1.6285 1.0848 54.0734
#
#
#
# Elastic Compliance Matrix: (Units=1/GPa)
#
#
# Indices 1 2 3 4 5 6 
#
# 1 0.011096 -0.004038 0.001155 0.000308 -0.001103 -0.003981
# 2 -0.004038 0.014313 -0.006639 -0.001414 -0.000006 -0.003092
# 3 0.001155 -0.006639 0.016190 0.010122 -0.007311 -0.001184
# 4 0.000308 -0.001414 0.010122 0.049202 -0.018142 -0.002814
# 5 -0.001103 -0.000006 -0.007311 -0.018142 0.027618 0.002137
# 6 -0.003981 -0.003092 -0.001184 -0.002814 0.002137 0.022234
#
#
# Mechanical properties :
#
#
# Convention : Reuss Voigt Hill
#
# Bulk Modulus (GPa) = 44.33270 60.78888 52.56079
# Shear Modulus (GPa) = 29.90175 41.06714 35.48445
#
# Velocity S-wave (km/s) = 3.31537 3.88535 3.61162
# Velocity P-wave (km/s) = 5.56344 6.51717 6.05910
#
# Compressibility (1/GPa) = 0.02255671
#
# Stress axis : x y z
#
# Youngs Moduli (GPa) = 90.12394 69.86425 61.76608
#
# Poissons Ratio (x) = 0.28209 -0.07135
# Poissons Ratio (y) = 0.36390 0.41005
# Poissons Ratio (z) = -0.10411 0.46381
#
# Static dielectric constant tensor:
#      x y z
#    x 2.240220 -0.010870 -0.019920 
#    y -0.010870 2.140870 -0.002010 
#    z -0.019920 -0.002010 2.080400 
# 
# From -- ./inp_files/280580.got.cif
#   From: 2010.05.17/outbox.cif.g08.bks.cpg/sg2_141_cif.got.tgz:280580.got - 2010.06.03 11:33:40.
