data_PCOD9098047
_publ_section_title
;
Structure prediction by ZEFSAII (Michael W. Deem and Ramdas Pophale) SiO2 
 PCOD9098047
Probable space group: P -1
;
_chemical_formula_sum "Si O2"
_cell_formula_units_Z 14
_cell_length_a 10.174241
_cell_length_b 11.822926
_cell_length_c 8.976330
_cell_angle_alpha 90.704152
_cell_angle_beta 137.340020
_cell_angle_gamma 111.400906
_cell_volume 610.145583
_symmetry_space_group_name_H-M "P -1"
_symmetry_group_IT_number 2
_symmetry_cell_setting 'triclinic'
loop_
_space_group_symop_operation_xyz
x,y,z
-x,-y,-z
loop_
_atom_site_type_symbol
_atom_site_label
_atom_site_fract_x
_atom_site_fract_y
_atom_site_fract_z
Si Si1 0.914376 0.738689 0.770515
Si Si2 0.207225 0.990919 0.606621
Si Si3 0.500359 0.339616 0.137808
Si Si4 0.286385 0.787120 0.853225
Si Si5 0.874955 0.561633 0.976933
Si Si6 0.586158 0.615635 0.255645
Si Si7 0.988909 0.835646 0.133138
O O1 0.775852 0.607378 0.759957
O O2 0.743410 0.732504 0.504992
O O3 0.106416 0.732023 0.838230
O O4 0.022104 0.859664 0.983082
O O5 0.218205 0.874823 0.701153
O O6 0.151312 0.951276 0.386167
O O7 0.000000 0.000000 0.500000
O O8 0.458654 0.122127 0.858135
O O9 0.373726 0.340616 0.879987
O O10 0.283919 0.228533 0.055615
O O11 0.686326 0.307835 0.239483
O O12 0.621235 0.491701 0.302185
O O13 0.681594 0.455009 0.925510
O O14 0.022776 0.709380 0.180656
O O15 0.000000 0.500000 0.000000
#
# Coordination Sequence:
#
# PCOD9098047 Si02
#       7
#     2   2   2   2   2   2   2
#     4  10  22  37  58  93 125 157 207 250 314 372
#     4  11  23  45  69  87 122 162 211 274 308 363
#     4  10  20  37  63  92 125 166 214 246 302 379
#     4  11  24  40  67  94 115 166 218 253 315 373
#     4   9  19  35  56  89 128 164 200 246 304 375
#     4  10  20  36  63  90 132 173 200 250 308 367
#     4   9  21  39  59  88 126 160 202 258 318 350
#
# _framework density 22.945343000000001
#
# number of rings (size 3 to 8) (size 9 to 14) (size 15 to 20)
#    0.857    1.143    1.429    2.143    0.000    2.286 
#    0.000    0.714    0.000    0.000    0.000    0.000 
#    0.000    0.000    0.000    0.000    0.000    0.000 
#
# Total GULP energy -78093.828138 kJ/mol
# GULP energy per Si atom -5578.130581 kJ/mol
# Density = 2.289312 g / cm^3
# Si number density = 22.945343 Si / 1000 Ang^3
#
#
#
# Elastic Constant Matrix: (Units=GPa)
#
#
# Indices 1 2 3 4 5 6 
#
# 1 113.2325 17.1819 10.2290 6.0828 -7.9563 -26.3206
# 2 17.1819 38.7850 9.7883 3.2986 2.0598 -20.5886
# 3 10.2290 9.7883 94.3699 6.3450 -22.5096 -14.4959
# 4 6.0828 3.2986 6.3450 21.8276 -4.9715 -5.7019
# 5 -7.9563 2.0598 -22.5096 -4.9715 34.7968 1.1745
# 6 -26.3206 -20.5886 -14.4959 -5.7019 1.1745 41.9381
#
#
#
# Elastic Compliance Matrix: (Units=1/GPa)
#
#
# Indices 1 2 3 4 5 6 
#
# 1 0.010631 -0.001865 0.000609 -0.000745 0.002633 0.005792
# 2 -0.001865 0.035793 -0.002131 -0.001242 -0.004629 0.015626
# 3 0.000609 -0.002131 0.013445 -0.000822 0.008723 0.003627
# 4 -0.000745 -0.001242 -0.000822 0.049213 0.006229 0.005155
# 5 0.002633 -0.004629 0.008723 0.006229 0.036071 0.002232
# 6 0.005792 0.015626 0.003627 0.005155 0.002232 0.037043
#
#
# Mechanical properties :
#
#
# Convention : Reuss Voigt Hill
#
# Bulk Modulus (GPa) = 18.83422 35.64288 27.23855
# Shear Modulus (GPa) = 24.19339 33.65838 28.92588
#
# Velocity S-wave (km/s) = 3.25066 3.83416 3.55441
# Velocity P-wave (km/s) = 4.72390 5.93031 5.36115
#
# Compressibility (1/GPa) = 0.05309486
#
# Stress axis : x y z
#
# Youngs Moduli (GPa) = 94.06728 27.93814 74.37935
#
# Poissons Ratio (x) = 0.05211 -0.04529
# Poissons Ratio (y) = 0.17545 0.15848
# Poissons Ratio (z) = -0.05728 0.05953
#
# Static dielectric constant tensor:
#      x y z
#    x 1.843460 -0.006050 -0.022160 
#    y -0.006050 1.941820 -0.012720 
#    z -0.022160 -0.012720 1.858210 
# 
# From -- ./inp_files/202706.got.cif
#   From: 2010.05.17/outbox.cif.g08.bks.cpg/sg2_102_cif.got.tgz:202706.got - 2010.06.03 11:33:40.
