data_PCOD9098859
_publ_section_title
;
Structure prediction by ZEFSAII (Michael W. Deem and Ramdas Pophale) SiO2 
 PCOD9098859
Probable space group: P -1
;
_chemical_formula_sum "Si O2"
_cell_formula_units_Z 16
_cell_length_a 15.328414
_cell_length_b 15.711975
_cell_length_c 7.080378
_cell_angle_alpha 53.094133
_cell_angle_beta 128.375990
_cell_angle_gamma 143.940746
_cell_volume 768.701797
_symmetry_space_group_name_H-M "P -1"
_symmetry_group_IT_number 2
_symmetry_cell_setting 'triclinic'
loop_
_space_group_symop_operation_xyz
x,y,z
-x,-y,-z
loop_
_atom_site_type_symbol
_atom_site_label
_atom_site_fract_x
_atom_site_fract_y
_atom_site_fract_z
Si Si1 0.320312 0.535341 0.993447
Si Si2 0.553612 0.734372 0.349311
Si Si3 0.134738 0.625787 0.729926
Si Si4 0.373796 0.827979 0.093229
Si Si5 0.427409 0.335458 0.121960
Si Si6 0.823412 0.875116 0.245578
Si Si7 0.946081 0.792291 0.820224
Si Si8 0.131145 0.703006 0.214112
O O1 0.435212 0.588977 0.252795
O O2 0.196044 0.357243 0.058445
O O3 0.228566 0.582583 0.849607
O O4 0.431170 0.631550 0.836662
O O5 0.458265 0.774481 0.229762
O O6 0.601642 0.714692 0.636001
O O7 0.703110 0.850392 0.264528
O O8 0.121518 0.692350 0.442152
O O9 0.968652 0.464924 0.767884
O O10 0.228001 0.740189 0.872208
O O11 0.302449 0.797210 0.244341
O O12 0.500000 0.000000 0.000000
O O13 0.500000 0.500000 0.000000
O O14 0.276215 0.221560 0.941983
O O15 0.885482 0.811903 0.523763
O O16 0.958572 0.050676 0.156968
O O17 0.058094 0.765969 0.964874
#
# Coordination Sequence:
#
# PCOD9098859 Si02
#       8
#     2   2   2   2   2   2   2   2
#     4   9  19  37  58  80 109 141 180 226 269 320
#     4  10  21  38  58  80 110 145 180 223 270 320
#     4   9  20  37  57  81 108 144 182 220 269 322
#     4  11  22  35  56  85 113 141 177 224 274 322
#     4  11  21  35  58  83 106 142 186 224 268 320
#     4  10  22  39  55  79 113 144 181 223 268 322
#     4  10  20  38  58  77 111 149 177 223 274 313
#     4  10  20  37  58  80 109 144 183 222 266 322
#
# _framework density 20.814314
#
# number of rings (size 3 to 8) (size 9 to 14) (size 15 to 20)
#    0.000    2.000    0.000    3.375    0.000    3.500 
#    0.000   11.875    0.000    0.000    0.000    0.000 
#    0.000    0.000    0.000    0.000    0.000    0.000 
#
# Total GULP energy -89306.420460 kJ/mol
# GULP energy per Si atom -5581.651279 kJ/mol
# Density = 2.076694 g / cm^3
# Si number density = 20.814314 Si / 1000 Ang^3
#
#
#
# Elastic Constant Matrix: (Units=GPa)
#
#
# Indices 1 2 3 4 5 6 
#
# 1 58.4622 -0.6301 16.0455 -7.3130 7.8621 6.6009
# 2 -0.6301 96.2102 17.1953 2.0530 -2.2351 11.5591
# 3 16.0455 17.1953 61.1805 11.1963 2.9050 7.1899
# 4 -7.3130 2.0530 11.1963 22.9168 -3.9469 -1.6006
# 5 7.8621 -2.2351 2.9050 -3.9469 26.3102 0.4885
# 6 6.6009 11.5591 7.1899 -1.6006 0.4885 16.7336
#
#
#
# Elastic Compliance Matrix: (Units=1/GPa)
#
#
# Indices 1 2 3 4 5 6 
#
# 1 0.021302 0.001767 -0.006849 0.008894 -0.004019 -0.005713
# 2 0.001767 0.011873 -0.003086 0.000664 0.001061 -0.007540
# 3 -0.006849 -0.003086 0.022345 -0.013698 -0.002626 -0.006001
# 4 0.008894 0.000664 -0.013698 0.054799 0.007002 0.006956
# 5 -0.004019 0.001061 -0.002626 0.007002 0.040612 0.001465
# 6 -0.005713 -0.007540 -0.006001 0.006956 0.001465 0.070423
#
#
# Mechanical properties :
#
#
# Convention : Reuss Voigt Hill
#
# Bulk Modulus (GPa) = 25.52065 31.23049 28.37557
# Shear Modulus (GPa) = 19.93992 25.40826 22.67409
#
# Velocity S-wave (km/s) = 3.09850 3.49766 3.30411
# Velocity P-wave (km/s) = 5.00886 5.59896 5.31211
#
# Compressibility (1/GPa) = 0.03918396
#
# Stress axis : x y z
#
# Youngs Moduli (GPa) = 46.94414 84.22131 44.75194
#
# Poissons Ratio (x) = -0.14880 0.30650
# Poissons Ratio (y) = -0.08294 0.13812
# Poissons Ratio (z) = 0.32151 0.25993
#
# Static dielectric constant tensor:
#      x y z
#    x 1.819480 0.028630 -0.000540 
#    y 0.028630 1.733840 0.018600 
#    z -0.000540 0.018600 1.745870 
# 
# From -- ./inp_files/84242.got.cif
#   From: 2010.05.17/outbox.cif.g08.bks.cpg/sg2_43_cif.got.tgz:84242.got - 2010.06.03 11:33:40.
