data_PCOD9098318
_publ_section_title
;
Structure prediction by ZEFSAII (Michael W. Deem and Ramdas Pophale) SiO2 
 PCOD9098318
Probable space group: P -1
;
_chemical_formula_sum "Si O2"
_cell_formula_units_Z 14
_cell_length_a 13.393634
_cell_length_b 9.358633
_cell_length_c 6.885641
_cell_angle_alpha 80.187880
_cell_angle_beta 49.731415
_cell_angle_gamma 55.331139
_cell_volume 514.178005
_symmetry_space_group_name_H-M "P -1"
_symmetry_group_IT_number 2
_symmetry_cell_setting 'triclinic'
loop_
_space_group_symop_operation_xyz
x,y,z
-x,-y,-z
loop_
_atom_site_type_symbol
_atom_site_label
_atom_site_fract_x
_atom_site_fract_y
_atom_site_fract_z
Si Si1 0.598956 0.138677 0.240513
Si Si2 0.099448 0.856634 0.735206
Si Si3 0.960457 0.330076 0.446052
Si Si4 0.290287 0.212419 0.055040
Si Si5 0.770909 0.542153 0.288883
Si Si6 0.366288 0.571276 0.975503
Si Si7 0.588367 0.184632 0.670015
O O1 0.406267 0.307240 0.428516
O O2 0.682384 0.236634 0.075103
O O3 0.625656 0.079866 0.445603
O O4 0.653270 0.972122 0.078124
O O5 0.003139 0.842144 0.684298
O O6 0.195012 0.651146 0.750877
O O7 0.235902 0.873998 0.469974
O O8 0.000000 0.000000 0.000000
O O9 0.900758 0.478677 0.314369
O O10 0.877614 0.718866 0.640064
O O11 0.798410 0.401209 0.757037
O O12 0.231532 0.358353 0.921248
O O13 0.452089 0.178460 0.951352
O O14 0.475786 0.403568 0.728181
O O15 0.500000 0.500000 0.000000
#
# Coordination Sequence:
#
# PCOD9098318 Si02
#       7
#     2   2   2   2   2   2   2
#     4  11  22  40  68  98 123 170 211 266 319 376
#     4  10  20  36  64  98 123 159 221 255 309 375
#     4  10  22  40  63  93 127 173 206 259 323 372
#     4  11  24  40  64  98 135 159 211 269 325 367
#     4   9  19  38  65  91 124 166 211 251 323 372
#     4  12  21  42  69  87 132 172 215 256 313 389
#     4  11  22  40  67  98 122 166 215 265 312 374
#
# _framework density 27.227920999999998
#
# number of rings (size 3 to 8) (size 9 to 14) (size 15 to 20)
#    0.857    0.571    4.286    3.429    2.000    1.143 
#    0.000    0.714    3.143    0.000    0.000    0.000 
#    0.000    0.000    0.000    0.000    0.000    0.000 
#
# Total GULP energy -78286.285982 kJ/mol
# GULP energy per Si atom -5591.877570 kJ/mol
# Density = 2.716595 g / cm^3
# Si number density = 27.227921 Si / 1000 Ang^3
#
#
#
# Elastic Constant Matrix: (Units=GPa)
#
#
# Indices 1 2 3 4 5 6 
#
# 1 138.1867 35.6907 57.1146 -11.9102 -31.5693 22.8477
# 2 35.6907 124.9336 37.8965 8.2286 -13.5019 12.9786
# 3 57.1146 37.8965 132.9305 11.3593 -27.3294 19.6436
# 4 -11.9102 8.2286 11.3593 53.9001 19.8986 3.0461
# 5 -31.5693 -13.5019 -27.3294 19.8986 47.9058 -7.4631
# 6 22.8477 12.9786 19.6436 3.0461 -7.4631 24.8623
#
#
#
# Elastic Compliance Matrix: (Units=1/GPa)
#
#
# Indices 1 2 3 4 5 6 
#
# 1 0.010715 -0.001370 -0.002864 0.002399 0.003072 -0.006240
# 2 -0.001370 0.009270 -0.001322 -0.001864 0.001438 -0.001876
# 3 -0.002864 -0.001322 0.011140 -0.004629 0.005510 -0.003258
# 4 0.002399 -0.001864 -0.004629 0.025328 -0.012810 -0.004523
# 5 0.003072 0.001438 0.005510 -0.012810 0.032288 0.003334
# 6 -0.006240 -0.001876 -0.003258 -0.004523 0.003334 0.051064
#
#
# Mechanical properties :
#
#
# Convention : Reuss Voigt Hill
#
# Bulk Modulus (GPa) = 49.97030 73.05048 61.51039
# Shear Modulus (GPa) = 31.72845 43.02359 37.37602
#
# Velocity S-wave (km/s) = 3.41734 3.97939 3.70903
# Velocity P-wave (km/s) = 5.82781 6.92832 6.40176
#
# Compressibility (1/GPa) = 0.02001189
#
# Stress axis : x y z
#
# Youngs Moduli (GPa) = 93.33092 107.87972 89.76481
#
# Poissons Ratio (x) = 0.14777 0.25712
# Poissons Ratio (y) = 0.12785 0.11867
# Poissons Ratio (z) = 0.26734 0.14262
#
# Static dielectric constant tensor:
#      x y z
#    x 2.190450 0.026270 -0.013060 
#    y 0.026270 2.124700 -0.035870 
#    z -0.013060 -0.035870 2.126600 
# 
# From -- ./inp_files/327512.got.cif
#   From: 2010.05.17/outbox.cif.g08.bks.cpg/sg2_164_cif.got.tgz:327512.got - 2010.06.03 11:33:40.
