data_PCOD9098500
_publ_section_title
;
Structure prediction by ZEFSAII (Michael W. Deem and Ramdas Pophale) SiO2 
 PCOD9098500
Probable space group: P -1
;
_chemical_formula_sum "Si O2"
_cell_formula_units_Z 16
_cell_length_a 9.193786
_cell_length_b 18.156639
_cell_length_c 9.943884
_cell_angle_alpha 135.165184
_cell_angle_beta 106.904350
_cell_angle_gamma 107.469964
_cell_volume 739.804951
_symmetry_space_group_name_H-M "P -1"
_symmetry_group_IT_number 2
_symmetry_cell_setting 'triclinic'
loop_
_space_group_symop_operation_xyz
x,y,z
-x,-y,-z
loop_
_atom_site_type_symbol
_atom_site_label
_atom_site_fract_x
_atom_site_fract_y
_atom_site_fract_z
Si Si1 0.045382 0.765965 0.184407
Si Si2 0.551872 0.040470 0.734774
Si Si3 0.176410 0.792219 0.526037
Si Si4 0.681539 0.781582 0.691533
Si Si5 0.272155 0.646800 0.737072
Si Si6 0.119425 0.890492 0.906641
Si Si7 0.627273 0.666785 0.811780
Si Si8 0.811279 0.429634 0.689136
O O1 0.024431 0.772131 0.347617
O O2 0.858160 0.744606 0.042728
O O3 0.982350 0.612413 0.942915
O O4 0.318945 0.914929 0.414851
O O5 0.422591 0.933915 0.702106
O O6 0.617778 0.195300 0.961864
O O7 0.792872 0.105526 0.918950
O O8 0.165684 0.835427 0.725303
O O9 0.109583 0.635425 0.303140
O O10 0.698762 0.779002 0.853950
O O11 0.415268 0.636775 0.391067
O O12 0.847677 0.775560 0.680111
O O13 0.766897 0.938395 0.870315
O O14 0.431678 0.629376 0.792663
O O15 0.278281 0.658876 0.592987
O O16 0.000000 0.500000 0.500000
O O17 0.500000 0.500000 0.500000
#
# Coordination Sequence:
#
# PCOD9098500 Si02
#       8
#     2   2   2   2   2   2   2   2
#     4  10  23  37  64  92 122 166 197 249 308 358
#     4  10  22  37  65  90 120 156 206 253 297 354
#     4  10  20  36  67  90 122 154 211 245 306 349
#     4  10  22  35  65  87 124 156 211 237 306 363
#     4  11  24  39  66  90 116 162 211 247 295 371
#     4  11  20  38  61  97 116 161 198 265 290 357
#     4  11  22  41  63  84 122 167 197 245 303 371
#     4  11  19  41  63  91 119 162 207 244 304 363
#
# _framework density 21.627320999999998
#
# number of rings (size 3 to 8) (size 9 to 14) (size 15 to 20)
#    0.750    0.750    5.000    2.250    1.750    0.500 
#    0.000    3.125    5.500    0.000    0.000    0.000 
#    0.000    0.000    0.000    0.000    0.000    0.000 
#
# Total GULP energy -89099.814879 kJ/mol
# GULP energy per Si atom -5568.738430 kJ/mol
# Density = 2.157810 g / cm^3
# Si number density = 21.627321 Si / 1000 Ang^3
#
#
#
# Elastic Constant Matrix: (Units=GPa)
#
#
# Indices 1 2 3 4 5 6 
#
# 1 568.8252 409.5270 406.9995 -2.8422 -61.1408 110.6289
# 2 409.5270 368.3436 319.3664 -22.3534 -59.7550 85.3432
# 3 406.9995 319.3664 397.9468 0.9499 -62.5018 89.3933
# 4 -2.8422 -22.3534 0.9499 44.7403 -3.4193 2.9145
# 5 -61.1408 -59.7550 -62.5018 -3.4193 51.4887 -28.0665
# 6 110.6289 85.3432 89.3933 2.9145 -28.0665 77.1852
#
#
#
# Elastic Compliance Matrix: (Units=1/GPa)
#
#
# Indices 1 2 3 4 5 6 
#
# 1 0.012322 -0.010062 -0.004615 -0.004309 -0.004357 -0.002613
# 2 -0.010062 0.018785 -0.003885 0.009272 0.005679 -0.000135
# 3 -0.004615 -0.003885 0.010943 -0.002210 0.002784 -0.000668
# 4 -0.004309 0.009272 -0.002210 0.027144 0.004213 -0.001009
# 5 -0.004357 0.005679 0.002784 0.004213 0.028231 0.006847
# 6 -0.002613 -0.000135 -0.000668 -0.001009 0.006847 0.020152
#
#
# Mechanical properties :
#
#
# Convention : Reuss Voigt Hill
#
# Bulk Modulus (GPa) = 202.93604 400.76682 301.85143
# Shear Modulus (GPa) = 31.98096 47.96438 39.97267
#
# Velocity S-wave (km/s) = 3.84960 4.71443 4.30379
# Velocity P-wave (km/s) = 10.66752 14.67455 12.82846
#
# Compressibility (1/GPa) = 0.00492766
#
# Stress axis : x y z
#
# Youngs Moduli (GPa) = 81.15573 53.23338 91.38178
#
# Poissons Ratio (x) = 0.53561 0.42169
# Poissons Ratio (y) = 0.81655 0.35503
# Poissons Ratio (z) = 0.37450 0.20682
#
# Static dielectric constant tensor:
#      x y z
#    x 1.879090 0.083560 0.052250 
#    y 0.083560 1.916560 -0.041940 
#    z 0.052250 -0.041940 1.848270 
# 
# From -- ./inp_files/404289.got.cif
#   From: 2010.05.17/outbox.cif.g08.bks.cpg/sg2_203_cif.got.tgz:404289.got - 2010.06.03 11:33:40.
