data_PCOD9098834
_publ_section_title
;
Structure prediction by ZEFSAII (Michael W. Deem and Ramdas Pophale) SiO2 
 PCOD9098834
Probable space group: P -1
;
_chemical_formula_sum "Si O2"
_cell_formula_units_Z 14
_cell_length_a 8.168153
_cell_length_b 10.124912
_cell_length_c 11.999931
_cell_angle_alpha 143.271186
_cell_angle_beta 72.036753
_cell_angle_gamma 90.703199
_cell_volume 514.182362
_symmetry_space_group_name_H-M "P -1"
_symmetry_group_IT_number 2
_symmetry_cell_setting 'triclinic'
loop_
_space_group_symop_operation_xyz
x,y,z
-x,-y,-z
loop_
_atom_site_type_symbol
_atom_site_label
_atom_site_fract_x
_atom_site_fract_y
_atom_site_fract_z
Si Si1 0.315363 0.741689 0.448383
Si Si2 0.682942 0.237784 0.772218
Si Si3 0.899091 0.273251 0.324637
Si Si4 0.426326 0.807888 0.000537
Si Si5 0.027194 0.540085 0.150465
Si Si6 0.680278 0.540409 0.356656
Si Si7 0.227047 0.133771 0.008292
O O1 0.326089 0.874816 0.423001
O O2 0.125632 0.770093 0.569835
O O3 0.471677 0.736130 0.501910
O O4 0.401055 0.459303 0.205862
O O5 0.682800 0.116688 0.808684
O O6 0.500000 0.500000 0.000000
O O7 0.873925 0.276451 0.745450
O O8 0.738143 0.499963 0.446426
O O9 0.096986 0.262299 0.230968
O O10 0.851090 0.060608 0.140959
O O11 0.310002 0.716445 0.874870
O O12 0.554803 0.958323 0.067124
O O13 0.172012 0.302015 0.023542
O O14 0.000000 0.500000 0.000000
O O15 0.834432 0.599250 0.297258
#
# Coordination Sequence:
#
# PCOD9098834 Si02
#       7
#     2   2   2   2   2   2   2
#     4   9  18  34  53  76 105 132 170 215 246 302
#     4  10  16  31  53  79 103 125 172 213 252 301
#     4  10  21  36  49  76 110 135 172 202 257 308
#     4   9  18  33  53  78 101 131 178 207 252 299
#     4  11  16  30  56  80  99 128 174 219 246 297
#     4   9  19  30  53  79 101 134 171 210 250 296
#     4  10  21  34  52  77 102 142 167 207 259 305
#
# _framework density 27.227694
#
# number of rings (size 3 to 8) (size 9 to 14) (size 15 to 20)
#    0.857    1.429    4.286    0.429    0.000    1.143 
#    0.000    0.714    0.000    0.857    0.000    0.000 
#    0.000    0.000    0.000    0.000    0.000    0.000 
#
# Total GULP energy -78095.714734 kJ/mol
# GULP energy per Si atom -5578.265338 kJ/mol
# Density = 2.716572 g / cm^3
# Si number density = 27.227694 Si / 1000 Ang^3
#
#
#
# Elastic Constant Matrix: (Units=GPa)
#
#
# Indices 1 2 3 4 5 6 
#
# 1 138.0960 53.6880 31.9875 -18.5631 -6.6842 17.2463
# 2 53.6880 69.3615 42.3831 -25.6241 -9.6186 2.2324
# 3 31.9875 42.3831 90.3588 -40.3376 -2.1418 -5.3163
# 4 -18.5631 -25.6241 -40.3376 52.0712 2.6282 1.9254
# 5 -6.6842 -9.6186 -2.1418 2.6282 32.3742 -18.8130
# 6 17.2463 2.2324 -5.3163 1.9254 -18.8130 48.9650
#
#
#
# Elastic Compliance Matrix: (Units=1/GPa)
#
#
# Indices 1 2 3 4 5 6 
#
# 1 0.011142 -0.008826 -0.000265 -0.000248 -0.003060 -0.004717
# 2 -0.008826 0.028716 -0.008053 0.004195 0.008082 0.003866
# 3 -0.000265 -0.008053 0.020182 0.011560 -0.000996 0.001814
# 4 -0.000248 0.004195 0.011560 0.030180 -0.000657 -0.000288
# 5 -0.003060 0.008082 -0.000996 -0.000657 0.042499 0.016956
# 6 -0.004717 0.003866 0.001814 -0.000288 0.016956 0.028631
#
#
# Mechanical properties :
#
#
# Convention : Reuss Voigt Hill
#
# Bulk Modulus (GPa) = 38.83302 61.54816 50.19059
# Shear Modulus (GPa) = 24.48333 37.99928 31.24130
#
# Velocity S-wave (km/s) = 3.00193 3.73984 3.39102
# Velocity P-wave (km/s) = 5.12920 6.42671 5.81426
#
# Compressibility (1/GPa) = 0.02575128
#
# Stress axis : x y z
#
# Youngs Moduli (GPa) = 89.75252 34.82373 49.54988
#
# Poissons Ratio (x) = 0.30737 0.01312
# Poissons Ratio (y) = 0.79218 0.39902
# Poissons Ratio (z) = 0.02377 0.28043
#
# Static dielectric constant tensor:
#      x y z
#    x 2.185360 -0.026980 0.046170 
#    y -0.026980 2.238490 0.033200 
#    z 0.046170 0.033200 2.239510 
# 
# From -- ./inp_files/388344.got.cif
#   From: 2010.05.17/outbox.cif.g08.bks.cpg/sg2_195_cif.got.tgz:388344.got - 2010.06.03 11:33:40.
