data_PCOD9098203
_publ_section_title
;
Structure prediction by ZEFSAII (Michael W. Deem and Ramdas Pophale) SiO2 
 PCOD9098203
Probable space group: P -1
;
_chemical_formula_sum "Si O2"
_cell_formula_units_Z 13
_cell_length_a 8.364843
_cell_length_b 7.192970
_cell_length_c 14.535313
_cell_angle_alpha 63.213832
_cell_angle_beta 54.638012
_cell_angle_gamma 55.207300
_cell_volume 576.160964
_symmetry_space_group_name_H-M "P -1"
_symmetry_group_IT_number 2
_symmetry_cell_setting 'triclinic'
loop_
_space_group_symop_operation_xyz
x,y,z
-x,-y,-z
loop_
_atom_site_type_symbol
_atom_site_label
_atom_site_fract_x
_atom_site_fract_y
_atom_site_fract_z
Si Si1 0.375783 0.221769 0.552574
Si Si2 0.890490 0.567292 0.645855
Si Si3 0.484169 0.812467 0.979476
Si Si4 0.000000 0.000000 0.500000
Si Si5 0.854852 0.376231 0.892928
Si Si6 0.345033 0.151166 0.794779
Si Si7 0.391046 0.587090 0.353750
O O1 0.378263 0.153576 0.673183
O O2 0.480322 0.393652 0.447277
O O3 0.122816 0.369054 0.578912
O O4 0.500000 0.000000 0.500000
O O5 0.892068 0.513630 0.764704
O O6 0.703149 0.522302 0.668408
O O7 0.891971 0.813585 0.578514
O O8 0.688219 0.566047 0.973928
O O9 0.473718 0.913964 0.857508
O O10 0.268453 0.771634 0.070834
O O11 0.500000 0.000000 0.000000
O O12 0.798942 0.185750 0.589865
O O13 0.093359 0.225872 0.884144
O O14 0.427462 0.338660 0.759814
#
# Coordination Sequence:
#
# PCOD9098203 Si02
#       7
#     2   2   2   1   2   2   2
#     4  10  23  40  61  97 138 176 219 265 327 396
#     4  10  22  42  66  97 130 183 222 271 329 396
#     4  11  24  46  74  95 126 174 223 280 347 395
#     4  10  20  36  64  88 134 178 226 262 312 388
#     4  10  24  46  67  98 135 165 225 282 333 400
#     4  11  24  44  65 101 136 174 220 279 333 394
#     4  11  23  39  64  95 136 178 226 262 332 391
#
# _framework density 22.563140000000001
#
# number of rings (size 3 to 8) (size 9 to 14) (size 15 to 20)
#    0.000    1.538    0.000    4.615    6.462    0.615 
#    8.308    0.000    0.000    0.000    0.000    0.000 
#    0.000    0.000    0.000    0.000    0.000    0.000 
#
# Total GULP energy -72412.935618 kJ/mol
# GULP energy per Si atom -5570.225817 kJ/mol
# Density = 2.251179 g / cm^3
# Si number density = 22.563140 Si / 1000 Ang^3
#
#
#
# Elastic Constant Matrix: (Units=GPa)
#
#
# Indices 1 2 3 4 5 6 
#
# 1 68.0804 48.6963 8.9169 -2.0206 -20.0786 9.8888
# 2 48.6963 148.1720 7.9922 -5.9403 -16.7967 14.6757
# 3 8.9169 7.9922 51.7082 -12.1862 -17.6296 -5.0278
# 4 -2.0206 -5.9403 -12.1862 25.0228 1.3617 -7.6350
# 5 -20.0786 -16.7967 -17.6296 1.3617 49.3787 -7.4037
# 6 9.8888 14.6757 -5.0278 -7.6350 -7.4037 34.7814
#
#
#
# Elastic Compliance Matrix: (Units=1/GPa)
#
#
# Indices 1 2 3 4 5 6 
#
# 1 0.021240 -0.006041 -0.001443 -0.001597 0.005685 -0.002839
# 2 -0.006041 0.008993 -0.000229 0.000958 0.000217 -0.001854
# 3 -0.001443 -0.000229 0.027945 0.016008 0.010412 0.010277
# 4 -0.001597 0.000958 0.016008 0.052137 0.006223 0.015133
# 5 0.005685 0.000217 0.010412 0.006223 0.027226 0.006959
# 6 -0.002839 -0.001854 0.010277 0.015133 0.006959 0.036629
#
#
# Mechanical properties :
#
#
# Convention : Reuss Voigt Hill
#
# Bulk Modulus (GPa) = 23.39060 44.35235 33.87148
# Shear Modulus (GPa) = 24.52812 35.32692 29.92752
#
# Velocity S-wave (km/s) = 3.30068 3.96117 3.64591
# Velocity P-wave (km/s) = 4.99151 6.37345 5.72434
#
# Compressibility (1/GPa) = 0.04275221
#
# Stress axis : x y z
#
# Youngs Moduli (GPa) = 47.08051 111.19497 35.78424
#
# Poissons Ratio (x) = 0.67174 0.05165
# Poissons Ratio (y) = 0.28442 0.00819
# Poissons Ratio (z) = 0.06795 0.02544
#
# Static dielectric constant tensor:
#      x y z
#    x 1.896380 -0.024630 0.016270 
#    y -0.024630 1.803220 0.024320 
#    z 0.016270 0.024320 1.875840 
# 
# From -- ./inp_files/131720.got.cif
#   From: 2010.05.17/outbox.cif.g08.bks.cpg/sg2_66_cif.got.tgz:131720.got - 2010.06.03 11:33:40.
