data_PCOD9098177
_publ_section_title
;
Structure prediction by ZEFSAII (Michael W. Deem and Ramdas Pophale) SiO2 
 PCOD9098177
Probable space group: P -1
;
_chemical_formula_sum "Si O2"
_cell_formula_units_Z 12
_cell_length_a 11.898507
_cell_length_b 4.977961
_cell_length_c 8.432073
_cell_angle_alpha 81.695983
_cell_angle_beta 69.510969
_cell_angle_gamma 83.331556
_cell_volume 461.774889
_symmetry_space_group_name_H-M "P -1"
_symmetry_group_IT_number 2
_symmetry_cell_setting 'triclinic'
loop_
_space_group_symop_operation_xyz
x,y,z
-x,-y,-z
loop_
_atom_site_type_symbol
_atom_site_label
_atom_site_fract_x
_atom_site_fract_y
_atom_site_fract_z
Si Si1 0.967595 0.675254 0.155834
Si Si2 0.305411 0.490602 0.989525
Si Si3 0.251538 0.949782 0.736400
Si Si4 0.519574 0.742482 0.348413
Si Si5 0.963985 0.136782 0.342405
Si Si6 0.370271 0.948069 0.145023
O O1 0.015325 0.951084 0.182932
O O2 0.827197 0.774858 0.200045
O O3 0.995056 0.446389 0.294619
O O4 0.000000 0.500000 0.000000
O O5 0.281120 0.199133 0.105222
O O6 0.334312 0.668960 0.111989
O O7 0.414227 0.413164 0.820602
O O8 0.233025 0.719339 0.897427
O O9 0.386734 0.040433 0.658403
O O10 0.179242 0.861820 0.625012
O O11 0.500000 0.500000 0.500000
O O12 0.402711 0.904497 0.316452
O O13 0.000000 0.000000 0.500000
O O14 0.500000 0.000000 0.000000
#
# Coordination Sequence:
#
# PCOD9098177 Si02
#       6
#     2   2   2   2   2   2
#     4  10  22  42  73  99 130 172 230 283 347 407
#     4  11  20  41  62  90 127 176 222 270 329 395
#     4  10  23  37  72  95 137 174 234 270 348 398
#     4  11  23  40  65  96 138 181 223 272 327 402
#     4  10  22  41  72  96 136 177 219 284 356 406
#     4  10  20  36  64  85 125 177 217 268 331 378
#
# _framework density 25.986688000000001
#
# number of rings (size 3 to 8) (size 9 to 14) (size 15 to 20)
#    1.000    0.667    3.333    4.000    0.000    0.667 
#    0.000    0.000   18.333    0.000    0.000    0.000 
#    0.000    0.000    0.000    0.000    0.000    0.000 
#
# Total GULP energy -66944.574122 kJ/mol
# GULP energy per Si atom -5578.714510 kJ/mol
# Density = 2.592754 g / cm^3
# Si number density = 25.986688 Si / 1000 Ang^3
#
#
#
# Elastic Constant Matrix: (Units=GPa)
#
#
# Indices 1 2 3 4 5 6 
#
# 1 84.5570 16.0555 27.1208 -10.6092 26.3833 2.9200
# 2 16.0555 171.8904 34.6806 -25.6137 11.1226 8.2442
# 3 27.1208 34.6806 94.5147 -24.9675 35.6560 -16.2056
# 4 -10.6092 -25.6137 -24.9675 55.0246 -15.0704 12.4105
# 5 26.3833 11.1226 35.6560 -15.0704 45.0637 -3.2630
# 6 2.9200 8.2442 -16.2056 12.4105 -3.2630 48.4111
#
#
#
# Elastic Compliance Matrix: (Units=1/GPa)
#
#
# Indices 1 2 3 4 5 6 
#
# 1 0.014815 -0.000450 -0.001543 0.000365 -0.007359 -0.001923
# 2 -0.000450 0.006856 -0.002609 0.002909 0.001415 -0.002664
# 3 -0.001543 -0.002609 0.017747 0.002272 -0.011363 0.005130
# 4 0.000365 0.002909 0.002272 0.023102 0.004608 -0.005369
# 5 -0.007359 0.001415 -0.011363 0.004608 0.036514 -0.002321
# 6 -0.001923 -0.002664 0.005130 -0.005369 -0.002321 0.024163
#
#
# Mechanical properties :
#
#
# Convention : Reuss Voigt Hill
#
# Bulk Modulus (GPa) = 33.09680 56.29732 44.69706
# Shear Modulus (GPa) = 35.09468 47.90691 41.50080
#
# Velocity S-wave (km/s) = 3.67888 4.29828 4.00059
# Velocity P-wave (km/s) = 5.55061 6.80768 6.21103
#
# Compressibility (1/GPa) = 0.03021440
#
# Stress axis : x y z
#
# Youngs Moduli (GPa) = 67.49908 145.86354 56.34746
#
# Poissons Ratio (x) = 0.06558 0.08696
# Poissons Ratio (y) = 0.03035 0.14700
# Poissons Ratio (z) = 0.10418 0.38052
#
# Static dielectric constant tensor:
#      x y z
#    x 1.239960 0.066300 -0.323420 
#    y 0.066300 2.000130 0.018270 
#    z -0.323420 0.018270 1.888650 
# 
# From -- ./inp_files/228998.got.cif
#   From: 2010.05.17/outbox.cif.g08.bks.cpg/sg2_115_cif.got.tgz:228998.got - 2010.06.03 11:33:40.
