data_PCOD9098258
_publ_section_title
;
Structure prediction by ZEFSAII (Michael W. Deem and Ramdas Pophale) SiO2 
 PCOD9098258
Probable space group: P -1
;
_chemical_formula_sum "Si O2"
_cell_formula_units_Z 16
_cell_length_a 13.514262
_cell_length_b 9.342179
_cell_length_c 11.660089
_cell_angle_alpha 140.373812
_cell_angle_beta 116.227679
_cell_angle_gamma 82.448337
_cell_volume 784.025506
_symmetry_space_group_name_H-M "P -1"
_symmetry_group_IT_number 2
_symmetry_cell_setting 'triclinic'
loop_
_space_group_symop_operation_xyz
x,y,z
-x,-y,-z
loop_
_atom_site_type_symbol
_atom_site_label
_atom_site_fract_x
_atom_site_fract_y
_atom_site_fract_z
Si Si1 0.667017 0.027966 0.146527
Si Si2 0.142529 0.625866 0.131928
Si Si3 0.510410 0.494537 0.724049
Si Si4 0.454240 0.702173 0.148328
Si Si5 0.634040 0.222200 0.495537
Si Si6 0.849852 0.843285 0.237023
Si Si7 0.703749 0.430305 0.230576
Si Si8 0.120508 0.089800 0.451308
O O1 0.649490 0.162382 0.334736
O O2 0.703109 0.213587 0.176313
O O3 0.764993 0.913270 0.153136
O O4 0.554937 0.783927 0.918071
O O5 0.236424 0.655934 0.302798
O O6 0.154879 0.897477 0.275751
O O7 0.165575 0.436034 0.942663
O O8 0.000000 0.500000 0.000000
O O9 0.571251 0.385458 0.788133
O O10 0.553081 0.384755 0.569182
O O11 0.377452 0.438249 0.666622
O O12 0.556215 0.964786 0.354595
O O13 0.500000 0.500000 0.000000
O O14 0.353169 0.680437 0.989824
O O15 0.823763 0.905195 0.390386
O O16 0.982085 0.992305 0.351937
O O17 0.828731 0.643662 0.407351
#
# Coordination Sequence:
#
# PCOD9098258 Si02
#       8
#     2   2   2   2   2   2   2   2
#     4  12  23  41  60  89 134 166 202 247 309 378
#     4  10  20  36  64  93 114 148 210 263 299 349
#     4  11  23  40  62  88 123 167 210 253 302 355
#     4  10  20  38  61  87 120 157 207 258 299 349
#     4  12  22  37  64  88 123 164 204 252 308 363
#     4  10  21  39  68  90 116 161 204 262 308 356
#     4  11  24  41  60  91 132 165 201 254 307 371
#     4  10  21  41  65  92 119 155 213 256 305 360
#
# _framework density 20.407499000000001
#
# number of rings (size 3 to 8) (size 9 to 14) (size 15 to 20)
#    0.000    1.250    5.000    3.000    0.000    1.000 
#    0.000    0.000    0.000    1.500    0.000    0.000 
#    0.000    0.000    0.000    0.000    0.000    0.000 
#
# Total GULP energy -89196.361904 kJ/mol
# GULP energy per Si atom -5574.772619 kJ/mol
# Density = 2.036105 g / cm^3
# Si number density = 20.407499 Si / 1000 Ang^3
#
#
#
# Elastic Constant Matrix: (Units=GPa)
#
#
# Indices 1 2 3 4 5 6 
#
# 1 63.1916 17.9147 29.7730 7.5057 -5.5654 1.4569
# 2 17.9147 95.9349 20.3852 17.3385 3.9030 19.5982
# 3 29.7730 20.3852 98.1307 22.2391 -0.0296 9.0629
# 4 7.5057 17.3385 22.2391 15.8936 3.8786 10.1052
# 5 -5.5654 3.9030 -0.0296 3.8786 33.4491 8.0187
# 6 1.4569 19.5982 9.0629 10.1052 8.0187 23.3536
#
#
#
# Elastic Compliance Matrix: (Units=1/GPa)
#
#
# Indices 1 2 3 4 5 6 
#
# 1 0.019511 -0.003026 -0.005329 -0.000952 0.003044 0.002757
# 2 -0.003026 0.014298 0.001186 -0.011109 0.000988 -0.007803
# 3 -0.005329 0.001186 0.016844 -0.024553 0.001107 0.003044
# 4 -0.000952 -0.011109 -0.024553 0.135141 -0.005524 -0.037669
# 5 0.003044 0.000988 0.001107 -0.005524 0.033457 -0.010546
# 6 0.002757 -0.007803 0.003044 -0.037669 -0.010546 0.067936
#
#
# Mechanical properties :
#
#
# Convention : Reuss Voigt Hill
#
# Bulk Modulus (GPa) = 27.53563 43.71145 35.62354
# Shear Modulus (GPa) = 15.94231 27.15153 21.54692
#
# Velocity S-wave (km/s) = 2.79803 3.65152 3.25288
# Velocity P-wave (km/s) = 4.89498 6.26450 5.62160
#
# Compressibility (1/GPa) = 0.03631658
#
# Stress axis : x y z
#
# Youngs Moduli (GPa) = 51.25254 69.93817 59.36685
#
# Poissons Ratio (x) = 0.21164 0.31637
# Poissons Ratio (y) = 0.15510 -0.07044
# Poissons Ratio (z) = 0.27313 -0.08298
#
# Static dielectric constant tensor:
#      x y z
#    x 1.763030 0.000150 0.003400 
#    y 0.000150 1.739250 -0.065450 
#    z 0.003400 -0.065450 1.810410 
# 
# From -- ./inp_files/281947.got.cif
#   From: 2010.05.17/outbox.cif.g08.bks.cpg/sg2_141_cif.got.tgz:281947.got - 2010.06.03 11:33:40.
