data_PCOD9098987
_publ_section_title
;
Structure prediction by ZEFSAII (Michael W. Deem and Ramdas Pophale) SiO2 
 PCOD9098987
Probable space group: P -1
;
_chemical_formula_sum "Si O2"
_cell_formula_units_Z 16
_cell_length_a 4.991641
_cell_length_b 12.818254
_cell_length_c 20.365887
_cell_angle_alpha 32.941930
_cell_angle_beta 107.486672
_cell_angle_gamma 95.674791
_cell_volume 645.667509
_symmetry_space_group_name_H-M "P -1"
_symmetry_group_IT_number 2
_symmetry_cell_setting 'triclinic'
loop_
_space_group_symop_operation_xyz
x,y,z
-x,-y,-z
loop_
_atom_site_type_symbol
_atom_site_label
_atom_site_fract_x
_atom_site_fract_y
_atom_site_fract_z
Si Si1 0.785199 0.456482 0.590580
Si Si2 0.036158 0.061380 0.756195
Si Si3 0.358854 0.007058 0.413755
Si Si4 0.083713 0.157089 0.010604
Si Si5 0.607926 0.234791 0.817727
Si Si6 0.619788 0.908524 0.354138
Si Si7 0.724090 0.389135 0.339133
Si Si8 0.911584 0.597266 0.764757
O O1 0.500000 0.500000 0.500000
O O2 0.035991 0.284209 0.662758
O O3 0.709075 0.356130 0.703599
O O4 0.811374 0.674575 0.493046
O O5 0.713252 0.084910 0.690955
O O6 0.262381 0.991651 0.750519
O O7 0.044205 0.924883 0.892275
O O8 0.109290 0.220830 0.283246
O O9 0.500000 0.000000 0.500000
O O10 0.584513 0.001509 0.374732
O O11 0.264061 0.803547 0.513092
O O12 0.848220 0.189087 0.917517
O O13 0.117641 0.374577 0.913384
O O14 0.368207 0.981845 0.097742
O O15 0.323325 0.396336 0.741886
O O16 0.419349 0.417747 0.260634
O O17 0.981435 0.349270 0.326446
#
# Coordination Sequence:
#
# PCOD9098987 Si02
#       8
#     2   2   2   2   2   2   2   2
#     4   9  18  37  59  94 126 159 201 256 317 372
#     4  10  23  39  62  88 127 165 203 252 308 376
#     4  10  22  41  63  93 124 160 211 263 311 365
#     4   9  20  39  60  90 127 164 213 249 304 372
#     4   9  17  36  63  91 123 165 204 259 309 370
#     4  11  22  40  63  90 122 164 205 255 318 367
#     4  10  20  37  58  90 120 152 199 255 314 353
#     4  10  22  37  59  86 120 159 198 256 301 354
#
# _framework density 24.780559
#
# number of rings (size 3 to 8) (size 9 to 14) (size 15 to 20)
#    0.000    2.250    1.250    0.750    0.000    6.500 
#    0.000   16.250    0.000    0.000    0.000    0.000 
#    0.000    0.000    0.000    0.000    0.000    0.000 
#
# Total GULP energy -89541.757549 kJ/mol
# GULP energy per Si atom -5596.359847 kJ/mol
# Density = 2.472416 g / cm^3
# Si number density = 24.780559 Si / 1000 Ang^3
#
#
#
# Elastic Constant Matrix: (Units=GPa)
#
#
# Indices 1 2 3 4 5 6 
#
# 1 84.9227 39.3383 6.4553 3.1503 -3.3181 -6.8450
# 2 39.3383 155.4141 68.4433 -1.3304 -2.3611 -39.8004
# 3 6.4553 68.4433 138.9517 -9.4314 -1.6319 -13.8815
# 4 3.1503 -1.3304 -9.4314 66.1153 -7.2277 -0.2830
# 5 -3.3181 -2.3611 -1.6319 -7.2277 20.7459 3.0846
# 6 -6.8450 -39.8004 -13.8815 -0.2830 3.0846 44.0848
#
#
#
# Elastic Compliance Matrix: (Units=1/GPa)
#
#
# Indices 1 2 3 4 5 6 
#
# 1 0.013697 -0.004470 0.001405 -0.000340 0.001912 -0.001602
# 2 -0.004470 0.011862 -0.004814 -0.000322 -0.001131 0.008577
# 3 0.001405 -0.004814 0.009482 0.001299 0.001055 -0.001207
# 4 -0.000340 -0.000322 0.001299 0.015931 0.005595 -0.000224
# 5 0.001912 -0.001131 0.001055 0.005595 0.050995 -0.003924
# 6 -0.001602 0.008577 -0.001207 -0.000224 -0.003924 0.030071
#
#
# Mechanical properties :
#
#
# Convention : Reuss Voigt Hill
#
# Bulk Modulus (GPa) = 51.85534 67.52915 59.69224
# Shear Modulus (GPa) = 32.42026 43.85930 38.13978
#
# Velocity S-wave (km/s) = 3.62096 4.21159 3.92739
# Velocity P-wave (km/s) = 6.20105 7.13863 6.68629
#
# Compressibility (1/GPa) = 0.01928442
#
# Stress axis : x y z
#
# Youngs Moduli (GPa) = 73.00658 84.30135 105.45781
#
# Poissons Ratio (x) = 0.37682 -0.14814
# Poissons Ratio (y) = 0.32633 0.50763
# Poissons Ratio (z) = -0.10255 0.40579
#
# Static dielectric constant tensor:
#      x y z
#    x 1.971320 0.056610 0.060790 
#    y 0.056610 2.037760 -0.046580 
#    z 0.060790 -0.046580 1.986080 
# 
# From -- ./inp_files/441291.got.cif
#   From: 2010.05.17/outbox.cif.g08.bks.cpg/sg2_221_cif.got.tgz:441291.got - 2010.06.03 11:33:40.
