data_PCOD9098469
_publ_section_title
;
Structure prediction by ZEFSAII (Michael W. Deem and Ramdas Pophale) SiO2 
 PCOD9098469
Probable space group: P -1
;
_chemical_formula_sum "Si O2"
_cell_formula_units_Z 12
_cell_length_a 6.692250
_cell_length_b 11.933275
_cell_length_c 12.654119
_cell_angle_alpha 46.952798
_cell_angle_beta 112.446711
_cell_angle_gamma 80.382547
_cell_volume 528.271843
_symmetry_space_group_name_H-M "P -1"
_symmetry_group_IT_number 2
_symmetry_cell_setting 'triclinic'
loop_
_space_group_symop_operation_xyz
x,y,z
-x,-y,-z
loop_
_atom_site_type_symbol
_atom_site_label
_atom_site_fract_x
_atom_site_fract_y
_atom_site_fract_z
Si Si1 0.398258 0.344480 0.842996
Si Si2 0.131987 0.661321 0.953057
Si Si3 0.394096 0.933884 0.320007
Si Si4 0.947777 0.592868 0.758569
Si Si5 0.252638 0.646123 0.438281
Si Si6 0.231510 0.024558 0.995778
O O1 0.639201 0.321179 0.974118
O O2 0.277068 0.517107 0.621090
O O3 0.558496 0.143375 0.937894
O O4 0.149451 0.424642 0.822224
O O5 0.176658 0.485587 0.142354
O O6 0.122620 0.623032 0.852890
O O7 0.827804 0.864159 0.792192
O O8 0.701060 0.795123 0.520822
O O9 0.294301 0.800998 0.387494
O O10 0.384078 0.989356 0.159671
O O11 0.500000 0.500000 0.500000
O O12 0.964549 0.766802 0.238359
O O13 0.000000 0.000000 0.000000
#
# Coordination Sequence:
#
# PCOD9098469 Si02
#       6
#     2   2   2   2   2   2
#     4  12  22  42  67  94 127 161 214 256 312 380
#     4  11  23  47  64  85 135 166 208 262 311 363
#     4  11  21  41  66  90 128 168 203 258 316 367
#     4  11  27  40  65  97 119 173 214 255 308 369
#     4  11  19  37  67  92 124 167 201 247 323 372
#     4  10  20  36  66  95 119 170 202 249 325 369
#
# _framework density 22.715575000000001
#
# number of rings (size 3 to 8) (size 9 to 14) (size 15 to 20)
#    0.000    1.000    8.333    1.000    0.000    2.000 
#    0.000    2.500    0.000    0.000    0.000    0.000 
#    0.000    0.000    0.000    0.000    0.000    0.000 
#
# Total GULP energy -67205.091466 kJ/mol
# GULP energy per Si atom -5600.424289 kJ/mol
# Density = 2.266387 g / cm^3
# Si number density = 22.715575 Si / 1000 Ang^3
#
#
#
# Elastic Constant Matrix: (Units=GPa)
#
#
# Indices 1 2 3 4 5 6 
#
# 1 36.9245 9.4773 23.1350 16.0208 10.1396 -5.1721
# 2 9.4773 141.1889 65.5843 11.5785 1.8731 -6.8076
# 3 23.1350 65.5843 186.3571 16.6978 16.6337 -5.7634
# 4 16.0208 11.5785 16.6978 39.9464 4.3937 0.2951
# 5 10.1396 1.8731 16.6337 4.3937 32.8623 -2.3955
# 6 -5.1721 -6.8076 -5.7634 0.2951 -2.3955 33.3785
#
#
#
# Elastic Compliance Matrix: (Units=1/GPa)
#
#
# Indices 1 2 3 4 5 6 
#
# 1 0.037249 0.000133 -0.002633 -0.013025 -0.008071 0.004880
# 2 0.000133 0.008634 -0.002996 -0.001454 0.001278 0.001369
# 3 -0.002633 -0.002996 0.007036 -0.000744 -0.002477 0.000025
# 4 -0.013025 -0.001454 -0.000744 0.030995 0.000137 -0.002708
# 5 -0.008071 0.001278 -0.002477 0.000137 0.034158 0.001033
# 6 0.004880 0.001369 0.000025 -0.002708 0.001033 0.031097
#
#
# Mechanical properties :
#
#
# Convention : Reuss Voigt Hill
#
# Bulk Modulus (GPa) = 23.85100 62.31818 43.08459
# Shear Modulus (GPa) = 28.71305 38.98904 33.85104
#
# Velocity S-wave (km/s) = 3.55917 4.14744 3.86452
# Velocity P-wave (km/s) = 5.23573 7.10132 6.23865
#
# Compressibility (1/GPa) = 0.04192696
#
# Stress axis : x y z
#
# Youngs Moduli (GPa) = 26.84633 115.82155 142.12679
#
# Poissons Ratio (x) = -0.01542 0.37417
# Poissons Ratio (y) = -0.00357 0.42588
# Poissons Ratio (z) = 0.07068 0.34706
#
# Static dielectric constant tensor:
#      x y z
#    x 1.916170 0.064010 -0.029860 
#    y 0.064010 1.820130 -0.006110 
#    z -0.029860 -0.006110 1.826300 
# 
# From -- ./inp_files/106172.got.cif
#   From: 2010.05.17/outbox.cif.g08.bks.cpg/sg2_54_cif.got.tgz:106172.got - 2010.06.03 11:33:40.
