data_PCOD9098508
_publ_section_title
;
Structure prediction by ZEFSAII (Michael W. Deem and Ramdas Pophale) SiO2 
 PCOD9098508
Probable space group: P -1
;
_chemical_formula_sum "Si O2"
_cell_formula_units_Z 14
_cell_length_a 9.837467
_cell_length_b 11.835076
_cell_length_c 13.447454
_cell_angle_alpha 149.529958
_cell_angle_beta 130.810493
_cell_angle_gamma 39.151764
_cell_volume 500.726230
_symmetry_space_group_name_H-M "P -1"
_symmetry_group_IT_number 2
_symmetry_cell_setting 'triclinic'
loop_
_space_group_symop_operation_xyz
x,y,z
-x,-y,-z
loop_
_atom_site_type_symbol
_atom_site_label
_atom_site_fract_x
_atom_site_fract_y
_atom_site_fract_z
Si Si1 0.832433 0.504026 0.782106
Si Si2 0.026464 0.128550 0.764490
Si Si3 0.613475 0.689428 0.440858
Si Si4 0.868387 0.174956 0.923948
Si Si5 0.506138 0.183091 0.301070
Si Si6 0.332814 0.845115 0.001799
Si Si7 0.213351 0.280644 0.647280
O O1 0.606752 0.675849 0.748781
O O2 0.868047 0.303017 0.733208
O O3 0.004343 0.345460 0.655987
O O4 0.900546 0.694177 0.008076
O O5 0.251698 0.895801 0.648811
O O6 0.909750 0.075062 0.755676
O O7 0.627307 0.661665 0.545916
O O8 0.588517 0.453960 0.212761
O O9 0.796137 0.660584 0.430902
O O10 0.408932 0.985543 0.544897
O O11 0.736439 0.100717 0.874972
O O12 0.751860 0.493931 0.118121
O O13 0.106678 0.038537 0.982717
O O14 0.500530 0.080758 0.892658
#
# Coordination Sequence:
#
# PCOD9098508 Si02
#       7
#     2   2   2   2   2   2   2
#     4  10  20  36  67  93 129 177 226 259 329 399
#     4  10  20  38  69  94 129 183 216 267 330 398
#     4  10  22  37  67  96 136 170 215 279 332 383
#     4   9  19  40  65  91 135 174 209 274 336 376
#     4  12  22  39  73 101 122 178 229 261 335 404
#     4  10  21  40  66 103 131 163 224 284 323 387
#     4   9  17  40  61  88 135 176 203 270 333 380
#
# _framework density 27.959392000000001
#
# number of rings (size 3 to 8) (size 9 to 14) (size 15 to 20)
#    0.000    2.000    4.286    0.429    0.000    0.571 
#    0.000    7.143    3.143    6.000    0.000    0.000 
#    0.000    0.000    0.000    0.000    0.000    0.000 
#
# Total GULP energy -78596.977465 kJ/mol
# GULP energy per Si atom -5614.069819 kJ/mol
# Density = 2.789575 g / cm^3
# Si number density = 27.959392 Si / 1000 Ang^3
#
#
#
# Elastic Constant Matrix: (Units=GPa)
#
#
# Indices 1 2 3 4 5 6 
#
# 1 173.6641 84.6358 45.1863 -15.5572 -29.8647 29.2984
# 2 84.6358 133.5044 37.5310 -21.2924 -16.2507 17.3772
# 3 45.1863 37.5310 155.8705 -10.9781 -19.3488 14.8867
# 4 -15.5572 -21.2924 -10.9781 55.8749 17.9148 -9.8067
# 5 -29.8647 -16.2507 -19.3488 17.9148 50.8068 -8.0186
# 6 29.2984 17.3772 14.8867 -9.8067 -8.0186 41.8552
#
#
#
# Elastic Compliance Matrix: (Units=1/GPa)
#
#
# Indices 1 2 3 4 5 6 
#
# 1 0.009634 -0.005133 -0.000832 -0.001259 0.003527 -0.003936
# 2 -0.005133 0.011463 -0.001150 0.002950 -0.000865 -0.000232
# 3 -0.000832 -0.001150 0.007261 -0.000005 0.001722 -0.001194
# 4 -0.001259 0.002950 -0.000005 0.021452 -0.006829 0.003376
# 5 0.003527 -0.000865 0.001722 -0.006829 0.024604 0.000392
# 6 -0.003936 -0.000232 -0.001194 0.003376 0.000392 0.028034
#
#
# Mechanical properties :
#
#
# Convention : Reuss Voigt Hill
#
# Bulk Modulus (GPa) = 70.77451 88.63835 79.70643
# Shear Modulus (GPa) = 41.19068 49.41976 45.30522
#
# Velocity S-wave (km/s) = 3.84244 4.20879 4.02978
# Velocity P-wave (km/s) = 6.71223 7.44244 7.08675
#
# Compressibility (1/GPa) = 0.01412938
#
# Stress axis : x y z
#
# Youngs Moduli (GPa) = 103.79940 87.23847 137.72233
#
# Poissons Ratio (x) = 0.44777 0.11457
# Poissons Ratio (y) = 0.53278 0.15832
# Poissons Ratio (z) = 0.08635 0.10029
#
# Static dielectric constant tensor:
#      x y z
#    x 2.118090 0.035160 0.022220 
#    y 0.035160 2.076160 0.007920 
#    z 0.022220 0.007920 2.251470 
# 
# From -- ./inp_files/424273.got.cif
#   From: 2010.05.17/outbox.cif.g08.bks.cpg/sg2_213_cif.got.tgz:424273.got - 2010.06.03 11:33:40.
