data_PCOD9098209
_publ_section_title
;
Structure prediction by ZEFSAII (Michael W. Deem and Ramdas Pophale) SiO2 
 PCOD9098209
Probable space group: P -1
;
_chemical_formula_sum "Si O2"
_cell_formula_units_Z 16
_cell_length_a 16.882249
_cell_length_b 9.145984
_cell_length_c 13.223608
_cell_angle_alpha 92.977898
_cell_angle_beta 156.327964
_cell_angle_gamma 95.726744
_cell_volume 761.375645
_symmetry_space_group_name_H-M "P -1"
_symmetry_group_IT_number 2
_symmetry_cell_setting 'triclinic'
loop_
_space_group_symop_operation_xyz
x,y,z
-x,-y,-z
loop_
_atom_site_type_symbol
_atom_site_label
_atom_site_fract_x
_atom_site_fract_y
_atom_site_fract_z
Si Si1 0.121706 0.752042 0.996893
Si Si2 0.726031 0.628213 0.676309
Si Si3 0.719888 0.776311 0.021893
Si Si4 0.013139 0.121528 0.357135
Si Si5 0.541987 0.684643 0.034363
Si Si6 0.286541 0.551752 0.047033
Si Si7 0.476147 0.734989 0.537563
Si Si8 0.175557 0.672999 0.725985
O O1 0.072343 0.852910 0.852798
O O2 0.133603 0.603127 0.942252
O O3 0.937574 0.705532 0.863109
O O4 0.345857 0.817006 0.322021
O O5 0.684925 0.727720 0.724627
O O6 0.685767 0.448723 0.654185
O O7 0.519858 0.604304 0.367070
O O8 0.552760 0.789083 0.742292
O O9 0.609893 0.728011 0.999954
O O10 0.790698 0.632981 0.067963
O O11 0.917631 0.938045 0.262054
O O12 0.923749 0.206910 0.342415
O O13 0.264666 0.208069 0.665376
O O14 0.500000 0.500000 0.000000
O O15 0.329566 0.716253 0.812725
O O16 0.310891 0.645790 0.975720
O O17 0.000000 0.500000 0.500000
#
# Coordination Sequence:
#
# PCOD9098209 Si02
#       8
#     2   2   2   2   2   2   2   2
#     4  10  20  36  64  90 118 162 210 244 292 363
#     4   9  17  35  58  90 116 157 210 252 282 354
#     4  11  23  41  61  90 134 161 193 258 315 356
#     4  11  25  41  62  94 128 158 198 258 312 357
#     4  12  23  42  68  89 115 166 209 249 302 369
#     4   9  19  35  59  86 121 156 202 249 295 353
#     4   9  20  35  57  89 125 157 199 251 303 345
#     4  11  21  38  63  93 114 154 210 253 298 360
#
# _framework density 21.014593000000001
#
# number of rings (size 3 to 8) (size 9 to 14) (size 15 to 20)
#    0.000    1.750    2.500    2.250    1.750    1.000 
#    0.000    5.625    0.000    0.000    0.000    0.000 
#    0.000    0.000    0.000    0.000    0.000    0.000 
#
# Total GULP energy -89332.326216 kJ/mol
# GULP energy per Si atom -5583.270389 kJ/mol
# Density = 2.096676 g / cm^3
# Si number density = 21.014593 Si / 1000 Ang^3
#
#
#
# Elastic Constant Matrix: (Units=GPa)
#
#
# Indices 1 2 3 4 5 6 
#
# 1 118.9010 29.9294 40.4430 -2.9067 14.1815 24.9914
# 2 29.9294 47.8988 33.3218 14.2083 9.0368 6.8155
# 3 40.4430 33.3218 74.3260 1.5903 -0.0100 13.4137
# 4 -2.9067 14.2083 1.5903 22.3124 5.8749 1.7791
# 5 14.1815 9.0368 -0.0100 5.8749 40.8449 -6.3131
# 6 24.9914 6.8155 13.4137 1.7791 -6.3131 18.8035
#
#
#
# Elastic Compliance Matrix: (Units=1/GPa)
#
#
# Indices 1 2 3 4 5 6 
#
# 1 0.017350 -0.007841 -0.002009 0.011753 -0.009551 -0.023103
# 2 -0.007841 0.045255 -0.016876 -0.028787 -0.001895 0.008144
# 3 -0.002009 -0.016876 0.023385 0.008966 0.001894 -0.008107
# 4 0.011753 -0.028787 0.008966 0.068659 -0.010947 -0.021754
# 5 -0.009551 -0.001895 0.001894 -0.010947 0.033554 0.024331
# 6 -0.023103 0.008144 -0.008107 -0.021754 0.024331 0.096946
#
#
# Mechanical properties :
#
#
# Convention : Reuss Voigt Hill
#
# Bulk Modulus (GPa) = 30.73350 49.83491 40.28420
# Shear Modulus (GPa) = 14.30839 25.55426 19.93133
#
# Velocity S-wave (km/s) = 2.61220 3.49094 3.08304
# Velocity P-wave (km/s) = 4.87388 6.32572 5.64666
#
# Compressibility (1/GPa) = 0.03253779
#
# Stress axis : x y z
#
# Youngs Moduli (GPa) = 57.63822 22.09714 42.76273
#
# Poissons Ratio (x) = 0.17325 0.08590
# Poissons Ratio (y) = 0.45192 0.72168
# Poissons Ratio (z) = 0.11578 0.37292
#
# Static dielectric constant tensor:
#      x y z
#    x 1.819890 0.016220 -0.033760 
#    y 0.016220 1.771770 -0.030760 
#    z -0.033760 -0.030760 1.782440 
# 
# From -- ./inp_files/447579.got.cif
#   From: 2010.05.17/outbox.cif.g08.bks.cpg/sg2_224_cif.got.tgz:447579.got - 2010.06.03 11:33:40.
