data_PCOD9098275
_publ_section_title
;
Structure prediction by ZEFSAII (Michael W. Deem and Ramdas Pophale) SiO2 
 PCOD9098275
Probable space group: P -1
;
_chemical_formula_sum "Si O2"
_cell_formula_units_Z 12
_cell_length_a 17.990597
_cell_length_b 5.088264
_cell_length_c 10.242117
_cell_angle_alpha 90.862894
_cell_angle_beta 143.687482
_cell_angle_gamma 105.790681
_cell_volume 487.001504
_symmetry_space_group_name_H-M "P -1"
_symmetry_group_IT_number 2
_symmetry_cell_setting 'triclinic'
loop_
_space_group_symop_operation_xyz
x,y,z
-x,-y,-z
loop_
_atom_site_type_symbol
_atom_site_label
_atom_site_fract_x
_atom_site_fract_y
_atom_site_fract_z
Si Si1 0.865283 0.174968 0.836169
Si Si2 0.455340 0.085015 0.648907
Si Si3 0.517908 0.668468 0.892893
Si Si4 0.829620 0.919835 0.278618
Si Si5 0.998934 0.884484 0.213233
Si Si6 0.775284 0.342726 0.036488
O O1 0.867147 0.041339 0.692535
O O2 0.702795 0.092384 0.635864
O O3 0.000000 0.500000 0.000000
O O4 0.918041 0.028664 0.020202
O O5 0.478412 0.411666 0.725092
O O6 0.446786 0.872954 0.757396
O O7 0.601354 0.146565 0.778352
O O8 0.500000 0.500000 0.000000
O O9 0.685155 0.894544 0.131046
O O10 0.793652 0.596168 0.170457
O O11 0.849752 0.155123 0.195131
O O12 0.939298 0.011374 0.553200
O O13 0.874243 0.542772 0.059319
#
# Coordination Sequence:
#
# PCOD9098275 Si02
#       6
#     2   2   2   2   2   2
#     4  11  28  43  64  92 132 182 217 261 312 387
#     4  10  23  42  62  92 129 161 222 259 314 384
#     4  10  20  36  64  94 126 167 205 267 323 374
#     4  10  22  39  68 102 129 161 212 271 331 382
#     4  11  25  43  65  95 133 172 216 263 322 386
#     4  10  23  43  70 100 125 167 212 275 329 375
#
# _framework density 24.640578999999999
#
# number of rings (size 3 to 8) (size 9 to 14) (size 15 to 20)
#    0.000    1.667    0.000    2.500   11.667    2.000 
#    0.000    0.833    0.000    0.000    0.000    0.000 
#    0.000    0.000    0.000    0.000    0.000    0.000 
#
# Total GULP energy -66961.749323 kJ/mol
# GULP energy per Si atom -5580.145777 kJ/mol
# Density = 2.458450 g / cm^3
# Si number density = 24.640579 Si / 1000 Ang^3
#
#
#
# Elastic Constant Matrix: (Units=GPa)
#
#
# Indices 1 2 3 4 5 6 
#
# 1 88.1691 32.7816 52.5784 -8.6150 10.4112 20.7886
# 2 32.7816 172.2535 65.0413 -18.9084 15.7264 21.8858
# 3 52.5784 65.0413 172.7886 10.2822 37.9142 6.1435
# 4 -8.6150 -18.9084 10.2822 26.1969 -6.9202 -2.1847
# 5 10.4112 15.7264 37.9142 -6.9202 30.7301 -6.3057
# 6 20.7886 21.8858 6.1435 -2.1847 -6.3057 47.7675
#
#
#
# Elastic Compliance Matrix: (Units=1/GPa)
#
#
# Indices 1 2 3 4 5 6 
#
# 1 0.016750 0.000611 -0.006080 0.008393 0.002148 -0.006120
# 2 0.000611 0.008326 -0.004081 0.008034 0.001771 -0.002954
# 3 -0.006080 -0.004081 0.013472 -0.014376 -0.015700 0.000053
# 4 0.008393 0.008034 -0.014376 0.058771 0.024096 0.000384
# 5 0.002148 0.001771 -0.015700 0.024096 0.057545 0.008971
# 6 -0.006120 -0.002954 0.000053 0.000384 0.008971 0.026147
#
#
# Mechanical properties :
#
#
# Convention : Reuss Voigt Hill
#
# Bulk Modulus (GPa) = 51.42223 81.55709 66.48966
# Shear Modulus (GPa) = 24.20202 39.79289 31.99745
#
# Velocity S-wave (km/s) = 3.13741 4.02298 3.60747
# Velocity P-wave (km/s) = 5.83427 7.39931 6.66290
#
# Compressibility (1/GPa) = 0.01944684
#
# Stress axis : x y z
#
# Youngs Moduli (GPa) = 59.70216 120.10794 74.22575
#
# Poissons Ratio (x) = -0.07336 0.45129
# Poissons Ratio (y) = -0.03647 0.30295
# Poissons Ratio (z) = 0.36299 0.49022
#
# Static dielectric constant tensor:
#      x y z
#    x 2.124510 -0.026070 -0.061070 
#    y -0.026070 2.304050 -0.084430 
#    z -0.061070 -0.084430 2.078230 
# 
# From -- ./inp_files/60607.got.cif
#   From: 2010.05.17/outbox.cif.g08.bks.cpg/sg2_31_cif.got.tgz:60607.got - 2010.06.03 11:33:40.
