data_PCOD9098772
_publ_section_title
;
Structure prediction by ZEFSAII (Michael W. Deem and Ramdas Pophale) SiO2 
 PCOD9098772
Probable space group: P -1
;
_chemical_formula_sum "Si O2"
_cell_formula_units_Z 14
_cell_length_a 9.043201
_cell_length_b 14.053489
_cell_length_c 8.925332
_cell_angle_alpha 127.015972
_cell_angle_beta 94.213273
_cell_angle_gamma 123.705876
_cell_volume 594.960637
_symmetry_space_group_name_H-M "P -1"
_symmetry_group_IT_number 2
_symmetry_cell_setting 'triclinic'
loop_
_space_group_symop_operation_xyz
x,y,z
-x,-y,-z
loop_
_atom_site_type_symbol
_atom_site_label
_atom_site_fract_x
_atom_site_fract_y
_atom_site_fract_z
Si Si1 0.353901 0.745502 0.561417
Si Si2 0.977596 0.712431 0.437968
Si Si3 0.859139 0.129865 0.946116
Si Si4 0.903032 0.556829 0.966072
Si Si5 0.082275 0.041657 0.715064
Si Si6 0.298433 0.460036 0.391986
Si Si7 0.482760 0.441315 0.113114
O O1 0.150013 0.717397 0.515661
O O2 0.330073 0.621106 0.559199
O O3 0.595135 0.955173 0.792554
O O4 0.317752 0.646742 0.312308
O O5 0.926906 0.662209 0.207481
O O6 0.717793 0.557483 0.322619
O O7 0.064162 0.898285 0.637396
O O8 0.920362 0.281419 0.989685
O O9 0.935724 0.049449 0.803740
O O10 0.043207 0.263938 0.218109
O O11 0.000000 0.500000 0.000000
O O12 0.340164 0.236083 0.914257
O O13 0.000000 0.000000 0.500000
O O14 0.500000 0.500000 0.500000
O O15 0.329351 0.440767 0.195929
O O16 0.500000 0.500000 0.000000
#
# Coordination Sequence:
#
# PCOD9098772 Si02
#       7
#     2   2   2   2   2   2   2
#     4  10  22  36  56  82 118 154 199 246 296 354
#     4  11  21  33  53  87 119 156 192 241 296 344
#     4  10  20  37  57  83 114 156 201 240 291 357
#     4   9  19  31  48  83 122 155 189 232 292 346
#     4  11  20  31  53  84 118 152 194 234 287 348
#     4  10  23  43  64  85 113 155 203 247 295 356
#     4  11  21  37  63  87 119 154 197 242 290 352
#
# _framework density 23.530965999999999
#
# number of rings (size 3 to 8) (size 9 to 14) (size 15 to 20)
#    0.000    1.714    2.857    2.571    2.000    6.286 
#    0.000    0.714    0.000    4.286    0.000    0.000 
#    0.000    0.000    0.000    0.000    0.000    0.000 
#
# Total GULP energy -77943.195662 kJ/mol
# GULP energy per Si atom -5567.371119 kJ/mol
# Density = 2.347741 g / cm^3
# Si number density = 23.530966 Si / 1000 Ang^3
#
#
#
# Elastic Constant Matrix: (Units=GPa)
#
#
# Indices 1 2 3 4 5 6 
#
# 1 127.1818 51.7110 63.6680 31.9900 21.0075 -24.8394
# 2 51.7110 81.7606 47.5863 32.2988 6.6465 -23.7278
# 3 63.6680 47.5863 166.4287 52.7753 40.9244 -14.2490
# 4 31.9900 32.2988 52.7753 43.2283 2.9427 -7.6113
# 5 21.0075 6.6465 40.9244 2.9427 42.6604 -0.1279
# 6 -24.8394 -23.7278 -14.2490 -7.6113 -0.1279 42.3054
#
#
#
# Elastic Compliance Matrix: (Units=1/GPa)
#
#
# Indices 1 2 3 4 5 6 
#
# 1 0.012568 -0.004382 -0.000897 -0.003949 -0.004362 0.003896
# 2 -0.004382 0.021883 -0.000253 -0.011455 -0.000196 0.007554
# 3 -0.000897 -0.000253 0.014681 -0.015979 -0.012496 0.001363
# 4 -0.003949 -0.011455 -0.015979 0.052248 0.015440 -0.004679
# 5 -0.004362 -0.000196 -0.012496 0.015440 0.036530 -0.003991
# 6 0.003896 0.007554 0.001363 -0.004679 -0.003991 0.029767
#
#
# Mechanical properties :
#
#
# Convention : Reuss Voigt Hill
#
# Bulk Modulus (GPa) = 26.26862 77.92240 52.09551
# Shear Modulus (GPa) = 26.11940 39.79920 32.95930
#
# Velocity S-wave (km/s) = 3.33528 4.11707 3.74662
# Velocity P-wave (km/s) = 5.10096 7.46907 6.39558
#
# Compressibility (1/GPa) = 0.03806823
#
# Stress axis : x y z
#
# Youngs Moduli (GPa) = 79.56791 45.69788 68.11738
#
# Poissons Ratio (x) = 0.20023 0.06107
# Poissons Ratio (y) = 0.34863 0.01726
# Poissons Ratio (z) = 0.07134 0.01158
#
# Static dielectric constant tensor:
#      x y z
#    x 1.984310 -0.002140 0.018780 
#    y -0.002140 2.209530 -0.090240 
#    z 0.018780 -0.090240 1.729150 
# 
# From -- ./inp_files/251280.got.cif
#   From: 2010.05.17/outbox.cif.g08.bks.cpg/sg2_126_cif.got.tgz:251280.got - 2010.06.03 11:33:40.
