data_PCOD9098652
_publ_section_title
;
Structure prediction by ZEFSAII (Michael W. Deem and Ramdas Pophale) SiO2 
 PCOD9098652
Probable space group: P -1
;
_chemical_formula_sum "Si O2"
_cell_formula_units_Z 16
_cell_length_a 20.795947
_cell_length_b 9.273151
_cell_length_c 7.537801
_cell_angle_alpha 117.828787
_cell_angle_beta 116.185571
_cell_angle_gamma 112.750472
_cell_volume 767.063733
_symmetry_space_group_name_H-M "P -1"
_symmetry_group_IT_number 2
_symmetry_cell_setting 'triclinic'
loop_
_space_group_symop_operation_xyz
x,y,z
-x,-y,-z
loop_
_atom_site_type_symbol
_atom_site_label
_atom_site_fract_x
_atom_site_fract_y
_atom_site_fract_z
Si Si1 0.697731 0.285291 0.033710
Si Si2 0.928796 0.743489 0.665810
Si Si3 0.805242 0.877618 0.290891
Si Si4 0.854660 0.610555 0.118530
Si Si5 0.535458 0.512429 0.301763
Si Si6 0.668422 0.897726 0.976438
Si Si7 0.410823 0.583162 0.027876
Si Si8 0.015036 0.344009 0.995604
O O1 0.799101 0.547074 0.406673
O O2 0.747474 0.353908 0.934736
O O3 0.596207 0.233660 0.883278
O O4 0.682197 0.088221 0.997867
O O5 0.939947 0.746669 0.467390
O O6 0.956120 0.629865 0.748777
O O7 0.000000 0.000000 0.000000
O O8 0.832659 0.763903 0.145109
O O9 0.695141 0.646553 0.124234
O O10 0.778678 0.002361 0.234446
O O11 0.902241 0.064553 0.652805
O O12 0.896461 0.591047 0.985927
O O13 0.611683 0.665969 0.649879
O O14 0.421089 0.236410 0.055272
O O15 0.591963 0.500712 0.216750
O O16 0.507911 0.648327 0.275299
O O17 0.000000 0.500000 0.000000
#
# Coordination Sequence:
#
# PCOD9098652 Si02
#       8
#     2   2   2   2   2   2   2   2
#     4   9  20  37  57  84 119 147 191 250 276 342
#     4  10  20  39  60  84 115 160 195 234 284 344
#     4  10  20  38  56  78 115 151 192 241 274 351
#     4   9  22  40  56  83 116 158 193 237 280 342
#     4   9  20  35  58  81 110 152 187 233 296 355
#     4  10  20  37  55  85 114 143 192 241 293 336
#     4   9  18  38  57  79 110 150 192 233 291 346
#     4  12  23  37  58  87 120 156 192 240 290 330
#
# _framework density 20.858763
#
# number of rings (size 3 to 8) (size 9 to 14) (size 15 to 20)
#    0.750    1.500    1.250    1.125    0.000    3.500 
#    2.250    1.250    0.000    0.000    0.000    0.000 
#    0.000    0.000    0.000    0.000    0.000    0.000 
#
# Total GULP energy -89136.925196 kJ/mol
# GULP energy per Si atom -5571.057825 kJ/mol
# Density = 2.081129 g / cm^3
# Si number density = 20.858763 Si / 1000 Ang^3
#
#
#
# Elastic Constant Matrix: (Units=GPa)
#
#
# Indices 1 2 3 4 5 6 
#
# 1 97.8193 23.7388 6.7533 -1.4684 -0.5597 -7.6889
# 2 23.7388 105.2592 -5.2258 7.9106 6.3478 -16.6158
# 3 6.7533 -5.2258 27.5503 -2.3353 5.2812 -1.9220
# 4 -1.4684 7.9106 -2.3353 20.4036 -3.3178 -3.1414
# 5 -0.5597 6.3478 5.2812 -3.3178 12.4600 -8.7718
# 6 -7.6889 -16.6158 -1.9220 -3.1414 -8.7718 16.5189
#
#
#
# Elastic Compliance Matrix: (Units=1/GPa)
#
#
# Indices 1 2 3 4 5 6 
#
# 1 0.012056 -0.002474 -0.004627 0.004756 0.011955 0.009837
# 2 -0.002474 0.012162 0.003659 -0.003202 -0.001657 0.010018
# 3 -0.004627 0.003659 0.042406 -0.002395 -0.026281 -0.007950
# 4 0.004756 -0.003202 -0.002395 0.062470 0.043044 0.033452
# 5 0.011955 -0.001657 -0.026281 0.043044 0.176619 0.102813
# 6 0.009837 0.010018 -0.007950 0.033452 0.102813 0.135225
#
#
# Mechanical properties :
#
#
# Convention : Reuss Voigt Hill
#
# Bulk Modulus (GPa) = 16.73949 31.24014 23.98981
# Shear Modulus (GPa) = 10.68981 23.56734 17.12857
#
# Velocity S-wave (km/s) = 2.26627 3.36498 2.86871
# Velocity P-wave (km/s) = 3.85883 5.48698 4.74328
#
# Compressibility (1/GPa) = 0.05973898
#
# Stress axis : x y z
#
# Youngs Moduli (GPa) = 82.94746 82.22317 23.58180
#
# Poissons Ratio (x) = 0.20343 0.10911
# Poissons Ratio (y) = 0.20522 -0.08628
# Poissons Ratio (z) = 0.38378 -0.30083
#
# Static dielectric constant tensor:
#      x y z
#    x 1.726210 -0.003150 0.018920 
#    y -0.003150 1.827920 0.003080 
#    z 0.018920 0.003080 1.782850 
# 
# From -- ./inp_files/329644.got.cif
#   From: 2010.05.17/outbox.cif.g08.bks.cpg/sg2_165_cif.got.tgz:329644.got - 2010.06.03 11:33:40.
