data_PCOD9098534
_publ_section_title
;
Structure prediction by ZEFSAII (Michael W. Deem and Ramdas Pophale) SiO2 
 PCOD9098534
Probable space group: P -1
;
_chemical_formula_sum "Si O2"
_cell_formula_units_Z 15
_cell_length_a 8.542569
_cell_length_b 15.767337
_cell_length_c 7.600089
_cell_angle_alpha 97.563353
_cell_angle_beta 68.523307
_cell_angle_gamma 50.826336
_cell_volume 638.254959
_symmetry_space_group_name_H-M "P -1"
_symmetry_group_IT_number 2
_symmetry_cell_setting 'triclinic'
loop_
_space_group_symop_operation_xyz
x,y,z
-x,-y,-z
loop_
_atom_site_type_symbol
_atom_site_label
_atom_site_fract_x
_atom_site_fract_y
_atom_site_fract_z
Si Si1 0.947761 0.598525 0.176454
Si Si2 0.522849 0.331490 0.510322
Si Si3 0.031975 0.961465 0.769954
Si Si4 0.500000 0.500000 0.500000
Si Si5 0.268411 0.430116 0.301352
Si Si6 0.943930 0.748530 0.943426
Si Si7 0.326810 0.003264 0.687382
Si Si8 0.488436 0.160181 0.092089
O O1 0.683573 0.664518 0.381823
O O2 0.175902 0.517699 0.197322
O O3 0.918747 0.693248 0.101674
O O4 0.000000 0.500000 0.000000
O O5 0.783322 0.187198 0.361225
O O6 0.798328 0.362901 0.291024
O O7 0.417555 0.421242 0.395888
O O8 0.173498 0.989802 0.637507
O O9 0.000000 0.000000 0.000000
O O10 0.750757 0.051080 0.854534
O O11 0.491911 0.576671 0.351721
O O12 0.425123 0.285459 0.159215
O O13 0.000000 0.500000 0.500000
O O14 0.728317 0.805312 0.911322
O O15 0.876373 0.865141 0.085710
O O16 0.500000 0.000000 0.500000
O O17 0.483411 0.892705 0.741063
#
# Coordination Sequence:
#
# PCOD9098534 Si02
#       8
#     2   2   2   1   2   2   2   2
#     4  11  21  42  64  95 128 175 215 271 328 395
#     4  11  21  40  66  95 132 172 222 265 335 401
#     4  10  20  40  69  91 127 178 217 262 322 402
#     4  12  24  40  66 100 138 172 216 284 340 384
#     4  10  20  36  68  91 123 174 224 254 321 408
#     4  12  25  43  69  97 139 173 224 278 333 395
#     4  11  24  43  68 101 135 171 221 286 333 381
#     4  11  22  43  66  95 127 182 227 257 336 407
#
# _framework density 23.501579
#
# number of rings (size 3 to 8) (size 9 to 14) (size 15 to 20)
#    0.000    1.067    5.333    3.600    1.867    0.000 
#    0.000    6.000    0.000    0.000    0.000    0.000 
#    0.000    0.000    0.000    0.000    0.000    0.000 
#
# Total GULP energy -83620.029182 kJ/mol
# GULP energy per Si atom -5574.668612 kJ/mol
# Density = 2.344809 g / cm^3
# Si number density = 23.501579 Si / 1000 Ang^3
#
#
#
# Elastic Constant Matrix: (Units=GPa)
#
#
# Indices 1 2 3 4 5 6 
#
# 1 101.7954 50.6744 48.3721 11.1531 -34.2671 -6.0311
# 2 50.6744 147.0700 64.2379 28.3609 -20.2540 11.7216
# 3 48.3721 64.2379 99.5651 28.9689 -28.5139 -7.1450
# 4 11.1531 28.3609 28.9689 62.5674 4.7312 1.0453
# 5 -34.2671 -20.2540 -28.5139 4.7312 44.7709 10.7075
# 6 -6.0311 11.7216 -7.1450 1.0453 10.7075 49.6701
#
#
#
# Elastic Compliance Matrix: (Units=1/GPa)
#
#
# Indices 1 2 3 4 5 6 
#
# 1 0.015735 -0.002700 -0.003107 -0.000818 0.008881 0.000204
# 2 -0.002700 0.010729 -0.005115 -0.001999 0.000623 -0.003688
# 3 -0.003107 -0.005115 0.019124 -0.006598 0.007692 0.002062
# 4 -0.000818 -0.001999 -0.006598 0.020689 -0.008094 0.000733
# 5 0.008881 0.000623 0.007692 -0.008094 0.036524 -0.005665
# 6 0.000204 -0.003688 0.002062 0.000733 -0.005665 0.022530
#
#
# Mechanical properties :
#
#
# Convention : Reuss Voigt Hill
#
# Bulk Modulus (GPa) = 42.11566 74.99994 58.55780
# Shear Modulus (GPa) = 32.23901 43.74474 37.99188
#
# Velocity S-wave (km/s) = 3.70777 4.31902 4.02502
# Velocity P-wave (km/s) = 6.02407 7.54015 6.82434
#
# Compressibility (1/GPa) = 0.02374413
#
# Stress axis : x y z
#
# Youngs Moduli (GPa) = 63.55084 93.20256 52.29097
#
# Poissons Ratio (x) = 0.25168 0.16245
# Poissons Ratio (y) = 0.17161 0.26748
# Poissons Ratio (z) = 0.19743 0.47675
#
# Static dielectric constant tensor:
#      x y z
#    x 2.383260 0.156670 0.059340 
#    y 0.156670 2.094250 -0.017120 
#    z 0.059340 -0.017120 2.040430 
# 
# From -- ./inp_files/201873.got.cif
#   From: 2010.05.17/outbox.cif.g08.bks.cpg/sg2_101_cif.got.tgz:201873.got - 2010.06.03 11:33:40.
