data_PCOD9098046
_publ_section_title
;
Structure prediction by ZEFSAII (Michael W. Deem and Ramdas Pophale) SiO2 
 PCOD9098046
Probable space group: P -1
;
_chemical_formula_sum "Si O2"
_cell_formula_units_Z 16
_cell_length_a 11.207425
_cell_length_b 14.217633
_cell_length_c 11.770255
_cell_angle_alpha 78.278055
_cell_angle_beta 61.221499
_cell_angle_gamma 28.701702
_cell_volume 674.074528
_symmetry_space_group_name_H-M "P -1"
_symmetry_group_IT_number 2
_symmetry_cell_setting 'triclinic'
loop_
_space_group_symop_operation_xyz
x,y,z
-x,-y,-z
loop_
_atom_site_type_symbol
_atom_site_label
_atom_site_fract_x
_atom_site_fract_y
_atom_site_fract_z
Si Si1 0.294766 0.581490 0.476970
Si Si2 0.207192 0.683642 0.848154
Si Si3 0.517118 0.280741 0.743866
Si Si4 0.478887 0.212842 0.997976
Si Si5 0.549793 0.772660 0.637851
Si Si6 0.902899 0.646067 0.675558
Si Si7 0.624576 0.271164 0.089597
Si Si8 0.142139 0.989887 0.565407
O O1 0.500000 0.500000 0.500000
O O2 0.596320 0.366228 0.308956
O O3 0.061022 0.648367 0.610115
O O4 0.061199 0.799019 0.458301
O O5 0.315800 0.507045 0.805928
O O6 0.346025 0.634824 0.916730
O O7 0.826193 0.942322 0.937124
O O8 0.564712 0.224968 0.603008
O O9 0.413728 0.263810 0.881759
O O10 0.889633 0.064167 0.665039
O O11 0.207780 0.327189 0.161877
O O12 0.500797 0.306848 0.018573
O O13 0.596719 0.835058 0.681485
O O14 0.565492 0.675598 0.745683
O O15 0.238964 0.962178 0.652803
O O16 0.832230 0.584992 0.459811
O O17 0.000000 0.000000 0.000000
#
# Coordination Sequence:
#
# PCOD9098046 Si02
#       8
#     2   2   2   2   2   2   2   2
#     4  11  23  40  68  97 123 169 226 264 323 396
#     4  10  20  36  63  90 127 171 217 267 318 383
#     4  10  22  38  62  99 127 171 224 264 328 383
#     4  10  21  41  60  92 134 171 211 270 331 383
#     4  10  20  40  64  93 133 168 218 259 328 391
#     4  10  23  40  67  94 126 179 208 264 332 389
#     4   9  17  32  63  92 122 168 210 264 318 374
#     4  10  22  39  65  96 127 169 218 285 309 377
#
# _framework density 23.736246999999999
#
# number of rings (size 3 to 8) (size 9 to 14) (size 15 to 20)
#    0.000    2.000    1.250    2.250    5.250    1.000 
#    2.250    5.625    0.000    0.000    0.000    0.000 
#    0.000    0.000    0.000    0.000    0.000    0.000 
#
# Total GULP energy -89238.175200 kJ/mol
# GULP energy per Si atom -5577.385950 kJ/mol
# Density = 2.368222 g / cm^3
# Si number density = 23.736247 Si / 1000 Ang^3
#
#
#
# Elastic Constant Matrix: (Units=GPa)
#
#
# Indices 1 2 3 4 5 6 
#
# 1 82.1903 14.8955 5.4836 -14.8044 -2.1154 -12.9019
# 2 14.8955 71.0473 8.4743 -6.2556 5.7947 -0.7462
# 3 5.4836 8.4743 124.8072 -9.7441 -13.8495 12.5261
# 4 -14.8044 -6.2556 -9.7441 32.0221 -4.0913 9.4413
# 5 -2.1154 5.7947 -13.8495 -4.0913 34.7522 -9.5768
# 6 -12.9019 -0.7462 12.5261 9.4413 -9.5768 26.7936
#
#
#
# Elastic Compliance Matrix: (Units=1/GPa)
#
#
# Indices 1 2 3 4 5 6 
#
# 1 0.014707 -0.002862 -0.000380 0.004563 0.003653 0.006878
# 2 -0.002862 0.015192 -0.000938 0.001598 -0.003539 -0.002344
# 3 -0.000380 -0.000938 0.009259 0.004310 0.002952 -0.005001
# 4 0.004563 0.001598 0.004310 0.039012 0.002880 -0.012491
# 5 0.003653 -0.003539 0.002952 0.002880 0.034277 0.011517
# 6 0.006878 -0.002344 -0.005001 -0.012491 0.011517 0.051425
#
#
# Mechanical properties :
#
#
# Convention : Reuss Voigt Hill
#
# Bulk Modulus (GPa) = 32.47207 37.30572 34.88889
# Shear Modulus (GPa) = 27.39749 35.32635 31.36192
#
# Velocity S-wave (km/s) = 3.40111 3.86202 3.63887
# Velocity P-wave (km/s) = 5.39754 5.96974 5.69084
#
# Compressibility (1/GPa) = 0.03079570
#
# Stress axis : x y z
#
# Youngs Moduli (GPa) = 67.99694 65.82492 108.00471
#
# Poissons Ratio (x) = 0.18838 0.04109
# Poissons Ratio (y) = 0.19460 0.10136
# Poissons Ratio (z) = 0.02587 0.06177
#
# Static dielectric constant tensor:
#      x y z
#    x 2.073700 -0.042110 0.064990 
#    y -0.042110 1.967170 -0.003380 
#    z 0.064990 -0.003380 2.002850 
# 
# From -- ./inp_files/433935.got.cif
#   From: 2010.05.17/outbox.cif.g08.bks.cpg/sg2_217_cif.got.tgz:433935.got - 2010.06.03 11:33:40.
