data_PCOD9098483
_publ_section_title
;
Structure prediction by ZEFSAII (Michael W. Deem and Ramdas Pophale) SiO2 
 PCOD9098483
Probable space group: P -1
;
_chemical_formula_sum "Si O2"
_cell_formula_units_Z 14
_cell_length_a 7.300589
_cell_length_b 10.125602
_cell_length_c 19.449001
_cell_angle_alpha 146.256050
_cell_angle_beta 131.344971
_cell_angle_gamma 66.237158
_cell_volume 561.436896
_symmetry_space_group_name_H-M "P -1"
_symmetry_group_IT_number 2
_symmetry_cell_setting 'triclinic'
loop_
_space_group_symop_operation_xyz
x,y,z
-x,-y,-z
loop_
_atom_site_type_symbol
_atom_site_label
_atom_site_fract_x
_atom_site_fract_y
_atom_site_fract_z
Si Si1 0.878774 0.092624 0.694154
Si Si2 0.502648 0.134404 0.389907
Si Si3 0.130220 0.320677 0.283037
Si Si4 0.186229 0.480812 0.600197
Si Si5 0.171700 0.177852 0.677491
Si Si6 0.560440 0.656682 0.011277
Si Si7 0.368098 0.034680 0.055393
O O1 0.629374 0.056070 0.662831
O O2 0.829642 0.806564 0.532898
O O3 0.980805 0.239730 0.712007
O O4 0.128575 0.214302 0.858901
O O5 0.289824 0.191747 0.314553
O O6 0.671225 0.412606 0.580381
O O7 0.668936 0.996884 0.329681
O O8 0.949672 0.431934 0.332483
O O9 0.937681 0.103280 0.093879
O O10 0.000000 0.500000 0.500000
O O11 0.483624 0.675395 0.760301
O O12 0.392067 0.439705 0.822935
O O13 0.000000 0.000000 0.500000
O O14 0.450074 0.878577 0.067491
O O15 0.500000 0.500000 0.000000
O O16 0.500000 0.000000 0.000000
#
# Coordination Sequence:
#
# PCOD9098483 Si02
#       7
#     2   2   2   2   2   2   2
#     4  11  22  41  64  94 125 171 215 261 324 384
#     4  11  22  39  66  93 130 168 217 266 326 388
#     4  10  21  37  62  98 131 161 218 271 320 378
#     4  11  18  36  68  92 129 171 206 266 333 374
#     4  11  25  43  68  88 128 176 216 264 330 389
#     4  10  22  40  64  93 130 175 215 260 324 394
#     4  10  20  36  66  97 125 167 223 268 316 382
#
# _framework density 24.936015999999999
#
# number of rings (size 3 to 8) (size 9 to 14) (size 15 to 20)
#    0.000    1.429    4.286    1.714    2.000    1.143 
#    0.000    0.714    9.429    0.000    0.000    0.000 
#    0.000    0.000    0.000    0.000    0.000    0.000 
#
# Total GULP energy -78152.494839 kJ/mol
# GULP energy per Si atom -5582.321060 kJ/mol
# Density = 2.487926 g / cm^3
# Si number density = 24.936016 Si / 1000 Ang^3
#
#
#
# Elastic Constant Matrix: (Units=GPa)
#
#
# Indices 1 2 3 4 5 6 
#
# 1 92.3735 14.9628 36.5874 -0.8531 6.9161 8.8822
# 2 14.9628 58.2560 5.6120 -4.8270 4.3682 4.6415
# 3 36.5874 5.6120 226.5397 -12.7054 28.4623 9.9480
# 4 -0.8531 -4.8270 -12.7054 41.6184 -1.2561 -2.6994
# 5 6.9161 4.3682 28.4623 -1.2561 37.9206 2.2337
# 6 8.8822 4.6415 9.9480 -2.6994 2.2337 17.6535
#
#
#
# Elastic Compliance Matrix: (Units=1/GPa)
#
#
# Indices 1 2 3 4 5 6 
#
# 1 0.012418 -0.002696 -0.001734 -0.000901 -0.000409 -0.004648
# 2 -0.002696 0.018360 0.000445 0.001951 -0.001704 -0.003208
# 3 -0.001734 0.000445 0.005278 0.001419 -0.003558 -0.001552
# 4 -0.000901 0.001951 0.001419 0.024849 -0.000479 0.003001
# 5 -0.000409 -0.001704 -0.003558 -0.000479 0.029363 -0.001130
# 6 -0.004648 -0.003208 -0.001552 0.003001 -0.001130 0.061304
#
#
# Mechanical properties :
#
#
# Convention : Reuss Voigt Hill
#
# Bulk Modulus (GPa) = 35.60473 54.61040 45.10756
# Shear Modulus (GPa) = 29.60234 40.77230 35.18732
#
# Velocity S-wave (km/s) = 3.44922 4.04799 3.76054
# Velocity P-wave (km/s) = 5.49292 6.61786 6.08146
#
# Compressibility (1/GPa) = 0.02808615
#
# Stress axis : x y z
#
# Youngs Moduli (GPa) = 80.52585 54.46568 189.46465
#
# Poissons Ratio (x) = 0.14685 0.32851
# Poissons Ratio (y) = 0.21712 -0.08430
# Poissons Ratio (z) = 0.13962 -0.02423
#
# Static dielectric constant tensor:
#      x y z
#    x 2.053170 0.039390 0.037410 
#    y 0.039390 1.898810 -0.040810 
#    z 0.037410 -0.040810 2.040460 
# 
# From -- ./inp_files/607713.got.cif
#   From: 2010.05.17/outbox.cif.g08.bks.cpg/sg2_304_cif.got.tgz:607713.got - 2010.06.03 11:33:40.
