data_PCOD9098795
_publ_section_title
;
Structure prediction by ZEFSAII (Michael W. Deem and Ramdas Pophale) SiO2 
 PCOD9098795
Probable space group: P -1
;
_chemical_formula_sum "Si O2"
_cell_formula_units_Z 14
_cell_length_a 14.952077
_cell_length_b 11.556292
_cell_length_c 15.236849
_cell_angle_alpha 122.262403
_cell_angle_beta 18.932103
_cell_angle_gamma 124.081475
_cell_volume 707.415417
_symmetry_space_group_name_H-M "P -1"
_symmetry_group_IT_number 2
_symmetry_cell_setting 'triclinic'
loop_
_space_group_symop_operation_xyz
x,y,z
-x,-y,-z
loop_
_atom_site_type_symbol
_atom_site_label
_atom_site_fract_x
_atom_site_fract_y
_atom_site_fract_z
Si Si1 0.011633 0.219619 0.072703
Si Si2 0.455199 0.638572 0.476563
Si Si3 0.721477 0.392531 0.182253
Si Si4 0.809071 0.016259 0.465709
Si Si5 0.189400 0.089245 0.285071
Si Si6 0.459534 0.840186 0.861712
Si Si7 0.228900 0.032864 0.927750
O O1 0.136521 0.165497 0.022331
O O2 0.820059 0.334725 0.307022
O O3 0.269534 0.274818 0.790343
O O4 0.813107 0.085664 0.156574
O O5 0.509335 0.482635 0.374440
O O6 0.408904 0.681346 0.637397
O O7 0.764609 0.282596 0.024144
O O8 0.000000 0.500000 0.000000
O O9 0.991597 0.129200 0.408939
O O10 0.013882 0.983073 0.186468
O O11 0.687070 0.888498 0.592939
O O12 0.542648 0.059788 0.684788
O O13 0.404058 0.198105 0.189113
O O14 0.000000 0.000000 0.500000
O O15 0.348078 0.979675 0.045741
#
# Coordination Sequence:
#
# PCOD9098795 Si02
#       7
#     2   2   2   2   2   2   2
#     4  11  22  38  52  81 118 152 194 234 282 335
#     4  11  23  38  55  79 122 154 191 231 267 346
#     4  11  23  36  58  87 116 163 194 221 282 346
#     4  11  20  35  56  86 115 147 186 231 289 343
#     4   9  20  35  57  85 118 148 186 239 294 336
#     4  10  20  37  57  85 125 149 187 237 286 341
#     4  11  22  33  58  82 111 156 190 234 290 337
#
# _framework density 19.790351999999999
#
# number of rings (size 3 to 8) (size 9 to 14) (size 15 to 20)
#    0.000    1.429    2.857    3.429    0.000    8.000 
#    0.000    0.000    0.000    0.000    0.000    6.000 
#    0.000    0.000    0.000    0.000    0.000    0.000 
#
# Total GULP energy -78093.782951 kJ/mol
# GULP energy per Si atom -5578.127354 kJ/mol
# Density = 1.974531 g / cm^3
# Si number density = 19.790352 Si / 1000 Ang^3
#
#
#
# Elastic Constant Matrix: (Units=GPa)
#
#
# Indices 1 2 3 4 5 6 
#
# 1 134.4381 34.0476 27.2077 8.4682 -33.7497 7.6939
# 2 34.0476 32.2742 9.5067 4.2270 -9.8205 8.5837
# 3 27.2077 9.5067 84.2374 3.7598 -19.9859 3.9499
# 4 8.4682 4.2270 3.7598 22.7404 -5.5224 -5.8771
# 5 -33.7497 -9.8205 -19.9859 -5.5224 38.1547 9.5465
# 6 7.6939 8.5837 3.9499 -5.8771 9.5465 28.0806
#
#
#
# Elastic Compliance Matrix: (Units=1/GPa)
#
#
# Indices 1 2 3 4 5 6 
#
# 1 0.012453 -0.008838 -0.000565 -0.001727 0.009228 -0.004129
# 2 -0.008838 0.048042 0.000418 -0.008130 0.007758 -0.016662
# 3 -0.000565 0.000418 0.014236 -0.001560 0.008105 -0.005057
# 4 -0.001727 -0.008130 -0.001560 0.049794 -0.000692 0.013835
# 5 0.009228 0.007758 0.008105 -0.000692 0.045971 -0.021814
# 6 -0.004129 -0.016662 -0.005057 0.013835 -0.021814 0.052859
#
#
# Mechanical properties :
#
#
# Convention : Reuss Voigt Hill
#
# Bulk Modulus (GPa) = 17.61780 43.60820 30.61300
# Shear Modulus (GPa) = 19.21254 29.80765 24.51009
#
# Velocity S-wave (km/s) = 3.11915 3.88515 3.52303
# Velocity P-wave (km/s) = 4.67907 6.49683 5.66138
#
# Compressibility (1/GPa) = 0.05676077
#
# Stress axis : x y z
#
# Youngs Moduli (GPa) = 80.30400 20.81497 70.24397
#
# Poissons Ratio (x) = 0.18397 0.03966
# Poissons Ratio (y) = 0.70975 -0.02934
# Poissons Ratio (z) = 0.04534 -0.00869
#
# Static dielectric constant tensor:
#      x y z
#    x 1.766690 0.017460 -0.053810 
#    y 0.017460 1.749760 -0.003930 
#    z -0.053810 -0.003930 1.767120 
# 
# From -- ./inp_files/531233.got.cif
#   From: 2010.05.17/outbox.cif.g08.bks.cpg/sg2_266_cif.got.tgz:531233.got - 2010.06.03 11:33:40.
