data_PCOD9098089
_publ_section_title
;
Structure prediction by ZEFSAII (Michael W. Deem and Ramdas Pophale) SiO2 
 PCOD9098089
Probable space group: P -1
;
_chemical_formula_sum "Si O2"
_cell_formula_units_Z 14
_cell_length_a 11.163439
_cell_length_b 7.350509
_cell_length_c 8.348604
_cell_angle_alpha 53.736905
_cell_angle_beta 103.124384
_cell_angle_gamma 101.354134
_cell_volume 536.232769
_symmetry_space_group_name_H-M "P -1"
_symmetry_group_IT_number 2
_symmetry_cell_setting 'triclinic'
loop_
_space_group_symop_operation_xyz
x,y,z
-x,-y,-z
loop_
_atom_site_type_symbol
_atom_site_label
_atom_site_fract_x
_atom_site_fract_y
_atom_site_fract_z
Si Si1 0.140332 0.696833 0.269604
Si Si2 0.519134 0.334275 0.441981
Si Si3 0.748966 0.640891 0.308886
Si Si4 0.355900 0.983279 0.706453
Si Si5 0.299281 0.555923 0.121988
Si Si6 0.104485 0.381405 0.922734
Si Si7 0.109906 0.881453 0.507700
O O1 0.148182 0.453456 0.492440
O O2 0.263376 0.688793 0.203352
O O3 0.113887 0.858835 0.327161
O O4 0.033523 0.720671 0.093626
O O5 0.500000 0.500000 0.500000
O O6 0.651825 0.420886 0.368922
O O7 0.486178 0.079152 0.623180
O O8 0.407735 0.395516 0.263692
O O9 0.678286 0.835340 0.265701
O O10 0.807685 0.733599 0.114894
O O11 0.242767 0.991454 0.545341
O O12 0.347916 0.740997 0.911318
O O13 0.173972 0.418171 0.091763
O O14 0.101746 0.631680 0.713945
O O15 0.000000 0.000000 0.500000
#
# Coordination Sequence:
#
# PCOD9098089 Si02
#       7
#     2   2   2   2   2   2   2
#     4  11  20  40  64  92 131 167 205 260 318 374
#     4  10  21  41  68  88 127 168 211 254 317 371
#     4  10  20  41  67  89 124 173 209 253 320 369
#     4  10  21  40  62  95 126 164 208 264 305 369
#     4  11  23  40  63  99 125 162 214 255 315 373
#     4  10  22  38  64  93 129 166 207 264 313 370
#     4  10  20  36  63  93 126 168 211 254 314 375
#
# _framework density 26.108065
#
# number of rings (size 3 to 8) (size 9 to 14) (size 15 to 20)
#    0.000    1.714    2.857    3.857    0.000    2.857 
#    2.571   10.000    0.000    0.000    0.000    0.000 
#    0.000    0.000    0.000    0.000    0.000    0.000 
#
# Total GULP energy -78317.163742 kJ/mol
# GULP energy per Si atom -5594.083124 kJ/mol
# Density = 2.604864 g / cm^3
# Si number density = 26.108065 Si / 1000 Ang^3
#
#
#
# Elastic Constant Matrix: (Units=GPa)
#
#
# Indices 1 2 3 4 5 6 
#
# 1 99.0925 32.0277 11.2201 10.4846 0.0235 -1.4207
# 2 32.0277 66.0261 20.6385 9.6653 -7.0846 -7.4272
# 3 11.2201 20.6385 90.1892 9.9612 5.2058 1.8674
# 4 10.4846 9.6653 9.9612 33.3545 2.8153 -4.8682
# 5 0.0235 -7.0846 5.2058 2.8153 27.5806 7.8396
# 6 -1.4207 -7.4272 1.8674 -4.8682 7.8396 52.0912
#
#
#
# Elastic Compliance Matrix: (Units=1/GPa)
#
#
# Indices 1 2 3 4 5 6 
#
# 1 0.012178 -0.005816 0.000132 -0.002162 -0.001158 -0.000530
# 2 -0.005816 0.020500 -0.003992 -0.003162 0.005855 0.001731
# 3 0.000132 -0.003992 0.012442 -0.002474 -0.002892 -0.000808
# 4 -0.002162 -0.003162 -0.002474 0.033207 -0.004696 0.003389
# 5 -0.001158 0.005855 -0.002892 -0.004696 0.040382 -0.005609
# 6 -0.000530 0.001731 -0.000808 0.003389 -0.005609 0.020619
#
#
# Mechanical properties :
#
#
# Convention : Reuss Voigt Hill
#
# Bulk Modulus (GPa) = 38.80712 42.56450 40.68581
# Shear Modulus (GPa) = 29.89199 35.36668 32.62934
#
# Velocity S-wave (km/s) = 3.38736 3.68452 3.53906
# Velocity P-wave (km/s) = 5.49502 5.86852 5.68484
#
# Compressibility (1/GPa) = 0.02576846
#
# Stress axis : x y z
#
# Youngs Moduli (GPa) = 82.11694 48.77950 80.37403
#
# Poissons Ratio (x) = 0.28370 -0.01065
# Poissons Ratio (y) = 0.47759 0.32088
# Poissons Ratio (z) = -0.01088 0.19474
#
# Static dielectric constant tensor:
#      x y z
#    x 2.064070 -0.004630 -0.035250 
#    y -0.004630 2.120830 0.032570 
#    z -0.035250 0.032570 2.051830 
# 
# From -- ./inp_files/236894.got.cif
#   From: 2010.05.17/outbox.cif.g08.bks.cpg/sg2_119_cif.got.tgz:236894.got - 2010.06.03 11:33:40.
