data_PCOD9098281
_publ_section_title
;
Structure prediction by ZEFSAII (Michael W. Deem and Ramdas Pophale) SiO2 
 PCOD9098281
Probable space group: P -1
;
_chemical_formula_sum "Si O2"
_cell_formula_units_Z 15
_cell_length_a 17.160504
_cell_length_b 10.415385
_cell_length_c 8.530422
_cell_angle_alpha 101.611843
_cell_angle_beta 122.666622
_cell_angle_gamma 34.413366
_cell_volume 622.721241
_symmetry_space_group_name_H-M "P -1"
_symmetry_group_IT_number 2
_symmetry_cell_setting 'triclinic'
loop_
_space_group_symop_operation_xyz
x,y,z
-x,-y,-z
loop_
_atom_site_type_symbol
_atom_site_label
_atom_site_fract_x
_atom_site_fract_y
_atom_site_fract_z
Si Si1 0.411854 0.413101 0.995697
Si Si2 0.363479 0.747745 0.531631
Si Si3 0.639328 0.949027 0.496051
Si Si4 0.137462 0.714463 0.536053
Si Si5 0.964267 0.167255 0.110313
Si Si6 0.151067 0.427705 0.645290
Si Si7 0.500000 0.000000 0.000000
Si Si8 0.205360 0.461342 0.242400
O O1 0.543209 0.347537 0.220171
O O2 0.336967 0.524109 0.766131
O O3 0.221520 0.638615 0.947013
O O4 0.500389 0.161487 0.019804
O O5 0.500000 0.500000 0.500000
O O6 0.329254 0.938396 0.478429
O O7 0.156942 0.943924 0.358523
O O8 0.666906 0.830415 0.334471
O O9 0.785589 0.694983 0.706750
O O10 0.425100 0.207030 0.378288
O O11 0.083491 0.648328 0.560453
O O12 0.154486 0.631680 0.362508
O O13 0.000000 0.000000 0.500000
O O14 0.925988 0.336971 0.994134
O O15 0.000000 0.000000 0.000000
O O16 0.277077 0.282248 0.898112
O O17 0.000000 0.500000 0.500000
#
# Coordination Sequence:
#
# PCOD9098281 Si02
#       8
#     2   2   2   2   2   2   1   2
#     4  11  23  42  67 103 129 182 227 286 343 407
#     4  12  24  40  69 102 134 173 239 286 337 416
#     4  10  21  42  67  97 137 177 234 283 345 418
#     4  10  23  40  71 100 141 184 226 286 362 421
#     4  12  23  41  73  98 134 182 233 286 340 407
#     4  10  21  39  66 100 132 177 226 286 339 411
#     4  10  20  36  64  94 134 168 218 274 338 400
#     4  10  21  43  70  98 141 187 223 287 358 410
#
# _framework density 24.087824000000001
#
# number of rings (size 3 to 8) (size 9 to 14) (size 15 to 20)
#    0.000    1.333    4.000    0.800    3.733    0.533 
#    0.000    0.000   17.600    8.800    0.000    0.000 
#    0.000    0.000    0.000    0.000    0.000    0.000 
#
# Total GULP energy -83551.954639 kJ/mol
# GULP energy per Si atom -5570.130309 kJ/mol
# Density = 2.403300 g / cm^3
# Si number density = 24.087824 Si / 1000 Ang^3
#
#
#
# Elastic Constant Matrix: (Units=GPa)
#
#
# Indices 1 2 3 4 5 6 
#
# 1 80.4339 38.2643 22.8324 -6.0778 18.3572 19.9620
# 2 38.2643 200.7680 21.8375 8.2419 2.4928 12.4228
# 3 22.8324 21.8375 137.6881 -12.0049 27.9322 -0.5124
# 4 -6.0778 8.2419 -12.0049 41.1127 11.4200 -5.2538
# 5 18.3572 2.4928 27.9322 11.4200 28.3544 -0.8583
# 6 19.9620 12.4228 -0.5124 -5.2538 -0.8583 41.5984
#
#
#
# Elastic Compliance Matrix: (Units=1/GPa)
#
#
# Indices 1 2 3 4 5 6 
#
# 1 0.020461 -0.003679 0.001512 0.008160 -0.017943 -0.008041
# 2 -0.003679 0.005976 -0.001663 -0.003655 0.004954 -0.000399
# 3 0.001512 -0.001663 0.010983 0.007964 -0.014842 0.000606
# 4 0.008160 -0.003655 0.007964 0.036370 -0.027416 0.001301
# 5 -0.017943 0.004954 -0.014842 -0.027416 0.072262 0.004976
# 6 -0.008041 -0.000399 0.000606 0.001301 0.004976 0.028292
#
#
# Mechanical properties :
#
#
# Convention : Reuss Voigt Hill
#
# Bulk Modulus (GPa) = 33.60137 64.97318 49.28728
# Shear Modulus (GPa) = 26.05207 44.61014 35.33111
#
# Velocity S-wave (km/s) = 3.29225 4.30813 3.83399
# Velocity P-wave (km/s) = 5.33214 7.19574 6.33287
#
# Compressibility (1/GPa) = 0.02976069
#
# Stress axis : x y z
#
# Youngs Moduli (GPa) = 48.87449 167.33329 91.04689
#
# Poissons Ratio (x) = 0.61557 -0.13767
# Poissons Ratio (y) = 0.17979 0.15141
# Poissons Ratio (z) = -0.07390 0.27827
#
# Static dielectric constant tensor:
#      x y z
#    x 1.988660 -0.021800 0.010950 
#    y -0.021800 1.948360 0.006390 
#    z 0.010950 0.006390 1.477220 
# 
# From -- ./inp_files/345473.got.cif
#   From: 2010.05.17/outbox.cif.g08.bks.cpg/sg2_173_cif.got.tgz:345473.got - 2010.06.03 11:33:40.
