data_PCOD9098174
_publ_section_title
;
Structure prediction by ZEFSAII (Michael W. Deem and Ramdas Pophale) SiO2 
 PCOD9098174
Probable space group: P -1
;
_chemical_formula_sum "Si O2"
_cell_formula_units_Z 15
_cell_length_a 10.944554
_cell_length_b 12.855146
_cell_length_c 7.878394
_cell_angle_alpha 60.355931
_cell_angle_beta 103.301115
_cell_angle_gamma 56.455288
_cell_volume 577.361992
_symmetry_space_group_name_H-M "P -1"
_symmetry_group_IT_number 2
_symmetry_cell_setting 'triclinic'
loop_
_space_group_symop_operation_xyz
x,y,z
-x,-y,-z
loop_
_atom_site_type_symbol
_atom_site_label
_atom_site_fract_x
_atom_site_fract_y
_atom_site_fract_z
Si Si1 0.417840 0.384531 0.749727
Si Si2 0.000000 0.000000 0.500000
Si Si3 0.979671 0.275305 0.503142
Si Si4 0.292539 0.219604 0.809353
Si Si5 0.799330 0.864697 0.870880
Si Si6 0.187473 0.614467 0.996151
Si Si7 0.413143 0.792420 0.676943
Si Si8 0.178973 0.935536 0.016699
O O1 0.325150 0.332138 0.686778
O O2 0.606091 0.286979 0.776477
O O3 0.218030 0.610913 0.541206
O O4 0.500328 0.285389 0.042652
O O5 0.850735 0.216623 0.183464
O O6 0.805501 0.106735 0.473381
O O7 0.107931 0.288963 0.604763
O O8 0.912453 0.362313 0.226345
O O9 0.102860 0.056386 0.716193
O O10 0.259807 0.216530 0.000189
O O11 0.500000 0.000000 0.000000
O O12 0.035092 0.688144 0.034352
O O13 0.647981 0.027758 0.546468
O O14 0.778762 0.980273 0.919971
O O15 0.419934 0.395698 0.240533
O O16 0.000000 0.000000 0.000000
#
# Coordination Sequence:
#
# PCOD9098174 Si02
#       8
#     2   1   2   2   2   2   2   2
#     4  11  23  44  67  92 125 168 214 256 316 375
#     4  10  20  36  64  84 128 168 200 252 300 374
#     4  10  23  43  66  93 125 166 211 260 311 380
#     4  11  22  44  67  90 125 172 208 259 316 372
#     4  10  23  39  63  92 128 161 204 267 306 375
#     4  10  22  41  62  96 125 163 210 258 315 371
#     4  10  23  40  63  96 125 163 211 257 315 369
#     4  11  24  41  63  93 128 168 210 256 314 371
#
# _framework density 25.980235
#
# number of rings (size 3 to 8) (size 9 to 14) (size 15 to 20)
#    0.000    1.600    2.667    2.400    7.467    3.200 
#    2.400    1.333    0.000    0.000    0.000    0.000 
#    0.000    0.000    0.000    0.000    0.000    0.000 
#
# Total GULP energy -83745.862876 kJ/mol
# GULP energy per Si atom -5583.057525 kJ/mol
# Density = 2.592110 g / cm^3
# Si number density = 25.980235 Si / 1000 Ang^3
#
#
#
# Elastic Constant Matrix: (Units=GPa)
#
#
# Indices 1 2 3 4 5 6 
#
# 1 100.5393 35.3081 27.8828 -12.5312 11.8082 -24.5618
# 2 35.3081 107.9320 39.3546 -45.4864 18.4215 -35.6576
# 3 27.8828 39.3546 108.9095 -15.2134 9.1965 -6.5693
# 4 -12.5312 -45.4864 -15.2134 61.6986 -3.7847 11.9484
# 5 11.8082 18.4215 9.1965 -3.7847 33.9554 0.4417
# 6 -24.5618 -35.6576 -6.5693 11.9484 0.4417 48.8541
#
#
#
# Elastic Compliance Matrix: (Units=1/GPa)
#
#
# Indices 1 2 3 4 5 6 
#
# 1 0.012616 -0.000916 -0.002282 0.000078 -0.003333 0.005378
# 2 -0.000916 0.021663 -0.004457 0.011816 -0.009065 0.011943
# 3 -0.002282 -0.004457 0.011129 -0.000452 0.000183 -0.002795
# 4 0.000078 0.011816 -0.000452 0.024066 -0.003669 0.002750
# 5 -0.003333 -0.009065 0.000183 -0.003669 0.035169 -0.007688
# 6 0.005378 0.011943 -0.002795 0.002750 -0.007688 0.030911
#
#
# Mechanical properties :
#
#
# Convention : Reuss Voigt Hill
#
# Bulk Modulus (GPa) = 33.22504 58.05242 45.63873
# Shear Modulus (GPa) = 31.07575 43.22398 37.14987
#
# Velocity S-wave (km/s) = 3.46226 4.08330 3.78554
# Velocity P-wave (km/s) = 5.36650 6.68016 6.05904
#
# Compressibility (1/GPa) = 0.03009778
#
# Stress axis : x y z
#
# Youngs Moduli (GPa) = 79.26308 46.16255 89.85230
#
# Poissons Ratio (x) = 0.04231 0.20504
# Poissons Ratio (y) = 0.07264 0.40044
# Poissons Ratio (z) = 0.18088 0.20573
#
# Static dielectric constant tensor:
#      x y z
#    x 1.919850 0.000250 -0.037830 
#    y 0.000250 2.126430 0.088810 
#    z -0.037830 0.088810 2.118380 
# 
# From -- ./inp_files/266624.got.cif
#   From: 2010.05.17/outbox.cif.g08.bks.cpg/sg2_134_cif.got.tgz:266624.got - 2010.06.03 11:33:40.
