data_PCOD9098155
_publ_section_title
;
Structure prediction by ZEFSAII (Michael W. Deem and Ramdas Pophale) SiO2 
 PCOD9098155
Probable space group: P -1
;
_chemical_formula_sum "Si O2"
_cell_formula_units_Z 14
_cell_length_a 8.954088
_cell_length_b 11.122626
_cell_length_c 9.538630
_cell_angle_alpha 119.868379
_cell_angle_beta 114.664388
_cell_angle_gamma 92.626204
_cell_volume 708.803576
_symmetry_space_group_name_H-M "P -1"
_symmetry_group_IT_number 2
_symmetry_cell_setting 'triclinic'
loop_
_space_group_symop_operation_xyz
x,y,z
-x,-y,-z
loop_
_atom_site_type_symbol
_atom_site_label
_atom_site_fract_x
_atom_site_fract_y
_atom_site_fract_z
Si Si1 0.908755 0.620547 0.632036
Si Si2 0.728448 0.457787 0.937976
Si Si3 0.939037 0.262198 0.801460
Si Si4 0.902149 0.866798 0.982492
Si Si5 0.604343 0.464213 0.208625
Si Si6 0.850232 0.296635 0.481067
Si Si7 0.508987 0.841660 0.870358
O O1 0.885338 0.722078 0.803378
O O2 0.745502 0.552568 0.427087
O O3 0.922557 0.473833 0.625817
O O4 0.064180 0.713344 0.643453
O O5 0.784970 0.316858 0.837295
O O6 0.553833 0.470354 0.807357
O O7 0.690826 0.475799 0.097167
O O8 0.887684 0.598130 0.038613
O O9 0.905331 0.231103 0.604480
O O10 0.985198 0.139500 0.839005
O O11 0.708642 0.867451 0.930768
O O12 0.000000 0.000000 0.000000
O O13 0.538706 0.290887 0.113391
O O14 0.642499 0.227747 0.344178
O O15 0.500000 0.000000 0.000000
#
# Coordination Sequence:
#
# PCOD9098155 Si02
#       7
#     2   2   2   2   2   2   2
#     4  10  21  39  67  98 130 165 213 265 319 380
#     4  10  20  36  64 100 132 161 208 274 322 374
#     4  11  22  40  64  97 130 166 215 263 327 376
#     4  12  27  44  65  92 132 175 216 262 323 388
#     4  10  21  38  66 100 129 164 215 266 321 375
#     4  10  22  40  69  98 129 165 213 267 320 377
#     4  11  25  43  65  92 132 177 213 258 320 388
#
# _framework density 19.751593
#
# number of rings (size 3 to 8) (size 9 to 14) (size 15 to 20)
#    0.000    1.429    2.857    2.571    8.000    1.143 
#    0.000    6.429    0.000    0.000    0.000    0.000 
#    0.000    0.000    0.000    0.000    0.000    0.000 
#
# Total GULP energy -78100.516218 kJ/mol
# GULP energy per Si atom -5578.608301 kJ/mol
# Density = 1.970664 g / cm^3
# Si number density = 19.751593 Si / 1000 Ang^3
#
#
#
# Elastic Constant Matrix: (Units=GPa)
#
#
# Indices 1 2 3 4 5 6 
#
# 1 126.6763 51.2120 25.9581 -13.1086 7.6280 -17.2460
# 2 51.2120 113.5082 41.3019 -31.3520 13.9271 2.0482
# 3 25.9581 41.3019 48.9617 -17.2840 6.0256 -8.5037
# 4 -13.1086 -31.3520 -17.2840 25.7756 -5.5641 -0.1313
# 5 7.6280 13.9271 6.0256 -5.5641 33.9135 -2.2261
# 6 -17.2460 2.0482 -8.5037 -0.1313 -2.2261 21.6695
#
#
#
# Elastic Compliance Matrix: (Units=1/GPa)
#
#
# Indices 1 2 3 4 5 6 
#
# 1 0.011340 -0.005565 -0.000004 -0.000909 0.000214 0.009566
# 2 -0.005565 0.019153 -0.010030 0.012956 -0.003392 -0.010445
# 3 -0.000004 -0.010030 0.035622 0.011921 0.000736 0.015072
# 4 -0.000909 0.012956 0.011921 0.062816 0.003298 0.003449
# 5 0.000214 -0.003392 0.000736 0.003298 0.031507 0.004036
# 6 0.009566 -0.010445 0.015072 0.003449 0.004036 0.061099
#
#
# Mechanical properties :
#
#
# Convention : Reuss Voigt Hill
#
# Bulk Modulus (GPa) = 28.63784 58.45446 43.54615
# Shear Modulus (GPa) = 18.91260 27.64999 23.28129
#
# Velocity S-wave (km/s) = 3.09774 3.74557 3.43695
# Velocity P-wave (km/s) = 5.22735 6.95448 6.15182
#
# Compressibility (1/GPa) = 0.03491883
#
# Stress axis : x y z
#
# Youngs Moduli (GPa) = 88.18273 52.20982 28.07260
#
# Poissons Ratio (x) = 0.29055 0.00010
# Poissons Ratio (y) = 0.49075 0.28156
# Poissons Ratio (z) = 0.00032 0.52364
#
# Static dielectric constant tensor:
#      x y z
#    x 1.734890 -0.019960 -0.000010 
#    y -0.019960 1.719170 -0.031540 
#    z -0.000010 -0.031540 1.686050 
# 
# From -- ./inp_files/182809.got.cif
#   From: 2010.05.17/outbox.cif.g08.bks.cpg/sg2_92_cif.got.tgz:182809.got - 2010.06.03 11:33:40.
