data_PCOD9098647
_publ_section_title
;
Structure prediction by ZEFSAII (Michael W. Deem and Ramdas Pophale) SiO2 
 PCOD9098647
Probable space group: P -1
;
_chemical_formula_sum "Si O2"
_cell_formula_units_Z 12
_cell_length_a 6.826893
_cell_length_b 10.301546
_cell_length_c 9.178032
_cell_angle_alpha 105.756481
_cell_angle_beta 53.930497
_cell_angle_gamma 86.857867
_cell_volume 482.629176
_symmetry_space_group_name_H-M "P -1"
_symmetry_group_IT_number 2
_symmetry_cell_setting 'triclinic'
loop_
_space_group_symop_operation_xyz
x,y,z
-x,-y,-z
loop_
_atom_site_type_symbol
_atom_site_label
_atom_site_fract_x
_atom_site_fract_y
_atom_site_fract_z
Si Si1 0.668341 0.293317 0.864744
Si Si2 0.885858 0.630650 0.862652
Si Si3 0.388966 0.593969 0.759188
Si Si4 0.121263 0.664290 0.491819
Si Si5 0.385545 0.118058 0.788933
Si Si6 0.578873 0.185099 0.427869
O O1 0.885822 0.318519 0.673259
O O2 0.618498 0.146574 0.789146
O O3 0.691956 0.317480 0.030717
O O4 0.380699 0.393026 0.985106
O O5 0.146249 0.547710 0.793631
O O6 0.912980 0.630403 0.676036
O O7 0.848458 0.788035 0.989620
O O8 0.620300 0.457407 0.634168
O O9 0.465060 0.692911 0.635009
O O10 0.177255 0.799925 0.583664
O O11 0.390356 0.183791 0.645080
O O12 0.391983 0.959358 0.713468
#
# Coordination Sequence:
#
# PCOD9098647 Si02
#       6
#     2   2   2   2   2   2
#     4   9  21  39  53  83 114 141 181 232 267 318
#     4   9  20  38  56  83 104 152 182 215 285 317
#     4  11  21  35  57  86 109 145 184 224 269 328
#     4  10  20  37  55  83 115 143 180 227 271 322
#     4   8  18  37  57  81 105 151 177 223 285 304
#     4   9  17  35  61  76 113 142 183 228 264 330
#
# _framework density 24.863810000000001
#
# number of rings (size 3 to 8) (size 9 to 14) (size 15 to 20)
#    1.000    1.667    0.000    2.500    0.000    4.667 
#    6.000    0.000    0.000    4.000    0.000    0.000 
#    0.000    0.000    0.000    0.000    0.000    0.000 
#
# Total GULP energy -66943.230767 kJ/mol
# GULP energy per Si atom -5578.602564 kJ/mol
# Density = 2.480722 g / cm^3
# Si number density = 24.863810 Si / 1000 Ang^3
#
#
#
# Elastic Constant Matrix: (Units=GPa)
#
#
# Indices 1 2 3 4 5 6 
#
# 1 84.5257 27.3303 33.9075 2.1026 22.7871 22.7098
# 2 27.3303 70.2184 36.0038 -7.8815 12.6993 26.7958
# 3 33.9075 36.0038 185.0734 -9.5619 29.4329 13.5845
# 4 2.1026 -7.8815 -9.5619 34.0973 8.0261 8.4235
# 5 22.7871 12.6993 29.4329 8.0261 48.5026 -0.0655
# 6 22.7098 26.7958 13.5845 8.4235 -0.0655 25.5668
#
#
#
# Elastic Compliance Matrix: (Units=1/GPa)
#
#
# Indices 1 2 3 4 5 6 
#
# 1 0.020741 0.006375 -0.000396 0.010095 -0.012882 -0.028253
# 2 0.006375 0.039105 -0.000655 0.026090 -0.017228 -0.054939
# 3 -0.000396 -0.000655 0.006772 0.003742 -0.004376 -0.003804
# 4 0.010095 0.026090 0.003742 0.055179 -0.023052 -0.056538
# 5 -0.012882 -0.017228 -0.004376 -0.023052 0.037703 0.039515
# 6 -0.028253 -0.054939 -0.003804 -0.056538 0.039515 0.142539
#
#
# Mechanical properties :
#
#
# Convention : Reuss Voigt Hill
#
# Bulk Modulus (GPa) = 12.94247 59.36673 36.15460
# Shear Modulus (GPa) = 15.76557 37.80506 26.78531
#
# Velocity S-wave (km/s) = 2.52082 3.90357 3.28576
# Velocity P-wave (km/s) = 3.69991 6.65175 5.38215
#
# Compressibility (1/GPa) = 0.07726502
#
# Stress axis : x y z
#
# Youngs Moduli (GPa) = 48.21392 25.57195 147.67343
#
# Poissons Ratio (x) = -0.16301 0.05849
# Poissons Ratio (y) = -0.30735 0.09674
# Poissons Ratio (z) = 0.01910 0.01675
#
# Static dielectric constant tensor:
#      x y z
#    x 2.033470 0.029470 0.004200 
#    y 0.029470 2.003970 0.006790 
#    z 0.004200 0.006790 1.963950 
# 
# From -- ./inp_files/158876.got.cif
#   From: 2010.05.17/outbox.cif.g08.bks.cpg/sg2_80_cif.got.tgz:158876.got - 2010.06.03 11:33:40.
