data_PCOD9098388
_publ_section_title
;
Structure prediction by ZEFSAII (Michael W. Deem and Ramdas Pophale) SiO2 
 PCOD9098388
Probable space group: P -1
;
_chemical_formula_sum "Si O2"
_cell_formula_units_Z 12
_cell_length_a 7.822356
_cell_length_b 5.772081
_cell_length_c 19.708799
_cell_angle_alpha 103.587047
_cell_angle_beta 141.931081
_cell_angle_gamma 60.957306
_cell_volume 461.463710
_symmetry_space_group_name_H-M "P -1"
_symmetry_group_IT_number 2
_symmetry_cell_setting 'triclinic'
loop_
_space_group_symop_operation_xyz
x,y,z
-x,-y,-z
loop_
_atom_site_type_symbol
_atom_site_label
_atom_site_fract_x
_atom_site_fract_y
_atom_site_fract_z
Si Si1 0.277642 0.905442 0.855797
Si Si2 0.683808 0.990443 0.881566
Si Si3 0.339680 0.335751 0.667499
Si Si4 0.074088 0.440336 0.895379
Si Si5 0.257552 0.682819 0.546204
Si Si6 0.213140 0.228662 0.307235
O O1 0.436357 0.034690 0.866152
O O2 0.078342 0.153274 0.864409
O O3 0.045950 0.822122 0.738223
O O4 0.576322 0.658789 0.970783
O O5 0.500338 0.213295 0.780984
O O6 0.816403 0.672452 0.879788
O O7 0.000000 0.000000 0.000000
O O8 0.368485 0.563200 0.648630
O O9 0.960911 0.434350 0.560037
O O10 0.520176 0.072097 0.655863
O O11 0.994435 0.602809 0.811146
O O12 0.565268 0.640257 0.597294
O O13 0.000000 0.000000 0.500000
#
# Coordination Sequence:
#
# PCOD9098388 Si02
#       6
#     2   2   2   2   2   2
#     4  11  24  40  64  96 137 177 221 271 327 397
#     4  11  26  42  66 101 137 178 218 273 333 399
#     4   9  20  40  63  96 132 172 222 272 328 395
#     4  10  24  42  62  94 138 180 222 264 329 395
#     4   9  18  37  68  93 124 175 226 271 330 391
#     4  10  20  36  65  94 125 173 224 272 324 391
#
# _framework density 26.004213
#
# number of rings (size 3 to 8) (size 9 to 14) (size 15 to 20)
#    0.000    2.000    0.000    2.000   14.000    0.000 
#    3.000    0.833    0.000   14.000    0.000   14.000 
#    0.000    0.000    0.000    0.000    0.000    0.000 
#
# Total GULP energy -67060.557170 kJ/mol
# GULP energy per Si atom -5588.379764 kJ/mol
# Density = 2.594503 g / cm^3
# Si number density = 26.004213 Si / 1000 Ang^3
#
#
#
# Elastic Constant Matrix: (Units=GPa)
#
#
# Indices 1 2 3 4 5 6 
#
# 1 89.4416 29.8621 54.6943 2.0087 22.8433 21.4949
# 2 29.8621 99.0976 41.9399 -22.7403 2.8341 1.4407
# 3 54.6943 41.9399 187.8023 3.0468 28.3499 30.3555
# 4 2.0087 -22.7403 3.0468 59.6720 24.1020 4.2729
# 5 22.8433 2.8341 28.3499 24.1020 45.6087 3.2536
# 6 21.4949 1.4407 30.3555 4.2729 3.2536 40.3619
#
#
#
# Elastic Compliance Matrix: (Units=1/GPa)
#
#
# Indices 1 2 3 4 5 6 
#
# 1 0.017190 -0.003658 -0.001917 0.001698 -0.007578 -0.007151
# 2 -0.003658 0.013411 -0.002372 0.005389 -0.000569 0.002729
# 3 -0.001917 -0.002372 0.007668 0.000555 -0.003636 -0.004427
# 4 0.001698 0.005389 0.000555 0.024756 -0.014400 -0.002974
# 5 -0.007578 -0.000569 -0.003636 -0.014400 0.035236 0.005475
# 6 -0.007151 0.002729 -0.004427 -0.002974 0.005475 0.031690
#
#
# Mechanical properties :
#
#
# Convention : Reuss Voigt Hill
#
# Bulk Modulus (GPa) = 44.69451 69.92600 57.31026
# Shear Modulus (GPa) = 32.61494 45.78488 39.19991
#
# Velocity S-wave (km/s) = 3.54534 4.20059 3.88679
# Velocity P-wave (km/s) = 5.82957 7.10459 6.49843
#
# Compressibility (1/GPa) = 0.02237411
#
# Stress axis : x y z
#
# Youngs Moduli (GPa) = 58.17315 74.56722 130.40718
#
# Poissons Ratio (x) = 0.27280 0.25000
# Poissons Ratio (y) = 0.21282 0.30933
# Poissons Ratio (z) = 0.11152 0.17687
#
# Static dielectric constant tensor:
#      x y z
#    x 2.075010 0.025970 0.044240 
#    y 0.025970 2.156700 0.099860 
#    z 0.044240 0.099860 2.089400 
# 
# From -- ./inp_files/605406.got.cif
#   From: 2010.05.17/outbox.cif.g08.bks.cpg/sg2_303_cif.got.tgz:605406.got - 2010.06.03 11:33:40.
