data_PCOD9098811
_publ_section_title
;
Structure prediction by ZEFSAII (Michael W. Deem and Ramdas Pophale) SiO2 
 PCOD9098811
Probable space group: P -1
;
_chemical_formula_sum "Si O2"
_cell_formula_units_Z 16
_cell_length_a 9.338383
_cell_length_b 6.629523
_cell_length_c 21.691895
_cell_angle_alpha 75.237567
_cell_angle_beta 134.456697
_cell_angle_gamma 125.654273
_cell_volume 751.122959
_symmetry_space_group_name_H-M "P -1"
_symmetry_group_IT_number 2
_symmetry_cell_setting 'triclinic'
loop_
_space_group_symop_operation_xyz
x,y,z
-x,-y,-z
loop_
_atom_site_type_symbol
_atom_site_label
_atom_site_fract_x
_atom_site_fract_y
_atom_site_fract_z
Si Si1 0.807266 0.053751 0.979707
Si Si2 0.616210 0.414917 0.184444
Si Si3 0.016042 0.608167 0.794609
Si Si4 0.147498 0.906976 0.518067
Si Si5 0.113369 0.347007 0.938393
Si Si6 0.054549 0.475271 0.616504
Si Si7 0.353834 0.586479 0.409385
Si Si8 0.559595 0.827844 0.085355
O O1 0.637463 0.117316 0.957034
O O2 0.022153 0.292715 0.986262
O O3 0.637964 0.845020 0.892018
O O4 0.883203 0.899197 0.056042
O O5 0.606270 0.656687 0.155645
O O6 0.811405 0.429705 0.194802
O O7 0.706170 0.415920 0.278845
O O8 0.808681 0.572824 0.688117
O O9 0.944655 0.396174 0.842382
O O10 0.181762 0.887797 0.855640
O O11 0.026948 0.777197 0.426196
O O12 0.116435 0.691042 0.569591
O O13 0.431107 0.134999 0.573512
O O14 0.000000 0.000000 0.500000
O O15 0.392409 0.612341 0.998622
O O16 0.832814 0.415444 0.599061
O O17 0.500000 0.500000 0.500000
#
# Coordination Sequence:
#
# PCOD9098811 Si02
#       8
#     2   2   2   2   2   2   2   2
#     4   9  20  36  61  82 123 157 193 249 304 354
#     4   9  21  38  58  86 119 159 196 249 303 364
#     4  10  23  38  58  88 118 157 204 246 304 368
#     4  11  23  41  68  94 121 169 214 262 317 378
#     4  10  20  37  57  87 119 156 199 247 300 360
#     4  10  23  42  64  93 128 168 211 259 320 376
#     4  11  23  43  66  92 132 169 206 265 318 372
#     4  10  20  37  59  86 116 160 196 243 305 357
#
# _framework density 21.301441000000001
#
# number of rings (size 3 to 8) (size 9 to 14) (size 15 to 20)
#    0.000    2.000    1.250    1.125    3.500    6.500 
#    0.000    0.000    0.000    0.000    0.000    0.000 
#    0.000    0.000    0.000    0.000    0.000    0.000 
#
# Total GULP energy -89204.622851 kJ/mol
# GULP energy per Si atom -5575.288928 kJ/mol
# Density = 2.125296 g / cm^3
# Si number density = 21.301441 Si / 1000 Ang^3
#
#
#
# Elastic Constant Matrix: (Units=GPa)
#
#
# Indices 1 2 3 4 5 6 
#
# 1 54.4340 34.3567 18.1479 5.2632 -2.9371 0.8049
# 2 34.3567 116.8677 47.7168 3.0435 -1.4470 -2.6986
# 3 18.1479 47.7168 135.6235 -8.4585 -8.1760 -9.6164
# 4 5.2632 3.0435 -8.4585 31.4538 -3.3459 5.0547
# 5 -2.9371 -1.4470 -8.1760 -3.3459 24.9662 1.6990
# 6 0.8049 -2.6986 -9.6164 5.0547 1.6990 40.3355
#
#
#
# Elastic Compliance Matrix: (Units=1/GPa)
#
#
# Indices 1 2 3 4 5 6 
#
# 1 0.023093 -0.006278 -0.001041 -0.003236 0.001632 -0.000792
# 2 -0.006278 0.011838 -0.003462 -0.001220 -0.001370 0.000303
# 3 -0.001041 -0.003462 0.009208 0.003068 0.003003 0.001473
# 4 -0.003236 -0.001220 0.003068 0.034471 0.005434 -0.003834
# 5 0.001632 -0.001370 0.003003 0.005434 0.042005 -0.001859
# 6 -0.000792 0.000303 0.001473 -0.003834 -0.001859 0.025738
#
#
# Mechanical properties :
#
#
# Convention : Reuss Voigt Hill
#
# Bulk Modulus (GPa) = 44.29376 56.37421 50.33399
# Shear Modulus (GPa) = 28.49990 33.13136 30.81563
#
# Velocity S-wave (km/s) = 3.66174 3.94808 3.80761
# Velocity P-wave (km/s) = 6.22228 6.87790 6.55829
#
# Compressibility (1/GPa) = 0.02257654
#
# Stress axis : x y z
#
# Youngs Moduli (GPa) = 43.30360 84.47710 108.60622
#
# Poissons Ratio (x) = 0.53031 0.11306
# Poissons Ratio (y) = 0.27184 0.37600
# Poissons Ratio (z) = 0.04508 0.29247
#
# Static dielectric constant tensor:
#      x y z
#    x 1.818080 -0.001640 -0.015990 
#    y -0.001640 1.810830 -0.003750 
#    z -0.015990 -0.003750 1.796790 
# 
# From -- ./inp_files/585666.got.cif
#   From: 2010.05.17/outbox.cif.g08.bks.cpg/sg2_293_cif.got.tgz:585666.got - 2010.06.03 11:33:40.
