data_PCOD9098390
_publ_section_title
;
Structure prediction by ZEFSAII (Michael W. Deem and Ramdas Pophale) SiO2 
 PCOD9098390
Probable space group: P -1
;
_chemical_formula_sum "Si O2"
_cell_formula_units_Z 16
_cell_length_a 10.401372
_cell_length_b 12.361519
_cell_length_c 13.885690
_cell_angle_alpha 142.881604
_cell_angle_beta 42.441403
_cell_angle_gamma 111.716812
_cell_volume 613.641381
_symmetry_space_group_name_H-M "P -1"
_symmetry_group_IT_number 2
_symmetry_cell_setting 'triclinic'
loop_
_space_group_symop_operation_xyz
x,y,z
-x,-y,-z
loop_
_atom_site_type_symbol
_atom_site_label
_atom_site_fract_x
_atom_site_fract_y
_atom_site_fract_z
Si Si1 0.729285 0.390587 0.729924
Si Si2 0.203212 0.316661 0.863285
Si Si3 0.701498 0.522361 0.538568
Si Si4 0.859682 0.251195 0.755087
Si Si5 0.419565 0.249368 0.052818
Si Si6 0.087386 0.887913 0.746841
Si Si7 0.410867 0.019930 0.720713
Si Si8 0.782477 0.329676 0.158113
O O1 0.903375 0.276971 0.637090
O O2 0.769304 0.554144 0.767596
O O3 0.765641 0.220350 0.508851
O O4 0.500000 0.500000 0.000000
O O5 0.328961 0.209875 0.821189
O O6 0.877366 0.438780 0.923527
O O7 0.376920 0.181782 0.588174
O O8 0.996895 0.283371 0.946857
O O9 0.652562 0.717986 0.773323
O O10 0.871449 0.312579 0.357686
O O11 0.777751 0.474615 0.352111
O O12 0.452966 0.556453 0.686120
O O13 0.619680 0.294691 0.959108
O O14 0.000000 0.000000 0.500000
O O15 0.471948 0.056162 0.819148
O O16 0.210388 0.979212 0.804475
O O17 0.850091 0.096577 0.995145
#
# Coordination Sequence:
#
# PCOD9098390 Si02
#       8
#     2   2   2   2   2   2   2   2
#     4   9  18  34  56  84 124 161 199 245 307 377
#     4  10  21  38  62  93 129 167 206 254 328 373
#     4  10  22  43  64  91 123 167 220 263 308 372
#     4  11  23  35  57  94 129 161 202 255 320 386
#     4  10  21  36  62  87 124 165 204 254 311 367
#     4  10  21  38  67  91 124 168 211 255 321 380
#     4  10  20  36  65  94 126 164 204 264 314 385
#     4  10  23  40  69  88 125 169 214 266 310 377
#
# _framework density 26.07386
#
# number of rings (size 3 to 8) (size 9 to 14) (size 15 to 20)
#    0.000    2.000    1.250    2.625   10.500    1.000 
#    0.000    4.375    2.750    2.250    0.000    0.000 
#    0.000    0.000    0.000    0.000    0.000    0.000 
#
# Total GULP energy -89319.637546 kJ/mol
# GULP energy per Si atom -5582.477347 kJ/mol
# Density = 2.601451 g / cm^3
# Si number density = 26.073860 Si / 1000 Ang^3
#
#
#
# Elastic Constant Matrix: (Units=GPa)
#
#
# Indices 1 2 3 4 5 6 
#
# 1 51.6606 20.7085 45.7639 1.4397 28.8257 -15.2421
# 2 20.7085 57.1404 27.3179 15.3883 -4.5150 1.8428
# 3 45.7639 27.3179 141.9892 7.9918 26.5280 -12.6119
# 4 1.4397 15.3883 7.9918 38.7384 -4.3705 4.3885
# 5 28.8257 -4.5150 26.5280 -4.3705 55.8471 -10.7287
# 6 -15.2421 1.8428 -12.6119 4.3885 -10.7287 35.4010
#
#
#
# Elastic Compliance Matrix: (Units=1/GPa)
#
#
# Indices 1 2 3 4 5 6 
#
# 1 0.046558 -0.015940 -0.007411 0.002588 -0.019278 0.012072
# 2 -0.015940 0.027340 -0.001927 -0.008204 0.009750 -0.005001
# 3 -0.007411 -0.001927 0.010117 -0.001214 -0.001172 0.000309
# 4 0.002588 -0.008204 -0.001214 0.029550 0.000424 -0.002426
# 5 -0.019278 0.009750 -0.001172 0.000424 0.029149 -0.000444
# 6 0.012072 -0.005001 0.000309 -0.002426 -0.000444 0.033982
#
#
# Mechanical properties :
#
#
# Convention : Reuss Voigt Hill
#
# Bulk Modulus (GPa) = 29.88644 48.70787 39.29716
# Shear Modulus (GPa) = 20.97281 36.46395 28.71838
#
# Velocity S-wave (km/s) = 2.83920 3.74369 3.32237
# Velocity P-wave (km/s) = 4.71542 6.11623 5.46093
#
# Compressibility (1/GPa) = 0.03345999
#
# Stress axis : x y z
#
# Youngs Moduli (GPa) = 21.47849 36.57679 98.84680
#
# Poissons Ratio (x) = 0.58303 0.73254
# Poissons Ratio (y) = 0.34237 0.19043
# Poissons Ratio (z) = 0.15917 0.07047
#
# Static dielectric constant tensor:
#      x y z
#    x 2.250750 -0.077300 -0.097710 
#    y -0.077300 2.053200 0.032540 
#    z -0.097710 0.032540 2.001580 
# 
# From -- ./inp_files/237175.got.cif
#   From: 2010.05.17/outbox.cif.g08.bks.cpg/sg2_119_cif.got.tgz:237175.got - 2010.06.03 11:33:40.
