data_PCOD9098536
_publ_section_title
;
Structure prediction by ZEFSAII (Michael W. Deem and Ramdas Pophale) SiO2 
 PCOD9098536
Probable space group: P -1
;
_chemical_formula_sum "Si O2"
_cell_formula_units_Z 14
_cell_length_a 14.876469
_cell_length_b 8.372982
_cell_length_c 9.154323
_cell_angle_alpha 60.299735
_cell_angle_beta 137.657397
_cell_angle_gamma 127.067546
_cell_volume 610.186766
_symmetry_space_group_name_H-M "P -1"
_symmetry_group_IT_number 2
_symmetry_cell_setting 'triclinic'
loop_
_space_group_symop_operation_xyz
x,y,z
-x,-y,-z
loop_
_atom_site_type_symbol
_atom_site_label
_atom_site_fract_x
_atom_site_fract_y
_atom_site_fract_z
Si Si1 0.815764 0.705749 0.483550
Si Si2 0.839566 0.119473 0.182549
Si Si3 0.594631 0.265781 0.335521
Si Si4 0.128448 0.181879 0.189974
Si Si5 0.703014 0.969191 0.777809
Si Si6 0.984493 0.735174 0.251427
Si Si7 0.758562 0.332737 0.240985
O O1 0.703887 0.495730 0.384099
O O2 0.786059 0.695676 0.626374
O O3 0.986558 0.746804 0.652049
O O4 0.804302 0.900123 0.309011
O O5 0.760163 0.228490 0.136636
O O6 0.791904 0.091314 0.969963
O O7 0.435657 0.208767 0.235034
O O8 0.608172 0.239466 0.189836
O O9 0.652475 0.118074 0.556876
O O10 0.222321 0.125503 0.207009
O O11 0.035039 0.275438 0.942460
O O12 0.023296 0.966553 0.229563
O O13 0.832597 0.573040 0.200911
O O14 0.119100 0.699397 0.495557
#
# Coordination Sequence:
#
# PCOD9098536 Si02
#       7
#     2   2   2   2   2   2   2
#     4  11  24  40  67 101 127 161 218 272 320 375
#     4  11  24  40  67 101 127 161 218 272 320 375
#     4  11  26  45  64  92 134 177 213 256 320 390
#     4  11  22  41  63  95 131 169 208 270 317 382
#     4  11  26  45  64  92 134 177 213 256 320 390
#     4  10  20  36  68  92 128 166 208 262 334 360
#     4  11  22  41  63  95 131 169 208 270 317 382
#
# _framework density 22.943794
#
# number of rings (size 3 to 8) (size 9 to 14) (size 15 to 20)
#    0.000    1.143    2.857    3.429    8.000    2.286 
#    0.000    0.000    0.000    0.000    0.000    0.000 
#    0.000    0.000    0.000    0.000    0.000    0.000 
#
# Total GULP energy -78276.441520 kJ/mol
# GULP energy per Si atom -5591.174394 kJ/mol
# Density = 2.289157 g / cm^3
# Si number density = 22.943794 Si / 1000 Ang^3
#
#
#
# Elastic Constant Matrix: (Units=GPa)
#
#
# Indices 1 2 3 4 5 6 
#
# 1 156.0301 39.2519 9.7999 16.3635 -28.8904 2.5095
# 2 39.2519 94.7856 -4.2547 2.8232 -5.0983 19.8521
# 3 9.7999 -4.2547 45.0781 -5.5762 -21.4460 -5.5767
# 4 16.3635 2.8232 -5.5762 26.6115 1.0220 -8.8992
# 5 -28.8904 -5.0983 -21.4460 1.0220 30.7931 2.5258
# 6 2.5095 19.8521 -5.5767 -8.8992 2.5258 32.0930
#
#
#
# Elastic Compliance Matrix: (Units=1/GPa)
#
#
# Indices 1 2 3 4 5 6 
#
# 1 0.009499 -0.002942 0.001386 -0.005978 0.009679 -0.001102
# 2 -0.002942 0.013808 0.001046 -0.002452 0.001066 -0.008893
# 3 0.001386 0.001046 0.035810 0.007389 0.025719 0.005492
# 4 -0.005978 -0.002452 0.007389 0.048946 -0.003900 0.017147
# 5 0.009679 0.001066 0.025719 -0.003900 0.059999 -0.002750
# 6 -0.001102 -0.008893 0.005492 0.017147 -0.002750 0.042673
#
#
# Mechanical properties :
#
#
# Convention : Reuss Voigt Hill
#
# Bulk Modulus (GPa) = 17.21196 42.83199 30.02198
# Shear Modulus (GPa) = 21.63372 34.63930 28.13651
#
# Velocity S-wave (km/s) = 3.07400 3.88976 3.50569
# Velocity P-wave (km/s) = 4.48524 6.23558 5.43138
#
# Compressibility (1/GPa) = 0.05809913
#
# Stress axis : x y z
#
# Youngs Moduli (GPa) = 105.27472 72.41962 27.92501
#
# Poissons Ratio (x) = 0.21306 -0.03872
# Poissons Ratio (y) = 0.30972 -0.02922
# Poissons Ratio (z) = -0.14595 -0.07578
#
# Static dielectric constant tensor:
#      x y z
#    x 1.917100 0.011230 0.004400 
#    y 0.011230 1.842030 -0.007300 
#    z 0.004400 -0.007300 1.900140 
# 
# From -- ./inp_files/240886.got.cif
#   From: 2010.05.17/outbox.cif.g08.bks.cpg/sg2_121_cif.got.tgz:240886.got - 2010.06.03 11:33:40.
