data_PCOD9098677
_publ_section_title
;
Structure prediction by ZEFSAII (Michael W. Deem and Ramdas Pophale) SiO2 
 PCOD9098677
Probable space group: P -1
;
_chemical_formula_sum "Si O2"
_cell_formula_units_Z 14
_cell_length_a 7.367103
_cell_length_b 7.580613
_cell_length_c 20.419565
_cell_angle_alpha 42.213906
_cell_angle_beta 120.753778
_cell_angle_gamma 124.114997
_cell_volume 624.853154
_symmetry_space_group_name_H-M "P -1"
_symmetry_group_IT_number 2
_symmetry_cell_setting 'triclinic'
loop_
_space_group_symop_operation_xyz
x,y,z
-x,-y,-z
loop_
_atom_site_type_symbol
_atom_site_label
_atom_site_fract_x
_atom_site_fract_y
_atom_site_fract_z
Si Si1 0.918125 0.723508 0.384929
Si Si2 0.335693 0.548701 0.094725
Si Si3 0.330593 0.330928 0.772897
Si Si4 0.666845 0.171179 0.643994
Si Si5 0.877540 0.010827 0.844161
Si Si6 0.368472 0.027982 0.058350
Si Si7 0.785384 0.833146 0.466014
O O1 0.830493 0.870488 0.386131
O O2 0.000000 0.500000 0.500000
O O3 0.137033 0.902926 0.337800
O O4 0.740015 0.589287 0.332524
O O5 0.143004 0.292590 0.103122
O O6 0.473971 0.469150 0.201940
O O7 0.270714 0.804727 0.043462
O O8 0.514529 0.679003 0.034655
O O9 0.429182 0.076582 0.849616
O O10 0.110624 0.227488 0.805864
O O11 0.729891 0.508332 0.562319
O O12 0.432940 0.076307 0.589638
O O13 0.687917 0.087750 0.745502
O O14 0.807146 0.995171 0.910762
O O15 0.000000 0.000000 0.500000
#
# Coordination Sequence:
#
# PCOD9098677 Si02
#       7
#     2   2   2   2   2   2   2
#     4   9  18  35  56  76 113 145 172 237 271 314
#     4   9  21  40  56  85 114 149 192 228 290 336
#     4   9  20  38  54  85 112 143 199 226 274 351
#     4   9  21  36  52  84 109 139 195 225 268 344
#     4  11  20  37  60  83 116 150 183 239 282 328
#     4   9  20  41  55  84 119 143 192 241 268 346
#     4  10  20  37  56  78 110 150 184 225 284 329
#
# _framework density 22.405265
#
# number of rings (size 3 to 8) (size 9 to 14) (size 15 to 20)
#    0.857    1.714    0.000    1.286    0.000    5.143 
#    7.714    0.000    0.000    0.000    0.000    0.000 
#    0.000    0.000    0.000    0.000    0.000    0.000 
#
# Total GULP energy -78060.758494 kJ/mol
# GULP energy per Si atom -5575.768464 kJ/mol
# Density = 2.235427 g / cm^3
# Si number density = 22.405265 Si / 1000 Ang^3
#
#
#
# Elastic Constant Matrix: (Units=GPa)
#
#
# Indices 1 2 3 4 5 6 
#
# 1 42.4432 6.5633 4.7791 12.0179 -9.1417 -3.7242
# 2 6.5633 67.6340 11.7829 17.8950 -4.3663 12.4420
# 3 4.7791 11.7829 103.8938 22.8375 -4.8896 -0.3667
# 4 12.0179 17.8950 22.8375 32.6376 0.2744 4.3384
# 5 -9.1417 -4.3663 -4.8896 0.2744 42.3757 12.1954
# 6 -3.7242 12.4420 -0.3667 4.3384 12.1954 20.6436
#
#
#
# Elastic Compliance Matrix: (Units=1/GPa)
#
#
# Indices 1 2 3 4 5 6 
#
# 1 0.028356 -0.000470 0.001645 -0.012052 0.004875 0.005081
# 2 -0.000470 0.020186 -0.000039 -0.009069 0.006037 -0.013912
# 3 0.001645 -0.000039 0.011580 -0.008917 0.001270 0.001650
# 4 -0.012052 -0.009069 -0.008917 0.046936 -0.003531 -0.004645
# 5 0.004875 0.006037 0.001270 -0.003531 0.031344 -0.020511
# 6 0.005081 -0.013912 0.001650 -0.004645 -0.020511 0.070865
#
#
# Mechanical properties :
#
#
# Convention : Reuss Voigt Hill
#
# Bulk Modulus (GPa) = 16.02682 28.91353 22.47017
# Shear Modulus (GPa) = 21.94961 31.85442 26.90201
#
# Velocity S-wave (km/s) = 3.13335 3.77468 3.46887
# Velocity P-wave (km/s) = 4.50102 5.65070 5.10831
#
# Compressibility (1/GPa) = 0.06239543
#
# Stress axis : x y z
#
# Youngs Moduli (GPa) = 35.26529 49.53808 86.35833
#
# Poissons Ratio (x) = 0.02327 -0.14209
# Poissons Ratio (y) = 0.01656 0.00339
# Poissons Ratio (z) = -0.05802 0.00194
#
# Static dielectric constant tensor:
#      x y z
#    x 1.869390 -0.008290 0.009050 
#    y -0.008290 1.834150 -0.013380 
#    z 0.009050 -0.013380 1.894500 
# 
# From -- ./inp_files/586606.got.cif
#   From: 2010.05.17/outbox.cif.g08.bks.cpg/sg2_294_cif.got.tgz:586606.got - 2010.06.03 11:33:40.
