data_PCOD9098575
_publ_section_title
;
Structure prediction by ZEFSAII (Michael W. Deem and Ramdas Pophale) SiO2 
 PCOD9098575
Probable space group: P -1
;
_chemical_formula_sum "Si O2"
_cell_formula_units_Z 15
_cell_length_a 9.986860
_cell_length_b 7.561984
_cell_length_c 17.600284
_cell_angle_alpha 132.247849
_cell_angle_beta 53.223099
_cell_angle_gamma 93.735297
_cell_volume 648.064148
_symmetry_space_group_name_H-M "P -1"
_symmetry_group_IT_number 2
_symmetry_cell_setting 'triclinic'
loop_
_space_group_symop_operation_xyz
x,y,z
-x,-y,-z
loop_
_atom_site_type_symbol
_atom_site_label
_atom_site_fract_x
_atom_site_fract_y
_atom_site_fract_z
Si Si1 0.475408 0.125386 0.628096
Si Si2 0.717788 0.732832 0.817433
Si Si3 0.826162 0.168806 0.545032
Si Si4 0.500000 0.500000 0.500000
Si Si5 0.719190 0.277989 0.203712
Si Si6 0.086153 0.260341 0.837626
Si Si7 0.938561 0.214312 0.344739
Si Si8 0.090166 0.283175 0.099851
O O1 0.692298 0.037013 0.555566
O O2 0.347335 0.476612 0.766869
O O3 0.334864 0.044878 0.696645
O O4 0.500000 0.000000 0.500000
O O5 0.696472 0.498101 0.715506
O O6 0.843750 0.634848 0.824604
O O7 0.869885 0.763397 0.720495
O O8 0.500000 0.000000 0.000000
O O9 0.892567 0.177293 0.438009
O O10 0.000000 0.000000 0.500000
O O11 0.574336 0.437096 0.369185
O O12 0.728266 0.440894 0.437026
O O13 0.937500 0.186161 0.134743
O O14 0.731699 0.997523 0.088219
O O15 0.029203 0.433943 0.829222
O O16 0.992003 0.079821 0.809433
O O17 0.000000 0.500000 0.000000
#
# Coordination Sequence:
#
# PCOD9098575 Si02
#       8
#     2   2   2   1   2   2   2   2
#     4  11  22  42  70 100 137 178 234 295 361 414
#     4  12  28  47  72  98 148 203 240 291 358 448
#     4  12  27  49  74 105 152 192 239 297 368 448
#     4  12  20  38  74 102 136 168 242 310 344 406
#     4  10  20  36  70 100 135 175 233 298 352 418
#     4  11  24  41  70 104 139 175 236 309 353 421
#     4  12  26  47  71 110 140 190 248 295 370 431
#     4  10  22  42  65  98 138 184 233 288 360 416
#
# _framework density 23.145855999999998
#
# number of rings (size 3 to 8) (size 9 to 14) (size 15 to 20)
#    0.000    0.800    4.000    2.800    7.467    1.067 
#    2.400    1.333    0.000    0.000    0.000    0.000 
#    0.000    0.000    0.000    0.000    0.000    0.000 
#
# Total GULP energy -83525.559639 kJ/mol
# GULP energy per Si atom -5568.370643 kJ/mol
# Density = 2.309317 g / cm^3
# Si number density = 23.145856 Si / 1000 Ang^3
#
#
#
# Elastic Constant Matrix: (Units=GPa)
#
#
# Indices 1 2 3 4 5 6 
#
# 1 128.1586 19.7186 14.7024 -4.2932 2.1736 9.8454
# 2 19.7186 51.6855 -6.5982 -5.9381 4.0178 3.1601
# 3 14.7024 -6.5982 103.3565 -7.4711 9.2712 11.9805
# 4 -4.2932 -5.9381 -7.4711 37.2413 3.6531 4.7278
# 5 2.1736 4.0178 9.2712 3.6531 43.2677 1.6716
# 6 9.8454 3.1601 11.9805 4.7278 1.6716 45.6307
#
#
#
# Elastic Compliance Matrix: (Units=1/GPa)
#
#
# Indices 1 2 3 4 5 6 
#
# 1 0.008571 -0.003323 -0.001267 0.000356 0.000171 -0.001330
# 2 -0.003323 0.021738 0.002606 0.004098 -0.002687 -0.001799
# 3 -0.001267 0.002606 0.010826 0.003078 -0.002643 -0.002972
# 4 0.000356 0.004098 0.003078 0.029007 -0.003350 -0.004051
# 5 0.000171 -0.002687 -0.002643 -0.003350 0.024190 0.000304
# 6 -0.001330 -0.001799 -0.002972 -0.004051 0.000304 0.023515
#
#
# Mechanical properties :
#
#
# Convention : Reuss Voigt Hill
#
# Bulk Modulus (GPa) = 26.90507 37.64957 32.27732
# Shear Modulus (GPa) = 37.25727 42.25314 39.75520
#
# Velocity S-wave (km/s) = 4.01643 4.27724 4.14888
# Velocity P-wave (km/s) = 5.75832 6.37923 6.07671
#
# Compressibility (1/GPa) = 0.03716772
#
# Stress axis : x y z
#
# Youngs Moduli (GPa) = 116.67882 46.00311 92.37166
#
# Poissons Ratio (x) = 0.15285 0.11701
# Poissons Ratio (y) = 0.38767 -0.24073
# Poissons Ratio (z) = 0.14780 -0.11989
#
# Static dielectric constant tensor:
#      x y z
#    x 1.850380 0.061950 -0.030860 
#    y 0.061950 1.854100 -0.058180 
#    z -0.030860 -0.058180 1.838210 
# 
# From -- ./inp_files/557636.got.cif
#   From: 2010.05.17/outbox.cif.g08.bks.cpg/sg2_279_cif.got.tgz:557636.got - 2010.06.03 11:33:40.
