data_PCOD9098993
_publ_section_title
;
Structure prediction by ZEFSAII (Michael W. Deem and Ramdas Pophale) SiO2 
 PCOD9098993
Probable space group: P -1
;
_chemical_formula_sum "Si O2"
_cell_formula_units_Z 16
_cell_length_a 9.947897
_cell_length_b 15.862549
_cell_length_c 9.052549
_cell_angle_alpha 49.021994
_cell_angle_beta 67.594009
_cell_angle_gamma 105.017767
_cell_volume 682.089277
_symmetry_space_group_name_H-M "P -1"
_symmetry_group_IT_number 2
_symmetry_cell_setting 'triclinic'
loop_
_space_group_symop_operation_xyz
x,y,z
-x,-y,-z
loop_
_atom_site_type_symbol
_atom_site_label
_atom_site_fract_x
_atom_site_fract_y
_atom_site_fract_z
Si Si1 0.352141 0.673318 0.255583
Si Si2 0.685730 0.677821 0.148239
Si Si3 0.836019 0.811534 0.244672
Si Si4 0.830953 0.350979 0.350655
Si Si5 0.041329 0.132259 0.428995
Si Si6 0.390523 0.978716 0.221627
Si Si7 0.859671 0.567781 0.623990
Si Si8 0.557750 0.662098 0.774118
O O1 0.551794 0.704825 0.107389
O O2 0.304262 0.647892 0.480990
O O3 0.161609 0.510660 0.431092
O O4 0.433704 0.842889 0.982209
O O5 0.500000 0.500000 0.500000
O O6 0.825144 0.793879 0.094436
O O7 0.832761 0.714311 0.913498
O O8 0.871862 0.705922 0.415810
O O9 0.609260 0.718820 0.518601
O O10 0.000000 0.000000 0.000000
O O11 0.692509 0.187459 0.497871
O O12 0.958847 0.354747 0.422043
O O13 0.000000 0.500000 0.000000
O O14 0.215293 0.197477 0.402839
O O15 0.822936 0.065004 0.652584
O O16 0.000000 0.000000 0.500000
O O17 0.500000 0.000000 0.000000
O O18 0.646921 0.403388 0.986105
O O19 0.500000 0.500000 0.000000
#
# Coordination Sequence:
#
# PCOD9098993 Si02
#       8
#     2   2   2   2   2   2   2   2
#     4  11  23  45  65  95 134 177 226 274 336 402
#     4  12  23  38  65 101 137 169 221 279 333 400
#     4  11  24  37  61 101 137 169 208 275 339 397
#     4  11  27  44  69  94 127 182 229 277 334 409
#     4  12  21  39  68  96 132 174 220 272 332 398
#     4  10  23  43  67  96 132 179 223 272 333 397
#     4  11  22  45  64  93 132 177 221 275 337 399
#     4  10  20  37  58  90 128 168 210 264 331 383
#
# _framework density 23.457339000000001
#
# number of rings (size 3 to 8) (size 9 to 14) (size 15 to 20)
#    0.000    1.000    3.750    3.375    5.250    0.000 
#    0.000    0.625    0.000    0.000    0.000    0.000 
#    0.000    0.000    0.000    0.000    0.000    0.000 
#
# Total GULP energy -89240.438692 kJ/mol
# GULP energy per Si atom -5577.527418 kJ/mol
# Density = 2.340395 g / cm^3
# Si number density = 23.457339 Si / 1000 Ang^3
#
#
#
# Elastic Constant Matrix: (Units=GPa)
#
#
# Indices 1 2 3 4 5 6 
#
# 1 66.1307 27.2779 16.0500 9.7020 -10.8349 5.7695
# 2 27.2779 113.7348 29.9710 -29.3826 4.5483 -1.0888
# 3 16.0500 29.9710 142.7492 -7.1023 2.9937 -11.5732
# 4 9.7020 -29.3826 -7.1023 54.3881 -11.2978 2.6164
# 5 -10.8349 4.5483 2.9937 -11.2978 36.7090 4.3451
# 6 5.7695 -1.0888 -11.5732 2.6164 4.3451 33.8662
#
#
#
# Elastic Compliance Matrix: (Units=1/GPa)
#
#
# Indices 1 2 3 4 5 6 
#
# 1 0.020255 -0.006157 -0.001758 -0.005779 0.005642 -0.004527
# 2 -0.006157 0.012656 -0.001531 0.007503 -0.001008 0.000482
# 3 -0.001758 -0.001531 0.007806 0.000087 -0.001303 0.003078
# 4 -0.005779 0.007503 0.000087 0.024600 0.005082 -0.001297
# 5 0.005642 -0.001008 -0.001303 0.005082 0.031395 -0.005860
# 6 -0.004527 0.000482 0.003078 -0.001297 -0.005860 0.032219
#
#
# Mechanical properties :
#
#
# Convention : Reuss Voigt Hill
#
# Bulk Modulus (GPa) = 45.81912 52.13475 48.97693
# Shear Modulus (GPa) = 32.23807 41.61371 36.92589
#
# Velocity S-wave (km/s) = 3.71121 4.21648 3.97189
# Velocity P-wave (km/s) = 6.15951 6.78074 6.47758
#
# Compressibility (1/GPa) = 0.02182495
#
# Stress axis : x y z
#
# Youngs Moduli (GPa) = 49.37124 79.01544 128.11267
#
# Poissons Ratio (x) = 0.48647 0.22516
# Poissons Ratio (y) = 0.30396 0.19619
# Poissons Ratio (z) = 0.08677 0.12100
#
# Static dielectric constant tensor:
#      x y z
#    x 1.939470 -0.023630 -0.023780 
#    y -0.023630 1.957770 0.014230 
#    z -0.023780 0.014230 2.008640 
# 
# From -- ./inp_files/272115.got.cif
#   From: 2010.05.17/outbox.cif.g08.bks.cpg/sg2_137_cif.got.tgz:272115.got - 2010.06.03 11:33:40.
