data_PCOD9098207
_publ_section_title
;
Structure prediction by ZEFSAII (Michael W. Deem and Ramdas Pophale) SiO2 
 PCOD9098207
Probable space group: P -1
;
_chemical_formula_sum "Si O2"
_cell_formula_units_Z 12
_cell_length_a 10.056625
_cell_length_b 9.290735
_cell_length_c 6.997825
_cell_angle_alpha 125.109087
_cell_angle_beta 67.548731
_cell_angle_gamma 88.372936
_cell_volume 466.972026
_symmetry_space_group_name_H-M "P -1"
_symmetry_group_IT_number 2
_symmetry_cell_setting 'triclinic'
loop_
_space_group_symop_operation_xyz
x,y,z
-x,-y,-z
loop_
_atom_site_type_symbol
_atom_site_label
_atom_site_fract_x
_atom_site_fract_y
_atom_site_fract_z
Si Si1 0.354541 0.911826 0.367434
Si Si2 0.679117 0.600889 0.020002
Si Si3 0.403056 0.191579 0.302201
Si Si4 0.179313 0.759152 0.609671
Si Si5 0.672364 0.321717 0.132658
Si Si6 0.883256 0.706994 0.736704
O O1 0.257411 0.904527 0.600782
O O2 0.382136 0.105592 0.453301
O O3 0.513831 0.741265 0.163217
O O4 0.276446 0.848731 0.178399
O O5 0.756102 0.738816 0.667701
O O6 0.800126 0.703355 0.980053
O O7 0.675079 0.502296 0.149404
O O8 0.509816 0.316655 0.300253
O O9 0.500000 0.000000 0.000000
O O10 0.266881 0.575803 0.293006
O O11 0.000000 0.500000 0.500000
O O12 0.997415 0.823353 0.734812
O O13 0.780707 0.288653 0.229333
#
# Coordination Sequence:
#
# PCOD9098207 Si02
#       6
#     2   2   2   2   2   2
#     4  10  21  38  62  84 120 160 198 240 300 357
#     4  10  20  38  62  85 119 160 199 241 296 356
#     4  10  20  39  64  85 119 167 195 236 306 363
#     4  10  22  36  61  93 121 148 203 258 288 343
#     4  10  20  36  64  90 113 159 209 237 290 360
#     4  10  21  38  60  91 123 154 196 252 300 347
#
# _framework density 25.697469000000002
#
# number of rings (size 3 to 8) (size 9 to 14) (size 15 to 20)
#    0.000    2.000    3.333    2.000    2.333    4.667 
#    0.000    3.333    0.000    0.000    0.000    0.000 
#    0.000    0.000    0.000    0.000    0.000    0.000 
#
# Total GULP energy -67163.471800 kJ/mol
# GULP energy per Si atom -5596.955983 kJ/mol
# Density = 2.563898 g / cm^3
# Si number density = 25.697469 Si / 1000 Ang^3
#
#
#
# Elastic Constant Matrix: (Units=GPa)
#
#
# Indices 1 2 3 4 5 6 
#
# 1 143.6571 41.6920 16.6323 -7.5489 -20.3982 3.0848
# 2 41.6920 202.7433 35.7496 -21.6370 -15.6407 20.8113
# 3 16.6323 35.7496 95.7866 -22.3538 -1.1862 0.4841
# 4 -7.5489 -21.6370 -22.3538 56.4171 6.3335 -1.9860
# 5 -20.3982 -15.6407 -1.1862 6.3335 42.4286 -16.2147
# 6 3.0848 20.8113 0.4841 -1.9860 -16.2147 41.2262
#
#
#
# Elastic Compliance Matrix: (Units=1/GPa)
#
#
# Indices 1 2 3 4 5 6 
#
# 1 0.007978 -0.001370 -0.000878 -0.000193 0.003968 0.001656
# 2 -0.001370 0.005945 -0.001657 0.001316 0.000252 -0.002717
# 3 -0.000878 -0.001657 0.012178 0.004217 -0.001123 0.000521
# 4 -0.000193 0.001316 0.004217 0.020162 -0.002819 -0.000837
# 5 0.003968 0.000252 -0.001123 -0.002819 0.030305 0.011373
# 6 0.001656 -0.002717 0.000521 -0.000837 0.011373 0.029930
#
#
# Mechanical properties :
#
#
# Convention : Reuss Voigt Hill
#
# Bulk Modulus (GPa) = 54.67250 70.03719 62.35484
# Shear Modulus (GPa) = 41.52609 51.22192 46.37400
#
# Velocity S-wave (km/s) = 4.02426 4.46945 4.25268
# Velocity P-wave (km/s) = 6.55092 7.34495 6.95927
#
# Compressibility (1/GPa) = 0.01829073
#
# Stress axis : x y z
#
# Youngs Moduli (GPa) = 125.34401 168.20742 82.11350
#
# Poissons Ratio (x) = 0.23049 0.07211
# Poissons Ratio (y) = 0.17176 0.13605
# Poissons Ratio (z) = 0.11007 0.27869
#
# Static dielectric constant tensor:
#      x y z
#    x 1.963460 0.043750 -0.017680 
#    y 0.043750 2.008210 -0.139620 
#    z -0.017680 -0.139620 1.905360 
# 
# From -- ./inp_files/155337.got.cif
#   From: 2010.05.17/outbox.cif.g08.bks.cpg/sg2_78_cif.got.tgz:155337.got - 2010.06.03 11:33:40.
