data_PCOD9098788
_publ_section_title
;
Structure prediction by ZEFSAII (Michael W. Deem and Ramdas Pophale) SiO2 
 PCOD9098788
Probable space group: P -1
;
_chemical_formula_sum "Si O2"
_cell_formula_units_Z 16
_cell_length_a 8.192586
_cell_length_b 14.613544
_cell_length_c 6.521981
_cell_angle_alpha 91.908188
_cell_angle_beta 90.042981
_cell_angle_gamma 65.717123
_cell_volume 711.279875
_symmetry_space_group_name_H-M "P -1"
_symmetry_group_IT_number 2
_symmetry_cell_setting 'triclinic'
loop_
_space_group_symop_operation_xyz
x,y,z
-x,-y,-z
loop_
_atom_site_type_symbol
_atom_site_label
_atom_site_fract_x
_atom_site_fract_y
_atom_site_fract_z
Si Si1 0.908845 0.887484 0.544395
Si Si2 0.639225 0.020303 0.856541
Si Si3 0.209597 0.925536 0.753978
Si Si4 0.103788 0.297143 0.670396
Si Si5 0.816717 0.600220 0.973924
Si Si6 0.490064 0.401655 0.730843
Si Si7 0.492431 0.794925 0.447427
Si Si8 0.756689 0.488794 0.630676
O O1 0.954894 0.789302 0.402968
O O2 0.070860 0.878259 0.692577
O O3 0.739384 0.925906 0.700400
O O4 0.858030 0.976645 0.384738
O O5 0.554916 0.116728 0.715542
O O6 0.772001 0.043517 0.013073
O O7 0.500000 0.000000 0.000000
O O8 0.400595 0.847599 0.661162
O O9 0.295381 0.262419 0.561677
O O10 0.953946 0.402206 0.602569
O O11 0.139684 0.312962 0.912144
O O12 0.768976 0.585161 0.742313
O O13 0.640910 0.602972 0.091487
O O14 0.000000 0.500000 0.000000
O O15 0.576229 0.289619 0.626968
O O16 0.643610 0.442050 0.766329
O O17 0.350365 0.477942 0.576047
#
# Coordination Sequence:
#
# PCOD9098788 Si02
#       8
#     2   2   2   2   2   2   2   2
#     4  10  21  39  61  88 120 154 196 245 293 348
#     4  11  22  38  61  89 121 158 196 239 295 354
#     4  10  21  39  62  87 120 156 194 242 296 353
#     4  10  20  37  57  85 118 152 195 241 290 347
#     4   9  20  36  57  84 115 151 194 241 289 345
#     4  10  21  39  62  88 119 154 198 247 296 352
#     4  10  22  37  59  88 120 156 196 243 290 348
#     4  10  21  39  63  87 116 157 197 244 303 351
#
# _framework density 22.494658999999999
#
# number of rings (size 3 to 8) (size 9 to 14) (size 15 to 20)
#    0.000    2.000    0.000    3.000    0.000    8.500 
#    0.000   12.500    0.000    0.000    0.000    0.000 
#    0.000    0.000    0.000    0.000    0.000    0.000 
#
# Total GULP energy -89306.125259 kJ/mol
# GULP energy per Si atom -5581.632829 kJ/mol
# Density = 2.244346 g / cm^3
# Si number density = 22.494659 Si / 1000 Ang^3
#
#
#
# Elastic Constant Matrix: (Units=GPa)
#
#
# Indices 1 2 3 4 5 6 
#
# 1 86.8001 25.3605 29.6238 8.4613 9.6757 -7.5504
# 2 25.3605 83.9944 39.2523 32.4672 4.6079 -0.0435
# 3 29.6238 39.2523 55.3827 26.6957 8.9575 -3.2271
# 4 8.4613 32.4672 26.6957 39.4796 7.7296 5.8963
# 5 9.6757 4.6079 8.9575 7.7296 28.8827 9.5163
# 6 -7.5504 -0.0435 -3.2271 5.8963 9.5163 35.0094
#
#
#
# Elastic Compliance Matrix: (Units=1/GPa)
#
#
# Indices 1 2 3 4 5 6 
#
# 1 0.015161 -0.002476 -0.007514 0.004292 -0.004517 0.003079
# 2 -0.002476 0.020885 -0.008467 -0.011527 0.003288 -0.000241
# 3 -0.007514 -0.008467 0.037204 -0.016452 -0.005242 0.005994
# 4 0.004292 -0.011527 -0.016452 0.047015 -0.004690 -0.007248
# 5 -0.004517 0.003288 -0.005242 -0.004690 0.042519 -0.012221
# 6 0.003079 -0.000241 0.005994 -0.007248 -0.012221 0.034323
#
#
# Mechanical properties :
#
#
# Convention : Reuss Voigt Hill
#
# Bulk Modulus (GPa) = 27.52080 46.07225 36.79652
# Shear Modulus (GPa) = 20.31415 29.47037 24.89226
#
# Velocity S-wave (km/s) = 3.00836 3.62346 3.33015
# Velocity P-wave (km/s) = 4.93234 6.16700 5.58390
#
# Compressibility (1/GPa) = 0.03633616
#
# Stress axis : x y z
#
# Youngs Moduli (GPa) = 65.95667 47.88038 26.87898
#
# Poissons Ratio (x) = 0.11855 0.20196
# Poissons Ratio (y) = 0.16331 0.22760
# Poissons Ratio (z) = 0.49558 0.40543
#
# Static dielectric constant tensor:
#      x y z
#    x 1.895730 0.048400 0.008270 
#    y 0.048400 1.837640 0.018100 
#    z 0.008270 0.018100 1.850510 
# 
# From -- ./inp_files/39332.got.cif
#   From: 2010.05.17/outbox.cif.g08.bks.cpg/sg2_20_cif.got.tgz:39332.got - 2010.06.03 11:33:40.
