data_PCOD9098063
_publ_section_title
;
Structure prediction by ZEFSAII (Michael W. Deem and Ramdas Pophale) SiO2 
 PCOD9098063
Probable space group: P -1
;
_chemical_formula_sum "Si O2"
_cell_formula_units_Z 16
_cell_length_a 19.002623
_cell_length_b 15.561479
_cell_length_c 12.931658
_cell_angle_alpha 140.756719
_cell_angle_beta 24.188545
_cell_angle_gamma 153.432106
_cell_volume 682.660222
_symmetry_space_group_name_H-M "P -1"
_symmetry_group_IT_number 2
_symmetry_cell_setting 'triclinic'
loop_
_space_group_symop_operation_xyz
x,y,z
-x,-y,-z
loop_
_atom_site_type_symbol
_atom_site_label
_atom_site_fract_x
_atom_site_fract_y
_atom_site_fract_z
Si Si1 0.835353 0.966202 0.781105
Si Si2 0.887005 0.631698 0.179618
Si Si3 0.426302 0.993586 0.968751
Si Si4 0.308289 0.527410 0.067603
Si Si5 0.213757 0.556390 0.637217
Si Si6 0.968149 0.381145 0.585334
Si Si7 0.545240 0.791298 0.683605
Si Si8 0.249255 0.182312 0.776364
O O1 0.682145 0.011182 0.993303
O O2 0.598963 0.730528 0.895521
O O3 0.000000 0.000000 0.500000
O O4 0.039982 0.170799 0.762446
O O5 0.837317 0.573262 0.315848
O O6 0.636258 0.440775 0.278250
O O7 0.090056 0.633476 0.883103
O O8 0.722385 0.149436 0.708602
O O9 0.347992 0.796695 0.914822
O O10 0.363349 0.075363 0.213226
O O11 0.148640 0.446245 0.310817
O O12 0.169784 0.554944 0.201357
O O13 0.285220 0.364955 0.900854
O O14 0.116756 0.451548 0.558367
O O15 0.511874 0.741218 0.412686
O O16 0.730490 0.863467 0.409620
O O17 0.000000 0.000000 0.000000
#
# Coordination Sequence:
#
# PCOD9098063 Si02
#       8
#     2   2   2   2   2   2   2   2
#     4  11  22  39  57  88 130 169 197 252 313 371
#     4  10  20  37  63  94 123 155 213 263 300 357
#     4  10  20  36  63  92 116 160 209 253 310 359
#     4  10  24  43  61  87 132 167 206 252 317 373
#     4  10  20  37  67  93 117 161 214 258 301 365
#     4  10  21  42  65  89 122 170 208 256 304 374
#     4  10  20  37  63  91 120 156 207 260 303 359
#     4  11  23  42  61  92 128 162 201 262 318 364
#
# _framework density 23.437722000000001
#
# number of rings (size 3 to 8) (size 9 to 14) (size 15 to 20)
#    0.000    1.750    1.250    4.500    1.750    2.500 
#    4.500    3.125    0.000    0.000    0.000    0.000 
#    0.000    0.000    0.000    0.000    0.000    0.000 
#
# Total GULP energy -89211.664652 kJ/mol
# GULP energy per Si atom -5575.729041 kJ/mol
# Density = 2.338438 g / cm^3
# Si number density = 23.437722 Si / 1000 Ang^3
#
#
#
# Elastic Constant Matrix: (Units=GPa)
#
#
# Indices 1 2 3 4 5 6 
#
# 1 66.7004 19.9044 22.1171 -0.8744 4.0318 9.0055
# 2 19.9044 159.8886 69.0950 7.8567 7.6883 -12.0016
# 3 22.1171 69.0950 154.5848 -10.3092 15.7956 -6.0856
# 4 -0.8744 7.8567 -10.3092 52.9611 -0.4942 -8.3670
# 5 4.0318 7.6883 15.7956 -0.4942 31.4779 0.5688
# 6 9.0055 -12.0016 -6.0856 -8.3670 0.5688 25.1536
#
#
#
# Elastic Compliance Matrix: (Units=1/GPa)
#
#
# Indices 1 2 3 4 5 6 
#
# 1 0.017274 -0.001800 -0.001982 -0.001083 -0.000653 -0.007868
# 2 -0.001800 0.008265 -0.003382 -0.001393 -0.000173 0.003310
# 3 -0.001982 -0.003382 0.008859 0.002501 -0.003365 0.002148
# 4 -0.001083 -0.001393 0.002501 0.020693 -0.000582 0.007225
# 5 -0.000653 -0.000173 -0.003365 -0.000582 0.033603 -0.001616
# 6 -0.007868 0.003310 0.002148 0.007225 -0.001616 0.047112
#
#
# Mechanical properties :
#
#
# Convention : Reuss Voigt Hill
#
# Bulk Modulus (GPa) = 49.82252 67.04520 58.43386
# Shear Modulus (GPa) = 31.88276 39.92234 35.90255
#
# Velocity S-wave (km/s) = 3.69225 4.13163 3.91810
# Velocity P-wave (km/s) = 6.28335 7.17135 6.74199
#
# Compressibility (1/GPa) = 0.02007125
#
# Stress axis : x y z
#
# Youngs Moduli (GPa) = 57.88893 120.99225 112.87625
#
# Poissons Ratio (x) = 0.21777 0.22375
# Poissons Ratio (y) = 0.10419 0.38170
# Poissons Ratio (z) = 0.11475 0.40915
#
# Static dielectric constant tensor:
#      x y z
#    x 1.988620 0.088060 -0.029720 
#    y 0.088060 2.130670 -0.039260 
#    z -0.029720 -0.039260 1.868770 
# 
# From -- ./inp_files/543228.got.cif
#   From: 2010.05.17/outbox.cif.g08.bks.cpg/sg2_272_cif.got.tgz:543228.got - 2010.06.03 11:33:40.
