data_PCOD9098719
_publ_section_title
;
Structure prediction by ZEFSAII (Michael W. Deem and Ramdas Pophale) SiO2 
 PCOD9098719
Probable space group: P -1
;
_chemical_formula_sum "Si O2"
_cell_formula_units_Z 16
_cell_length_a 13.195535
_cell_length_b 13.703705
_cell_length_c 15.729134
_cell_angle_alpha 52.120434
_cell_angle_beta 52.045229
_cell_angle_gamma 21.935573
_cell_volume 828.606084
_symmetry_space_group_name_H-M "P -1"
_symmetry_group_IT_number 2
_symmetry_cell_setting 'triclinic'
loop_
_space_group_symop_operation_xyz
x,y,z
-x,-y,-z
loop_
_atom_site_type_symbol
_atom_site_label
_atom_site_fract_x
_atom_site_fract_y
_atom_site_fract_z
Si Si1 0.046437 0.417154 0.356920
Si Si2 0.614694 0.597687 0.429796
Si Si3 0.014167 0.009136 0.749745
Si Si4 0.513984 0.865540 0.479682
Si Si5 0.793537 0.170644 0.595463
Si Si6 0.893585 0.983396 0.999435
Si Si7 0.632574 0.548271 0.708493
Si Si8 0.693244 0.567055 0.861175
O O1 0.895314 0.437900 0.369094
O O2 0.790340 0.693914 0.392401
O O3 0.195833 0.390000 0.236653
O O4 0.258918 0.173131 0.442969
O O5 0.446070 0.817265 0.469973
O O6 0.667802 0.415125 0.533833
O O7 0.443842 0.723808 0.364892
O O8 0.935464 0.024888 0.689691
O O9 0.883763 0.258211 0.693424
O O10 0.341077 0.732172 0.741393
O O11 0.886017 0.044474 0.876109
O O12 0.595329 0.716743 0.598706
O O13 0.000000 0.000000 0.500000
O O14 0.100330 0.693193 0.053418
O O15 0.600875 0.187778 0.074728
O O16 0.000000 0.000000 0.000000
O O17 0.672109 0.524246 0.801336
#
# Coordination Sequence:
#
# PCOD9098719 Si02
#       8
#     2   2   2   2   2   2   2   2
#     4  10  22  38  58  87 123 170 198 247 293 364
#     4   9  20  36  58  89 124 152 194 242 297 378
#     4  12  24  37  62  89 128 155 198 262 307 349
#     4  10  20  37  56  87 129 156 197 240 299 367
#     4  11  21  37  63  96 120 159 196 246 318 373
#     4  12  23  43  61  89 119 162 215 260 296 348
#     4  12  21  37  59  90 125 162 197 249 302 367
#     4  12  24  40  64  86 120 170 211 246 302 353
#
# _framework density 19.309536999999999
#
# number of rings (size 3 to 8) (size 9 to 14) (size 15 to 20)
#    0.750    0.250    3.750    4.875    1.750    1.000 
#    0.000    0.000    0.000    1.500    0.000    0.000 
#    0.000    0.000    0.000    0.000    0.000    0.000 
#
# Total GULP energy -89370.006661 kJ/mol
# GULP energy per Si atom -5585.625416 kJ/mol
# Density = 1.926559 g / cm^3
# Si number density = 19.309537 Si / 1000 Ang^3
#
#
#
# Elastic Constant Matrix: (Units=GPa)
#
#
# Indices 1 2 3 4 5 6 
#
# 1 -3.5819 85.2743 82.7592 -6.3439 2.3746 45.6548
# 2 85.2743 15.6443 -31.3553 -6.6227 10.1023 -64.9635
# 3 82.7592 -31.3553 75.9162 1.2903 13.0820 -44.6363
# 4 -6.3439 -6.6227 1.2903 31.5486 -2.0009 -4.5454
# 5 2.3746 10.1023 13.0820 -2.0009 27.8843 15.8633
# 6 45.6548 -64.9635 -44.6363 -4.5454 15.8633 -14.5824
#
#
#
# Elastic Compliance Matrix: (Units=1/GPa)
#
#
# Indices 1 2 3 4 5 6 
#
# 1 0.015781 0.004177 -0.001662 0.006162 -0.012946 0.019882
# 2 0.004177 0.007964 -0.004916 0.002072 0.002325 -0.005469
# 3 -0.001662 -0.004916 0.008600 -0.002619 0.001676 -0.006989
# 4 0.006162 0.002072 -0.002619 0.034299 -0.001103 0.006183
# 5 -0.012946 0.002325 0.001676 -0.001103 0.041345 -0.010701
# 6 0.019882 -0.005469 -0.006989 0.006183 -0.010701 0.025860
#
#
# Mechanical properties :
#
#
# Convention : Reuss Voigt Hill
#
# Bulk Modulus (GPa) = 36.30626 40.14832 38.22729
# Shear Modulus (GPa) = 33.82222 5.72345 19.77284
#
# Velocity S-wave (km/s) = 4.18973 1.72351 3.20346
# Velocity P-wave (km/s) = 6.49986 4.97973 5.78990
#
# Compressibility (1/GPa) = 0.02754346
#
# Stress axis : x y z
#
# Youngs Moduli (GPa) = 63.36723 125.56602 116.27533
#
# Poissons Ratio (x) = -0.52452 0.19327
# Poissons Ratio (y) = -0.26470 0.57161
# Poissons Ratio (z) = 0.10533 0.61729
#
# Static dielectric constant tensor:
#      x y z
#    x 1.700910 -0.004850 -0.003860 
#    y -0.004850 1.706600 0.004490 
#    z -0.003860 0.004490 1.662230 
# 
# From -- ./inp_files/534328.got.cif
#   From: 2010.05.17/outbox.cif.g08.bks.cpg/sg2_268_cif.got.tgz:534328.got - 2010.06.03 11:33:40.
