data_PCOD9098710
_publ_section_title
;
Structure prediction by ZEFSAII (Michael W. Deem and Ramdas Pophale) SiO2 
 PCOD9098710
Probable space group: P -1
;
_chemical_formula_sum "Si O2"
_cell_formula_units_Z 16
_cell_length_a 10.274875
_cell_length_b 10.231965
_cell_length_c 7.950254
_cell_angle_alpha 116.964299
_cell_angle_beta 94.364127
_cell_angle_gamma 117.108253
_cell_volume 619.597298
_symmetry_space_group_name_H-M "P -1"
_symmetry_group_IT_number 2
_symmetry_cell_setting 'triclinic'
loop_
_space_group_symop_operation_xyz
x,y,z
-x,-y,-z
loop_
_atom_site_type_symbol
_atom_site_label
_atom_site_fract_x
_atom_site_fract_y
_atom_site_fract_z
Si Si1 0.081137 0.921983 0.728820
Si Si2 0.629414 0.456979 0.531104
Si Si3 0.375708 0.051184 0.997539
Si Si4 0.796199 0.680404 0.372956
Si Si5 0.605895 0.346147 0.986382
Si Si6 0.891507 0.737467 0.948440
Si Si7 0.598032 0.848976 0.473868
Si Si8 0.796910 0.177156 0.853908
O O1 0.244948 0.941460 0.778377
O O2 0.980677 0.816940 0.494978
O O3 0.973494 0.823674 0.824921
O O4 0.120821 0.118492 0.866327
O O5 0.500000 0.500000 0.500000
O O6 0.745200 0.532884 0.428159
O O7 0.533838 0.253270 0.453591
O O8 0.731774 0.566120 0.768085
O O9 0.479099 0.253496 0.071215
O O10 0.267965 0.985051 0.113249
O O11 0.500000 0.000000 0.000000
O O12 0.721809 0.792449 0.467950
O O13 0.704960 0.555701 0.133190
O O14 0.498338 0.244377 0.757595
O O15 0.732495 0.293537 0.972217
O O16 0.016981 0.716748 0.050843
O O17 0.696994 0.059525 0.616275
#
# Coordination Sequence:
#
# PCOD9098710 Si02
#       8
#     2   2   2   2   2   2   2   2
#     4   9  17  32  60  83 110 141 187 235 271 327
#     4   9  20  33  59  88 106 141 189 238 267 326
#     4   9  20  36  57  86 111 147 181 232 280 330
#     4  10  20  37  56  86 112 144 188 233 282 321
#     4  11  23  37  55  82 122 148 177 233 287 332
#     4   9  17  33  58  87 106 139 192 236 269 315
#     4  11  21  37  57  84 111 150 193 226 273 332
#     4  10  20  39  60  81 110 152 190 226 274 336
#
# _framework density 25.823224
#
# number of rings (size 3 to 8) (size 9 to 14) (size 15 to 20)
#    0.000    2.250    1.250    1.500    8.750    0.000 
#    0.000   15.000    0.000    0.000    0.000    0.000 
#    0.000    0.000    0.000    0.000    0.000    0.000 
#
# Total GULP energy -89429.890234 kJ/mol
# GULP energy per Si atom -5589.368140 kJ/mol
# Density = 2.576445 g / cm^3
# Si number density = 25.823224 Si / 1000 Ang^3
#
#
#
# Elastic Constant Matrix: (Units=GPa)
#
#
# Indices 1 2 3 4 5 6 
#
# 1 106.0881 9.9649 37.4266 11.9786 32.8602 -6.1496
# 2 9.9649 49.9596 6.3243 8.4151 -0.6335 16.0707
# 3 37.4266 6.3243 154.3396 19.7601 29.7920 6.3445
# 4 11.9786 8.4151 19.7601 44.1268 8.9261 0.7906
# 5 32.8602 -0.6335 29.7920 8.9261 52.6253 4.4100
# 6 -6.1496 16.0707 6.3445 0.7906 4.4100 26.1121
#
#
#
# Elastic Compliance Matrix: (Units=1/GPa)
#
#
# Indices 1 2 3 4 5 6 
#
# 1 0.013589 -0.005156 -0.001797 -0.000399 -0.008149 0.008199
# 2 -0.005156 0.028172 0.000415 -0.004983 0.005802 -0.019483
# 3 -0.001797 0.000415 0.007826 -0.002512 -0.002706 -0.002047
# 4 -0.000399 -0.004983 -0.002512 0.025387 -0.002973 0.003317
# 5 -0.008149 0.005802 -0.002706 -0.002973 0.026976 -0.009298
# 6 0.008199 -0.019483 -0.002047 0.003317 -0.009298 0.054185
#
#
# Mechanical properties :
#
#
# Convention : Reuss Voigt Hill
#
# Bulk Modulus (GPa) = 27.38932 46.42434 36.90683
# Shear Modulus (GPa) = 27.56604 41.68426 34.62515
#
# Velocity S-wave (km/s) = 3.27079 4.02209 3.66574
# Velocity P-wave (km/s) = 4.98935 6.29177 5.67803
#
# Compressibility (1/GPa) = 0.03651058
#
# Stress axis : x y z
#
# Youngs Moduli (GPa) = 73.58927 35.49602 127.77949
#
# Poissons Ratio (x) = 0.18303 0.22960
# Poissons Ratio (y) = 0.37946 -0.05302
# Poissons Ratio (z) = 0.13223 -0.01473
#
# Static dielectric constant tensor:
#      x y z
#    x 1.991320 0.066800 -0.010690 
#    y 0.066800 2.115800 -0.121920 
#    z -0.010690 -0.121920 2.180500 
# 
# From -- ./inp_files/217019.got.cif
#   From: 2010.05.17/outbox.cif.g08.bks.cpg/sg2_109_cif.got.tgz:217019.got - 2010.06.03 11:33:40.
