data_PCOD9098494
_publ_section_title
;
Structure prediction by ZEFSAII (Michael W. Deem and Ramdas Pophale) SiO2 
 PCOD9098494
Probable space group: P -1
;
_chemical_formula_sum "Si O2"
_cell_formula_units_Z 16
_cell_length_a 23.149104
_cell_length_b 7.279946
_cell_length_c 12.182246
_cell_angle_alpha 142.453103
_cell_angle_beta 28.942131
_cell_angle_gamma 132.686753
_cell_volume 604.576061
_symmetry_space_group_name_H-M "P -1"
_symmetry_group_IT_number 2
_symmetry_cell_setting 'triclinic'
loop_
_space_group_symop_operation_xyz
x,y,z
-x,-y,-z
loop_
_atom_site_type_symbol
_atom_site_label
_atom_site_fract_x
_atom_site_fract_y
_atom_site_fract_z
Si Si1 0.023359 0.538805 0.804346
Si Si2 0.643903 0.643859 0.598885
Si Si3 0.857111 0.334052 0.797300
Si Si4 0.739041 0.750646 0.722248
Si Si5 0.268724 0.015426 0.811227
Si Si6 0.995768 0.992949 0.234933
Si Si7 0.569014 0.729207 0.185246
Si Si8 0.614059 0.707397 0.430785
O O1 0.168328 0.540301 0.559106
O O2 0.959297 0.465623 0.764112
O O3 0.002397 0.273574 0.802377
O O4 0.963740 0.839590 0.101292
O O5 0.703809 0.799938 0.676322
O O6 0.509953 0.555503 0.809342
O O7 0.631806 0.779692 0.562663
O O8 0.716480 0.315976 0.314660
O O9 0.820522 0.011395 0.754013
O O10 0.731003 0.512751 0.104113
O O11 0.908751 0.250076 0.552131
O O12 0.617693 0.766639 0.000062
O O13 0.308744 0.272061 0.949282
O O14 0.365280 0.005730 0.545372
O O15 0.132005 0.077034 0.036935
O O16 0.500000 0.000000 0.500000
O O17 0.500000 0.500000 0.500000
#
# Coordination Sequence:
#
# PCOD9098494 Si02
#       8
#     2   2   2   2   2   2   2   2
#     4  10  20  39  70 106 142 179 236 294 355 430
#     4  11  23  43  71 104 143 189 235 297 354 421
#     4  11  24  39  69 100 145 186 233 294 357 419
#     4  11  21  39  72 109 139 184 241 290 361 429
#     4  11  22  44  74 102 138 189 239 292 353 432
#     4  10  20  38  68 105 137 179 236 291 351 418
#     4  10  20  36  66  98 138 181 234 284 345 418
#     4  12  27  47  71 103 144 193 239 291 357 420
#
# _framework density 26.464825999999999
#
# number of rings (size 3 to 8) (size 9 to 14) (size 15 to 20)
#    0.000    1.250    2.500    5.625    5.250    0.500 
#    0.000    2.500    0.000    0.000    0.000    0.000 
#    0.000    0.000    0.000    0.000    0.000    0.000 
#
# Total GULP energy -89495.559108 kJ/mol
# GULP energy per Si atom -5593.472444 kJ/mol
# Density = 2.640459 g / cm^3
# Si number density = 26.464826 Si / 1000 Ang^3
#
#
#
# Elastic Constant Matrix: (Units=GPa)
#
#
# Indices 1 2 3 4 5 6 
#
# 1 138.4075 15.1124 42.6588 1.7217 28.5068 21.1709
# 2 15.1124 53.1333 31.1040 -15.8669 5.2031 15.2961
# 3 42.6588 31.1040 174.5639 -17.3156 14.4225 17.3047
# 4 1.7217 -15.8669 -17.3156 41.0953 4.1363 1.1370
# 5 28.5068 5.2031 14.4225 4.1363 40.9039 -3.4048
# 6 21.1709 15.2961 17.3047 1.1370 -3.4048 45.6851
#
#
#
# Elastic Compliance Matrix: (Units=1/GPa)
#
#
# Indices 1 2 3 4 5 6 
#
# 1 0.009705 -0.000097 -0.001395 -0.000245 -0.006603 -0.004423
# 2 -0.000097 0.025939 -0.002499 0.009597 -0.004006 -0.008230
# 3 -0.001395 -0.002499 0.006993 0.002229 -0.001512 -0.001334
# 4 -0.000245 0.009597 0.002229 0.029658 -0.005258 -0.005074
# 5 -0.006603 -0.004006 -0.001512 -0.005258 0.031242 0.007433
# 6 -0.004423 -0.008230 -0.001334 -0.005074 0.007433 0.027880
#
#
# Mechanical properties :
#
#
# Convention : Reuss Voigt Hill
#
# Bulk Modulus (GPa) = 28.85626 60.42834 44.64230
# Shear Modulus (GPa) = 33.12338 44.01881 38.57110
#
# Velocity S-wave (km/s) = 3.54163 4.08278 3.82179
# Velocity P-wave (km/s) = 5.25847 6.71628 6.03158
#
# Compressibility (1/GPa) = 0.03465452
#
# Stress axis : x y z
#
# Youngs Moduli (GPa) = 103.03994 38.55222 143.00056
#
# Poissons Ratio (x) = 0.00375 0.19944
# Poissons Ratio (y) = 0.01002 0.35739
# Poissons Ratio (z) = 0.14371 0.09635
#
# Static dielectric constant tensor:
#      x y z
#    x 2.154060 -0.122370 -0.068110 
#    y -0.122370 2.228010 0.052180 
#    z -0.068110 0.052180 2.108830 
# 
# From -- ./inp_files/474336.got.cif
#   From: 2010.05.17/outbox.cif.g08.bks.cpg/sg2_238_cif.got.tgz:474336.got - 2010.06.03 11:33:40.
