data_PCOD9098960
_publ_section_title
;
Structure prediction by ZEFSAII (Michael W. Deem and Ramdas Pophale) SiO2 
 PCOD9098960
Probable space group: P -1
;
_chemical_formula_sum "Si O2"
_cell_formula_units_Z 16
_cell_length_a 8.585012
_cell_length_b 9.127910
_cell_length_c 18.972621
_cell_angle_alpha 32.045804
_cell_angle_beta 64.790790
_cell_angle_gamma 66.596309
_cell_volume 711.705045
_symmetry_space_group_name_H-M "P -1"
_symmetry_group_IT_number 2
_symmetry_cell_setting 'triclinic'
loop_
_space_group_symop_operation_xyz
x,y,z
-x,-y,-z
loop_
_atom_site_type_symbol
_atom_site_label
_atom_site_fract_x
_atom_site_fract_y
_atom_site_fract_z
Si Si1 0.728061 0.558120 0.501292
Si Si2 0.195785 0.337253 0.346308
Si Si3 0.851056 0.169582 0.217729
Si Si4 0.839432 0.140253 0.768864
Si Si5 0.665680 0.526491 0.363349
Si Si6 0.934924 0.186723 0.349721
Si Si7 0.440633 0.044114 0.893375
Si Si8 0.469995 0.466060 0.840112
O O1 0.836335 0.332157 0.620434
O O2 0.727727 0.486619 0.447572
O O3 0.530741 0.558531 0.566384
O O4 0.783243 0.867302 0.367042
O O5 0.140352 0.645656 0.258620
O O6 0.403059 0.326987 0.305195
O O7 0.115571 0.247735 0.324808
O O8 0.115776 0.126689 0.501632
O O9 0.925078 0.264684 0.239027
O O10 0.684405 0.376048 0.151940
O O11 0.010865 0.104283 0.161457
O O12 0.648725 0.036064 0.849756
O O13 0.791996 0.354576 0.356771
O O14 0.648593 0.839206 0.208036
O O15 0.402236 0.268907 0.871859
O O16 0.409221 0.740212 0.049988
#
# Coordination Sequence:
#
# PCOD9098960 Si02
#       8
#     2   2   2   2   2   2   2   2
#     4  10  21  34  58  88 124 154 184 238 303 350
#     4  10  22  38  59  88 122 153 187 240 294 345
#     4  12  22  35  60  90 119 152 194 236 294 349
#     4  10  21  37  59  87 122 153 187 237 298 346
#     4  10  20  37  58  88 118 154 196 239 289 345
#     4  11  22  34  60  90 123 147 193 241 292 343
#     4   9  20  41  63  81 114 158 199 242 283 339
#     4  10  21  40  64  84 111 157 205 237 282 342
#
# _framework density 22.481223
#
# number of rings (size 3 to 8) (size 9 to 14) (size 15 to 20)
#    0.000    1.750    2.500    1.875    3.500    1.500 
#    2.250    1.250    2.750    0.000    0.000    0.000 
#    0.000    0.000    0.000    0.000    0.000    0.000 
#
# Total GULP energy -89382.813215 kJ/mol
# GULP energy per Si atom -5586.425826 kJ/mol
# Density = 2.243005 g / cm^3
# Si number density = 22.481223 Si / 1000 Ang^3
#
#
#
# Elastic Constant Matrix: (Units=GPa)
#
#
# Indices 1 2 3 4 5 6 
#
# 1 32.0708 17.0613 14.3638 -11.6862 0.1552 -10.8879
# 2 17.0613 93.4710 8.1485 -14.2343 -0.4879 -28.5812
# 3 14.3638 8.1485 50.5198 1.1555 3.6047 -5.8518
# 4 -11.6862 -14.2343 1.1555 21.0183 1.3891 10.8785
# 5 0.1552 -0.4879 3.6047 1.3891 17.0716 -4.9331
# 6 -10.8879 -28.5812 -5.8518 10.8785 -4.9331 29.1352
#
#
#
# Elastic Compliance Matrix: (Units=1/GPa)
#
#
# Indices 1 2 3 4 5 6 
#
# 1 0.048826 -0.002837 -0.013602 0.023720 0.001616 0.004148
# 2 -0.002837 0.016033 -0.000421 0.001265 0.004781 0.014920
# 3 -0.013602 -0.000421 0.024527 -0.010379 -0.003436 0.002724
# 4 0.023720 0.001265 -0.010379 0.073880 -0.010149 -0.021283
# 5 0.001616 0.004781 -0.003436 -0.010149 0.065900 0.019552
# 6 0.004148 0.014920 0.002724 -0.021283 0.019552 0.062313
#
#
# Mechanical properties :
#
#
# Convention : Reuss Voigt Hill
#
# Bulk Modulus (GPa) = 17.96439 28.35653 23.16046
# Shear Modulus (GPa) = 14.54521 22.54422 18.54472
#
# Velocity S-wave (km/s) = 2.54637 3.17014 2.87522
# Velocity P-wave (km/s) = 4.08087 5.10299 4.62028
#
# Compressibility (1/GPa) = 0.05566569
#
# Stress axis : x y z
#
# Youngs Moduli (GPa) = 20.48080 62.37105 40.77063
#
# Poissons Ratio (x) = 0.17697 0.55456
# Poissons Ratio (y) = 0.05811 0.01717
# Poissons Ratio (z) = 0.27858 0.02627
#
# Static dielectric constant tensor:
#      x y z
#    x 1.857370 -0.015550 0.008800 
#    y -0.015550 1.837810 0.015120 
#    z 0.008800 0.015120 1.874620 
# 
# From -- ./inp_files/346209.got.cif
#   From: 2010.05.17/outbox.cif.g08.bks.cpg/sg2_174_cif.got.tgz:346209.got - 2010.06.03 11:33:40.
