data_PCOD9098339
_publ_section_title
;
Structure prediction by ZEFSAII (Michael W. Deem and Ramdas Pophale) SiO2 
 PCOD9098339
Probable space group: P -1
;
_chemical_formula_sum "Si O2"
_cell_formula_units_Z 16
_cell_length_a 13.518795
_cell_length_b 23.253640
_cell_length_c 20.952141
_cell_angle_alpha 161.640021
_cell_angle_beta 24.260882
_cell_angle_gamma 159.071892
_cell_volume 722.236583
_symmetry_space_group_name_H-M "P -1"
_symmetry_group_IT_number 2
_symmetry_cell_setting 'triclinic'
loop_
_space_group_symop_operation_xyz
x,y,z
-x,-y,-z
loop_
_atom_site_type_symbol
_atom_site_label
_atom_site_fract_x
_atom_site_fract_y
_atom_site_fract_z
Si Si1 0.631181 0.595201 0.637370
Si Si2 0.823773 0.161671 0.749194
Si Si3 0.970080 0.989879 0.083371
Si Si4 0.988334 0.504530 0.115182
Si Si5 0.244615 0.489757 0.304998
Si Si6 0.551382 0.145589 0.535681
Si Si7 0.442612 0.285127 0.527916
Si Si8 0.124496 0.712748 0.377201
O O1 0.307533 0.502816 0.712620
O O2 0.642773 0.427274 0.502339
O O3 0.827628 0.634513 0.503294
O O4 0.755608 0.817594 0.838595
O O5 0.809557 0.307548 0.856173
O O6 0.122647 0.180019 0.579631
O O7 0.563571 0.919092 0.653532
O O8 0.886524 0.281512 0.905820
O O9 0.732197 0.041417 0.297512
O O10 0.879105 0.748186 0.899692
O O11 0.000000 0.000000 0.000000
O O12 0.115310 0.551750 0.160290
O O13 0.382575 0.671334 0.360925
O O14 0.479962 0.551718 0.286951
O O15 0.000000 0.500000 0.500000
O O16 0.664433 0.244168 0.643169
O O17 0.236649 0.939290 0.513225
#
# Coordination Sequence:
#
# PCOD9098339 Si02
#       8
#     2   2   2   2   2   2   2   2
#     4  10  21  38  58  86 118 158 197 238 291 359
#     4   9  21  36  59  94 110 146 193 251 298 352
#     4  11  21  38  61  95 122 151 195 249 303 349
#     4  10  20  36  65  84 115 153 195 241 303 351
#     4  12  22  35  65  93 119 156 192 247 307 349
#     4  10  23  40  62  87 122 159 199 245 289 358
#     4  10  20  37  58  86 124 143 191 251 298 347
#     4  10  21  41  59  81 123 164 196 238 293 350
#
# _framework density 22.153404999999999
#
# number of rings (size 3 to 8) (size 9 to 14) (size 15 to 20)
#    0.000    1.750    2.500    1.875    3.500    1.000 
#    0.000    6.250   16.500    0.000    0.000    0.000 
#    0.000    0.000    0.000    0.000    0.000    0.000 
#
# Total GULP energy -89375.947053 kJ/mol
# GULP energy per Si atom -5585.996691 kJ/mol
# Density = 2.210298 g / cm^3
# Si number density = 22.153405 Si / 1000 Ang^3
#
#
#
# Elastic Constant Matrix: (Units=GPa)
#
#
# Indices 1 2 3 4 5 6 
#
# 1 66.5350 34.6740 31.5959 5.9107 20.4641 -20.5939
# 2 34.6740 123.6166 36.7715 21.3362 -1.7371 -30.3815
# 3 31.5959 36.7715 97.4225 18.9590 20.4102 -21.6003
# 4 5.9107 21.3362 18.9590 33.3592 -7.3581 -4.4703
# 5 20.4641 -1.7371 20.4102 -7.3581 44.2159 -1.8535
# 6 -20.5939 -30.3815 -21.6003 -4.4703 -1.8535 36.2021
#
#
#
# Elastic Compliance Matrix: (Units=1/GPa)
#
#
# Indices 1 2 3 4 5 6 
#
# 1 0.023899 -0.003897 -0.001906 -0.001795 -0.010279 0.008440
# 2 -0.003897 0.012094 -0.001392 -0.004838 0.002394 0.006628
# 3 -0.001906 -0.001392 0.016059 -0.008840 -0.007812 0.005838
# 4 -0.001795 -0.004838 -0.008840 0.040242 0.011217 -0.004812
# 5 -0.010279 0.002394 -0.007812 0.011217 0.032712 -0.005440
# 6 0.008440 0.006628 0.005838 -0.004812 -0.005440 0.040596
#
#
# Mechanical properties :
#
#
# Convention : Reuss Voigt Hill
#
# Bulk Modulus (GPa) = 26.55097 54.85075 40.70086
# Shear Modulus (GPa) = 25.96773 35.05763 30.51268
#
# Velocity S-wave (km/s) = 3.42742 3.98237 3.71527
# Velocity P-wave (km/s) = 5.26061 6.77931 6.06766
#
# Compressibility (1/GPa) = 0.03766341
#
# Stress axis : x y z
#
# Youngs Moduli (GPa) = 41.84298 82.68503 62.26908
#
# Poissons Ratio (x) = 0.32222 0.11868
# Poissons Ratio (y) = 0.16306 0.08665
# Poissons Ratio (z) = 0.07975 0.11506
#
# Static dielectric constant tensor:
#      x y z
#    x 1.866620 0.056630 -0.037420 
#    y 0.056630 1.867440 -0.001820 
#    z -0.037420 -0.001820 1.821630 
# 
# From -- ./inp_files/358788.got.cif
#   From: 2010.05.17/outbox.cif.g08.bks.cpg/sg2_180_cif.got.tgz:358788.got - 2010.06.03 11:33:40.
