data_PCOD9098237
_publ_section_title
;
Structure prediction by ZEFSAII (Michael W. Deem and Ramdas Pophale) SiO2 
 PCOD9098237
Probable space group: P -1
;
_chemical_formula_sum "Si O2"
_cell_formula_units_Z 14
_cell_length_a 15.457090
_cell_length_b 16.304283
_cell_length_c 11.215396
_cell_angle_alpha 70.063174
_cell_angle_beta 101.103258
_cell_angle_gamma 161.579771
_cell_volume 753.627164
_symmetry_space_group_name_H-M "P -1"
_symmetry_group_IT_number 2
_symmetry_cell_setting 'triclinic'
loop_
_space_group_symop_operation_xyz
x,y,z
-x,-y,-z
loop_
_atom_site_type_symbol
_atom_site_label
_atom_site_fract_x
_atom_site_fract_y
_atom_site_fract_z
Si Si1 0.633217 0.212238 0.820799
Si Si2 0.882156 0.629352 0.667830
Si Si3 0.916629 0.562125 0.939436
Si Si4 0.541995 0.216909 0.254311
Si Si5 0.633716 0.805523 0.611949
Si Si6 0.047385 0.614770 0.351856
Si Si7 0.706558 0.612728 0.473684
O O1 0.779562 0.437847 0.686915
O O2 0.738729 0.229302 0.766885
O O3 0.778148 0.354854 0.920704
O O4 0.273617 0.885437 0.892677
O O5 0.670845 0.505641 0.621167
O O6 0.878111 0.609576 0.817983
O O7 0.212572 0.971467 0.538104
O O8 0.735115 0.399757 0.093359
O O9 0.493753 0.267077 0.270518
O O10 0.734817 0.344775 0.338644
O O11 0.222458 0.866145 0.319722
O O12 0.393735 0.527214 0.606530
O O13 0.929854 0.026417 0.608765
O O14 0.000000 0.500000 0.500000
O O15 0.500000 0.500000 0.500000
#
# Coordination Sequence:
#
# PCOD9098237 Si02
#       7
#     2   2   2   2   2   2   2
#     4  10  21  38  56  79 115 155 195 237 279 319
#     4   8  21  35  62  81 115 147 186 236 282 332
#     4  10  22  37  58  80 113 159 193 231 283 334
#     4  12  25  39  57  86 115 157 191 234 286 333
#     4  10  21  37  61  83 120 142 185 235 288 335
#     4  12  26  37  58  83 117 152 203 239 280 323
#     4  10  20  36  64  92 110 142 187 234 283 345
#
# _framework density 18.576824999999999
#
# number of rings (size 3 to 8) (size 9 to 14) (size 15 to 20)
#    1.714    0.000    0.000    5.143    4.000    3.429 
#    0.000    0.000    0.000    1.714    0.000    0.000 
#    0.000    0.000    0.000    0.000    0.000    0.000 
#
# Total GULP energy -78058.634559 kJ/mol
# GULP energy per Si atom -5575.616754 kJ/mol
# Density = 1.853454 g / cm^3
# Si number density = 18.576825 Si / 1000 Ang^3
#
#
#
# Elastic Constant Matrix: (Units=GPa)
#
#
# Indices 1 2 3 4 5 6 
#
# 1 43.7785 -16.9296 -3.0467 6.7580 -2.2784 -1.5772
# 2 -16.9296 78.8506 10.0194 10.8535 1.7056 -1.0488
# 3 -3.0467 10.0194 49.7265 8.2665 -16.6603 -3.0946
# 4 6.7580 10.8535 8.2665 16.0349 -3.2621 -4.1965
# 5 -2.2784 1.7056 -16.6603 -3.2621 19.9010 2.8909
# 6 -1.5772 -1.0488 -3.0946 -4.1965 2.8909 22.9235
#
#
#
# Elastic Compliance Matrix: (Units=1/GPa)
#
#
# Indices 1 2 3 4 5 6 
#
# 1 0.029692 0.008498 0.004497 -0.020198 0.003280 -0.001072
# 2 0.008498 0.016928 -0.001901 -0.015253 -0.004405 -0.001134
# 3 0.004497 -0.001901 0.030983 -0.011763 0.024815 -0.000878
# 4 -0.020198 -0.015253 -0.011763 0.091044 0.002225 0.012711
# 5 0.003280 -0.004405 0.024815 0.002225 0.072927 -0.005415
# 6 -0.001072 -0.001134 -0.000878 0.012711 -0.005415 0.046389
#
#
# Mechanical properties :
#
#
# Convention : Reuss Voigt Hill
#
# Bulk Modulus (GPa) = 10.02087 16.93796 13.47942
# Shear Modulus (GPa) = 16.72027 23.92605 20.32316
#
# Velocity S-wave (km/s) = 3.00336 3.59270 3.31116
# Velocity P-wave (km/s) = 4.17527 5.13299 4.67870
#
# Compressibility (1/GPa) = 0.09979172
#
# Stress axis : x y z
#
# Youngs Moduli (GPa) = 33.67950 59.07341 32.27547
#
# Poissons Ratio (x) = -0.50203 -0.14513
# Poissons Ratio (y) = -0.28622 0.06135
# Poissons Ratio (z) = -0.15145 0.11229
#
# Static dielectric constant tensor:
#      x y z
#    x 1.630200 -0.000490 0.017240 
#    y -0.000490 1.656780 0.006260 
#    z 0.017240 0.006260 1.651280 
# 
# From -- ./inp_files/136257.got.cif
#   From: 2010.05.17/outbox.cif.g08.bks.cpg/sg2_69_cif.got.tgz:136257.got - 2010.06.03 11:33:40.
