data_PCOD9098229
_publ_section_title
;
Structure prediction by ZEFSAII (Michael W. Deem and Ramdas Pophale) SiO2 
 PCOD9098229
Probable space group: P -1
;
_chemical_formula_sum "Si O2"
_cell_formula_units_Z 16
_cell_length_a 14.683271
_cell_length_b 11.442755
_cell_length_c 8.495766
_cell_angle_alpha 62.141752
_cell_angle_beta 100.419385
_cell_angle_gamma 140.905170
_cell_volume 752.321965
_symmetry_space_group_name_H-M "P -1"
_symmetry_group_IT_number 2
_symmetry_cell_setting 'triclinic'
loop_
_space_group_symop_operation_xyz
x,y,z
-x,-y,-z
loop_
_atom_site_type_symbol
_atom_site_label
_atom_site_fract_x
_atom_site_fract_y
_atom_site_fract_z
Si Si1 0.859894 0.442539 0.512585
Si Si2 0.350808 0.194840 0.797630
Si Si3 0.835111 0.683715 0.507552
Si Si4 0.773202 0.479897 0.942577
Si Si5 0.401396 0.761996 0.665634
Si Si6 0.666283 0.129754 0.937516
Si Si7 0.519445 0.395018 0.407592
Si Si8 0.024491 0.943414 0.883144
O O1 0.909543 0.634585 0.492257
O O2 0.764168 0.385369 0.368090
O O3 0.734536 0.237257 0.720141
O O4 0.000000 0.500000 0.500000
O O5 0.386419 0.241691 0.591796
O O6 0.462149 0.433833 0.754029
O O7 0.183548 0.049964 0.883629
O O8 0.357917 0.051404 0.932261
O O9 0.778460 0.580708 0.728224
O O10 0.678460 0.542113 0.456139
O O11 0.949980 0.930388 0.338698
O O12 0.780757 0.339530 0.960586
O O13 0.900091 0.692644 0.958249
O O14 0.626751 0.302821 0.120789
O O15 0.482145 0.724820 0.640535
O O16 0.500000 0.000000 0.500000
O O17 0.500000 0.000000 0.000000
O O18 0.000000 0.000000 0.000000
#
# Coordination Sequence:
#
# PCOD9098229 Si02
#       8
#     2   2   2   2   2   2   2   2
#     4  10  22  39  61  90 125 170 214 270 319 388
#     4  10  20  36  64  91 121 160 217 252 316 382
#     4   9  20  40  62  87 129 165 209 256 327 378
#     4  11  22  38  65  92 125 165 217 259 322 387
#     4  11  22  40  65  91 129 168 219 270 328 387
#     4  11  23  41  66  89 126 173 214 264 332 385
#     4   9  19  39  63  90 121 169 209 260 314 389
#     4  11  23  39  65  93 128 171 205 266 326 384
#
# _framework density 21.267489000000001
#
# number of rings (size 3 to 8) (size 9 to 14) (size 15 to 20)
#    0.000    1.750    0.000    6.375    3.500    0.500 
#    6.750    0.000    0.000   14.250    0.000    0.000 
#    0.000    0.000    0.000    0.000    0.000    0.000 
#
# Total GULP energy -89185.543219 kJ/mol
# GULP energy per Si atom -5574.096451 kJ/mol
# Density = 2.121908 g / cm^3
# Si number density = 21.267489 Si / 1000 Ang^3
#
#
#
# Elastic Constant Matrix: (Units=GPa)
#
#
# Indices 1 2 3 4 5 6 
#
# 1 167.0210 31.7431 54.7112 -11.7967 -1.4207 -20.9701
# 2 31.7431 71.4040 48.1199 -12.3578 2.1101 -21.8151
# 3 54.7112 48.1199 152.4153 -28.4159 3.1998 -27.9280
# 4 -11.7967 -12.3578 -28.4159 31.8881 -13.2053 0.5475
# 5 -1.4207 2.1101 3.1998 -13.2053 39.3342 -13.6131
# 6 -20.9701 -21.8151 -27.9280 0.5475 -13.6131 31.0133
#
#
#
# Elastic Compliance Matrix: (Units=1/GPa)
#
#
# Indices 1 2 3 4 5 6 
#
# 1 0.007271 -0.000721 -0.001142 0.002476 0.002807 0.004569
# 2 -0.000721 0.022186 -0.002155 0.009353 0.007785 0.016430
# 3 -0.001142 -0.002155 0.011780 0.011944 0.006995 0.011179
# 4 0.002476 0.009353 0.011944 0.057870 0.028617 0.030549
# 5 0.002807 0.007785 0.006995 0.028617 0.045635 0.033199
# 6 0.004569 0.016430 0.011179 0.030549 0.033199 0.070991
#
#
# Mechanical properties :
#
#
# Convention : Reuss Voigt Hill
#
# Bulk Modulus (GPa) = 30.12045 73.33208 51.72626
# Shear Modulus (GPa) = 21.29149 37.53153 29.41151
#
# Velocity S-wave (km/s) = 3.16749 4.20543 3.72281
# Velocity P-wave (km/s) = 5.25079 7.62474 6.54627
#
# Compressibility (1/GPa) = 0.03320004
#
# Stress axis : x y z
#
# Youngs Moduli (GPa) = 137.53426 45.07420 84.89028
#
# Poissons Ratio (x) = 0.03250 0.09699
# Poissons Ratio (y) = 0.09916 0.18291
# Poissons Ratio (z) = 0.15713 0.09712
#
# Static dielectric constant tensor:
#      x y z
#    x 1.754770 -0.032640 0.015880 
#    y -0.032640 1.879430 0.005000 
#    z 0.015880 0.005000 1.789510 
# 
# From -- ./inp_files/306754.got.cif
#   From: 2010.05.17/outbox.cif.g08.bks.cpg/sg2_154_cif.got.tgz:306754.got - 2010.06.03 11:33:40.
