data_PCOD9098208
_publ_section_title
;
Structure prediction by ZEFSAII (Michael W. Deem and Ramdas Pophale) SiO2 
 PCOD9098208
Probable space group: P -1
;
_chemical_formula_sum "Si O2"
_cell_formula_units_Z 16
_cell_length_a 8.241051
_cell_length_b 9.455830
_cell_length_c 25.117046
_cell_angle_alpha 44.711044
_cell_angle_beta 134.074840
_cell_angle_gamma 99.455523
_cell_volume 749.237122
_symmetry_space_group_name_H-M "P -1"
_symmetry_group_IT_number 2
_symmetry_cell_setting 'triclinic'
loop_
_space_group_symop_operation_xyz
x,y,z
-x,-y,-z
loop_
_atom_site_type_symbol
_atom_site_label
_atom_site_fract_x
_atom_site_fract_y
_atom_site_fract_z
Si Si1 0.403580 0.407429 0.633288
Si Si2 0.737124 0.619182 0.057891
Si Si3 0.346572 0.173282 0.864286
Si Si4 0.173741 0.633570 0.188301
Si Si5 0.171061 0.124179 0.688511
Si Si6 0.206348 0.719606 0.338511
Si Si7 0.656454 0.519922 0.953430
Si Si8 0.764530 0.263269 0.942067
O O1 0.531563 0.505719 0.674165
O O2 0.328275 0.252829 0.691728
O O3 0.644481 0.231864 0.687085
O O4 0.105948 0.665362 0.469210
O O5 0.520558 0.578316 0.043483
O O6 0.004634 0.520575 0.185051
O O7 0.819179 0.499515 0.049516
O O8 0.546943 0.937727 0.928947
O O9 0.435405 0.353767 0.838860
O O10 0.005004 0.313310 0.735444
O O11 0.500000 0.000000 0.000000
O O12 0.203354 0.633966 0.131833
O O13 0.983497 0.943510 0.077449
O O14 0.028567 0.101916 0.714907
O O15 0.414707 0.829222 0.801624
O O16 0.500000 0.500000 0.500000
O O17 0.826823 0.357672 0.982918
#
# Coordination Sequence:
#
# PCOD9098208 Si02
#       8
#     2   2   2   2   2   2   2   2
#     4  10  22  39  67  88 118 162 212 256 292 366
#     4  10  22  36  60  86 126 158 193 254 307 372
#     4  11  18  35  60  87 118 158 208 250 297 373
#     4  10  22  40  58  93 115 153 218 252 290 374
#     4  10  22  42  60  90 126 161 203 253 307 370
#     4  10  20  36  64  90 115 160 212 251 299 361
#     4  11  22  39  57  89 125 166 189 247 327 367
#     4  10  22  35  61  88 121 161 194 256 316 357
#
# _framework density 21.355053000000002
#
# number of rings (size 3 to 8) (size 9 to 14) (size 15 to 20)
#    0.000    1.750    2.500    2.250    3.500    0.500 
#    2.250    1.250    0.000    0.000    0.000    0.000 
#    0.000    0.000    0.000    0.000    0.000    0.000 
#
# Total GULP energy -89076.645976 kJ/mol
# GULP energy per Si atom -5567.290373 kJ/mol
# Density = 2.130645 g / cm^3
# Si number density = 21.355053 Si / 1000 Ang^3
#
#
#
# Elastic Constant Matrix: (Units=GPa)
#
#
# Indices 1 2 3 4 5 6 
#
# 1 62.6171 20.9591 15.5626 11.4944 -1.9946 -6.6513
# 2 20.9591 114.4877 32.2212 26.1273 2.7214 -15.7109
# 3 15.5626 32.2212 71.7350 28.0055 1.6050 8.1032
# 4 11.4944 26.1273 28.0055 35.8795 6.3250 3.8685
# 5 -1.9946 2.7214 1.6050 6.3250 26.4684 6.6821
# 6 -6.6513 -15.7109 8.1032 3.8685 6.6821 36.7054
#
#
#
# Elastic Compliance Matrix: (Units=1/GPa)
#
#
# Indices 1 2 3 4 5 6 
#
# 1 0.018077 -0.001443 -0.002262 -0.003622 0.001698 0.003230
# 2 -0.001443 0.012381 -0.003522 -0.006289 -0.001363 0.006726
# 3 -0.002262 -0.003522 0.022041 -0.013920 0.003693 -0.005989
# 4 -0.003622 -0.006289 -0.013920 0.046442 -0.008988 -0.003534
# 5 0.001698 -0.001363 0.003693 -0.008988 0.041937 -0.007778
# 6 0.003230 0.006726 -0.005989 -0.003534 -0.007778 0.033819
#
#
# Mechanical properties :
#
#
# Convention : Reuss Voigt Hill
#
# Bulk Modulus (GPa) = 26.28513 42.92504 34.60509
# Shear Modulus (GPa) = 24.77296 31.81713 28.29505
#
# Velocity S-wave (km/s) = 3.40965 3.86412 3.64398
# Velocity P-wave (km/s) = 5.27601 6.32874 5.82620
#
# Compressibility (1/GPa) = 0.03804432
#
# Stress axis : x y z
#
# Youngs Moduli (GPa) = 55.31739 80.77130 45.36942
#
# Poissons Ratio (x) = 0.11657 0.10264
# Poissons Ratio (y) = 0.07983 0.15979
# Poissons Ratio (z) = 0.12515 0.28447
#
# Static dielectric constant tensor:
#      x y z
#    x 1.899950 -0.006070 0.056030 
#    y -0.006070 1.816350 0.046100 
#    z 0.056030 0.046100 1.799780 
# 
# From -- ./inp_files/616652.got.cif
#   From: 2010.05.17/outbox.cif.g08.bks.cpg/sg2_309_cif.got.tgz:616652.got - 2010.06.03 11:33:40.
