data_PCOD9098555
_publ_section_title
;
Structure prediction by ZEFSAII (Michael W. Deem and Ramdas Pophale) SiO2 
 PCOD9098555
Probable space group: P -1
;
_chemical_formula_sum "Si O2"
_cell_formula_units_Z 16
_cell_length_a 20.036486
_cell_length_b 12.142667
_cell_length_c 9.246137
_cell_angle_alpha 154.682585
_cell_angle_beta 41.780649
_cell_angle_gamma 140.934478
_cell_volume 598.170707
_symmetry_space_group_name_H-M "P -1"
_symmetry_group_IT_number 2
_symmetry_cell_setting 'triclinic'
loop_
_space_group_symop_operation_xyz
x,y,z
-x,-y,-z
loop_
_atom_site_type_symbol
_atom_site_label
_atom_site_fract_x
_atom_site_fract_y
_atom_site_fract_z
Si Si1 0.423004 0.634924 0.358723
Si Si2 0.929948 0.892326 0.645141
Si Si3 0.725181 0.764179 0.667504
Si Si4 0.003268 0.491632 0.740858
Si Si5 0.682136 0.778894 0.424067
Si Si6 0.249897 0.724704 0.561677
Si Si7 0.602322 0.141478 0.782064
Si Si8 0.114987 0.969016 0.802301
O O1 0.374891 0.489915 0.414588
O O2 0.326678 0.581003 0.337600
O O3 0.493985 0.951491 0.652751
O O4 0.500000 0.500000 0.000000
O O5 0.831888 0.716814 0.494133
O O6 0.005680 0.729301 0.380439
O O7 0.991885 0.205200 0.862850
O O8 0.874994 0.969702 0.971073
O O9 0.721786 0.833137 0.588380
O O10 0.730351 0.028932 0.064831
O O11 0.124916 0.544142 0.552378
O O12 0.914934 0.342033 0.584937
O O13 0.622724 0.977924 0.694117
O O14 0.786677 0.837512 0.222272
O O15 0.609591 0.454341 0.157574
O O16 0.299359 0.833590 0.455858
O O17 0.000000 0.000000 0.000000
#
# Coordination Sequence:
#
# PCOD9098555 Si02
#       8
#     2   2   2   2   2   2   2   2
#     4  12  25  44  77 107 133 187 250 292 347 423
#     4  10  20  39  65  96 131 182 227 281 336 408
#     4  11  26  45  70 100 151 188 227 298 364 411
#     4  10  20  36  68  98 130 172 227 288 337 395
#     4  12  29  47  68 107 152 185 231 297 361 417
#     4  11  23  45  73 104 141 182 245 297 346 420
#     4  12  27  46  73 104 142 190 242 288 353 427
#     4  10  22  43  71 103 137 187 238 285 343 424
#
# _framework density 26.748217
#
# number of rings (size 3 to 8) (size 9 to 14) (size 15 to 20)
#    0.000    1.000    2.500    4.500    3.500    3.000 
#    0.000    5.000    0.000    0.000    0.000    0.000 
#    0.000    0.000    0.000    0.000    0.000    0.000 
#
# Total GULP energy -89672.176311 kJ/mol
# GULP energy per Si atom -5604.511019 kJ/mol
# Density = 2.668734 g / cm^3
# Si number density = 26.748217 Si / 1000 Ang^3
#
#
#
# Elastic Constant Matrix: (Units=GPa)
#
#
# Indices 1 2 3 4 5 6 
#
# 1 155.8859 68.0833 29.2782 8.5827 15.4565 -18.7470
# 2 68.0833 140.2599 41.7440 20.5946 6.6094 -3.6539
# 3 29.2782 41.7440 74.5554 36.0266 0.3755 -2.7077
# 4 8.5827 20.5946 36.0266 53.7388 0.1800 5.3650
# 5 15.4565 6.6094 0.3755 0.1800 49.0942 4.4782
# 6 -18.7470 -3.6539 -2.7077 5.3650 4.4782 56.1035
#
#
#
# Elastic Compliance Matrix: (Units=1/GPa)
#
#
# Indices 1 2 3 4 5 6 
#
# 1 0.008913 -0.003755 -0.001720 0.000901 -0.002543 0.002768
# 2 -0.003755 0.010210 -0.003996 -0.000562 -0.000094 -0.000722
# 3 -0.001720 -0.003996 0.023045 -0.013799 0.000814 0.001532
# 4 0.000901 -0.000562 -0.013799 0.028241 0.000078 -0.003108
# 5 -0.002543 -0.000094 0.000814 0.000078 0.021407 -0.002533
# 6 0.002768 -0.000722 0.001532 -0.003108 -0.002533 0.019275
#
#
# Mechanical properties :
#
#
# Convention : Reuss Voigt Hill
#
# Bulk Modulus (GPa) = 43.05461 72.10135 57.57798
# Shear Modulus (GPa) = 36.29086 47.22703 41.75894
#
# Velocity S-wave (km/s) = 3.68742 4.20648 3.95547
# Velocity P-wave (km/s) = 5.85325 7.11384 6.51411
#
# Compressibility (1/GPa) = 0.02322632
#
# Stress axis : x y z
#
# Youngs Moduli (GPa) = 112.19011 97.94473 43.39309
#
# Poissons Ratio (x) = 0.36780 0.07462
# Poissons Ratio (y) = 0.42129 0.17341
# Poissons Ratio (z) = 0.19293 0.39141
#
# Static dielectric constant tensor:
#      x y z
#    x 2.181830 -0.096270 -0.067110 
#    y -0.096270 2.121390 0.014430 
#    z -0.067110 0.014430 2.173660 
# 
# From -- ./inp_files/346524.got.cif
#   From: 2010.05.17/outbox.cif.g08.bks.cpg/sg2_174_cif.got.tgz:346524.got - 2010.06.03 11:33:40.
