data_PCOD9098308
_publ_section_title
;
Structure prediction by ZEFSAII (Michael W. Deem and Ramdas Pophale) SiO2 
 PCOD9098308
Probable space group: P -1
;
_chemical_formula_sum "Si O2"
_cell_formula_units_Z 14
_cell_length_a 12.119633
_cell_length_b 13.713627
_cell_length_c 11.690607
_cell_angle_alpha 148.593158
_cell_angle_beta 37.406755
_cell_angle_gamma 137.763014
_cell_volume 603.012011
_symmetry_space_group_name_H-M "P -1"
_symmetry_group_IT_number 2
_symmetry_cell_setting 'triclinic'
loop_
_space_group_symop_operation_xyz
x,y,z
-x,-y,-z
loop_
_atom_site_type_symbol
_atom_site_label
_atom_site_fract_x
_atom_site_fract_y
_atom_site_fract_z
Si Si1 0.334554 0.659468 0.066784
Si Si2 0.872167 0.520823 0.520000
Si Si3 0.872894 0.706033 0.026460
Si Si4 0.385289 0.840224 0.604936
Si Si5 0.412496 0.094415 0.063122
Si Si6 0.359785 0.159931 0.814627
Si Si7 0.019530 0.146237 0.400306
O O1 0.476066 0.736885 0.133339
O O2 0.152801 0.759635 0.321137
O O3 0.450083 0.722312 0.920164
O O4 0.262230 0.434638 0.919324
O O5 0.675562 0.385709 0.568030
O O6 0.900199 0.730191 0.654386
O O7 0.000000 0.500000 0.500000
O O8 0.952058 0.393896 0.230534
O O9 0.775555 0.706800 0.982810
O O10 0.937726 0.924179 0.225243
O O11 0.401490 0.941286 0.814424
O O12 0.558623 0.883166 0.419258
O O13 0.258738 0.962703 0.759791
O O14 0.500000 0.000000 0.000000
O O15 0.212181 0.144005 0.306548
#
# Coordination Sequence:
#
# PCOD9098308 Si02
#       7
#     2   2   2   2   2   2   2
#     4  10  24  43  63 101 134 165 222 265 322 408
#     4  11  23  34  60 101 131 166 211 253 325 408
#     4  11  21  38  64  92 135 175 203 262 335 391
#     4  10  20  39  61  92 132 163 217 263 318 394
#     4  11  25  46  70  93 125 177 231 275 323 374
#     4  10  20  36  64  96 134 175 204 262 334 394
#     4  11  24  43  65  94 132 172 218 272 328 378
#
# _framework density 23.216784000000001
#
# number of rings (size 3 to 8) (size 9 to 14) (size 15 to 20)
#    0.000    1.429    1.429    5.571    6.000    1.714 
#    0.000    1.429    0.000    0.000    0.000    0.000 
#    0.000    0.000    0.000    0.000    0.000    0.000 
#
# Total GULP energy -78115.571754 kJ/mol
# GULP energy per Si atom -5579.683697 kJ/mol
# Density = 2.316394 g / cm^3
# Si number density = 23.216784 Si / 1000 Ang^3
#
#
#
# Elastic Constant Matrix: (Units=GPa)
#
#
# Indices 1 2 3 4 5 6 
#
# 1 73.5259 49.3404 19.8433 -4.5944 -33.1975 -12.1132
# 2 49.3404 183.6877 25.7545 32.5359 -9.0938 9.1517
# 3 19.8433 25.7545 96.7393 11.2471 -27.3613 6.8868
# 4 -4.5944 32.5359 11.2471 42.4903 5.2949 -1.0185
# 5 -33.1975 -9.0938 -27.3613 5.2949 36.5297 1.8215
# 6 -12.1132 9.1517 6.8868 -1.0185 1.8215 22.3607
#
#
#
# Elastic Compliance Matrix: (Units=1/GPa)
#
#
# Indices 1 2 3 4 5 6 
#
# 1 0.041253 -0.012739 0.001074 0.010501 0.032351 0.025074
# 2 -0.012739 0.010656 -0.000574 -0.008705 -0.007551 -0.010867
# 3 0.001074 -0.000574 0.014900 -0.005129 0.012989 -0.005064
# 4 0.010501 -0.008705 -0.005129 0.033230 -0.001905 0.012499
# 5 0.032351 -0.007551 0.012989 -0.001905 0.064337 0.011287
# 6 0.025074 -0.010867 -0.005064 0.012499 0.011287 0.063962
#
#
# Mechanical properties :
#
#
# Convention : Reuss Voigt Hill
#
# Bulk Modulus (GPa) = 23.62355 60.42546 42.02450
# Shear Modulus (GPa) = 18.73169 37.54379 28.13774
#
# Velocity S-wave (km/s) = 2.84353 4.02568 3.48509
# Velocity P-wave (km/s) = 4.58020 6.90588 5.85958
#
# Compressibility (1/GPa) = 0.04233065
#
# Stress axis : x y z
#
# Youngs Moduli (GPa) = 24.24046 93.84581 67.11333
#
# Poissons Ratio (x) = 1.19553 -0.07206
# Poissons Ratio (y) = 0.30881 0.03851
# Poissons Ratio (z) = -0.02603 0.05384
#
# Static dielectric constant tensor:
#      x y z
#    x 1.901770 0.042490 -0.080130 
#    y 0.042490 1.917200 0.001290 
#    z -0.080130 0.001290 2.191270 
# 
# From -- ./inp_files/426788.got.cif
#   From: 2010.05.17/outbox.cif.g08.bks.cpg/sg2_214_cif.got.tgz:426788.got - 2010.06.03 11:33:40.
