data_PCOD9098442
_publ_section_title
;
Structure prediction by ZEFSAII (Michael W. Deem and Ramdas Pophale) SiO2 
 PCOD9098442
Probable space group: P -1
;
_chemical_formula_sum "Si O2"
_cell_formula_units_Z 16
_cell_length_a 20.080613
_cell_length_b 24.811898
_cell_length_c 5.448624
_cell_angle_alpha 48.451729
_cell_angle_beta 117.949602
_cell_angle_gamma 157.336143
_cell_volume 679.295719
_symmetry_space_group_name_H-M "P -1"
_symmetry_group_IT_number 2
_symmetry_cell_setting 'triclinic'
loop_
_space_group_symop_operation_xyz
x,y,z
-x,-y,-z
loop_
_atom_site_type_symbol
_atom_site_label
_atom_site_fract_x
_atom_site_fract_y
_atom_site_fract_z
Si Si1 0.006430 0.676079 0.501112
Si Si2 0.735363 0.987324 0.820006
Si Si3 0.762565 0.478297 0.177873
Si Si4 0.321364 0.844129 0.464940
Si Si5 0.521686 0.140513 0.588006
Si Si6 0.182617 0.171584 0.487213
Si Si7 0.567756 0.716291 0.649861
Si Si8 0.926124 0.047767 0.647336
O O1 0.901005 0.591086 0.314004
O O2 0.168726 0.883384 0.184414
O O3 0.120112 0.700560 0.652792
O O4 0.866092 0.563495 0.834545
O O5 0.911460 0.106172 0.606481
O O6 0.611606 0.932373 0.608545
O O7 0.594105 0.796930 0.231609
O O8 0.614437 0.278286 0.523346
O O9 0.633037 0.436687 0.104482
O O10 0.314153 0.760037 0.579488
O O11 0.500000 0.000000 0.500000
O O12 0.387789 0.961646 0.023452
O O13 0.382940 0.320526 0.251151
O O14 0.136140 0.208979 0.405799
O O15 0.000000 0.000000 0.500000
O O16 0.142307 0.078037 0.913833
O O17 0.754875 0.900193 0.592877
#
# Coordination Sequence:
#
# PCOD9098442 Si02
#       8
#     2   2   2   2   2   2   2   2
#     4  12  28  43  63  97 136 170 214 271 333 389
#     4  11  21  40  67  93 124 172 226 265 313 389
#     4  12  27  43  64  99 136 170 210 270 335 389
#     4  11  25  45  71  90 124 171 221 272 322 386
#     4  11  24  44  71  93 124 171 222 265 325 393
#     4   8  16  31  54 100 126 156 209 281 308 360
#     4  10  20  36  66  91 127 170 216 265 320 381
#     4   9  17  31  63  94 123 159 221 271 309 363
#
# _framework density 23.553806999999999
#
# number of rings (size 3 to 8) (size 9 to 14) (size 15 to 20)
#    0.000    1.500    2.500    2.250    7.000    1.000 
#    0.000    0.000    0.000    1.500    0.000    0.000 
#    0.000    0.000    0.000    0.000    0.000    0.000 
#
# Total GULP energy -89438.542434 kJ/mol
# GULP energy per Si atom -5589.908902 kJ/mol
# Density = 2.350020 g / cm^3
# Si number density = 23.553807 Si / 1000 Ang^3
#
#
#
# Elastic Constant Matrix: (Units=GPa)
#
#
# Indices 1 2 3 4 5 6 
#
# 1 196.5955 43.0236 4.0180 -14.5124 -22.3477 31.3963
# 2 43.0236 107.9101 20.1206 17.3919 0.4799 7.2076
# 3 4.0180 20.1206 57.3875 11.3846 -13.4258 14.3811
# 4 -14.5124 17.3919 11.3846 37.5957 7.8161 -3.0944
# 5 -22.3477 0.4799 -13.4258 7.8161 38.0385 -11.1519
# 6 31.3963 7.2076 14.3811 -3.0944 -11.1519 53.1904
#
#
#
# Elastic Compliance Matrix: (Units=1/GPa)
#
#
# Indices 1 2 3 4 5 6 
#
# 1 0.006845 -0.003280 0.001674 0.002733 0.003145 -0.003230
# 2 -0.003280 0.012068 -0.003575 -0.005287 -0.002103 0.000519
# 3 0.001674 -0.003575 0.023478 -0.007166 0.009224 -0.005334
# 4 0.002733 -0.005287 -0.007166 0.033928 -0.007400 0.001463
# 5 0.003145 -0.002103 0.009224 -0.007400 0.033692 0.002568
# 6 -0.003230 0.000519 -0.005334 0.001463 0.002568 0.022703
#
#
# Mechanical properties :
#
#
# Convention : Reuss Voigt Hill
#
# Bulk Modulus (GPa) = 31.22138 55.13529 43.17833
# Shear Modulus (GPa) = 32.51978 45.41365 38.96671
#
# Velocity S-wave (km/s) = 3.71975 4.39576 4.07181
# Velocity P-wave (km/s) = 5.63319 7.01588 6.36221
#
# Compressibility (1/GPa) = 0.03202934
#
# Stress axis : x y z
#
# Youngs Moduli (GPa) = 146.08474 82.86394 42.59336
#
# Poissons Ratio (x) = 0.27180 -0.07129
# Poissons Ratio (y) = 0.47917 0.15226
# Poissons Ratio (z) = -0.24452 0.29621
#
# Static dielectric constant tensor:
#      x y z
#    x 1.983910 0.060100 -0.052620 
#    y 0.060100 1.932510 0.003910 
#    z -0.052620 0.003910 1.974520 
# 
# From -- ./inp_files/55442.got.cif
#   From: 2010.05.17/outbox.cif.g08.bks.cpg/sg2_28_cif.got.tgz:55442.got - 2010.06.03 11:33:40.
