data_PCOD9098044
_publ_section_title
;
Structure prediction by ZEFSAII (Michael W. Deem and Ramdas Pophale) SiO2 
 PCOD9098044
Probable space group: P -1
;
_chemical_formula_sum "Si O2"
_cell_formula_units_Z 14
_cell_length_a 12.538687
_cell_length_b 11.860926
_cell_length_c 14.858879
_cell_angle_alpha 110.338917
_cell_angle_beta 123.403551
_cell_angle_gamma 24.379164
_cell_volume 681.345408
_symmetry_space_group_name_H-M "P -1"
_symmetry_group_IT_number 2
_symmetry_cell_setting 'triclinic'
loop_
_space_group_symop_operation_xyz
x,y,z
-x,-y,-z
loop_
_atom_site_type_symbol
_atom_site_label
_atom_site_fract_x
_atom_site_fract_y
_atom_site_fract_z
Si Si1 0.635607 0.746668 0.111052
Si Si2 0.732273 0.316743 0.845345
Si Si3 0.440709 0.676842 0.072181
Si Si4 0.560255 0.169122 0.144657
Si Si5 0.860461 0.924297 0.387464
Si Si6 0.306806 0.242364 0.201519
Si Si7 0.549762 0.456614 0.404524
O O1 0.678396 0.577860 0.127489
O O2 0.978101 0.507748 0.175641
O O3 0.441259 0.000548 0.158328
O O4 0.442652 0.894239 0.968730
O O5 0.573983 0.345471 0.836361
O O6 0.534993 0.610229 0.852358
O O7 0.726909 0.294125 0.730069
O O8 0.087448 0.025399 0.970824
O O9 0.500000 0.500000 0.000000
O O10 0.877147 0.879119 0.275114
O O11 0.289338 0.343302 0.132734
O O12 0.598062 0.057394 0.339334
O O13 0.705797 0.191045 0.386450
O O14 0.192173 0.658160 0.519509
O O15 0.500000 0.500000 0.500000
#
# Coordination Sequence:
#
# PCOD9098044 Si02
#       7
#     2   2   2   2   2   2   2
#     4  12  22  38  61  89 130 173 206 248 318 388
#     4  10  22  40  60  90 127 160 212 264 310 374
#     4  11  24  39  61  85 124 170 213 259 305 368
#     4   9  19  37  58  92 127 158 197 255 324 377
#     4   8  21  35  55  91 126 151 203 249 324 367
#     4  10  24  36  61  94 133 161 205 255 325 387
#     4  10  20  36  63  90 121 165 204 261 322 366
#
# _framework density 20.547578999999999
#
# number of rings (size 3 to 8) (size 9 to 14) (size 15 to 20)
#    0.857    1.143    1.429    1.714    6.000    2.286 
#    0.000    0.000    0.000    1.714    0.000    0.000 
#    0.000    0.000    0.000    0.000    0.000    0.000 
#
# Total GULP energy -78054.501514 kJ/mol
# GULP energy per Si atom -5575.321537 kJ/mol
# Density = 2.050081 g / cm^3
# Si number density = 20.547579 Si / 1000 Ang^3
#
#
#
# Elastic Constant Matrix: (Units=GPa)
#
#
# Indices 1 2 3 4 5 6 
#
# 1 121.1717 9.3003 23.9989 4.7236 1.0738 1.8345
# 2 9.3003 49.4646 18.0400 4.9777 4.3522 5.2888
# 3 23.9989 18.0400 68.8118 14.3199 7.1279 8.3152
# 4 4.7236 4.9777 14.3199 18.3470 4.4511 -2.8640
# 5 1.0738 4.3522 7.1279 4.4511 28.9242 8.3176
# 6 1.8345 5.2888 8.3152 -2.8640 8.3176 23.8259
#
#
#
# Elastic Compliance Matrix: (Units=1/GPa)
#
#
# Indices 1 2 3 4 5 6 
#
# 1 0.008892 -0.000656 -0.003076 0.000272 0.000358 0.000442
# 2 -0.000656 0.022754 -0.004683 -0.002670 -0.000861 -0.003387
# 3 -0.003076 -0.004683 0.021041 -0.015715 0.000378 -0.008088
# 4 0.000272 -0.002670 -0.015715 0.073489 -0.012591 0.019285
# 5 0.000358 -0.000861 0.000378 -0.012591 0.041084 -0.015824
# 6 0.000442 -0.003387 -0.008088 0.019285 -0.015824 0.053354
#
#
# Mechanical properties :
#
#
# Convention : Reuss Voigt Hill
#
# Bulk Modulus (GPa) = 27.88818 38.01405 32.95112
# Shear Modulus (GPa) = 20.04837 26.76002 23.40420
#
# Velocity S-wave (km/s) = 3.12702 3.61272 3.37861
# Velocity P-wave (km/s) = 5.16136 5.99524 5.59386
#
# Compressibility (1/GPa) = 0.03585749
#
# Stress axis : x y z
#
# Youngs Moduli (GPa) = 112.46171 43.94817 47.52551
#
# Poissons Ratio (x) = 0.02883 0.14620
# Poissons Ratio (y) = 0.07378 0.22254
# Poissons Ratio (z) = 0.34596 0.20579
#
# Static dielectric constant tensor:
#      x y z
#    x 1.795640 -0.049810 0.034770 
#    y -0.049810 1.785040 -0.002680 
#    z 0.034770 -0.002680 1.806710 
# 
# From -- ./inp_files/519771.got.cif
#   From: 2010.05.17/outbox.cif.g08.bks.cpg/sg2_260_cif.got.tgz:519771.got - 2010.06.03 11:33:40.
