data_PCOD9098278
_publ_section_title
;
Structure prediction by ZEFSAII (Michael W. Deem and Ramdas Pophale) SiO2 
 PCOD9098278
Probable space group: P -1
;
_chemical_formula_sum "Si O2"
_cell_formula_units_Z 15
_cell_length_a 13.261343
_cell_length_b 5.935005
_cell_length_c 10.126589
_cell_angle_alpha 111.666339
_cell_angle_beta 106.061503
_cell_angle_gamma 111.483746
_cell_volume 606.050992
_symmetry_space_group_name_H-M "P -1"
_symmetry_group_IT_number 2
_symmetry_cell_setting 'triclinic'
loop_
_space_group_symop_operation_xyz
x,y,z
-x,-y,-z
loop_
_atom_site_type_symbol
_atom_site_label
_atom_site_fract_x
_atom_site_fract_y
_atom_site_fract_z
Si Si1 0.039248 0.258266 0.457687
Si Si2 0.725978 0.341162 0.041548
Si Si3 0.275086 0.447005 0.205972
Si Si4 0.738355 0.072608 0.593223
Si Si5 0.313479 0.466434 0.663166
Si Si6 0.000000 0.000000 0.000000
Si Si7 0.574091 0.780533 0.728198
Si Si8 0.991542 0.750581 0.179643
O O1 0.186637 0.427755 0.555931
O O2 0.000000 0.500000 0.500000
O O3 0.991035 0.051695 0.264455
O O4 0.000000 0.000000 0.500000
O O5 0.671793 0.428385 0.159786
O O6 0.872974 0.495424 0.152258
O O7 0.715642 0.457242 0.921154
O O8 0.650952 0.006776 0.920354
O O9 0.150741 0.140937 0.108104
O O10 0.402297 0.470346 0.289447
O O11 0.261822 0.641857 0.350889
O O12 0.703493 0.845223 0.416889
O O13 0.644314 0.910735 0.645045
O O14 0.878441 0.172955 0.702972
O O15 0.432988 0.678876 0.668060
O O16 0.971771 0.714676 0.008549
#
# Coordination Sequence:
#
# PCOD9098278 Si02
#       8
#     2   2   2   2   2   1   2   2
#     4  11  25  49  71 105 142 185 240 294 367 431
#     4  10  23  42  65  98 135 177 238 292 354 422
#     4  10  23  39  65  99 132 182 228 295 345 431
#     4  10  23  42  64  96 137 173 234 286 353 426
#     4  11  24  46  69  97 138 185 226 296 358 433
#     4  10  20  36  64  94 128 174 224 284 352 402
#     4  11  23  44  65  98 136 181 236 280 361 425
#     4  10  21  41  67 101 134 178 233 298 352 418
#
# _framework density 24.750389999999999
#
# number of rings (size 3 to 8) (size 9 to 14) (size 15 to 20)
#    0.000    1.600    2.667    0.800    1.867    6.933 
#    4.800    0.000    0.000    0.000    0.000    0.000 
#    0.000    0.000    0.000    0.000    0.000    0.000 
#
# Total GULP energy -83572.922454 kJ/mol
# GULP energy per Si atom -5571.528164 kJ/mol
# Density = 2.469406 g / cm^3
# Si number density = 24.750390 Si / 1000 Ang^3
#
#
#
# Elastic Constant Matrix: (Units=GPa)
#
#
# Indices 1 2 3 4 5 6 
#
# 1 177.5212 50.1809 54.6788 17.4169 16.7852 1.8677
# 2 50.1809 63.9119 20.3038 2.7960 0.6212 -4.6264
# 3 54.6788 20.3038 103.6089 29.5252 -17.3717 -12.0387
# 4 17.4169 2.7960 29.5252 36.4166 -0.7174 -10.6202
# 5 16.7852 0.6212 -17.3717 -0.7174 51.5479 6.9134
# 6 1.8677 -4.6264 -12.0387 -10.6202 6.9134 28.9100
#
#
#
# Elastic Compliance Matrix: (Units=1/GPa)
#
#
# Indices 1 2 3 4 5 6 
#
# 1 0.009182 -0.005955 -0.004292 -0.001373 -0.003997 -0.002882
# 2 -0.005955 0.020905 -0.001368 0.003628 0.000696 0.004326
# 3 -0.004292 -0.001368 0.016506 -0.010680 0.006638 0.001421
# 4 -0.001373 0.003628 -0.010680 0.039879 -0.004234 0.011885
# 5 -0.003997 0.000696 0.006638 -0.004234 0.023410 -0.004020
# 6 -0.002882 0.004326 0.001421 0.011885 -0.004020 0.041388
#
#
# Mechanical properties :
#
#
# Convention : Reuss Voigt Hill
#
# Bulk Modulus (GPa) = 42.80536 66.15210 54.47873
# Shear Modulus (GPa) = 27.42925 38.03348 32.73136
#
# Velocity S-wave (km/s) = 3.33263 3.92431 3.64051
# Velocity P-wave (km/s) = 5.66930 6.87890 6.30318
#
# Compressibility (1/GPa) = 0.02336156
#
# Stress axis : x y z
#
# Youngs Moduli (GPa) = 108.91425 47.83642 60.58277
#
# Poissons Ratio (x) = 0.28487 0.26003
# Poissons Ratio (y) = 0.64860 0.08289
# Poissons Ratio (z) = 0.46748 0.06545
#
# Static dielectric constant tensor:
#      x y z
#    x 1.892420 -0.089050 0.240940 
#    y -0.089050 2.035670 0.131220 
#    z 0.240940 0.131220 1.604860 
# 
# From -- ./inp_files/411342.got.cif
#   From: 2010.05.17/outbox.cif.g08.bks.cpg/sg2_206_cif.got.tgz:411342.got - 2010.06.03 11:33:40.
