data_PCOD9098754
_publ_section_title
;
Structure prediction by ZEFSAII (Michael W. Deem and Ramdas Pophale) SiO2 
 PCOD9098754
Probable space group: P -1
;
_chemical_formula_sum "Si O2"
_cell_formula_units_Z 16
_cell_length_a 10.282402
_cell_length_b 22.755411
_cell_length_c 19.059559
_cell_angle_alpha 162.577885
_cell_angle_beta 121.617860
_cell_angle_gamma 48.172012
_cell_volume 860.363354
_symmetry_space_group_name_H-M "P -1"
_symmetry_group_IT_number 2
_symmetry_cell_setting 'triclinic'
loop_
_space_group_symop_operation_xyz
x,y,z
-x,-y,-z
loop_
_atom_site_type_symbol
_atom_site_label
_atom_site_fract_x
_atom_site_fract_y
_atom_site_fract_z
Si Si1 0.478479 0.712955 0.191885
Si Si2 0.631461 0.561687 0.906557
Si Si3 0.940871 0.867526 0.522321
Si Si4 0.177362 0.366394 0.543623
Si Si5 0.884837 0.961280 0.130760
Si Si6 0.098458 0.967063 0.064400
Si Si7 0.545351 0.607278 0.438276
Si Si8 0.662293 0.844827 0.508008
O O1 0.598243 0.592755 0.015780
O O2 0.566220 0.808215 0.374657
O O3 0.246855 0.943084 0.366732
O O4 0.500000 0.500000 0.000000
O O5 0.500248 0.853518 0.173105
O O6 0.538820 0.445460 0.712254
O O7 0.863307 0.378771 0.741743
O O8 0.857878 0.791088 0.471447
O O9 0.004955 0.012839 0.745469
O O10 0.139697 0.165465 0.304308
O O11 0.328783 0.315330 0.468078
O O12 0.276174 0.329675 0.605641
O O13 0.976651 0.665863 0.818904
O O14 0.647326 0.171184 0.317824
O O15 0.952207 0.017771 0.143716
O O16 0.302031 0.668846 0.793902
O O17 0.000000 0.000000 0.000000
#
# Coordination Sequence:
#
# PCOD9098754 Si02
#       8
#     2   2   2   2   2   2   2   2
#     4  11  22  34  51  80 117 154 198 246 293 336
#     4  10  20  37  57  81 116 154 196 245 289 343
#     4  10  20  37  57  81 116 154 196 245 289 343
#     4  11  21  40  64  88 118 160 203 236 301 359
#     4  10  22  40  62  91 124 156 198 246 293 354
#     4  11  23  42  66  89 121 157 193 244 302 360
#     4  10  22  40  62  91 124 156 198 246 293 354
#     4  11  20  35  59  82 112 157 200 242 292 347
#
# _framework density 18.596793999999999
#
# number of rings (size 3 to 8) (size 9 to 14) (size 15 to 20)
#    0.000    1.500    2.500    5.250    0.000    7.000 
#    0.000    1.250    0.000    0.000    0.000    0.000 
#    0.000    0.000    0.000    0.000    0.000    0.000 
#
# Total GULP energy -89345.476733 kJ/mol
# GULP energy per Si atom -5584.092296 kJ/mol
# Density = 1.855447 g / cm^3
# Si number density = 18.596794 Si / 1000 Ang^3
#
#
#
# Elastic Constant Matrix: (Units=GPa)
#
#
# Indices 1 2 3 4 5 6 
#
# 1 124.8583 54.4544 100.5448 33.7426 -15.3245 -0.6078
# 2 54.4544 100.0884 47.2359 0.4749 -10.2300 5.9944
# 3 100.5448 47.2359 112.4102 22.8164 -18.2453 6.6041
# 4 33.7426 0.4749 22.8164 18.9162 -1.8781 1.2074
# 5 -15.3245 -10.2300 -18.2453 -1.8781 37.5657 9.8681
# 6 -0.6078 5.9944 6.6041 1.2074 9.8681 15.3751
#
#
#
# Elastic Compliance Matrix: (Units=1/GPa)
#
#
# Indices 1 2 3 4 5 6 
#
# 1 0.082075 -0.025324 -0.050079 -0.090255 -0.015887 0.051912
# 2 -0.025324 0.021465 0.008566 0.036273 0.006813 -0.020270
# 3 -0.050079 0.008566 0.048108 0.035386 0.017553 -0.040027
# 4 -0.090255 0.036273 0.035386 0.175146 0.013544 -0.055356
# 5 -0.015887 0.006813 0.017553 0.013544 0.041279 -0.038381
# 6 0.051912 -0.020270 -0.040027 -0.055356 -0.038381 0.121169
#
#
# Mechanical properties :
#
#
# Convention : Reuss Voigt Hill
#
# Bulk Modulus (GPa) = 55.64123 82.42524 69.03323
# Shear Modulus (GPa) = 7.95029 23.37953 15.66491
#
# Velocity S-wave (km/s) = 2.06987 3.54952 2.90547
# Velocity P-wave (km/s) = 5.97472 7.82415 6.96113
#
# Compressibility (1/GPa) = 0.01797228
#
# Stress axis : x y z
#
# Youngs Moduli (GPa) = 12.18399 46.58765 20.78675
#
# Poissons Ratio (x) = 1.17979 1.04098
# Poissons Ratio (y) = 0.30855 -0.17805
# Poissons Ratio (z) = 0.61016 -0.39905
#
# Static dielectric constant tensor:
#      x y z
#    x 1.634260 -0.011620 0.016650 
#    y -0.011620 1.641290 -0.017870 
#    z 0.016650 -0.017870 1.646500 
# 
# From -- ./inp_files/562797.got.cif
#   From: 2010.05.17/outbox.cif.g08.bks.cpg/sg2_282_cif.got.tgz:562797.got - 2010.06.03 11:33:40.
