data_PCOD9098391
_publ_section_title
;
Structure prediction by ZEFSAII (Michael W. Deem and Ramdas Pophale) SiO2 
 PCOD9098391
Probable space group: P -1
;
_chemical_formula_sum "Si O2"
_cell_formula_units_Z 16
_cell_length_a 9.216245
_cell_length_b 8.886420
_cell_length_c 15.617830
_cell_angle_alpha 57.333625
_cell_angle_beta 127.518435
_cell_angle_gamma 84.522492
_cell_volume 659.577180
_symmetry_space_group_name_H-M "P -1"
_symmetry_group_IT_number 2
_symmetry_cell_setting 'triclinic'
loop_
_space_group_symop_operation_xyz
x,y,z
-x,-y,-z
loop_
_atom_site_type_symbol
_atom_site_label
_atom_site_fract_x
_atom_site_fract_y
_atom_site_fract_z
Si Si1 0.593273 0.134424 0.964171
Si Si2 0.490344 0.323695 0.370837
Si Si3 0.884057 0.609552 0.657980
Si Si4 0.927584 0.161285 0.006921
Si Si5 0.274155 0.958506 0.630178
Si Si6 0.291406 0.552101 0.467030
Si Si7 0.707874 0.422283 0.164986
Si Si8 0.585093 0.034897 0.795657
O O1 0.840045 0.093653 0.075239
O O2 0.408402 0.392920 0.855535
O O3 0.612200 0.079593 0.888067
O O4 0.500000 0.000000 0.000000
O O5 0.348762 0.284503 0.399756
O O6 0.285082 0.582095 0.181269
O O7 0.597985 0.164906 0.375447
O O8 0.701388 0.308280 0.496966
O O9 0.916521 0.400465 0.682708
O O10 0.096669 0.558778 0.806716
O O11 0.873180 0.774648 0.532476
O O12 0.000000 0.000000 0.000000
O O13 0.172270 0.112335 0.125902
O O14 0.187323 0.830602 0.682880
O O15 0.462236 0.921868 0.776254
O O16 0.500000 0.500000 0.500000
O O17 0.408677 0.296876 0.619357
O O18 0.500000 0.500000 0.000000
#
# Coordination Sequence:
#
# PCOD9098391 Si02
#       8
#     2   2   2   2   2   2   2   2
#     4  11  23  40  61  93 130 167 210 259 318 382
#     4  11  20  40  69  99 126 159 221 268 316 377
#     4  10  25  41  67  93 128 175 208 261 322 384
#     4  10  20  36  65  94 127 159 210 266 323 361
#     4  11  23  44  65  93 135 167 213 264 322 377
#     4   9  18  37  62  91 120 164 211 257 310 373
#     4  12  26  44  64  95 133 172 212 263 318 383
#     4  10  21  39  63  93 128 166 210 266 317 374
#
# _framework density 24.257966
#
# number of rings (size 3 to 8) (size 9 to 14) (size 15 to 20)
#    0.000    1.500    3.750    1.500    5.250    1.500 
#    0.000    8.125    0.000    0.000    0.000    0.000 
#    0.000    0.000    0.000    0.000    0.000    0.000 
#
# Total GULP energy -89095.798004 kJ/mol
# GULP energy per Si atom -5568.487375 kJ/mol
# Density = 2.420275 g / cm^3
# Si number density = 24.257966 Si / 1000 Ang^3
#
#
#
# Elastic Constant Matrix: (Units=GPa)
#
#
# Indices 1 2 3 4 5 6 
#
# 1 112.4926 32.2623 12.1350 2.2855 9.2489 35.5188
# 2 32.2623 122.4480 20.0216 20.5431 18.1921 21.6132
# 3 12.1350 20.0216 47.7917 7.5239 -2.1432 14.3185
# 4 2.2855 20.5431 7.5239 41.3471 11.9198 6.9839
# 5 9.2489 18.1921 -2.1432 11.9198 31.8950 4.7512
# 6 35.5188 21.6132 14.3185 6.9839 4.7512 47.2084
#
#
#
# Elastic Compliance Matrix: (Units=1/GPa)
#
#
# Indices 1 2 3 4 5 6 
#
# 1 0.012213 -0.001744 -0.000307 0.002295 -0.002171 -0.008418
# 2 -0.001744 0.010609 -0.003215 -0.003045 -0.004373 -0.001679
# 3 -0.000307 -0.003215 0.024951 -0.003607 0.005829 -0.005918
# 4 0.002295 -0.003045 -0.003607 0.029496 -0.009805 -0.002615
# 5 -0.002171 -0.004373 0.005829 -0.009805 0.038617 -0.000568
# 6 -0.008418 -0.001679 -0.005918 -0.002615 -0.000568 0.030524
#
#
# Mechanical properties :
#
#
# Convention : Reuss Voigt Hill
#
# Bulk Modulus (GPa) = 26.85275 45.73000 36.29137
# Shear Modulus (GPa) = 29.52349 38.64432 34.08391
#
# Velocity S-wave (km/s) = 3.49243 3.99564 3.75248
# Velocity P-wave (km/s) = 5.23034 6.33872 5.81101
#
# Compressibility (1/GPa) = 0.03724013
#
# Stress axis : x y z
#
# Youngs Moduli (GPa) = 81.88266 94.25967 40.07809
#
# Poissons Ratio (x) = 0.16441 0.01230
# Poissons Ratio (y) = 0.14282 0.12886
# Poissons Ratio (z) = 0.02513 0.30307
#
# Static dielectric constant tensor:
#      x y z
#    x 2.732770 0.259020 0.609250 
#    y 0.259020 1.984790 0.204080 
#    z 0.609250 0.204080 2.504770 
# 
# From -- ./inp_files/557038.got.cif
#   From: 2010.05.17/outbox.cif.g08.bks.cpg/sg2_279_cif.got.tgz:557038.got - 2010.06.03 11:33:40.
