data_PCOD9098745
_publ_section_title
;
Structure prediction by ZEFSAII (Michael W. Deem and Ramdas Pophale) SiO2 
 PCOD9098745
Probable space group: P -1
;
_chemical_formula_sum "Si O2"
_cell_formula_units_Z 16
_cell_length_a 7.096901
_cell_length_b 19.616336
_cell_length_c 17.000926
_cell_angle_alpha 158.803016
_cell_angle_beta 55.120488
_cell_angle_gamma 125.753220
_cell_volume 691.528640
_symmetry_space_group_name_H-M "P -1"
_symmetry_group_IT_number 2
_symmetry_cell_setting 'triclinic'
loop_
_space_group_symop_operation_xyz
x,y,z
-x,-y,-z
loop_
_atom_site_type_symbol
_atom_site_label
_atom_site_fract_x
_atom_site_fract_y
_atom_site_fract_z
Si Si1 0.788288 0.426062 0.030115
Si Si2 0.975694 0.277625 0.599202
Si Si3 0.869062 0.915863 0.792484
Si Si4 0.536421 0.746039 0.380222
Si Si5 0.286956 0.330954 0.283393
Si Si6 0.267443 0.955263 0.454717
Si Si7 0.396447 0.993868 0.815151
Si Si8 0.757256 0.250796 0.258726
O O1 0.892930 0.513272 0.181154
O O2 0.587520 0.545486 0.183259
O O3 0.711150 0.205407 0.789186
O O4 0.000000 0.500000 0.000000
O O5 0.123637 0.184720 0.400426
O O6 0.719365 0.284877 0.632256
O O7 0.927649 0.138878 0.538058
O O8 0.755122 0.776069 0.738389
O O9 0.139638 0.969814 0.811255
O O10 0.758328 0.107649 0.031263
O O11 0.538793 0.892851 0.609973
O O12 0.729618 0.846712 0.379444
O O13 0.346031 0.557584 0.522408
O O14 0.029949 0.301585 0.272664
O O15 0.446728 0.216261 0.068512
O O16 0.500000 0.000000 0.500000
O O17 0.363782 0.868131 0.766810
#
# Coordination Sequence:
#
# PCOD9098745 Si02
#       8
#     2   2   2   2   2   2   2   2
#     4  10  22  38  57  81 108 143 183 224 272 324
#     4   9  19  36  56  80 111 144 181 224 269 322
#     4   8  14  27  43  69 105 135 171 217 262 310
#     4  10  20  37  57  80 112 145 179 226 273 316
#     4   8  13  23  42  69 101 136 172 214 262 310
#     4   9  20  37  57  81 108 141 180 221 268 324
#     4   8  15  26  45  71 102 137 172 216 264 309
#     4   8  13  23  42  70 101 133 174 217 258 310
#
# _framework density 23.137145
#
# number of rings (size 3 to 8) (size 9 to 14) (size 15 to 20)
#    0.000    3.250    0.000    1.500    0.000    7.500 
#    0.000   12.500    0.000    3.000    0.000    5.250 
#    0.000    0.000    0.000    0.000    0.000    0.000 
#
# Total GULP energy -89322.931852 kJ/mol
# GULP energy per Si atom -5582.683241 kJ/mol
# Density = 2.308448 g / cm^3
# Si number density = 23.137145 Si / 1000 Ang^3
#
#
#
# Elastic Constant Matrix: (Units=GPa)
#
#
# Indices 1 2 3 4 5 6 
#
# 1 92.3406 13.6115 47.9335 -5.0166 6.6118 5.6184
# 2 13.6115 22.1669 21.1374 -10.4766 6.6720 -11.2387
# 3 47.9335 21.1374 145.4688 -2.0281 22.6896 -17.3779
# 4 -5.0166 -10.4766 -2.0281 33.5674 -8.7694 2.4867
# 5 6.6118 6.6720 22.6896 -8.7694 36.5505 -2.6674
# 6 5.6184 -11.2387 -17.3779 2.4867 -2.6674 22.2260
#
#
#
# Elastic Compliance Matrix: (Units=1/GPa)
#
#
# Indices 1 2 3 4 5 6 
#
# 1 0.016375 -0.012951 -0.005545 -0.000399 0.001670 -0.014779
# 2 -0.012951 0.088720 -0.002531 0.021350 -0.004000 0.043288
# 3 -0.005545 -0.002531 0.010860 -0.002985 -0.005386 0.008300
# 4 -0.000399 0.021350 -0.002985 0.037779 0.007474 0.005233
# 5 0.001670 -0.004000 -0.005386 0.007474 0.032664 -0.003572
# 6 -0.014779 0.043288 0.008300 0.005233 -0.003572 0.076092
#
#
# Mechanical properties :
#
#
# Convention : Reuss Voigt Hill
#
# Bulk Modulus (GPa) = 13.53205 47.26011 30.39608
# Shear Modulus (GPa) = 15.18930 30.28839 22.73885
#
# Velocity S-wave (km/s) = 2.56499 3.62205 3.13834
# Velocity P-wave (km/s) = 3.82538 6.16139 5.12817
#
# Compressibility (1/GPa) = 0.07389863
#
# Stress axis : x y z
#
# Youngs Moduli (GPa) = 61.06800 11.27140 92.08512
#
# Poissons Ratio (x) = 0.14598 0.51066
# Poissons Ratio (y) = 0.79092 0.23308
# Poissons Ratio (z) = 0.33865 0.02853
#
# Static dielectric constant tensor:
#      x y z
#    x 1.935700 0.018540 0.024470 
#    y 0.018540 1.855200 0.002010 
#    z 0.024470 0.002010 1.882620 
# 
# From -- ./inp_files/562980.got.cif
#   From: 2010.05.17/outbox.cif.g08.bks.cpg/sg2_282_cif.got.tgz:562980.got - 2010.06.03 11:33:40.
