data_PCOD9098472
_publ_section_title
;
Structure prediction by ZEFSAII (Michael W. Deem and Ramdas Pophale) SiO2 
 PCOD9098472
Probable space group: P -1
;
_chemical_formula_sum "Si O2"
_cell_formula_units_Z 14
_cell_length_a 9.243374
_cell_length_b 9.118697
_cell_length_c 15.853576
_cell_angle_alpha 33.873297
_cell_angle_beta 107.772088
_cell_angle_gamma 115.607730
_cell_volume 667.786070
_symmetry_space_group_name_H-M "P -1"
_symmetry_group_IT_number 2
_symmetry_cell_setting 'triclinic'
loop_
_space_group_symop_operation_xyz
x,y,z
-x,-y,-z
loop_
_atom_site_type_symbol
_atom_site_label
_atom_site_fract_x
_atom_site_fract_y
_atom_site_fract_z
Si Si1 0.156902 0.423086 0.086745
Si Si2 0.501332 0.306770 0.377839
Si Si3 0.498086 0.782741 0.028797
Si Si4 0.143662 0.086457 0.417256
Si Si5 0.350096 0.547001 0.494620
Si Si6 0.248509 0.006171 0.176552
Si Si7 0.024920 0.448185 0.432081
O O1 0.320916 0.686640 0.000952
O O2 0.125224 0.261579 0.248396
O O3 0.197726 0.230145 0.114118
O O4 0.000000 0.500000 0.000000
O O5 0.517341 0.506127 0.205758
O O6 0.318979 0.249746 0.406911
O O7 0.627054 0.466294 0.395450
O O8 0.500000 0.000000 0.500000
O O9 0.638844 0.894237 0.931785
O O10 0.500000 0.000000 0.000000
O O11 0.000000 0.000000 0.500000
O O12 0.127441 0.782632 0.522704
O O13 0.500000 0.500000 0.500000
O O14 0.182948 0.352811 0.515724
O O15 0.343458 0.856028 0.325963
O O16 0.088020 0.740498 0.254595
O O17 0.000000 0.500000 0.500000
#
# Coordination Sequence:
#
# PCOD9098472 Si02
#       7
#     2   2   2   2   2   2   2
#     4  11  25  45  65  93 129 180 220 262 326 393
#     4  11  23  41  63  96 127 165 211 268 328 381
#     4  11  25  44  68  96 135 171 216 277 332 390
#     4  11  23  39  64  93 131 160 211 273 326 374
#     4  10  20  36  66  96 121 165 218 258 320 390
#     4  10  23  44  68  93 134 173 221 266 325 394
#     4  10  20  40  66  91 128 167 215 264 321 382
#
# _framework density 20.964798999999999
#
# number of rings (size 3 to 8) (size 9 to 14) (size 15 to 20)
#    0.857    0.571    1.429    4.714    4.000    4.571 
#    2.571    0.714    0.000    0.000    0.000    0.000 
#    0.000    0.000    0.000    0.000    0.000    0.000 
#
# Total GULP energy -78071.203846 kJ/mol
# GULP energy per Si atom -5576.514560 kJ/mol
# Density = 2.091708 g / cm^3
# Si number density = 20.964799 Si / 1000 Ang^3
#
#
#
# Elastic Constant Matrix: (Units=GPa)
#
#
# Indices 1 2 3 4 5 6 
#
# 1 112.2267 22.2040 50.3657 4.8569 -6.8241 -17.9253
# 2 22.2040 72.1557 17.9483 -2.3280 3.7394 7.9342
# 3 50.3657 17.9483 89.3980 1.7810 -19.0260 -1.0057
# 4 4.8569 -2.3280 1.7810 26.7806 -4.0375 -8.7552
# 5 -6.8241 3.7394 -19.0260 -4.0375 47.3290 -1.1081
# 6 -17.9253 7.9342 -1.0057 -8.7552 -1.1081 33.2449
#
#
#
# Elastic Compliance Matrix: (Units=1/GPa)
#
#
# Indices 1 2 3 4 5 6 
#
# 1 0.014139 -0.003422 -0.007276 0.000268 -0.000399 0.008278
# 2 -0.003422 0.016184 -0.001962 -0.000182 -0.002715 -0.005905
# 3 -0.007276 -0.001962 0.016889 0.000007 0.005831 -0.002748
# 4 0.000268 -0.000182 0.000007 0.041538 0.003863 0.011256
# 5 -0.000399 -0.002715 0.005831 0.003863 0.024016 0.002427
# 6 0.008278 -0.005905 -0.002748 0.011256 0.002427 0.038914
#
#
# Mechanical properties :
#
#
# Convention : Reuss Voigt Hill
#
# Bulk Modulus (GPa) = 45.67748 50.53516 48.10632
# Shear Modulus (GPa) = 27.12997 33.68839 30.40918
#
# Velocity S-wave (km/s) = 3.60122 4.01297 3.81266
# Velocity P-wave (km/s) = 6.25514 6.75492 6.50983
#
# Compressibility (1/GPa) = 0.02189263
#
# Stress axis : x y z
#
# Youngs Moduli (GPa) = 70.72551 61.78906 59.20990
#
# Poissons Ratio (x) = 0.21144 0.43081
# Poissons Ratio (y) = 0.24202 0.11616
# Poissons Ratio (z) = 0.51460 0.12122
#
# Static dielectric constant tensor:
#      x y z
#    x 1.788750 0.001880 -0.009020 
#    y 0.001880 1.777180 -0.036170 
#    z -0.009020 -0.036170 1.758580 
# 
# From -- ./inp_files/494292.got.cif
#   From: 2010.05.17/outbox.cif.g08.bks.cpg/sg2_248_cif.got.tgz:494292.got - 2010.06.03 11:33:40.
