data_PCOD9098139
_publ_section_title
;
Structure prediction by ZEFSAII (Michael W. Deem and Ramdas Pophale) SiO2 
 PCOD9098139
Probable space group: P -1
;
_chemical_formula_sum "Si O2"
_cell_formula_units_Z 12
_cell_length_a 18.647998
_cell_length_b 5.475789
_cell_length_c 8.609807
_cell_angle_alpha 98.759099
_cell_angle_beta 39.031219
_cell_angle_gamma 75.062404
_cell_volume 436.018792
_symmetry_space_group_name_H-M "P -1"
_symmetry_group_IT_number 2
_symmetry_cell_setting 'triclinic'
loop_
_space_group_symop_operation_xyz
x,y,z
-x,-y,-z
loop_
_atom_site_type_symbol
_atom_site_label
_atom_site_fract_x
_atom_site_fract_y
_atom_site_fract_z
Si Si1 0.830361 0.669905 0.406965
Si Si2 0.292045 0.690698 0.477257
Si Si3 0.839245 0.207763 0.863052
Si Si4 0.085236 0.369473 0.177856
Si Si5 0.540172 0.530408 0.263864
Si Si6 0.417544 0.181146 0.001224
O O1 0.809296 0.420288 0.348151
O O2 0.722155 0.800074 0.751224
O O3 0.979603 0.521611 0.223847
O O4 0.780360 0.952302 0.404128
O O5 0.422892 0.528645 0.361718
O O6 0.366856 0.523021 0.169973
O O7 0.815651 0.520907 0.983363
O O8 0.843739 0.993752 0.968354
O O9 0.713780 0.300998 0.966748
O O10 0.000000 0.000000 0.500000
O O11 0.000000 0.500000 0.500000
O O12 0.500000 0.500000 0.500000
O O13 0.510578 0.851929 0.283953
O O14 0.500000 0.000000 0.000000
#
# Coordination Sequence:
#
# PCOD9098139 Si02
#       6
#     2   2   2   2   2   2
#     4  10  21  37  69  98 132 167 245 283 329 395
#     4  10  23  39  66 100 132 179 230 285 343 406
#     4  10  23  40  65  95 138 177 232 272 341 408
#     4  10  20  36  63  97 129 173 228 285 327 395
#     4  12  25  44  69 107 146 177 225 300 357 402
#     4  10  21  38  65  98 131 177 230 277 335 411
#
# _framework density 27.521751999999999
#
# number of rings (size 3 to 8) (size 9 to 14) (size 15 to 20)
#    1.000    0.667    1.667    3.500    4.667    2.667 
#    0.000    7.500    0.000    6.000    0.000    0.000 
#    0.000    0.000    0.000    0.000    0.000    0.000 
#
# Total GULP energy -66975.233958 kJ/mol
# GULP energy per Si atom -5581.269497 kJ/mol
# Density = 2.745911 g / cm^3
# Si number density = 27.521752 Si / 1000 Ang^3
#
#
#
# Elastic Constant Matrix: (Units=GPa)
#
#
# Indices 1 2 3 4 5 6 
#
# 1 242.1093 103.9456 47.6823 -6.5264 -40.2403 -16.5698
# 2 103.9456 247.5577 32.4501 -29.4493 -8.2831 1.8143
# 3 47.6823 32.4501 84.6391 -8.7685 -24.2819 4.4105
# 4 -6.5264 -29.4493 -8.7685 34.0161 -14.3095 1.3281
# 5 -40.2403 -8.2831 -24.2819 -14.3095 33.5292 -5.1049
# 6 -16.5698 1.8143 4.4105 1.3281 -5.1049 62.8248
#
#
#
# Elastic Compliance Matrix: (Units=1/GPa)
#
#
# Indices 1 2 3 4 5 6 
#
# 1 0.006952 -0.002213 -0.000144 0.003269 0.009484 0.002609
# 2 -0.002213 0.005553 -0.000299 0.004454 0.000279 -0.000795
# 3 -0.000144 -0.000299 0.018567 0.012248 0.018412 -0.000096
# 4 0.003269 0.004454 0.012248 0.052319 0.036486 0.001732
# 5 0.009484 0.000279 0.018412 0.036486 0.071127 0.006209
# 6 0.002609 -0.000795 -0.000096 0.001732 0.006209 0.017103
#
#
# Mechanical properties :
#
#
# Convention : Reuss Voigt Hill
#
# Bulk Modulus (GPa) = 38.82249 104.71802 71.77025
# Shear Modulus (GPa) = 26.95119 52.08921 39.52020
#
# Velocity S-wave (km/s) = 3.13272 4.35519 3.79352
# Velocity P-wave (km/s) = 5.21747 7.96379 6.73216
#
# Compressibility (1/GPa) = 0.02575827
#
# Stress axis : x y z
#
# Youngs Moduli (GPa) = 143.84344 180.08504 53.85910
#
# Poissons Ratio (x) = 0.39854 0.00778
# Poissons Ratio (y) = 0.31833 0.01612
# Poissons Ratio (z) = 0.02077 0.05391
#
# Static dielectric constant tensor:
#      x y z
#    x 2.103380 0.046290 -0.017130 
#    y 0.046290 2.301610 0.141860 
#    z -0.017130 0.141860 2.027180 
# 
# From -- ./inp_files/321823.got.cif
#   From: 2010.05.17/outbox.cif.g08.bks.cpg/sg2_161_cif.got.tgz:321823.got - 2010.06.03 11:33:40.
