data_PCOD9098253
_publ_section_title
;
Structure prediction by ZEFSAII (Michael W. Deem and Ramdas Pophale) SiO2 
 PCOD9098253
Probable space group: P -1
;
_chemical_formula_sum "Si O2"
_cell_formula_units_Z 14
_cell_length_a 11.031143
_cell_length_b 7.834435
_cell_length_c 9.051170
_cell_angle_alpha 126.574739
_cell_angle_beta 108.670171
_cell_angle_gamma 94.873677
_cell_volume 554.681952
_symmetry_space_group_name_H-M "P -1"
_symmetry_group_IT_number 2
_symmetry_cell_setting 'triclinic'
loop_
_space_group_symop_operation_xyz
x,y,z
-x,-y,-z
loop_
_atom_site_type_symbol
_atom_site_label
_atom_site_fract_x
_atom_site_fract_y
_atom_site_fract_z
Si Si1 0.351077 0.570745 0.794187
Si Si2 0.125643 0.924125 0.072604
Si Si3 0.811462 0.519937 0.033335
Si Si4 0.202870 0.846994 0.762736
Si Si5 0.020130 0.012368 0.340604
Si Si6 0.440648 0.024771 0.732845
Si Si7 0.537070 0.322898 0.639805
O O1 0.266976 0.426898 0.826771
O O2 0.241079 0.626022 0.681720
O O3 0.458124 0.495626 0.708254
O O4 0.444129 0.807411 0.031169
O O5 0.152051 0.046090 0.306885
O O6 0.125522 0.667806 0.980470
O O7 0.224160 0.979292 0.996523
O O8 0.000000 0.000000 0.000000
O O9 0.922280 0.749214 0.129827
O O10 0.692579 0.416240 0.811683
O O11 0.048283 0.808902 0.643105
O O12 0.299622 0.981802 0.739002
O O13 0.000000 0.000000 0.500000
O O14 0.453184 0.145739 0.642770
O O15 0.464560 0.796407 0.577799
#
# Coordination Sequence:
#
# PCOD9098253 Si02
#       7
#     2   2   2   2   2   2   2
#     4  10  20  39  60  91 132 163 195 252 318 376
#     4   9  21  41  61  87 122 162 203 260 316 355
#     4  10  20  39  64  88 127 163 203 258 314 366
#     4  10  21  39  62  89 128 162 198 256 320 359
#     4  11  23  40  68  89 115 165 221 261 304 366
#     4  10  20  36  64  92 128 163 207 242 306 388
#     4  10  21  36  63  99 125 161 208 249 304 383
#
# _framework density 25.239691000000001
#
# number of rings (size 3 to 8) (size 9 to 14) (size 15 to 20)
#    0.000    2.000    0.000    4.286    2.000    0.571 
#    5.143    6.429    6.286    0.000    0.000    0.000 
#    0.000    0.000    0.000    0.000    0.000    0.000 
#
# Total GULP energy -78075.086913 kJ/mol
# GULP energy per Si atom -5576.791922 kJ/mol
# Density = 2.518224 g / cm^3
# Si number density = 25.239691 Si / 1000 Ang^3
#
#
#
# Elastic Constant Matrix: (Units=GPa)
#
#
# Indices 1 2 3 4 5 6 
#
# 1 117.7619 36.0536 61.4126 9.3890 -36.8916 -15.6656
# 2 36.0536 105.7195 44.7103 0.7650 -5.0147 -29.9664
# 3 61.4126 44.7103 92.2776 -2.6594 -42.0434 -5.5098
# 4 9.3890 0.7650 -2.6594 17.1516 4.2137 -9.0942
# 5 -36.8916 -5.0147 -42.0434 4.2137 48.8143 2.6505
# 6 -15.6656 -29.9664 -5.5098 -9.0942 2.6505 51.4450
#
#
#
# Elastic Compliance Matrix: (Units=1/GPa)
#
#
# Indices 1 2 3 4 5 6 
#
# 1 0.015622 -0.001932 -0.006642 -0.010813 0.006785 0.000660
# 2 -0.001932 0.016869 -0.010681 0.006255 -0.009994 0.009715
# 3 -0.006642 -0.010681 0.028683 0.000741 0.018850 -0.006012
# 4 -0.010813 0.006255 0.000741 0.075203 -0.014167 0.014454
# 5 0.006785 -0.009994 0.018850 -0.014167 0.042394 -0.006425
# 6 0.000660 0.009715 -0.006012 0.014454 -0.006425 0.027540
#
#
# Mechanical properties :
#
#
# Convention : Reuss Voigt Hill
#
# Bulk Modulus (GPa) = 44.11926 66.67910 55.39918
# Shear Modulus (GPa) = 19.81174 35.05435 27.43304
#
# Velocity S-wave (km/s) = 2.80472 3.73078 3.30039
# Velocity P-wave (km/s) = 5.29214 6.71074 6.04321
#
# Compressibility (1/GPa) = 0.02266584
#
# Stress axis : x y z
#
# Youngs Moduli (GPa) = 64.01156 59.27973 34.86385
#
# Poissons Ratio (x) = 0.11451 0.23156
# Poissons Ratio (y) = 0.12365 0.37237
# Poissons Ratio (z) = 0.42515 0.63316
#
# Static dielectric constant tensor:
#      x y z
#    x 2.064420 -0.029190 0.030950 
#    y -0.029190 2.089590 0.039710 
#    z 0.030950 0.039710 2.077430 
# 
# From -- ./inp_files/241514.got.cif
#   From: 2010.05.17/outbox.cif.g08.bks.cpg/sg2_121_cif.got.tgz:241514.got - 2010.06.03 11:33:40.
