data_PCOD9098246
_publ_section_title
;
Structure prediction by ZEFSAII (Michael W. Deem and Ramdas Pophale) SiO2 
 PCOD9098246
Probable space group: P -1
;
_chemical_formula_sum "Si O2"
_cell_formula_units_Z 9
_cell_length_a 11.155550
_cell_length_b 12.768823
_cell_length_c 6.079634
_cell_angle_alpha 56.728522
_cell_angle_beta 116.502274
_cell_angle_gamma 151.362958
_cell_volume 345.660423
_symmetry_space_group_name_H-M "P -1"
_symmetry_group_IT_number 2
_symmetry_cell_setting 'triclinic'
loop_
_space_group_symop_operation_xyz
x,y,z
-x,-y,-z
loop_
_atom_site_type_symbol
_atom_site_label
_atom_site_fract_x
_atom_site_fract_y
_atom_site_fract_z
Si Si1 0.000000 0.000000 0.500000
Si Si2 0.259113 0.961652 0.780596
Si Si3 0.625992 0.400779 0.244065
Si Si4 0.748988 0.734505 0.191891
Si Si5 0.645566 0.196164 0.211030
O O1 0.963644 0.119866 0.258197
O O2 0.760322 0.770820 0.415484
O O3 0.416162 0.163974 0.492031
O O4 0.194075 0.777567 0.825675
O O5 0.438732 0.081940 0.998212
O O6 0.769926 0.605903 0.291158
O O7 0.761241 0.401585 0.209941
O O8 0.474057 0.371713 0.990702
O O9 0.000000 0.000000 0.000000
O O10 0.500000 0.000000 0.500000
#
# Coordination Sequence:
#
# PCOD9098246 Si02
#       5
#     1   2   2   2   2
#     4  12  22  36  60  96 126 154 204 262 298 360
#     4  10  20  36  64  92 124 161 202 250 308 361
#     4  10  21  39  64  89 122 168 202 245 310 366
#     4  11  23  38  60  95 126 158 204 256 306 360
#     4   9  19  38  63  89 121 167 202 245 306 369
#
# _framework density 26.037115
#
# number of rings (size 3 to 8) (size 9 to 14) (size 15 to 20)
#    0.000    1.778    4.444    0.000    0.000    2.667 
#    0.000    1.111    0.000    8.000    0.000    0.000 
#    0.000    0.000    0.000    0.000    0.000    0.000 
#
# Total GULP energy -50121.718734 kJ/mol
# GULP energy per Si atom -5569.079859 kJ/mol
# Density = 2.597785 g / cm^3
# Si number density = 26.037115 Si / 1000 Ang^3
#
#
#
# Elastic Constant Matrix: (Units=GPa)
#
#
# Indices 1 2 3 4 5 6 
#
# 1 134.6833 56.0902 36.6020 -3.1454 10.2894 -56.7779
# 2 56.0902 110.8568 7.1165 -3.5615 -2.3114 -56.7272
# 3 36.6020 7.1165 139.1722 17.9672 14.1287 2.0544
# 4 -3.1454 -3.5615 17.9672 42.0727 2.1071 -4.1054
# 5 10.2894 -2.3114 14.1287 2.1071 45.9082 -8.8500
# 6 -56.7779 -56.7272 2.0544 -4.1054 -8.8500 74.0706
#
#
#
# Elastic Compliance Matrix: (Units=1/GPa)
#
#
# Indices 1 2 3 4 5 6 
#
# 1 0.013074 -0.001634 -0.003905 0.003400 -0.000224 0.009041
# 2 -0.001634 0.016079 -0.001296 0.002748 0.003702 0.011693
# 3 -0.003905 -0.001296 0.009233 -0.004678 -0.002748 -0.004829
# 4 0.003400 0.002748 -0.004678 0.026839 0.000823 0.006426
# 5 -0.000224 0.003702 -0.002748 0.000823 0.023915 0.005643
# 6 0.009041 0.011693 -0.004829 0.006426 0.005643 0.030550
#
#
# Mechanical properties :
#
#
# Convention : Reuss Voigt Hill
#
# Bulk Modulus (GPa) = 40.45641 64.92552 52.69097
# Shear Modulus (GPa) = 35.31156 51.40387 43.35772
#
# Velocity S-wave (km/s) = 3.68666 4.44808 4.08515
# Velocity P-wave (km/s) = 5.80462 7.16732 6.52166
#
# Compressibility (1/GPa) = 0.02471796
#
# Stress axis : x y z
#
# Youngs Moduli (GPa) = 76.48770 62.19204 108.31116
#
# Poissons Ratio (x) = 0.10160 0.42291
# Poissons Ratio (y) = 0.12495 0.14035
# Poissons Ratio (z) = 0.29865 0.08059
#
# Static dielectric constant tensor:
#      x y z
#    x 2.246020 -0.056690 -0.120820 
#    y -0.056690 2.021720 -0.023640 
#    z -0.120820 -0.023640 1.997060 
# 
# From -- ./inp_files/1738.got.cif
#   From: 2010.05.17/outbox.cif.g08.bks.cpg/sg2_1_cif.got.tgz:1738.got - 2010.06.03 11:33:40.
