data_PCOD9098512
_publ_section_title
;
Structure prediction by ZEFSAII (Michael W. Deem and Ramdas Pophale) SiO2 
 PCOD9098512
Probable space group: P -1
;
_chemical_formula_sum "Si O2"
_cell_formula_units_Z 14
_cell_length_a 7.952573
_cell_length_b 8.772616
_cell_length_c 9.625613
_cell_angle_alpha 87.054712
_cell_angle_beta 61.679418
_cell_angle_gamma 82.210280
_cell_volume 585.632941
_symmetry_space_group_name_H-M "P -1"
_symmetry_group_IT_number 2
_symmetry_cell_setting 'triclinic'
loop_
_space_group_symop_operation_xyz
x,y,z
-x,-y,-z
loop_
_atom_site_type_symbol
_atom_site_label
_atom_site_fract_x
_atom_site_fract_y
_atom_site_fract_z
Si Si1 0.376365 0.341296 0.177351
Si Si2 0.897449 0.171269 0.561217
Si Si3 0.487565 0.842533 0.428122
Si Si4 0.782725 0.606926 0.488153
Si Si5 0.440938 0.981436 0.864345
Si Si6 0.977642 0.498742 0.844573
Si Si7 0.775217 0.220628 0.911133
O O1 0.319310 0.448153 0.329147
O O2 0.406391 0.165673 0.233688
O O3 0.205409 0.381471 0.134471
O O4 0.581042 0.336683 0.019561
O O5 0.728248 0.195733 0.511811
O O6 0.787682 0.163663 0.752036
O O7 0.048963 0.296123 0.519682
O O8 0.000000 0.000000 0.500000
O O9 0.619145 0.712905 0.464271
O O10 0.500000 0.000000 0.500000
O O11 0.569500 0.879923 0.242572
O O12 0.870078 0.489233 0.339798
O O13 0.238562 0.912966 0.965775
O O14 0.500000 0.000000 0.000000
O O15 0.944970 0.321001 0.849561
O O16 0.000000 0.500000 0.000000
#
# Coordination Sequence:
#
# PCOD9098512 Si02
#       7
#     2   2   2   2   2   2   2
#     4  10  21  44  67  87 134 169 214 269 328 379
#     4  11  21  38  63  95 136 169 207 262 328 389
#     4  12  20  40  65  96 136 169 210 261 327 397
#     4  11  25  42  66  97 131 175 216 272 326 389
#     4  10  20  36  67  95 127 170 207 260 331 392
#     4  11  25  44  65  95 126 171 230 275 315 381
#     4   9  22  41  67  91 125 177 211 262 335 381
#
# _framework density 23.905759
#
# number of rings (size 3 to 8) (size 9 to 14) (size 15 to 20)
#    0.857    0.571    4.286    0.857    4.000    0.000 
#    5.143    3.571    0.000    0.000    0.000    0.000 
#    0.000    0.000    0.000    0.000    0.000    0.000 
#
# Total GULP energy -78017.739320 kJ/mol
# GULP energy per Si atom -5572.695666 kJ/mol
# Density = 2.385135 g / cm^3
# Si number density = 23.905759 Si / 1000 Ang^3
#
#
#
# Elastic Constant Matrix: (Units=GPa)
#
#
# Indices 1 2 3 4 5 6 
#
# 1 99.6074 29.7181 42.0313 -6.5421 15.5381 -19.0803
# 2 29.7181 43.2672 25.3282 -11.5335 4.6022 -8.9076
# 3 42.0313 25.3282 182.9800 12.7301 9.1950 -8.8456
# 4 -6.5421 -11.5335 12.7301 40.3989 -2.7406 5.9097
# 5 15.5381 4.6022 9.1950 -2.7406 41.9937 -5.7914
# 6 -19.0803 -8.9076 -8.8456 5.9097 -5.7914 38.0140
#
#
#
# Elastic Compliance Matrix: (Units=1/GPa)
#
#
# Indices 1 2 3 4 5 6 
#
# 1 0.014506 -0.007590 -0.001876 -0.000130 -0.003505 0.004552
# 2 -0.007590 0.033033 -0.003409 0.009058 0.000781 0.001848
# 3 -0.001876 -0.003409 0.006649 -0.003449 -0.000578 0.000255
# 4 -0.000130 0.009058 -0.003449 0.028938 0.001279 -0.003049
# 5 -0.003505 0.000781 -0.000578 0.001279 0.025507 0.001976
# 6 0.004552 0.001848 0.000255 -0.003049 0.001976 0.029858
#
#
# Mechanical properties :
#
#
# Convention : Reuss Voigt Hill
#
# Bulk Modulus (GPa) = 35.16429 57.77886 46.47157
# Shear Modulus (GPa) = 28.78187 39.33314 34.05750
#
# Velocity S-wave (km/s) = 3.47359 4.06068 3.77856
# Velocity P-wave (km/s) = 5.55241 6.79760 6.20632
#
# Compressibility (1/GPa) = 0.02843794
#
# Stress axis : x y z
#
# Youngs Moduli (GPa) = 68.93829 30.27278 150.39307
#
# Poissons Ratio (x) = 0.22976 0.28217
# Poissons Ratio (y) = 0.52322 0.51271
# Poissons Ratio (z) = 0.12934 0.10320
#
# Static dielectric constant tensor:
#      x y z
#    x 1.972240 0.087930 0.006990 
#    y 0.087930 2.006260 0.047430 
#    z 0.006990 0.047430 2.057680 
# 
# From -- ./inp_files/178792.got.cif
#   From: 2010.05.17/outbox.cif.g08.bks.cpg/sg2_90_cif.got.tgz:178792.got - 2010.06.03 11:33:40.
