data_PCOD9098471
_publ_section_title
;
Structure prediction by ZEFSAII (Michael W. Deem and Ramdas Pophale) SiO2 
 PCOD9098471
Probable space group: P -1
;
_chemical_formula_sum "Si O2"
_cell_formula_units_Z 16
_cell_length_a 10.872606
_cell_length_b 11.529810
_cell_length_c 8.736958
_cell_angle_alpha 72.725721
_cell_angle_beta 50.677877
_cell_angle_gamma 54.379201
_cell_volume 684.205266
_symmetry_space_group_name_H-M "P -1"
_symmetry_group_IT_number 2
_symmetry_cell_setting 'triclinic'
loop_
_space_group_symop_operation_xyz
x,y,z
-x,-y,-z
loop_
_atom_site_type_symbol
_atom_site_label
_atom_site_fract_x
_atom_site_fract_y
_atom_site_fract_z
Si Si1 0.650973 0.081708 0.487937
Si Si2 0.981265 0.117915 0.851982
Si Si3 0.348578 0.346432 0.775097
Si Si4 0.220179 0.395387 0.190361
Si Si5 0.295034 0.607746 0.188124
Si Si6 0.529193 0.107283 0.229705
Si Si7 0.129023 0.180259 0.994682
Si Si8 0.134829 0.623355 0.625311
O O1 0.556471 0.220234 0.614271
O O2 0.589664 0.132020 0.339687
O O3 0.873108 0.973992 0.359490
O O4 0.568924 0.982792 0.628929
O O5 0.786722 0.240679 0.890089
O O6 0.057341 0.194071 0.872351
O O7 0.000000 0.000000 0.000000
O O8 0.267261 0.478711 0.672861
O O9 0.312600 0.399623 0.955562
O O10 0.227470 0.271269 0.886622
O O11 0.178032 0.534807 0.260710
O O12 0.379736 0.253200 0.207879
O O13 0.039400 0.385825 0.301213
O O14 0.256153 0.631504 0.390034
O O15 0.500000 0.500000 0.000000
O O16 0.715718 0.988651 0.036849
O O17 0.964874 0.247335 0.223291
#
# Coordination Sequence:
#
# PCOD9098471 Si02
#       8
#     2   2   2   2   2   2   2   2
#     4   9  19  36  58  92 120 158 206 246 308 357
#     4  11  24  42  64  83 123 173 208 241 299 377
#     4  10  20  36  66  96 121 155 199 266 308 367
#     4  11  22  39  66  93 124 160 207 253 317 364
#     4  12  28  43  61  92 128 162 210 257 304 371
#     4   9  18  33  63  91 126 152 196 263 304 361
#     4   9  20  39  63  94 125 153 207 254 308 361
#     4  11  22  40  67  89 125 160 205 258 317 358
#
# _framework density 23.384796000000001
#
# number of rings (size 3 to 8) (size 9 to 14) (size 15 to 20)
#    0.000    1.750    0.000    5.625    5.250    5.500 
#    2.250    1.875    0.000    0.000    0.000    0.000 
#    0.000    0.000    0.000    0.000    0.000    0.000 
#
# Total GULP energy -89482.972266 kJ/mol
# GULP energy per Si atom -5592.685767 kJ/mol
# Density = 2.333157 g / cm^3
# Si number density = 23.384796 Si / 1000 Ang^3
#
#
#
# Elastic Constant Matrix: (Units=GPa)
#
#
# Indices 1 2 3 4 5 6 
#
# 1 37.4698 24.2687 13.1972 -1.4592 4.0247 -6.9344
# 2 24.2687 136.7999 61.8645 1.5573 12.5285 -30.5824
# 3 13.1972 61.8645 146.8748 30.8641 5.5724 -16.7179
# 4 -1.4592 1.5573 30.8641 41.3266 -6.0222 5.8865
# 5 4.0247 12.5285 5.5724 -6.0222 28.6976 6.4771
# 6 -6.9344 -30.5824 -16.7179 5.8865 6.4771 41.9111
#
#
#
# Elastic Compliance Matrix: (Units=1/GPa)
#
#
# Indices 1 2 3 4 5 6 
#
# 1 0.030475 -0.004467 -0.000874 0.001346 -0.002231 0.001590
# 2 -0.004467 0.011858 -0.003616 0.000268 -0.005434 0.007274
# 3 -0.000874 -0.003616 0.010733 -0.008794 -0.002948 0.003189
# 4 0.001346 0.000268 -0.008794 0.033696 0.010609 -0.009462
# 5 -0.002231 -0.005434 -0.002948 0.010609 0.043425 -0.013711
# 6 0.001590 0.007274 0.003189 -0.009462 -0.013711 0.034151
#
#
# Mechanical properties :
#
#
# Convention : Reuss Voigt Hill
#
# Bulk Modulus (GPa) = 28.44652 57.75615 43.10133
# Shear Modulus (GPa) = 25.77741 37.17466 31.47603
#
# Velocity S-wave (km/s) = 3.32371 3.99142 3.67277
# Velocity P-wave (km/s) = 5.18849 6.78187 6.03797
#
# Compressibility (1/GPa) = 0.03515369
#
# Stress axis : x y z
#
# Youngs Moduli (GPa) = 32.81343 84.33083 93.17269
#
# Poissons Ratio (x) = 0.37668 0.08144
# Poissons Ratio (y) = 0.14657 0.33687
# Poissons Ratio (z) = 0.02868 0.30490
#
# Static dielectric constant tensor:
#      x y z
#    x 1.951650 0.025580 -0.042800 
#    y 0.025580 1.828680 0.009940 
#    z -0.042800 0.009940 1.926860 
# 
# From -- ./inp_files/262274.got.cif
#   From: 2010.05.17/outbox.cif.g08.bks.cpg/sg2_132_cif.got.tgz:262274.got - 2010.06.03 11:33:40.
