data_PCOD9098481
_publ_section_title
;
Structure prediction by ZEFSAII (Michael W. Deem and Ramdas Pophale) SiO2 
 PCOD9098481
Probable space group: P -1
;
_chemical_formula_sum "Si O2"
_cell_formula_units_Z 15
_cell_length_a 17.879589
_cell_length_b 7.397701
_cell_length_c 12.296935
_cell_angle_alpha 63.149700
_cell_angle_beta 147.609748
_cell_angle_gamma 125.435385
_cell_volume 707.210667
_symmetry_space_group_name_H-M "P -1"
_symmetry_group_IT_number 2
_symmetry_cell_setting 'triclinic'
loop_
_space_group_symop_operation_xyz
x,y,z
-x,-y,-z
loop_
_atom_site_type_symbol
_atom_site_label
_atom_site_fract_x
_atom_site_fract_y
_atom_site_fract_z
Si Si1 0.275857 0.332059 0.071446
Si Si2 0.772069 0.499030 0.812412
Si Si3 0.052114 0.078407 0.213340
Si Si4 0.557509 0.220844 0.438486
Si Si5 0.000000 0.000000 0.500000
Si Si6 0.042335 0.701501 0.782290
Si Si7 0.840958 0.523244 0.317309
Si Si8 0.779495 0.237388 0.513811
O O1 0.413651 0.273655 0.218980
O O2 0.310012 0.452824 0.197359
O O3 0.236626 0.472988 0.893525
O O4 0.119375 0.109994 0.955544
O O5 0.837457 0.323113 0.980809
O O6 0.349436 0.803828 0.543754
O O7 0.909827 0.729837 0.881399
O O8 0.059219 0.188969 0.310267
O O9 0.669607 0.412203 0.604166
O O10 0.829428 0.035000 0.618243
O O11 0.500000 0.000000 0.500000
O O12 0.101432 0.867599 0.709579
O O13 0.884864 0.762312 0.364111
O O14 0.932219 0.451706 0.681285
O O15 0.742382 0.322853 0.330973
O O16 0.000000 0.500000 0.500000
#
# Coordination Sequence:
#
# PCOD9098481 Si02
#       8
#     2   2   2   2   1   2   2   2
#     4  12  24  42  70 101 140 183 227 290 344 409
#     4  12  25  42  70 100 140 184 234 283 348 416
#     4  12  22  41  71 100 135 176 232 284 341 401
#     4  12  28  45  64 100 150 184 227 281 355 418
#     4  10  20  36  66  96 134 166 222 288 340 384
#     4  11  21  38  67 102 128 172 236 283 332 399
#     4  11  21  43  70 104 133 174 239 291 336 403
#     4  11  24  43  69 101 136 183 227 290 337 409
#
# _framework density 21.210087999999999
#
# number of rings (size 3 to 8) (size 9 to 14) (size 15 to 20)
#    0.000    0.533    5.333    3.600    1.867    0.533 
#    0.000    0.000    0.000    1.600    0.000    0.000 
#    0.000    0.000    0.000    0.000    0.000    0.000 
#
# Total GULP energy -83622.203281 kJ/mol
# GULP energy per Si atom -5574.813552 kJ/mol
# Density = 2.116181 g / cm^3
# Si number density = 21.210088 Si / 1000 Ang^3
#
#
#
# Elastic Constant Matrix: (Units=GPa)
#
#
# Indices 1 2 3 4 5 6 
#
# 1 88.9909 20.0393 10.5482 6.8055 15.3660 -8.7715
# 2 20.0393 74.8261 26.0424 -25.2395 7.2569 2.9194
# 3 10.5482 26.0424 92.9207 -18.7195 16.6757 9.5861
# 4 6.8055 -25.2395 -18.7195 23.2250 -5.6037 1.5990
# 5 15.3660 7.2569 16.6757 -5.6037 33.1429 -5.6341
# 6 -8.7715 2.9194 9.5861 1.5990 -5.6341 34.6027
#
#
#
# Elastic Compliance Matrix: (Units=1/GPa)
#
#
# Indices 1 2 3 4 5 6 
#
# 1 0.017032 -0.009945 -0.002498 -0.019855 -0.006859 0.005649
# 2 -0.009945 0.027318 0.000389 0.034094 0.003180 -0.005991
# 3 -0.002498 0.000389 0.015072 0.012414 -0.005484 -0.006308
# 4 -0.019855 0.034094 0.012414 0.099295 0.009846 -0.014334
# 5 -0.006859 0.003180 -0.005484 0.009846 0.037971 0.005240
# 6 0.005649 -0.005991 -0.006308 -0.014334 0.005240 0.034100
#
#
# Mechanical properties :
#
#
# Convention : Reuss Voigt Hill
#
# Bulk Modulus (GPa) = 28.31725 41.11082 34.71403
# Shear Modulus (GPa) = 18.74989 31.53464 25.14226
#
# Velocity S-wave (km/s) = 2.97645 3.86006 3.44669
# Velocity P-wave (km/s) = 5.01918 6.26829 5.67819
#
# Compressibility (1/GPa) = 0.03531417
#
# Stress axis : x y z
#
# Youngs Moduli (GPa) = 58.71244 36.60584 66.34669
#
# Poissons Ratio (x) = 0.36403 0.16575
# Poissons Ratio (y) = 0.58387 -0.02578
# Poissons Ratio (z) = 0.14668 -0.01423
#
# Static dielectric constant tensor:
#      x y z
#    x 1.856870 0.016220 -0.078250 
#    y 0.016220 1.809630 -0.010900 
#    z -0.078250 -0.010900 1.792900 
# 
# From -- ./inp_files/463631.got.cif
#   From: 2010.05.17/outbox.cif.g08.bks.cpg/sg2_232_cif.got.tgz:463631.got - 2010.06.03 11:33:40.
