data_PCOD9098254
_publ_section_title
;
Structure prediction by ZEFSAII (Michael W. Deem and Ramdas Pophale) SiO2 
 PCOD9098254
Probable space group: P -1
;
_chemical_formula_sum "Si O2"
_cell_formula_units_Z 16
_cell_length_a 15.577371
_cell_length_b 8.052845
_cell_length_c 21.705532
_cell_angle_alpha 54.075086
_cell_angle_beta 162.197864
_cell_angle_gamma 124.320758
_cell_volume 673.950665
_symmetry_space_group_name_H-M "P -1"
_symmetry_group_IT_number 2
_symmetry_cell_setting 'triclinic'
loop_
_space_group_symop_operation_xyz
x,y,z
-x,-y,-z
loop_
_atom_site_type_symbol
_atom_site_label
_atom_site_fract_x
_atom_site_fract_y
_atom_site_fract_z
Si Si1 0.095267 0.364473 0.224798
Si Si2 0.597764 0.219727 0.240867
Si Si3 0.432985 0.340099 0.221785
Si Si4 0.497173 0.235126 0.425217
Si Si5 0.305349 0.013536 0.975400
Si Si6 0.510102 0.372020 0.970967
Si Si7 0.840370 0.614230 0.597823
Si Si8 0.212728 0.265158 0.599126
O O1 0.297671 0.370250 0.303164
O O2 0.244564 0.364833 0.393388
O O3 0.850275 0.534573 0.016401
O O4 0.952239 0.139831 0.169377
O O5 0.524347 0.170868 0.271345
O O6 0.362621 0.127317 0.054666
O O7 0.900465 0.197781 0.420712
O O8 0.576111 0.467452 0.173282
O O9 0.390488 0.243000 0.280936
O O10 0.694203 0.502002 0.373277
O O11 0.785624 0.372879 0.596481
O O12 0.500000 0.000000 0.500000
O O13 0.316554 0.175613 0.892892
O O14 0.577844 0.872949 0.189621
O O15 0.831438 0.322225 0.190944
O O16 0.500000 0.500000 0.000000
O O17 0.732160 0.741040 0.436489
#
# Coordination Sequence:
#
# PCOD9098254 Si02
#       8
#     2   2   2   2   2   2   2   2
#     4  11  24  44  66  91 125 169 212 258 307 371
#     4  11  20  38  63  93 129 169 200 252 310 373
#     4  10  23  43  65  90 122 169 208 255 319 366
#     4  11  27  45  67  91 121 160 218 272 305 364
#     4  10  23  38  63  98 132 163 208 248 308 373
#     4  10  20  36  64  92 130 165 197 249 312 372
#     4  11  22  42  67  91 128 166 205 250 324 362
#     4  10  21  39  61  96 135 162 200 255 306 379
#
# _framework density 23.74061
#
# number of rings (size 3 to 8) (size 9 to 14) (size 15 to 20)
#    0.000    1.500    3.750    1.500    3.500    1.500 
#    0.000    3.750    0.000    0.000    0.000    0.000 
#    0.000    0.000    0.000    0.000    0.000    0.000 
#
# Total GULP energy -89335.330324 kJ/mol
# GULP energy per Si atom -5583.458145 kJ/mol
# Density = 2.368657 g / cm^3
# Si number density = 23.740610 Si / 1000 Ang^3
#
#
#
# Elastic Constant Matrix: (Units=GPa)
#
#
# Indices 1 2 3 4 5 6 
#
# 1 157.4063 13.9633 13.9487 0.4360 -18.7421 -9.9377
# 2 13.9633 87.1643 15.4224 7.8281 -12.1532 4.3197
# 3 13.9487 15.4224 40.9551 8.7955 -2.1736 -2.1613
# 4 0.4360 7.8281 8.7955 25.2771 -0.9744 -3.1402
# 5 -18.7421 -12.1532 -2.1736 -0.9744 34.6144 -0.6530
# 6 -9.9377 4.3197 -2.1613 -3.1402 -0.6530 22.8230
#
#
#
# Elastic Compliance Matrix: (Units=1/GPa)
#
#
# Indices 1 2 3 4 5 6 
#
# 1 0.007242 -0.000547 -0.002180 0.001361 0.003693 0.003343
# 2 -0.000547 0.013281 -0.004157 -0.002932 0.003958 -0.003436
# 3 -0.002180 -0.004157 0.028562 -0.008488 -0.001060 0.001344
# 4 0.001361 -0.002932 -0.008488 0.044221 0.000541 0.006443
# 5 0.003693 0.003958 -0.001060 0.000541 0.032261 0.001756
# 6 0.003343 -0.003436 0.001344 0.006443 0.001756 0.046986
#
#
# Mechanical properties :
#
#
# Convention : Reuss Voigt Hill
#
# Bulk Modulus (GPa) = 28.31481 41.35494 34.83488
# Shear Modulus (GPa) = 25.24070 32.68900 28.96485
#
# Velocity S-wave (km/s) = 3.26419 3.71472 3.49672
# Velocity P-wave (km/s) = 5.11461 5.98800 5.56845
#
# Compressibility (1/GPa) = 0.03531720
#
# Stress axis : x y z
#
# Youngs Moduli (GPa) = 138.08703 75.29470 35.01132
#
# Poissons Ratio (x) = 0.04121 0.07633
# Poissons Ratio (y) = 0.07557 0.14553
# Poissons Ratio (z) = 0.30105 0.31296
#
# Static dielectric constant tensor:
#      x y z
#    x 2.008200 -0.010050 0.025710 
#    y -0.010050 1.937670 -0.034180 
#    z 0.025710 -0.034180 1.897020 
# 
# From -- ./inp_files/461458.got.cif
#   From: 2010.05.17/outbox.cif.g08.bks.cpg/sg2_231_cif.got.tgz:461458.got - 2010.06.03 11:33:40.
