data_PCOD9098724
_publ_section_title
;
Structure prediction by ZEFSAII (Michael W. Deem and Ramdas Pophale) SiO2 
 PCOD9098724
Probable space group: P -1
;
_chemical_formula_sum "Si O2"
_cell_formula_units_Z 16
_cell_length_a 22.352744
_cell_length_b 5.523578
_cell_length_c 7.940588
_cell_angle_alpha 85.256527
_cell_angle_beta 59.662617
_cell_angle_gamma 118.954461
_cell_volume 667.276081
_symmetry_space_group_name_H-M "P -1"
_symmetry_group_IT_number 2
_symmetry_cell_setting 'triclinic'
loop_
_space_group_symop_operation_xyz
x,y,z
-x,-y,-z
loop_
_atom_site_type_symbol
_atom_site_label
_atom_site_fract_x
_atom_site_fract_y
_atom_site_fract_z
Si Si1 0.986700 0.306429 0.270108
Si Si2 0.866979 0.677866 0.819379
Si Si3 0.285127 0.123105 0.498630
Si Si4 0.112812 0.964872 0.897461
Si Si5 0.819212 0.013545 0.674560
Si Si6 0.678851 0.145953 0.255854
Si Si7 0.552351 0.358402 0.941539
Si Si8 0.351300 0.394581 0.851470
O O1 0.932548 0.052412 0.212468
O O2 0.047774 0.303074 0.316708
O O3 0.914732 0.316047 0.468266
O O4 0.060005 0.613778 0.046975
O O5 0.849983 0.798876 0.669840
O O6 0.773759 0.361906 0.017460
O O7 0.890429 0.874081 0.945327
O O8 0.239559 0.005573 0.389282
O O9 0.372419 0.457091 0.316904
O O10 0.213460 0.113166 0.709769
O O11 0.305909 0.915460 0.572916
O O12 0.751129 0.865266 0.935043
O O13 0.640929 0.335263 0.276776
O O14 0.625813 0.807925 0.264176
O O15 0.500000 0.500000 0.000000
O O16 0.595978 0.448915 0.059852
O O17 0.500000 0.000000 0.000000
#
# Coordination Sequence:
#
# PCOD9098724 Si02
#       8
#     2   2   2   2   2   2   2   2
#     4  10  20  37  56  88 128 168 230 271 324 366
#     4  11  21  36  60  90 127 175 226 270 322 371
#     4  10  21  43  66  93 127 171 214 259 332 389
#     4  10  21  38  59  87 128 172 219 276 320 384
#     4   9  21  37  59  89 129 174 217 271 322 382
#     4  11  22  41  70  94 132 175 219 264 314 387
#     4  11  25  47  74 103 135 166 206 265 326 394
#     4  10  23  45  67  99 134 173 216 259 323 385
#
# _framework density 23.978079000000001
#
# number of rings (size 3 to 8) (size 9 to 14) (size 15 to 20)
#    0.000    1.750    1.250    3.000    0.000    2.500 
#    4.500   11.250    0.000    0.000    0.000    0.000 
#    0.000    0.000    0.000    0.000    0.000    0.000 
#
# Total GULP energy -89205.083900 kJ/mol
# GULP energy per Si atom -5575.317744 kJ/mol
# Density = 2.392350 g / cm^3
# Si number density = 23.978079 Si / 1000 Ang^3
#
#
#
# Elastic Constant Matrix: (Units=GPa)
#
#
# Indices 1 2 3 4 5 6 
#
# 1 107.1310 45.5190 50.2409 -7.0659 30.4387 6.1631
# 2 45.5190 -12.3665 61.1358 68.4170 -16.4871 45.5224
# 3 50.2409 61.1358 105.7124 -29.8726 24.4133 -6.3963
# 4 -7.0659 68.4170 -29.8726 -8.9066 21.1885 -16.7565
# 5 30.4387 -16.4871 24.4133 21.1885 51.8847 8.0146
# 6 6.1631 45.5224 -6.3963 -16.7565 8.0146 6.0599
#
#
#
# Elastic Compliance Matrix: (Units=1/GPa)
#
#
# Indices 1 2 3 4 5 6 
#
# 1 0.014195 -0.001417 -0.005620 -0.001178 -0.004583 -0.006921
# 2 -0.001417 0.004448 0.002214 0.010517 -0.003779 0.004443
# 3 -0.005620 0.002214 0.010021 -0.001374 0.000611 -0.004950
# 4 -0.001178 0.010517 -0.001374 0.020038 0.000227 -0.024153
# 5 -0.004583 -0.003779 0.000611 0.000227 0.018951 0.009257
# 6 -0.006921 0.004443 -0.004950 -0.024153 0.009257 0.054428
#
#
# Mechanical properties :
#
#
# Convention : Reuss Voigt Hill
#
# Bulk Modulus (GPa) = 52.57889 57.14092 54.85990
# Shear Modulus (GPa) = 36.21499 12.71301 24.46400
#
# Velocity S-wave (km/s) = 3.89052 2.30509 3.19762
# Velocity P-wave (km/s) = 6.49285 5.56478 6.04665
#
# Compressibility (1/GPa) = 0.01901904
#
# Stress axis : x y z
#
# Youngs Moduli (GPa) = 70.44965 224.81442 99.79142
#
# Poissons Ratio (x) = 0.31850 0.56082
# Poissons Ratio (y) = 0.09981 -0.22098
# Poissons Ratio (z) = 0.39592 -0.49782
#
# Static dielectric constant tensor:
#      x y z
#    x 1.946030 -0.029930 0.017890 
#    y -0.029930 2.021010 0.035480 
#    z 0.017890 0.035480 1.992890 
# 
# From -- ./inp_files/350691.got.cif
#   From: 2010.05.17/outbox.cif.g08.bks.cpg/sg2_176_cif.got.tgz:350691.got - 2010.06.03 11:33:40.
