data_PCOD9098922
_publ_section_title
;
Structure prediction by ZEFSAII (Michael W. Deem and Ramdas Pophale) SiO2 
 PCOD9098922
Probable space group: P -1
;
_chemical_formula_sum "Si O2"
_cell_formula_units_Z 16
_cell_length_a 8.647811
_cell_length_b 6.110112
_cell_length_c 14.292043
_cell_angle_alpha 75.597007
_cell_angle_beta 96.483643
_cell_angle_gamma 85.657212
_cell_volume 722.524609
_symmetry_space_group_name_H-M "P -1"
_symmetry_group_IT_number 2
_symmetry_cell_setting 'triclinic'
loop_
_space_group_symop_operation_xyz
x,y,z
-x,-y,-z
loop_
_atom_site_type_symbol
_atom_site_label
_atom_site_fract_x
_atom_site_fract_y
_atom_site_fract_z
Si Si1 0.661739 0.901366 0.377223
Si Si2 0.083315 0.826575 0.598685
Si Si3 0.789804 0.797761 0.188791
Si Si4 0.371193 0.836691 0.982603
Si Si5 0.906387 0.104274 0.715774
Si Si6 0.825524 0.560846 0.570974
Si Si7 0.645976 0.844134 0.695736
Si Si8 0.473275 0.519934 0.847936
O O1 0.705743 0.873806 0.273682
O O2 0.740935 0.683535 0.462499
O O3 0.738699 0.124536 0.395552
O O4 0.477978 0.953560 0.371804
O O5 0.009511 0.601560 0.588965
O O6 0.000000 0.000000 0.500000
O O7 0.018822 0.918419 0.684751
O O8 0.685527 0.595155 0.175025
O O9 0.976400 0.770057 0.224355
O O10 0.768795 0.991215 0.086229
O O11 0.427422 0.681494 0.915109
O O12 0.384177 0.667003 0.089621
O O13 0.500000 0.000000 0.000000
O O14 0.826310 0.295215 0.618652
O O15 0.768257 0.962895 0.756832
O O16 0.740016 0.705783 0.634721
O O17 0.543665 0.672083 0.758920
#
# Coordination Sequence:
#
# PCOD9098922 Si02
#       8
#     2   2   2   2   2   2   2   2
#     4  10  20  37  58  85 118 157 207 246 277 336
#     4   8  18  36  55  78 109 153 204 250 277 332
#     4  10  21  38  62  90 115 151 199 243 283 351
#     4   9  19  39  65  93 116 138 192 247 293 347
#     4  10  23  37  54  83 123 159 192 240 293 340
#     4  10  22  38  54  81 126 166 195 237 294 338
#     4  11  23  38  56  87 121 157 197 244 290 340
#     4  10  21  37  66  91 112 151 190 240 300 349
#
# _framework density 22.144572
#
# number of rings (size 3 to 8) (size 9 to 14) (size 15 to 20)
#    0.000    2.250    1.250    0.375    3.500    6.000 
#    4.500    0.625    0.000    7.500    0.000    0.000 
#    0.000    0.000    0.000    0.000    0.000    0.000 
#
# Total GULP energy -89153.227525 kJ/mol
# GULP energy per Si atom -5572.076720 kJ/mol
# Density = 2.209417 g / cm^3
# Si number density = 22.144572 Si / 1000 Ang^3
#
#
#
# Elastic Constant Matrix: (Units=GPa)
#
#
# Indices 1 2 3 4 5 6 
#
# 1 116.5676 40.3507 33.0001 -3.4696 22.2414 19.5551
# 2 40.3507 85.8227 28.7307 0.2191 8.9390 16.8855
# 3 33.0001 28.7307 76.2702 -15.5911 28.6414 11.8360
# 4 -3.4696 0.2191 -15.5911 43.5896 -1.8587 2.8314
# 5 22.2414 8.9390 28.6414 -1.8587 22.4310 1.3389
# 6 19.5551 16.8855 11.8360 2.8314 1.3389 30.8873
#
#
#
# Elastic Compliance Matrix: (Units=1/GPa)
#
#
# Indices 1 2 3 4 5 6 
#
# 1 0.013187 -0.004323 0.002640 0.001836 -0.014180 -0.006551
# 2 -0.004323 0.015863 -0.006216 -0.002159 0.005938 -0.003613
# 3 0.002640 -0.006216 0.034048 0.011311 -0.042049 -0.010535
# 4 0.001836 -0.002159 0.011311 0.027004 -0.012793 -0.006237
# 5 -0.014180 0.005938 -0.042049 -0.012793 0.107812 0.018344
# 6 -0.006551 -0.003613 -0.010535 -0.006237 0.018344 0.042312
#
#
# Mechanical properties :
#
#
# Convention : Reuss Voigt Hill
#
# Bulk Modulus (GPa) = 21.14131 53.64704 37.39417
# Shear Modulus (GPa) = 18.39657 31.15350 24.77503
#
# Velocity S-wave (km/s) = 2.88540 3.75483 3.34845
# Velocity P-wave (km/s) = 4.54625 6.56329 5.64558
#
# Compressibility (1/GPa) = 0.04730076
#
# Stress axis : x y z
#
# Youngs Moduli (GPa) = 75.83243 63.03981 29.37004
#
# Poissons Ratio (x) = 0.27249 -0.07753
# Poissons Ratio (y) = 0.32779 0.18256
# Poissons Ratio (z) = -0.20018 0.39185
#
# Static dielectric constant tensor:
#      x y z
#    x 1.853650 0.020050 0.035940 
#    y 0.020050 1.858210 -0.025300 
#    z 0.035940 -0.025300 1.877640 
# 
# From -- ./inp_files/52223.got.cif
#   From: 2010.05.17/outbox.cif.g08.bks.cpg/sg2_27_cif.got.tgz:52223.got - 2010.06.03 11:33:40.
