data_PCOD9098538
_publ_section_title
;
Structure prediction by ZEFSAII (Michael W. Deem and Ramdas Pophale) SiO2 
 PCOD9098538
Probable space group: P -1
;
_chemical_formula_sum "Si O2"
_cell_formula_units_Z 15
_cell_length_a 12.072746
_cell_length_b 9.526547
_cell_length_c 13.088407
_cell_angle_alpha 41.319348
_cell_angle_beta 109.046787
_cell_angle_gamma 133.638077
_cell_volume 658.704676
_symmetry_space_group_name_H-M "P -1"
_symmetry_group_IT_number 2
_symmetry_cell_setting 'triclinic'
loop_
_space_group_symop_operation_xyz
x,y,z
-x,-y,-z
loop_
_atom_site_type_symbol
_atom_site_label
_atom_site_fract_x
_atom_site_fract_y
_atom_site_fract_z
Si Si1 0.447716 0.715102 0.769544
Si Si2 0.975106 0.718177 0.859843
Si Si3 0.000000 0.500000 0.500000
Si Si4 0.679468 0.282628 0.852515
Si Si5 0.230303 0.800915 0.267185
Si Si6 0.694241 0.032897 0.502148
Si Si7 0.889423 0.904445 0.920255
Si Si8 0.180373 0.156921 0.511216
O O1 0.366294 0.829893 0.645343
O O2 0.586348 0.939654 0.774488
O O3 0.542880 0.745308 0.682987
O O4 0.302801 0.381015 0.951939
O O5 0.806650 0.514944 0.852086
O O6 0.943214 0.813942 0.898445
O O7 0.136541 0.013457 0.687455
O O8 0.000000 0.500000 0.000000
O O9 0.882901 0.513899 0.536273
O O10 0.836699 0.269358 0.497004
O O11 0.758699 0.198326 0.851465
O O12 0.685869 0.482295 0.662617
O O13 0.500000 0.000000 0.000000
O O14 0.109641 0.843715 0.249052
O O15 0.758544 0.955874 0.479302
O O16 0.000000 0.000000 0.000000
O O17 0.000000 0.000000 0.500000
#
# Coordination Sequence:
#
# PCOD9098538 Si02
#       8
#     2   2   1   2   2   2   2   2
#     4  10  23  41  63  96 137 172 221 286 349 400
#     4  11  24  45  70  98 138 178 226 292 353 409
#     4  10  20  36  68  92 132 168 228 270 340 394
#     4  11  25  43  67  99 136 180 231 282 346 414
#     4  11  24  39  66  94 134 175 225 277 345 411
#     4  10  21  41  66  97 135 177 221 289 338 419
#     4  12  25  41  69  98 133 177 233 284 345 419
#     4  10  23  41  70  97 138 181 237 273 356 412
#
# _framework density 22.771968000000001
#
# number of rings (size 3 to 8) (size 9 to 14) (size 15 to 20)
#    0.000    1.333    0.000    5.200   11.200    0.000 
#    0.000    1.333    0.000    0.000    0.000    0.000 
#    0.000    0.000    0.000    0.000    0.000    0.000 
#
# Total GULP energy -83700.959730 kJ/mol
# GULP energy per Si atom -5580.063982 kJ/mol
# Density = 2.272014 g / cm^3
# Si number density = 22.771968 Si / 1000 Ang^3
#
#
#
# Elastic Constant Matrix: (Units=GPa)
#
#
# Indices 1 2 3 4 5 6 
#
# 1 138.7277 52.5498 61.5448 7.8083 -25.5809 -22.5314
# 2 52.5498 99.9771 39.7812 20.0898 -16.9289 -8.4453
# 3 61.5448 39.7812 155.5351 -15.8800 -28.9488 -8.5280
# 4 7.8083 20.0898 -15.8800 37.6596 5.6064 -9.8188
# 5 -25.5809 -16.9289 -28.9488 5.6064 55.9054 6.3188
# 6 -22.5314 -8.4453 -8.5280 -9.8188 6.3188 36.9846
#
#
#
# Elastic Compliance Matrix: (Units=1/GPa)
#
#
# Indices 1 2 3 4 5 6 
#
# 1 0.011088 -0.003881 -0.002819 -0.000465 0.001947 0.004762
# 2 -0.003881 0.015455 -0.003078 -0.009797 0.002585 -0.002588
# 3 -0.002819 -0.003078 0.009373 0.006172 0.001893 0.001056
# 4 -0.000465 -0.009797 0.006172 0.037748 -0.004872 0.009756
# 5 0.001947 0.002585 0.001893 -0.004872 0.021338 -0.002726
# 6 0.004762 -0.002588 0.001056 0.009756 -0.002726 0.032648
#
#
# Mechanical properties :
#
#
# Convention : Reuss Voigt Hill
#
# Bulk Modulus (GPa) = 61.12699 77.99904 69.56302
# Shear Modulus (GPa) = 32.75292 42.13422 37.44357
#
# Velocity S-wave (km/s) = 3.79661 4.30614 4.05938
# Velocity P-wave (km/s) = 6.79119 7.68442 7.25158
#
# Compressibility (1/GPa) = 0.01635939
#
# Stress axis : x y z
#
# Youngs Moduli (GPa) = 90.19092 64.70467 106.69448
#
# Poissons Ratio (x) = 0.25110 0.30075
# Poissons Ratio (y) = 0.35001 0.32844
# Poissons Ratio (z) = 0.25423 0.19918
#
# Static dielectric constant tensor:
#      x y z
#    x 2.041630 -0.068290 -0.192950 
#    y -0.068290 1.879490 -0.109520 
#    z -0.192950 -0.109520 2.856910 
# 
# From -- ./inp_files/416343.got.cif
#   From: 2010.05.17/outbox.cif.g08.bks.cpg/sg2_209_cif.got.tgz:416343.got - 2010.06.03 11:33:40.
