data_PCOD9098963
_publ_section_title
;
Structure prediction by ZEFSAII (Michael W. Deem and Ramdas Pophale) SiO2 
 PCOD9098963
Probable space group: P -1
;
_chemical_formula_sum "Si O2"
_cell_formula_units_Z 16
_cell_length_a 21.271085
_cell_length_b 7.970511
_cell_length_c 11.259304
_cell_angle_alpha 140.373906
_cell_angle_beta 138.234213
_cell_angle_gamma 68.853681
_cell_volume 700.816485
_symmetry_space_group_name_H-M "P -1"
_symmetry_group_IT_number 2
_symmetry_cell_setting 'triclinic'
loop_
_space_group_symop_operation_xyz
x,y,z
-x,-y,-z
loop_
_atom_site_type_symbol
_atom_site_label
_atom_site_fract_x
_atom_site_fract_y
_atom_site_fract_z
Si Si1 0.732932 0.380001 0.568826
Si Si2 0.404287 0.723360 0.896284
Si Si3 0.331792 0.547563 0.042780
Si Si4 0.451414 0.186744 0.658134
Si Si5 0.209541 0.257497 0.925949
Si Si6 0.161503 0.764901 0.175276
Si Si7 0.081087 0.553958 0.309638
Si Si8 0.191556 0.377972 0.537033
O O1 0.625756 0.245208 0.263131
O O2 0.741523 0.146144 0.543755
O O3 0.837390 0.483235 0.685774
O O4 0.752015 0.652225 0.833755
O O5 0.405700 0.409035 0.738440
O O6 0.299453 0.669166 0.794092
O O7 0.512012 0.931534 0.238330
O O8 0.439222 0.614126 0.157363
O O9 0.362971 0.890211 0.305166
O O10 0.308814 0.361389 0.030325
O O11 0.222782 0.387088 0.722604
O O12 0.125814 0.908397 0.590985
O O13 0.161525 0.484353 0.955837
O O14 0.177946 0.063021 0.296916
O O15 0.044980 0.623074 0.999197
O O16 0.091756 0.411441 0.371705
#
# Coordination Sequence:
#
# PCOD9098963 Si02
#       8
#     2   2   2   2   2   2   2   2
#     4   9  22  36  63  83 123 160 190 247 299 358
#     4   9  18  38  59  87 114 160 198 242 309 350
#     4  10  20  37  58  88 118 159 198 242 308 352
#     4   9  19  35  65  83 121 154 200 256 291 361
#     4  10  23  38  61  88 124 162 193 248 300 362
#     4  10  21  39  61  90 119 162 201 245 296 355
#     4  11  21  41  61  90 122 158 207 244 295 355
#     4  10  21  36  66  85 123 161 196 254 297 350
#
# _framework density 22.830514000000001
#
# number of rings (size 3 to 8) (size 9 to 14) (size 15 to 20)
#    0.750    1.500    0.000    2.625    1.750    0.000 
#    0.000    1.875    0.000    0.000    0.000    0.000 
#    0.000    0.000    0.000    0.000    0.000    0.000 
#
# Total GULP energy -89127.404341 kJ/mol
# GULP energy per Si atom -5570.462771 kJ/mol
# Density = 2.277855 g / cm^3
# Si number density = 22.830514 Si / 1000 Ang^3
#
#
#
# Elastic Constant Matrix: (Units=GPa)
#
#
# Indices 1 2 3 4 5 6 
#
# 1 74.2949 -0.0145 27.0938 -8.7937 1.1558 10.1391
# 2 -0.0145 76.1742 39.5221 -9.0698 1.0050 -1.7539
# 3 27.0938 39.5221 74.2780 -4.0524 -4.6230 -0.6643
# 4 -8.7937 -9.0698 -4.0524 33.2667 -0.7274 1.6576
# 5 1.1558 1.0050 -4.6230 -0.7274 33.1882 -0.9507
# 6 10.1391 -1.7539 -0.6643 1.6576 -0.9507 15.7809
#
#
#
# Elastic Compliance Matrix: (Units=1/GPa)
#
#
# Indices 1 2 3 4 5 6 
#
# 1 0.019771 0.005768 -0.010221 0.006161 -0.002533 -0.013292
# 2 0.005768 0.020439 -0.012857 0.005610 -0.002566 -0.002719
# 3 -0.010221 -0.012857 0.024164 -0.003509 0.004229 0.006779
# 4 0.006161 0.005610 -0.003509 0.033131 -0.000347 -0.006983
# 5 -0.002533 -0.002566 0.004229 -0.000347 0.030977 0.003423
# 6 -0.013292 -0.002719 0.006779 -0.006983 0.003423 0.072830
#
#
# Mechanical properties :
#
#
# Convention : Reuss Voigt Hill
#
# Bulk Modulus (GPa) = 33.60918 39.77221 36.69070
# Shear Modulus (GPa) = 20.33758 26.99020 23.66389
#
# Velocity S-wave (km/s) = 2.98788 3.44204 3.22297
# Velocity P-wave (km/s) = 5.16298 5.76674 5.47319
#
# Compressibility (1/GPa) = 0.02975377
#
# Stress axis : x y z
#
# Youngs Moduli (GPa) = 50.57947 48.92665 41.38311
#
# Poissons Ratio (x) = -0.28219 0.42297
# Poissons Ratio (y) = -0.29173 0.53206
# Poissons Ratio (z) = 0.51697 0.62904
#
# Static dielectric constant tensor:
#      x y z
#    x 1.922820 0.049990 -0.034690 
#    y 0.049990 1.863620 -0.041440 
#    z -0.034690 -0.041440 1.860900 
# 
# From -- ./inp_files/349689.got.cif
#   From: 2010.05.17/outbox.cif.g08.bks.cpg/sg2_175_cif.got.tgz:349689.got - 2010.06.03 11:33:40.
