data_PCOD9098334
_publ_section_title
;
Structure prediction by ZEFSAII (Michael W. Deem and Ramdas Pophale) SiO2 
 PCOD9098334
Probable space group: P -1
;
_chemical_formula_sum "Si O2"
_cell_formula_units_Z 14
_cell_length_a 8.998911
_cell_length_b 9.586469
_cell_length_c 12.658633
_cell_angle_alpha 75.328054
_cell_angle_beta 148.717557
_cell_angle_gamma 100.533292
_cell_volume 547.322825
_symmetry_space_group_name_H-M "P -1"
_symmetry_group_IT_number 2
_symmetry_cell_setting 'triclinic'
loop_
_space_group_symop_operation_xyz
x,y,z
-x,-y,-z
loop_
_atom_site_type_symbol
_atom_site_label
_atom_site_fract_x
_atom_site_fract_y
_atom_site_fract_z
Si Si1 0.700225 0.118904 0.244913
Si Si2 0.133629 0.088988 0.770369
Si Si3 0.726252 0.867893 0.640123
Si Si4 0.994184 0.632299 0.262681
Si Si5 0.774485 0.686403 0.504101
Si Si6 0.678522 0.723631 0.855654
Si Si7 0.669071 0.553520 0.265085
O O1 0.532181 0.148141 0.246341
O O2 0.914941 0.246148 0.334746
O O3 0.849164 0.962983 0.330612
O O4 0.435816 0.122084 0.999219
O O5 0.927200 0.231996 0.642897
O O6 0.015256 0.949033 0.780237
O O7 0.642869 0.781437 0.501475
O O8 0.759445 0.762264 0.779921
O O9 0.500000 0.000000 0.500000
O O10 0.703330 0.592493 0.156079
O O11 0.183710 0.482404 0.403144
O O12 0.938892 0.698259 0.101381
O O13 0.615682 0.679418 0.295681
O O14 0.529916 0.573173 0.805915
O O15 0.000000 0.500000 0.500000
#
# Coordination Sequence:
#
# PCOD9098334 Si02
#       7
#     2   2   2   2   2   2   2
#     4   9  18  38  65  93 125 166 216 264 309 375
#     4   9  21  38  63  93 128 170 213 260 315 376
#     4  11  27  44  61  91 139 178 209 256 323 400
#     4  10  21  38  70  96 125 159 220 275 310 370
#     4  10  22  42  67  96 130 166 214 265 326 377
#     4  11  22  39  66  96 131 172 212 263 320 379
#     4  10  20  36  65 101 125 161 213 273 318 369
#
# _framework density 25.579052999999998
#
# number of rings (size 3 to 8) (size 9 to 14) (size 15 to 20)
#    0.000    2.000    2.857    0.429    6.000    4.571 
#    0.000    2.857    0.000    0.000    0.000    0.000 
#    0.000    0.000    0.000    0.000    0.000    0.000 
#
# Total GULP energy -78233.976091 kJ/mol
# GULP energy per Si atom -5588.141149 kJ/mol
# Density = 2.552083 g / cm^3
# Si number density = 25.579053 Si / 1000 Ang^3
#
#
#
# Elastic Constant Matrix: (Units=GPa)
#
#
# Indices 1 2 3 4 5 6 
#
# 1 88.3593 29.0956 14.4354 9.2476 -23.1070 -6.7572
# 2 29.0956 144.4685 6.5092 19.2665 -3.2855 -13.6226
# 3 14.4354 6.5092 57.5158 18.8983 -11.3983 -0.3158
# 4 9.2476 19.2665 18.8983 43.7131 -4.3754 -10.5393
# 5 -23.1070 -3.2855 -11.3983 -4.3754 34.4386 4.7333
# 6 -6.7572 -13.6226 -0.3158 -10.5393 4.7333 58.3476
#
#
#
# Elastic Compliance Matrix: (Units=1/GPa)
#
#
# Indices 1 2 3 4 5 6 
#
# 1 0.014888 -0.002649 -0.001509 -0.000343 0.009154 0.000293
# 2 -0.002649 0.007908 0.000487 -0.003007 -0.001397 0.001112
# 3 -0.001509 0.000487 0.021811 -0.009284 0.005356 -0.002054
# 4 -0.000343 -0.003007 -0.009284 0.029336 -0.000488 0.004546
# 5 0.009154 -0.001397 0.005356 -0.000488 0.037077 -0.002333
# 6 0.000293 0.001112 -0.002054 0.004546 -0.002333 0.018432
#
#
# Mechanical properties :
#
#
# Convention : Reuss Voigt Hill
#
# Bulk Modulus (GPa) = 26.83387 43.38044 35.10715
# Shear Modulus (GPa) = 33.50916 43.32008 38.41462
#
# Velocity S-wave (km/s) = 3.62335 4.11977 3.87951
# Velocity P-wave (km/s) = 5.29323 6.29494 5.81569
#
# Compressibility (1/GPa) = 0.03726634
#
# Stress axis : x y z
#
# Youngs Moduli (GPa) = 67.16717 126.46050 45.84910
#
# Poissons Ratio (x) = 0.33498 0.06916
# Poissons Ratio (y) = 0.17792 -0.02234
# Poissons Ratio (z) = 0.10132 -0.06163
#
# Static dielectric constant tensor:
#      x y z
#    x 2.093320 -0.042860 0.012300 
#    y -0.042860 2.059720 -0.057410 
#    z 0.012300 -0.057410 2.106390 
# 
# From -- ./inp_files/382153.got.cif
#   From: 2010.05.17/outbox.cif.g08.bks.cpg/sg2_192_cif.got.tgz:382153.got - 2010.06.03 11:33:40.
