data_PCOD9098487
_publ_section_title
;
Structure prediction by ZEFSAII (Michael W. Deem and Ramdas Pophale) SiO2 
 PCOD9098487
Probable space group: P -1
;
_chemical_formula_sum "Si O2"
_cell_formula_units_Z 15
_cell_length_a 11.283320
_cell_length_b 8.806044
_cell_length_c 10.547637
_cell_angle_alpha 59.700138
_cell_angle_beta 118.354917
_cell_angle_gamma 130.229404
_cell_volume 672.931032
_symmetry_space_group_name_H-M "P -1"
_symmetry_group_IT_number 2
_symmetry_cell_setting 'triclinic'
loop_
_space_group_symop_operation_xyz
x,y,z
-x,-y,-z
loop_
_atom_site_type_symbol
_atom_site_label
_atom_site_fract_x
_atom_site_fract_y
_atom_site_fract_z
Si Si1 0.941641 0.369554 0.720130
Si Si2 0.730228 0.492271 0.423324
Si Si3 0.844059 0.393581 0.056697
Si Si4 0.743084 0.690363 0.776999
Si Si5 0.717734 0.049482 0.951011
Si Si6 0.507087 0.685729 0.847212
Si Si7 0.068865 0.103605 0.768839
Si Si8 0.500000 0.500000 0.500000
O O1 0.854675 0.429180 0.548573
O O2 0.808109 0.226430 0.816780
O O3 0.008918 0.234298 0.757165
O O4 0.083028 0.569302 0.782083
O O5 0.644333 0.399066 0.284508
O O6 0.822271 0.742939 0.352136
O O7 0.598481 0.427353 0.490854
O O8 0.768243 0.531418 0.938453
O O9 0.729346 0.163664 0.040124
O O10 0.000000 0.500000 0.000000
O O11 0.655196 0.768408 0.790383
O O12 0.633987 0.572846 0.651339
O O13 0.915082 0.884890 0.743322
O O14 0.548289 0.870616 0.886560
O O15 0.821304 0.945080 0.069565
O O16 0.500000 0.500000 0.000000
#
# Coordination Sequence:
#
# PCOD9098487 Si02
#       8
#     2   2   2   2   2   2   2   1
#     4  11  22  41  66 104 134 171 226 284 327 394
#     4  11  26  42  71  96 140 175 221 284 335 396
#     4  10  20  36  66  97 132 169 219 275 332 382
#     4  11  22  43  69  97 131 182 219 279 333 399
#     4  11  21  39  69  96 132 181 223 268 331 404
#     4  11  23  43  68  96 136 180 222 269 333 411
#     4  12  22  41  71 102 124 176 235 270 335 391
#     4  10  24  46  60  94 138 182 210 270 350 394
#
# _framework density 22.290545000000002
#
# number of rings (size 3 to 8) (size 9 to 14) (size 15 to 20)
#    0.000    1.067    5.333    3.200    0.000    1.067 
#    2.400    0.667    2.933    0.000    0.000    0.000 
#    0.000    0.000    0.000    0.000    0.000    0.000 
#
# Total GULP energy -83621.857564 kJ/mol
# GULP energy per Si atom -5574.790504 kJ/mol
# Density = 2.223981 g / cm^3
# Si number density = 22.290545 Si / 1000 Ang^3
#
#
#
# Elastic Constant Matrix: (Units=GPa)
#
#
# Indices 1 2 3 4 5 6 
#
# 1 58.4192 12.1921 16.6489 11.8106 18.5018 -12.0114
# 2 12.1921 129.7410 61.5836 26.0183 14.4711 -19.0395
# 3 16.6489 61.5836 149.8266 30.0142 29.0923 -7.5372
# 4 11.8106 26.0183 30.0142 37.2400 5.1534 -9.2934
# 5 18.5018 14.4711 29.0923 5.1534 18.4345 4.7186
# 6 -12.0114 -19.0395 -7.5372 -9.2934 4.7186 20.1318
#
#
#
# Elastic Compliance Matrix: (Units=1/GPa)
#
#
# Indices 1 2 3 4 5 6 
#
# 1 0.069416 0.013778 0.017181 -0.005610 -0.128670 0.088447
# 2 0.013778 0.014499 0.001142 -0.003723 -0.033250 0.028435
# 3 0.017181 0.001142 0.016322 -0.006139 -0.048853 0.026058
# 4 -0.005610 -0.003723 -0.006139 0.036907 0.006285 0.006398
# 5 -0.128670 -0.033250 -0.048853 0.006285 0.336664 -0.202512
# 6 0.088447 0.028435 0.026058 0.006398 -0.202512 0.189511
#
#
# Mechanical properties :
#
#
# Convention : Reuss Voigt Hill
#
# Bulk Modulus (GPa) = 6.08128 57.64846 31.86487
# Shear Modulus (GPa) = 7.64607 31.66541 19.65574
#
# Velocity S-wave (km/s) = 1.85408 3.77314 2.97273
# Velocity P-wave (km/s) = 2.70511 6.70079 5.10971
#
# Compressibility (1/GPa) = 0.16443910
#
# Stress axis : x y z
#
# Youngs Moduli (GPa) = 14.40585 68.97094 61.26514
#
# Poissons Ratio (x) = -0.95028 -1.05259
# Poissons Ratio (y) = -0.19848 -0.06995
# Poissons Ratio (z) = -0.24751 -0.07875
#
# Static dielectric constant tensor:
#      x y z
#    x 1.868440 0.015950 -0.035820 
#    y 0.015950 1.848430 0.009520 
#    z -0.035820 0.009520 1.796650 
# 
# From -- ./inp_files/416413.got.cif
#   From: 2010.05.17/outbox.cif.g08.bks.cpg/sg2_209_cif.got.tgz:416413.got - 2010.06.03 11:33:40.
