data_PCOD9098959
_publ_section_title
;
Structure prediction by ZEFSAII (Michael W. Deem and Ramdas Pophale) SiO2 
 PCOD9098959
Probable space group: P -1
;
_chemical_formula_sum "Si O2"
_cell_formula_units_Z 14
_cell_length_a 21.627665
_cell_length_b 17.234717
_cell_length_c 5.355796
_cell_angle_alpha 80.525969
_cell_angle_beta 79.464691
_cell_angle_gamma 18.747640
_cell_volume 630.582736
_symmetry_space_group_name_H-M "P -1"
_symmetry_group_IT_number 2
_symmetry_cell_setting 'triclinic'
loop_
_space_group_symop_operation_xyz
x,y,z
-x,-y,-z
loop_
_atom_site_type_symbol
_atom_site_label
_atom_site_fract_x
_atom_site_fract_y
_atom_site_fract_z
Si Si1 0.447228 0.858901 0.762065
Si Si2 0.737851 0.305473 0.823981
Si Si3 0.017341 0.426626 0.774569
Si Si4 0.001930 0.109867 0.507585
Si Si5 0.646042 0.762177 0.917852
Si Si6 0.354038 0.397663 0.753330
Si Si7 0.644266 0.287849 0.311541
O O1 0.546271 0.828562 0.739050
O O2 0.512324 0.749118 0.507575
O O3 0.220562 0.141325 0.790339
O O4 0.533947 0.711324 0.018544
O O5 0.867112 0.230862 0.759011
O O6 0.510156 0.583956 0.783463
O O7 0.727585 0.259600 0.091309
O O8 0.855382 0.118732 0.621046
O O9 0.000000 0.500000 0.500000
O O10 0.843109 0.571381 0.809751
O O11 0.000000 0.500000 0.000000
O O12 0.848345 0.322749 0.309181
O O13 0.162784 0.978003 0.574475
O O14 0.681767 0.652645 0.155313
O O15 0.500000 0.000000 0.000000
O O16 0.500000 0.500000 0.500000
#
# Coordination Sequence:
#
# PCOD9098959 Si02
#       7
#     2   2   2   2   2   2   2
#     4  10  23  43  56  91 125 157 200 255 300 369
#     4   9  19  36  61  85 117 154 203 254 296 366
#     4  12  23  37  67  93 116 158 206 255 303 365
#     4  10  20  37  58  88 114 162 201 247 309 360
#     4  10  22  41  65  88 122 159 204 249 304 360
#     4  10  24  42  61  87 130 163 199 256 310 361
#     4   9  18  34  56  88 116 147 200 249 302 356
#
# _framework density 22.201687
#
# number of rings (size 3 to 8) (size 9 to 14) (size 15 to 20)
#    0.857    1.143    1.429    2.143    4.000    1.143 
#    2.571    2.857    0.000    0.000    0.000    0.000 
#    0.000    0.000    0.000    0.000    0.000    0.000 
#
# Total GULP energy -78039.365385 kJ/mol
# GULP energy per Si atom -5574.240385 kJ/mol
# Density = 2.215115 g / cm^3
# Si number density = 22.201687 Si / 1000 Ang^3
#
#
#
# Elastic Constant Matrix: (Units=GPa)
#
#
# Indices 1 2 3 4 5 6 
#
# 1 42.8857 31.6614 29.8839 -3.0820 -9.2689 -10.8667
# 2 31.6614 207.5274 59.9590 -19.0195 -6.3363 -37.0409
# 3 29.8839 59.9590 138.1990 11.6366 -5.8481 -16.6079
# 4 -3.0820 -19.0195 11.6366 29.0805 -1.3638 3.6469
# 5 -9.2689 -6.3363 -5.8481 -1.3638 31.9725 3.6036
# 6 -10.8667 -37.0409 -16.6079 3.6469 3.6036 26.7027
#
#
#
# Elastic Compliance Matrix: (Units=1/GPa)
#
#
# Indices 1 2 3 4 5 6 
#
# 1 0.031680 -0.001633 -0.005498 0.004128 0.007395 0.005646
# 2 -0.001633 0.007575 -0.002414 0.004778 -0.000078 0.007700
# 3 -0.005498 -0.002414 0.010198 -0.006492 -0.000679 0.001736
# 4 0.004128 0.004778 -0.006492 0.040897 0.002893 -0.001706
# 5 0.007395 -0.000078 -0.000679 0.002893 0.033682 -0.002462
# 6 0.005646 0.007700 0.001736 -0.001706 -0.002462 0.052073
#
#
# Mechanical properties :
#
#
# Convention : Reuss Voigt Hill
#
# Bulk Modulus (GPa) = 32.93369 70.18006 51.55688
# Shear Modulus (GPa) = 24.35273 35.35833 29.85553
#
# Velocity S-wave (km/s) = 3.31552 3.99506 3.67105
# Velocity P-wave (km/s) = 5.43350 7.27733 6.42194
#
# Compressibility (1/GPa) = 0.03036405
#
# Stress axis : x y z
#
# Youngs Moduli (GPa) = 31.56556 132.01415 98.05366
#
# Poissons Ratio (x) = 0.21557 0.53912
# Poissons Ratio (y) = 0.05154 0.23666
# Poissons Ratio (z) = 0.17355 0.31863
#
# Static dielectric constant tensor:
#      x y z
#    x 1.977900 -0.004570 0.040770 
#    y -0.004570 1.792360 -0.048770 
#    z 0.040770 -0.048770 1.854400 
# 
# From -- ./inp_files/128820.got.cif
#   From: 2010.05.17/outbox.cif.g08.bks.cpg/sg2_65_cif.got.tgz:128820.got - 2010.06.03 11:33:40.
