data_PCOD9098235
_publ_section_title
;
Structure prediction by ZEFSAII (Michael W. Deem and Ramdas Pophale) SiO2 
 PCOD9098235
Probable space group: P -1
;
_chemical_formula_sum "Si O2"
_cell_formula_units_Z 16
_cell_length_a 9.462695
_cell_length_b 12.406859
_cell_length_c 8.375336
_cell_angle_alpha 122.988586
_cell_angle_beta 49.116254
_cell_angle_gamma 114.730763
_cell_volume 620.563578
_symmetry_space_group_name_H-M "P -1"
_symmetry_group_IT_number 2
_symmetry_cell_setting 'triclinic'
loop_
_space_group_symop_operation_xyz
x,y,z
-x,-y,-z
loop_
_atom_site_type_symbol
_atom_site_label
_atom_site_fract_x
_atom_site_fract_y
_atom_site_fract_z
Si Si1 0.553901 0.633599 0.480201
Si Si2 0.857736 0.216290 0.851769
Si Si3 0.311833 0.957957 0.408518
Si Si4 0.301846 0.367387 0.119885
Si Si5 0.277423 0.530044 0.991831
Si Si6 0.796186 0.796418 0.655120
Si Si7 0.469613 0.797584 0.412281
Si Si8 0.056443 0.958081 0.101935
O O1 0.500000 0.500000 0.500000
O O2 0.732496 0.594857 0.215941
O O3 0.612478 0.744701 0.651462
O O4 0.420757 0.686179 0.487587
O O5 0.702675 0.107952 0.804786
O O6 0.887697 0.178810 0.984120
O O7 0.037096 0.197689 0.591257
O O8 0.802359 0.356190 0.955043
O O9 0.320828 0.838823 0.429331
O O10 0.471236 0.071131 0.427062
O O11 0.126193 0.022954 0.641993
O O12 0.502231 0.426171 0.094203
O O13 0.179587 0.306433 0.305586
O O14 0.209583 0.473575 0.167870
O O15 0.366337 0.254706 0.862354
O O16 0.790443 0.930116 0.858462
O O17 0.000000 0.000000 0.000000
#
# Coordination Sequence:
#
# PCOD9098235 Si02
#       8
#     2   2   2   2   2   2   2   2
#     4  11  22  38  60  90 128 165 204 254 305 363
#     4  11  23  42  65  91 128 164 210 256 316 374
#     4  10  20  38  63  92 118 162 203 259 311 366
#     4  10  20  40  62  92 126 163 206 253 306 366
#     4  10  22  40  63  88 128 166 204 256 306 365
#     4  11  23  40  67  93 126 167 209 256 314 373
#     4  10  20  36  64  91 124 158 208 252 312 368
#     4  11  24  43  64  89 129 165 207 263 318 368
#
# _framework density 25.783014000000001
#
# number of rings (size 3 to 8) (size 9 to 14) (size 15 to 20)
#    0.000    1.500    2.500    3.750    0.000    3.000 
#    0.000    3.125    0.000    0.000    0.000    0.000 
#    0.000    0.000    0.000    0.000    0.000    0.000 
#
# Total GULP energy -89355.846406 kJ/mol
# GULP energy per Si atom -5584.740400 kJ/mol
# Density = 2.572433 g / cm^3
# Si number density = 25.783014 Si / 1000 Ang^3
#
#
#
# Elastic Constant Matrix: (Units=GPa)
#
#
# Indices 1 2 3 4 5 6 
#
# 1 89.8272 75.3249 26.6592 1.6102 22.5631 -43.5338
# 2 75.3249 179.8599 26.5130 -7.3452 11.2824 -75.1096
# 3 26.6592 26.5130 83.8638 9.7819 14.1084 -15.2649
# 4 1.6102 -7.3452 9.7819 32.9460 -3.1385 3.3310
# 5 22.5631 11.2824 14.1084 -3.1385 30.2786 3.7184
# 6 -43.5338 -75.1096 -15.2649 3.3310 3.7184 70.8144
#
#
#
# Elastic Compliance Matrix: (Units=1/GPa)
#
#
# Indices 1 2 3 4 5 6 
#
# 1 0.026249 -0.004802 -0.000731 -0.005220 -0.019464 0.012153
# 2 -0.004802 0.011729 -0.000432 0.001881 -0.001549 0.009388
# 3 -0.000731 -0.000432 0.014619 -0.005359 -0.007014 0.002865
# 4 -0.005220 0.001881 -0.005359 0.034001 0.009760 -0.004481
# 5 -0.019464 -0.001549 -0.007014 0.009760 0.054653 -0.018449
# 6 0.012153 0.009388 0.002865 -0.004481 -0.018449 0.033347
#
#
# Mechanical properties :
#
#
# Convention : Reuss Voigt Hill
#
# Bulk Modulus (GPa) = 24.58918 67.83835 46.21377
# Shear Modulus (GPa) = 24.98954 41.81138 33.40046
#
# Velocity S-wave (km/s) = 3.11662 4.03136 3.60313
# Velocity P-wave (km/s) = 4.74434 6.93091 5.93912
#
# Compressibility (1/GPa) = 0.04066829
#
# Stress axis : x y z
#
# Youngs Moduli (GPa) = 38.09713 85.25770 68.40294
#
# Poissons Ratio (x) = 0.40943 0.04998
# Poissons Ratio (y) = 0.18295 0.02952
# Poissons Ratio (z) = 0.02783 0.03679
#
# Static dielectric constant tensor:
#      x y z
#    x 2.094580 0.041200 0.010640 
#    y 0.041200 2.071900 -0.011720 
#    z 0.010640 -0.011720 2.079720 
# 
# From -- ./inp_files/189763.got.cif
#   From: 2010.05.17/outbox.cif.g08.bks.cpg/sg2_95_cif.got.tgz:189763.got - 2010.06.03 11:33:40.
