data_PCOD9098190
_publ_section_title
;
Structure prediction by ZEFSAII (Michael W. Deem and Ramdas Pophale) SiO2 
 PCOD9098190
Probable space group: P -1
;
_chemical_formula_sum "Si O2"
_cell_formula_units_Z 16
_cell_length_a 9.754717
_cell_length_b 22.189175
_cell_length_c 12.679439
_cell_angle_alpha 143.056909
_cell_angle_beta 133.751781
_cell_angle_gamma 77.011999
_cell_volume 780.740993
_symmetry_space_group_name_H-M "P -1"
_symmetry_group_IT_number 2
_symmetry_cell_setting 'triclinic'
loop_
_space_group_symop_operation_xyz
x,y,z
-x,-y,-z
loop_
_atom_site_type_symbol
_atom_site_label
_atom_site_fract_x
_atom_site_fract_y
_atom_site_fract_z
Si Si1 0.330707 0.536882 0.468196
Si Si2 0.194214 0.483188 0.549773
Si Si3 0.266511 0.861073 0.259783
Si Si4 0.636872 0.246611 0.667476
Si Si5 0.255845 0.718890 0.625619
Si Si6 0.158337 0.955366 0.529026
Si Si7 0.734550 0.161037 0.408183
Si Si8 0.654877 0.463952 0.067174
O O1 0.500000 0.500000 0.500000
O O2 0.359872 0.575953 0.661158
O O3 0.392706 0.661011 0.606103
O O4 0.989780 0.384570 0.051781
O O5 0.383438 0.549797 0.847127
O O6 0.000000 0.500000 0.500000
O O7 0.987404 0.304950 0.164561
O O8 0.444559 0.856277 0.422986
O O9 0.500000 0.000000 0.500000
O O10 0.136892 0.890044 0.314095
O O11 0.571187 0.171313 0.415860
O O12 0.540287 0.319256 0.745244
O O13 0.143632 0.721480 0.458692
O O14 0.990338 0.604114 0.405358
O O15 0.506745 0.885922 0.044294
O O16 0.082790 0.843593 0.426016
O O17 0.000000 0.000000 0.500000
O O18 0.500000 0.000000 0.000000
O O19 0.500000 0.500000 0.000000
#
# Coordination Sequence:
#
# PCOD9098190 Si02
#       8
#     2   2   2   2   2   2   2   2
#     4  10  22  34  63  92 119 155 207 260 308 365
#     4  11  20  41  61  86 127 160 202 263 308 355
#     4  10  20  36  64  87 120 161 199 250 318 357
#     4   9  20  39  57  86 124 153 206 254 303 363
#     4  10  21  39  62  87 128 158 207 253 317 365
#     4  10  22  39  64  94 122 157 210 257 308 374
#     4   9  20  39  60  82 126 162 190 259 317 356
#     4  11  23  40  60  89 121 170 205 252 306 375
#
# _framework density 20.493348999999998
#
# number of rings (size 3 to 8) (size 9 to 14) (size 15 to 20)
#    0.000    2.000    3.750    0.750    5.250    4.000 
#    4.500    0.000    0.000    3.000    0.000    0.000 
#    0.000    0.000    0.000    0.000    0.000    0.000 
#
# Total GULP energy -89115.673191 kJ/mol
# GULP energy per Si atom -5569.729574 kJ/mol
# Density = 2.044671 g / cm^3
# Si number density = 20.493349 Si / 1000 Ang^3
#
#
#
# Elastic Constant Matrix: (Units=GPa)
#
#
# Indices 1 2 3 4 5 6 
#
# 1 121.5249 62.0017 23.4409 -8.2801 -37.3523 -24.3068
# 2 62.0017 131.0276 11.5171 3.2092 -14.3516 -14.0369
# 3 23.4409 11.5171 44.0162 6.8657 -23.5495 -2.0048
# 4 -8.2801 3.2092 6.8657 28.3546 1.6559 -0.2915
# 5 -37.3523 -14.3516 -23.5495 1.6559 36.8010 0.0509
# 6 -24.3068 -14.0369 -2.0048 -0.2915 0.0509 45.2166
#
#
#
# Elastic Compliance Matrix: (Units=1/GPa)
#
#
# Indices 1 2 3 4 5 6 
#
# 1 0.018125 -0.006134 -0.000099 0.005175 0.015698 0.007850
# 2 -0.006134 0.010370 -0.000175 -0.002797 -0.002168 -0.000102
# 3 -0.000099 -0.000175 0.037534 -0.010503 0.024321 0.001462
# 4 0.005175 -0.002797 -0.010503 0.039911 -0.004357 0.001710
# 5 0.015698 -0.002168 0.024321 -0.004357 0.058008 0.008750
# 6 0.007850 -0.000102 0.001462 0.001710 0.008750 0.026370
#
#
# Mechanical properties :
#
#
# Convention : Reuss Voigt Hill
#
# Bulk Modulus (GPa) = 18.79208 54.49870 36.64539
# Shear Modulus (GPa) = 22.63751 35.38169 29.00960
#
# Velocity S-wave (km/s) = 3.32720 4.15962 3.76648
# Velocity P-wave (km/s) = 4.89388 7.05131 6.06923
#
# Compressibility (1/GPa) = 0.05321390
#
# Stress axis : x y z
#
# Youngs Moduli (GPa) = 55.17151 96.42912 26.64241
#
# Poissons Ratio (x) = 0.59154 0.00263
# Poissons Ratio (y) = 0.33845 0.00466
# Poissons Ratio (z) = 0.00544 0.01685
#
# Static dielectric constant tensor:
#      x y z
#    x 1.788960 0.019340 0.007770 
#    y 0.019340 1.788820 0.036000 
#    z 0.007770 0.036000 1.765440 
# 
# From -- ./inp_files/405615.got.cif
#   From: 2010.05.17/outbox.cif.g08.bks.cpg/sg2_203_cif.got.tgz:405615.got - 2010.06.03 11:33:40.
