data_PCOD9098941
_publ_section_title
;
Structure prediction by ZEFSAII (Michael W. Deem and Ramdas Pophale) SiO2 
 PCOD9098941
Probable space group: P -1
;
_chemical_formula_sum "Si O2"
_cell_formula_units_Z 14
_cell_length_a 7.701899
_cell_length_b 9.321624
_cell_length_c 10.919428
_cell_angle_alpha 108.382101
_cell_angle_beta 110.911415
_cell_angle_gamma 104.170565
_cell_volume 635.975853
_symmetry_space_group_name_H-M "P -1"
_symmetry_group_IT_number 2
_symmetry_cell_setting 'triclinic'
loop_
_space_group_symop_operation_xyz
x,y,z
-x,-y,-z
loop_
_atom_site_type_symbol
_atom_site_label
_atom_site_fract_x
_atom_site_fract_y
_atom_site_fract_z
Si Si1 0.685326 0.305755 0.118519
Si Si2 0.723896 0.492183 0.416972
Si Si3 0.943019 0.112423 0.111323
Si Si4 0.026161 0.637595 0.183723
Si Si5 0.067759 0.190882 0.594856
Si Si6 0.236302 0.201153 0.882519
Si Si7 0.722480 0.520210 0.702288
O O1 0.730383 0.355762 0.286322
O O2 0.751018 0.160185 0.053629
O O3 0.838961 0.470405 0.133957
O O4 0.452500 0.265659 0.018832
O O5 0.876897 0.675471 0.462469
O O6 0.748265 0.458401 0.555542
O O7 0.504079 0.496603 0.346631
O O8 0.131165 0.286707 0.214711
O O9 0.879067 0.994601 0.181930
O O10 0.000000 0.000000 0.000000
O O11 0.087541 0.773500 0.344282
O O12 0.918522 0.718561 0.085522
O O13 0.207280 0.578058 0.204248
O O14 0.255692 0.241374 0.753521
O O15 0.000000 0.000000 0.500000
#
# Coordination Sequence:
#
# PCOD9098941 Si02
#       7
#     2   2   2   2   2   2   2
#     4  10  20  39  61  87 113 157 202 233 292 352
#     4  10  21  37  65  84 117 159 199 240 282 355
#     4  11  23  39  59  88 121 154 193 244 296 346
#     4   8  20  35  58  83 117 151 193 241 288 340
#     4   9  19  35  57  87 113 153 192 240 294 338
#     4  10  20  37  58  86 122 145 198 243 287 349
#     4  10  21  40  58  89 120 154 200 238 288 347
#
# _framework density 22.013411999999999
#
# number of rings (size 3 to 8) (size 9 to 14) (size 15 to 20)
#    0.857    1.429    0.000    2.571    0.000    6.286 
#    2.571    4.286    0.000    0.000    0.000    0.000 
#    0.000    0.000    0.000    0.000    0.000    0.000 
#
# Total GULP energy -77978.747517 kJ/mol
# GULP energy per Si atom -5569.910537 kJ/mol
# Density = 2.196331 g / cm^3
# Si number density = 22.013412 Si / 1000 Ang^3
#
#
#
# Elastic Constant Matrix: (Units=GPa)
#
#
# Indices 1 2 3 4 5 6 
#
# 1 68.3916 24.5232 36.2727 -0.4328 5.3991 -30.6915
# 2 24.5232 83.8877 18.1982 -0.8208 1.8414 -37.7294
# 3 36.2727 18.1982 78.8247 7.3127 -5.2436 -21.7815
# 4 -0.4328 -0.8208 7.3127 26.1151 -3.7523 -5.6086
# 5 5.3991 1.8414 -5.2436 -3.7523 29.3097 -2.8690
# 6 -30.6915 -37.7294 -21.7815 -5.6086 -2.8690 37.9899
#
#
#
# Elastic Compliance Matrix: (Units=1/GPa)
#
#
# Indices 1 2 3 4 5 6 
#
# 1 0.028260 0.003912 -0.008604 0.007295 -0.003848 0.022569
# 2 0.003912 0.023000 -0.000196 0.006830 0.001316 0.026998
# 3 -0.008604 -0.000196 0.018212 -0.003921 0.004654 0.003069
# 4 0.007295 0.006830 -0.003921 0.044144 0.004872 0.017314
# 5 -0.003848 0.001316 0.004654 0.004872 0.036627 0.004352
# 6 0.022569 0.026998 0.003069 0.017314 0.004352 0.076014
#
#
# Mechanical properties :
#
#
# Convention : Reuss Voigt Hill
#
# Bulk Modulus (GPa) = 16.75118 43.23249 29.99183
# Shear Modulus (GPa) = 19.53639 28.82360 24.17999
#
# Velocity S-wave (km/s) = 2.98229 3.62244 3.31784
# Velocity P-wave (km/s) = 4.41415 6.09737 5.32272
#
# Compressibility (1/GPa) = 0.05969729
#
# Stress axis : x y z
#
# Youngs Moduli (GPa) = 35.38512 43.47749 54.90812
#
# Poissons Ratio (x) = -0.17007 0.47242
# Poissons Ratio (y) = -0.13842 0.01075
# Poissons Ratio (z) = 0.30445 0.00851
#
# Static dielectric constant tensor:
#      x y z
#    x 1.848070 -0.033640 -0.040570 
#    y -0.033640 1.818150 -0.039270 
#    z -0.040570 -0.039270 1.847500 
# 
# From -- ./inp_files/380113.got.cif
#   From: 2010.05.17/outbox.cif.g08.bks.cpg/sg2_191_cif.got.tgz:380113.got - 2010.06.03 11:33:40.
