data_PCOD9098887
_publ_section_title
;
Structure prediction by ZEFSAII (Michael W. Deem and Ramdas Pophale) SiO2 
 PCOD9098887
Probable space group: P -1
;
_chemical_formula_sum "Si O2"
_cell_formula_units_Z 16
_cell_length_a 8.895729
_cell_length_b 8.003850
_cell_length_c 11.681186
_cell_angle_alpha 98.218622
_cell_angle_beta 97.670573
_cell_angle_gamma 57.684105
_cell_volume 694.042927
_symmetry_space_group_name_H-M "P -1"
_symmetry_group_IT_number 2
_symmetry_cell_setting 'triclinic'
loop_
_space_group_symop_operation_xyz
x,y,z
-x,-y,-z
loop_
_atom_site_type_symbol
_atom_site_label
_atom_site_fract_x
_atom_site_fract_y
_atom_site_fract_z
Si Si1 0.096871 0.804783 0.644803
Si Si2 0.247916 0.072525 0.732249
Si Si3 0.081220 0.718121 0.882853
Si Si4 0.508521 0.439985 0.652040
Si Si5 0.541825 0.634023 0.099550
Si Si6 0.246330 0.996743 0.980809
Si Si7 0.446703 0.252432 0.421880
Si Si8 0.866867 0.722478 0.473604
O O1 0.027907 0.756748 0.748633
O O2 0.299082 0.615717 0.630947
O O3 0.965710 0.834395 0.532887
O O4 0.117782 0.988784 0.692057
O O5 0.172442 0.263421 0.663654
O O6 0.279325 0.062367 0.868239
O O7 0.427345 0.919406 0.668369
O O8 0.242323 0.491062 0.893008
O O9 0.166236 0.854696 0.932903
O O10 0.905213 0.809768 0.949941
O O11 0.520929 0.372940 0.777596
O O12 0.545970 0.276870 0.544757
O O13 0.616377 0.545710 0.637691
O O14 0.500000 0.500000 0.000000
O O15 0.423087 0.855027 0.058719
O O16 0.304494 0.213711 0.460594
O O17 0.000000 0.500000 0.500000
#
# Coordination Sequence:
#
# PCOD9098887 Si02
#       8
#     2   2   2   2   2   2   2   2
#     4   9  18  37  60  86 118 151 192 239 291 349
#     4  10  22  39  59  84 120 153 194 241 284 356
#     4   8  16  31  55  85 115 144 189 246 287 335
#     4   9  18  35  59  89 116 149 196 238 285 358
#     4   9  16  30  55  85 115 147 191 242 291 340
#     4   9  17  34  54  88 114 146 197 244 285 342
#     4  10  20  37  58  82 119 154 190 238 294 345
#     4  12  23  38  56  86 119 154 191 240 298 344
#
# _framework density 23.053328
#
# number of rings (size 3 to 8) (size 9 to 14) (size 15 to 20)
#    0.000    2.500    1.250    3.000    0.000    1.000 
#   11.250    0.000    0.000    5.250    0.000    0.000 
#    0.000    0.000    0.000    0.000    0.000    0.000 
#
# Total GULP energy -89344.272888 kJ/mol
# GULP energy per Si atom -5584.017056 kJ/mol
# Density = 2.300086 g / cm^3
# Si number density = 23.053328 Si / 1000 Ang^3
#
#
#
# Elastic Constant Matrix: (Units=GPa)
#
#
# Indices 1 2 3 4 5 6 
#
# 1 70.2807 31.8180 48.9780 -13.0822 -8.1889 7.7317
# 2 31.8180 87.5376 64.5299 -29.7446 -19.3469 -16.3512
# 3 48.9780 64.5299 199.2038 -30.3505 -39.0439 -24.2207
# 4 -13.0822 -29.7446 -30.3505 33.8605 1.7300 3.0287
# 5 -8.1889 -19.3469 -39.0439 1.7300 33.2119 7.7244
# 6 7.7317 -16.3512 -24.2207 3.0287 7.7244 21.6656
#
#
#
# Elastic Compliance Matrix: (Units=1/GPa)
#
#
# Indices 1 2 3 4 5 6 
#
# 1 0.024932 -0.009811 -0.006438 -0.002653 -0.001765 -0.022498
# 2 -0.009811 0.025579 0.000495 0.017094 0.007955 0.018133
# 3 -0.006438 0.000495 0.010115 0.005683 0.007883 0.010373
# 4 -0.002653 0.017094 0.005683 0.047184 0.011299 0.009576
# 5 -0.001765 0.007955 0.007883 0.011299 0.043357 -0.001591
# 6 -0.022498 0.018133 0.010373 0.009576 -0.001591 0.078695
#
#
# Mechanical properties :
#
#
# Convention : Reuss Voigt Hill
#
# Bulk Modulus (GPa) = 34.34329 71.96377 53.15353
# Shear Modulus (GPa) = 18.44504 31.86068 25.15286
#
# Velocity S-wave (km/s) = 2.83168 3.72162 3.30672
# Velocity P-wave (km/s) = 5.06171 7.05345 6.13890
#
# Compressibility (1/GPa) = 0.02911777
#
# Stress axis : x y z
#
# Youngs Moduli (GPa) = 40.10880 39.09512 98.86528
#
# Poissons Ratio (x) = 0.38355 0.63646
# Poissons Ratio (y) = 0.39350 -0.04889
# Poissons Ratio (z) = 0.25821 -0.01933
#
# Static dielectric constant tensor:
#      x y z
#    x 2.127880 -0.019680 0.107760 
#    y -0.019680 1.917750 -0.019140 
#    z 0.107760 -0.019140 1.867240 
# 
# From -- ./inp_files/379168.got.cif
#   From: 2010.05.17/outbox.cif.g08.bks.cpg/sg2_190_cif.got.tgz:379168.got - 2010.06.03 11:33:40.
