data_PCOD9098305
_publ_section_title
;
Structure prediction by ZEFSAII (Michael W. Deem and Ramdas Pophale) SiO2 
 PCOD9098305
Probable space group: P -1
;
_chemical_formula_sum "Si O2"
_cell_formula_units_Z 16
_cell_length_a 12.949489
_cell_length_b 18.011967
_cell_length_c 19.350531
_cell_angle_alpha 159.645881
_cell_angle_beta 24.831753
_cell_angle_gamma 145.177428
_cell_volume 645.262658
_symmetry_space_group_name_H-M "P -1"
_symmetry_group_IT_number 2
_symmetry_cell_setting 'triclinic'
loop_
_space_group_symop_operation_xyz
x,y,z
-x,-y,-z
loop_
_atom_site_type_symbol
_atom_site_label
_atom_site_fract_x
_atom_site_fract_y
_atom_site_fract_z
Si Si1 0.516118 0.712308 0.130133
Si Si2 0.145131 0.512504 0.991946
Si Si3 0.709290 0.129190 0.209728
Si Si4 0.014348 0.218579 0.547806
Si Si5 0.138904 0.705071 0.589929
Si Si6 0.000065 0.587178 0.783829
Si Si7 0.274733 0.923797 0.233335
Si Si8 0.383451 0.198626 0.677175
O O1 0.290944 0.760363 0.253444
O O2 0.817260 0.661834 0.893309
O O3 0.452254 0.939212 0.408823
O O4 0.500000 0.500000 0.000000
O O5 0.255163 0.277269 0.750474
O O6 0.970348 0.627775 0.261272
O O7 0.000000 0.500000 0.000000
O O8 0.340429 0.666657 0.986648
O O9 0.742189 0.224303 0.348965
O O10 0.461732 0.047869 0.267015
O O11 0.759513 0.313448 0.287501
O O12 0.929001 0.915430 0.880912
O O13 0.207216 0.998158 0.259713
O O14 0.064515 0.335317 0.547770
O O15 0.368063 0.694412 0.385938
O O16 0.000000 0.500000 0.500000
O O17 0.824902 0.705080 0.055562
O O18 0.000000 0.000000 0.500000
#
# Coordination Sequence:
#
# PCOD9098305 Si02
#       8
#     2   2   2   2   2   2   2   2
#     4  10  20  36  64  96 129 172 225 273 334 399
#     4  10  21  35  63  95 128 166 229 276 324 397
#     4  11  25  44  65  98 142 170 226 291 334 398
#     4   9  21  36  62  94 124 171 226 268 324 407
#     4  11  26  43  68 102 137 179 225 280 342 405
#     4  10  22  42  64  99 132 173 217 281 338 395
#     4  10  22  40  65  91 127 177 223 270 340 395
#     4  11  22  40  68  97 133 176 225 274 333 413
#
# _framework density 24.796104
#
# number of rings (size 3 to 8) (size 9 to 14) (size 15 to 20)
#    0.000    1.750    1.250    1.875    7.000    4.500 
#    0.000    0.000    0.000    3.750    0.000    0.000 
#    0.000    0.000    0.000    0.000    0.000    0.000 
#
# Total GULP energy -89248.661738 kJ/mol
# GULP energy per Si atom -5578.041359 kJ/mol
# Density = 2.473967 g / cm^3
# Si number density = 24.796104 Si / 1000 Ang^3
#
#
#
# Elastic Constant Matrix: (Units=GPa)
#
#
# Indices 1 2 3 4 5 6 
#
# 1 124.2100 36.4788 19.0720 -8.7656 -19.5471 16.1965
# 2 36.4788 142.9111 13.2942 -2.7467 -7.7084 11.9294
# 3 19.0720 13.2942 44.3509 9.6229 -15.8837 -14.5419
# 4 -8.7656 -2.7467 9.6229 49.7934 -7.3878 -12.2942
# 5 -19.5471 -7.7084 -15.8837 -7.3878 34.9800 0.5792
# 6 16.1965 11.9294 -14.5419 -12.2942 0.5792 42.1264
#
#
#
# Elastic Compliance Matrix: (Units=1/GPa)
#
#
# Indices 1 2 3 4 5 6 
#
# 1 0.010630 -0.001637 -0.004636 0.002120 0.003999 -0.004660
# 2 -0.001637 0.007844 -0.002570 -0.000018 -0.000316 -0.002480
# 3 -0.004636 -0.002570 0.034503 -0.002546 0.011749 0.013516
# 4 0.002120 -0.000018 -0.002546 0.022870 0.004773 0.004920
# 5 0.003999 -0.000316 0.011749 0.004773 0.037038 0.003491
# 6 -0.004660 -0.002480 0.013516 0.004920 0.003491 0.032286
#
#
# Mechanical properties :
#
#
# Convention : Reuss Voigt Hill
#
# Bulk Modulus (GPa) = 28.33525 49.90687 39.12106
# Shear Modulus (GPa) = 28.63361 41.55511 35.09436
#
# Velocity S-wave (km/s) = 3.40187 4.09818 3.76615
# Velocity P-wave (km/s) = 5.18482 6.52411 5.89264
#
# Compressibility (1/GPa) = 0.03529173
#
# Stress axis : x y z
#
# Youngs Moduli (GPa) = 94.07289 127.48940 28.98289
#
# Poissons Ratio (x) = 0.20865 0.13437
# Poissons Ratio (y) = 0.15396 0.07448
# Poissons Ratio (z) = 0.43615 0.32760
#
# Static dielectric constant tensor:
#      x y z
#    x 2.114750 -0.026590 -0.039650 
#    y -0.026590 2.076620 0.032210 
#    z -0.039650 0.032210 2.016280 
# 
# From -- ./inp_files/612266.got.cif
#   From: 2010.05.17/outbox.cif.g08.bks.cpg/sg2_307_cif.got.tgz:612266.got - 2010.06.03 11:33:40.
