data_PCOD9098628
_publ_section_title
;
Structure prediction by ZEFSAII (Michael W. Deem and Ramdas Pophale) SiO2 
 PCOD9098628
Probable space group: P -1
;
_chemical_formula_sum "Si O2"
_cell_formula_units_Z 14
_cell_length_a 12.220708
_cell_length_b 8.894051
_cell_length_c 8.691358
_cell_angle_alpha 108.594937
_cell_angle_beta 36.650659
_cell_angle_gamma 113.622661
_cell_volume 516.651459
_symmetry_space_group_name_H-M "P -1"
_symmetry_group_IT_number 2
_symmetry_cell_setting 'triclinic'
loop_
_space_group_symop_operation_xyz
x,y,z
-x,-y,-z
loop_
_atom_site_type_symbol
_atom_site_label
_atom_site_fract_x
_atom_site_fract_y
_atom_site_fract_z
Si Si1 0.611788 0.254827 0.518942
Si Si2 0.074377 0.626390 0.099648
Si Si3 0.669123 0.559471 0.111568
Si Si4 0.778193 0.995173 0.650272
Si Si5 0.449876 0.958345 0.788954
Si Si6 0.998382 0.183406 0.022134
Si Si7 0.858032 0.711201 0.639586
O O1 0.581790 0.159429 0.359651
O O2 0.825240 0.246624 0.315399
O O3 0.464030 0.139514 0.763869
O O4 0.545255 0.421872 0.634883
O O5 0.271598 0.593252 0.927668
O O6 0.952303 0.605396 0.384782
O O7 0.041252 0.789265 0.105314
O O8 0.000000 0.500000 0.000000
O O9 0.746360 0.598085 0.863253
O O10 0.801561 0.706394 0.110416
O O11 0.977546 0.127418 0.437334
O O12 0.655192 0.973086 0.630696
O O13 0.750627 0.810417 0.683054
O O14 0.687571 0.075050 0.920202
O O15 0.000000 0.000000 0.000000
#
# Coordination Sequence:
#
# PCOD9098628 Si02
#       7
#     2   2   2   2   2   2   2
#     4  11  22  37  66  95 135 172 214 265 328 385
#     4  10  25  43  66  93 130 180 217 264 331 389
#     4  11  24  43  64  96 135 176 215 264 328 392
#     4  10  22  35  63  96 129 164 217 273 327 373
#     4  10  20  37  54  98 135 162 208 277 327 376
#     4  11  24  41  69  99 131 168 222 271 319 382
#     4  11  22  39  65  93 127 174 219 266 326 387
#
# _framework density 27.097572
#
# number of rings (size 3 to 8) (size 9 to 14) (size 15 to 20)
#    0.000    1.429    1.429    3.857   10.000    0.571 
#    0.000    0.000    3.143    5.143    0.000    0.000 
#    0.000    0.000    0.000    0.000    0.000    0.000 
#
# Total GULP energy -78282.771369 kJ/mol
# GULP energy per Si atom -5591.626526 kJ/mol
# Density = 2.703590 g / cm^3
# Si number density = 27.097572 Si / 1000 Ang^3
#
#
#
# Elastic Constant Matrix: (Units=GPa)
#
#
# Indices 1 2 3 4 5 6 
#
# 1 99.6838 23.7355 3.5999 8.2764 -7.5842 -34.0650
# 2 23.7355 124.4579 11.1494 16.1239 -4.9679 -34.1904
# 3 3.5999 11.1494 105.2406 5.3294 0.9628 -18.5614
# 4 8.2764 16.1239 5.3294 44.6627 -13.1773 -0.3461
# 5 -7.5842 -4.9679 0.9628 -13.1773 37.7413 6.7821
# 6 -34.0650 -34.1904 -18.5614 -0.3461 6.7821 47.9773
#
#
#
# Elastic Compliance Matrix: (Units=1/GPa)
#
#
# Indices 1 2 3 4 5 6 
#
# 1 0.013744 0.000564 0.001513 -0.002890 -0.000142 0.010745
# 2 0.000564 0.010707 0.000574 -0.004432 -0.001556 0.008440
# 3 0.001513 0.000574 0.010536 -0.002201 -0.001697 0.005783
# 4 -0.002890 -0.004432 -0.002201 0.027636 0.009845 -0.007254
# 5 -0.000142 -0.001556 -0.001697 0.009845 0.030850 -0.006156
# 6 0.010745 0.008440 0.005783 -0.007254 -0.006156 0.037542
#
#
# Mechanical properties :
#
#
# Convention : Reuss Voigt Hill
#
# Bulk Modulus (GPa) = 24.82159 45.15021 34.98590
# Shear Modulus (GPa) = 35.93405 45.46943 40.70174
#
# Velocity S-wave (km/s) = 3.64551 4.10077 3.87983
# Velocity P-wave (km/s) = 5.18649 6.25460 5.74542
#
# Compressibility (1/GPa) = 0.04028751
#
# Stress axis : x y z
#
# Youngs Moduli (GPa) = 72.76048 93.40008 94.90837
#
# Poissons Ratio (x) = -0.05266 -0.14358
# Poissons Ratio (y) = -0.04102 -0.05445
# Poissons Ratio (z) = -0.11007 -0.05359
#
# Static dielectric constant tensor:
#      x y z
#    x 2.087010 0.040610 -0.068100 
#    y 0.040610 2.220870 -0.073460 
#    z -0.068100 -0.073460 2.214380 
# 
# From -- ./inp_files/244317.got.cif
#   From: 2010.05.17/outbox.cif.g08.bks.cpg/sg2_123_cif.got.tgz:244317.got - 2010.06.03 11:33:40.
