data_PCOD9098420
_publ_section_title
;
Structure prediction by ZEFSAII (Michael W. Deem and Ramdas Pophale) SiO2 
 PCOD9098420
Probable space group: P -1
;
_chemical_formula_sum "Si O2"
_cell_formula_units_Z 15
_cell_length_a 9.204063
_cell_length_b 6.777730
_cell_length_c 12.317604
_cell_angle_alpha 129.479221
_cell_angle_beta 93.106254
_cell_angle_gamma 100.303838
_cell_volume 569.089473
_symmetry_space_group_name_H-M "P -1"
_symmetry_group_IT_number 2
_symmetry_cell_setting 'triclinic'
loop_
_space_group_symop_operation_xyz
x,y,z
-x,-y,-z
loop_
_atom_site_type_symbol
_atom_site_label
_atom_site_fract_x
_atom_site_fract_y
_atom_site_fract_z
Si Si1 0.104608 0.823054 0.498376
Si Si2 0.928544 0.201680 0.252575
Si Si3 0.303629 0.613069 0.801457
Si Si4 0.193884 0.019766 0.192831
Si Si5 0.381738 0.426537 0.187269
Si Si6 0.500000 0.000000 0.500000
Si Si7 0.325368 0.522370 0.995674
Si Si8 0.699404 0.807804 0.516896
O O1 0.114482 0.834536 0.633416
O O2 0.032123 0.513072 0.357114
O O3 0.270186 0.955183 0.493165
O O4 0.000000 0.000000 0.500000
O O5 0.791061 0.184168 0.157951
O O6 0.020897 0.994770 0.149310
O O7 0.481602 0.712200 0.864117
O O8 0.280721 0.443959 0.630506
O O9 0.254010 0.427879 0.841535
O O10 0.286173 0.288584 0.235232
O O11 0.196653 0.078564 0.341144
O O12 0.279605 0.799642 0.094670
O O13 0.277258 0.401973 0.069108
O O14 0.461042 0.735859 0.320255
O O15 0.470851 0.201946 0.470128
O O16 0.500000 0.500000 0.000000
#
# Coordination Sequence:
#
# PCOD9098420 Si02
#       8
#     2   2   2   2   2   1   2   2
#     4  11  20  40  64  92 145 175 208 269 351 392
#     4  11  23  38  65 104 130 176 224 273 332 414
#     4  10  23  43  64  97 135 174 226 266 333 405
#     4  12  24  41  72  98 134 174 228 275 344 393
#     4  10  23  44  69  96 133 176 222 279 334 396
#     4  10  20  36  66 102 126 156 226 280 318 372
#     4  10  24  49  66  89 140 182 223 274 344 402
#     4  11  21  39  66 100 127 173 216 280 329 393
#
# _framework density 26.357892
#
# number of rings (size 3 to 8) (size 9 to 14) (size 15 to 20)
#    0.000    1.333    4.000    1.600    0.000    5.867 
#    2.400    0.667    0.000    0.000    0.000    0.000 
#    0.000    0.000    0.000    0.000    0.000    0.000 
#
# Total GULP energy -83535.849762 kJ/mol
# GULP energy per Si atom -5569.056651 kJ/mol
# Density = 2.629790 g / cm^3
# Si number density = 26.357892 Si / 1000 Ang^3
#
#
#
# Elastic Constant Matrix: (Units=GPa)
#
#
# Indices 1 2 3 4 5 6 
#
# 1 107.6472 66.9108 50.7774 -13.4991 5.5839 -53.2084
# 2 66.9108 133.7920 66.2012 4.4413 -1.8302 -22.6711
# 3 50.7774 66.2012 85.3864 14.8726 -1.8026 -11.2295
# 4 -13.4991 4.4413 14.8726 36.2487 -10.7611 -2.3428
# 5 5.5839 -1.8302 -1.8026 -10.7611 33.5000 0.9794
# 6 -53.2084 -22.6711 -11.2295 -2.3428 0.9794 64.0996
#
#
#
# Elastic Compliance Matrix: (Units=1/GPa)
#
#
# Indices 1 2 3 4 5 6 
#
# 1 0.038923 -0.006196 -0.019003 0.024619 -0.000751 0.027700
# 2 -0.006196 0.013871 -0.007099 -0.000842 0.001183 -0.001530
# 3 -0.019003 -0.007099 0.030153 -0.019940 -0.001602 -0.013707
# 4 0.024619 -0.000842 -0.019940 0.049205 0.010049 0.018289
# 5 -0.000751 0.001183 -0.001602 0.010049 0.033200 -0.000625
# 6 0.027700 -0.001530 -0.013707 0.018289 -0.000625 0.036330
#
#
# Mechanical properties :
#
#
# Convention : Reuss Voigt Hill
#
# Bulk Modulus (GPa) = 54.49850 77.17828 65.83839
# Shear Modulus (GPa) = 18.35570 36.29872 27.32721
#
# Velocity S-wave (km/s) = 2.64181 3.71502 3.22339
# Velocity P-wave (km/s) = 5.47967 6.90987 6.23591
#
# Compressibility (1/GPa) = 0.01834913
#
# Stress axis : x y z
#
# Youngs Moduli (GPa) = 25.69178 72.09538 33.16442
#
# Poissons Ratio (x) = 0.44674 0.63024
# Poissons Ratio (y) = 0.15920 0.23542
# Poissons Ratio (z) = 0.48823 0.51178
#
# Static dielectric constant tensor:
#      x y z
#    x 1.026310 0.065890 -0.022690 
#    y 0.065890 2.095960 -0.009550 
#    z -0.022690 -0.009550 2.102640 
# 
# From -- ./inp_files/408745.got.cif
#   From: 2010.05.17/outbox.cif.g08.bks.cpg/sg2_205_cif.got.tgz:408745.got - 2010.06.03 11:33:40.
