data_PCOD9098447
_publ_section_title
;
Structure prediction by ZEFSAII (Michael W. Deem and Ramdas Pophale) SiO2 
 PCOD9098447
Probable space group: P -1
;
_chemical_formula_sum "Si O2"
_cell_formula_units_Z 14
_cell_length_a 7.742217
_cell_length_b 18.886985
_cell_length_c 14.113131
_cell_angle_alpha 20.685884
_cell_angle_beta 126.342783
_cell_angle_gamma 125.960717
_cell_volume 583.278444
_symmetry_space_group_name_H-M "P -1"
_symmetry_group_IT_number 2
_symmetry_cell_setting 'triclinic'
loop_
_space_group_symop_operation_xyz
x,y,z
-x,-y,-z
loop_
_atom_site_type_symbol
_atom_site_label
_atom_site_fract_x
_atom_site_fract_y
_atom_site_fract_z
Si Si1 0.763669 0.323154 0.377991
Si Si2 0.214175 0.548221 0.244586
Si Si3 0.192885 0.204041 0.421844
Si Si4 0.746985 0.100349 0.330857
Si Si5 0.552720 0.372795 0.048715
Si Si6 0.400033 0.679299 0.328924
Si Si7 0.595787 0.063760 0.817356
O O1 0.637011 0.301893 0.265092
O O2 0.713971 0.137269 0.667146
O O3 0.015007 0.382238 0.367096
O O4 0.661087 0.514455 0.153051
O O5 0.224464 0.593360 0.303577
O O6 0.448896 0.480990 0.382744
O O7 0.188350 0.744535 0.928642
O O8 0.346795 0.108672 0.665124
O O9 0.940146 0.134088 0.427878
O O10 0.258924 0.114387 0.453022
O O11 0.263701 0.442606 0.151609
O O12 0.546496 0.187551 0.206240
O O13 0.313316 0.799009 0.237616
O O14 0.569098 0.834369 0.128902
#
# Coordination Sequence:
#
# PCOD9098447 Si02
#       7
#     2   2   2   2   2   2   2
#     4  10  22  37  62  88 132 154 198 255 318 357
#     4  11  21  39  63  92 117 159 208 257 292 371
#     4  10  20  36  66  92 122 152 212 259 290 371
#     4  11  21  36  67  95 120 160 211 247 310 368
#     4  10  21  39  60  92 130 167 186 252 321 375
#     4  10  23  39  66  82 116 167 215 241 299 358
#     4  10  21  42  59  87 122 160 202 258 300 364
#
# _framework density 24.002258999999999
#
# number of rings (size 3 to 8) (size 9 to 14) (size 15 to 20)
#    0.000    1.714    2.857    2.143    2.000    1.143 
#    0.000    6.429   12.571    0.000    0.000    0.000 
#    0.000    0.000    0.000    0.000    0.000    0.000 
#
# Total GULP energy -78244.167661 kJ/mol
# GULP energy per Si atom -5588.869119 kJ/mol
# Density = 2.394763 g / cm^3
# Si number density = 24.002259 Si / 1000 Ang^3
#
#
#
# Elastic Constant Matrix: (Units=GPa)
#
#
# Indices 1 2 3 4 5 6 
#
# 1 40.6256 -8.0902 -0.6749 -0.0151 5.9482 -6.9054
# 2 -8.0902 57.7542 8.1228 5.6229 4.3962 -5.2404
# 3 -0.6749 8.1228 69.1314 4.2163 -10.2746 -1.5695
# 4 -0.0151 5.6229 4.2163 28.6857 -9.0929 11.2503
# 5 5.9482 4.3962 -10.2746 -9.0929 33.8296 -7.4312
# 6 -6.9054 -5.2404 -1.5695 11.2503 -7.4312 33.4136
#
#
#
# Elastic Compliance Matrix: (Units=1/GPa)
#
#
# Indices 1 2 3 4 5 6 
#
# 1 0.027795 0.005641 -0.000743 -0.005641 -0.005779 0.007208
# 2 0.005641 0.020063 -0.002488 -0.007356 -0.005116 0.005534
# 3 -0.000743 -0.002488 0.015630 -0.000753 0.005358 0.001636
# 4 -0.005641 -0.007356 -0.000753 0.045833 0.010652 -0.015418
# 5 -0.005779 -0.005116 0.005358 0.010652 0.036335 0.002750
# 6 0.007208 0.005534 0.001636 -0.015418 0.002750 0.038165
#
#
# Mechanical properties :
#
#
# Convention : Reuss Voigt Hill
#
# Bulk Modulus (GPa) = 14.63962 18.46963 16.55462
# Shear Modulus (GPa) = 24.78067 30.39603 27.58835
#
# Velocity S-wave (km/s) = 3.21663 3.56249 3.39397
# Velocity P-wave (km/s) = 4.46185 4.96321 4.71919
#
# Compressibility (1/GPa) = 0.06830780
#
# Stress axis : x y z
#
# Youngs Moduli (GPa) = 35.97739 49.84356 63.98079
#
# Poissons Ratio (x) = -0.28117 0.04751
# Poissons Ratio (y) = -0.20295 0.15921
# Poissons Ratio (z) = 0.02672 0.12403
#
# Static dielectric constant tensor:
#      x y z
#    x 1.956840 -0.026490 -0.004110 
#    y -0.026490 1.913300 -0.029590 
#    z -0.004110 -0.029590 1.887410 
# 
# From -- ./inp_files/185321.got.cif
#   From: 2010.05.17/outbox.cif.g08.bks.cpg/sg2_93_cif.got.tgz:185321.got - 2010.06.03 11:33:40.
