data_PCOD9098660
_publ_section_title
;
Structure prediction by ZEFSAII (Michael W. Deem and Ramdas Pophale) SiO2 
 PCOD9098660
Probable space group: P -1
;
_chemical_formula_sum "Si O2"
_cell_formula_units_Z 16
_cell_length_a 10.911009
_cell_length_b 13.455851
_cell_length_c 21.179338
_cell_angle_alpha 146.272448
_cell_angle_beta 146.622211
_cell_angle_gamma 33.216730
_cell_volume 840.838495
_symmetry_space_group_name_H-M "P -1"
_symmetry_group_IT_number 2
_symmetry_cell_setting 'triclinic'
loop_
_space_group_symop_operation_xyz
x,y,z
-x,-y,-z
loop_
_atom_site_type_symbol
_atom_site_label
_atom_site_fract_x
_atom_site_fract_y
_atom_site_fract_z
Si Si1 0.464946 0.850310 0.517786
Si Si2 0.378687 0.323407 0.305387
Si Si3 0.111439 0.273052 0.456520
Si Si4 0.189811 0.974601 0.822073
Si Si5 0.767817 0.951873 0.359963
Si Si6 0.798644 0.459548 0.533973
Si Si7 0.771144 0.716033 0.915091
Si Si8 0.014462 0.743876 0.236987
O O1 0.610048 0.848417 0.515958
O O2 0.675992 0.671014 0.555920
O O3 0.253795 0.782618 0.373587
O O4 0.347867 0.038412 0.615516
O O5 0.582123 0.388605 0.399895
O O6 0.190616 0.495009 0.363521
O O7 0.247660 0.279713 0.166824
O O8 0.551067 0.132560 0.321896
O O9 0.000000 0.500000 0.500000
O O10 0.044479 0.309909 0.521780
O O11 0.962394 0.152183 0.306732
O O12 0.143415 0.092096 0.797222
O O13 0.484154 0.819126 0.871053
O O14 0.115292 0.146668 0.934112
O O15 0.875150 0.775691 0.261344
O O16 0.000000 0.000000 0.500000
O O17 0.904975 0.482748 0.869608
#
# Coordination Sequence:
#
# PCOD9098660 Si02
#       8
#     2   2   2   2   2   2   2   2
#     4   9  18  30  52  78 112 139 173 226 276 324
#     4  10  16  31  52  80 109 136 178 230 274 317
#     4  10  18  35  55  81 110 147 181 224 275 329
#     4  11  23  36  55  83 112 143 186 225 274 324
#     4   9  18  29  49  82 111 137 174 231 277 316
#     4   9  16  27  52  81 107 136 174 226 271 323
#     4  11  21  36  55  83 111 147 180 227 273 328
#     4  11  19  36  56  83 110 141 183 229 279 320
#
# _framework density 19.028624000000001
#
# number of rings (size 3 to 8) (size 9 to 14) (size 15 to 20)
#    0.000    2.000    3.750    1.125    1.750    0.500 
#    0.000    0.000    0.000    7.500    0.000    0.000 
#    0.000    0.000    0.000    0.000    0.000    0.000 
#
# Total GULP energy -89158.618121 kJ/mol
# GULP energy per Si atom -5572.413633 kJ/mol
# Density = 1.898531 g / cm^3
# Si number density = 19.028624 Si / 1000 Ang^3
#
#
#
# Elastic Constant Matrix: (Units=GPa)
#
#
# Indices 1 2 3 4 5 6 
#
# 1 140.5294 39.4755 37.5049 11.1121 -19.9179 -26.6838
# 2 39.4755 70.1361 26.7518 18.8102 1.0689 2.2933
# 3 37.5049 26.7518 83.2706 27.9539 -20.5491 -4.0692
# 4 11.1121 18.8102 27.9539 24.8548 -2.1805 -6.6645
# 5 -19.9179 1.0689 -20.5491 -2.1805 27.3793 2.8597
# 6 -26.6838 2.2933 -4.0692 -6.6645 2.8597 42.1372
#
#
#
# Elastic Compliance Matrix: (Units=1/GPa)
#
#
# Indices 1 2 3 4 5 6 
#
# 1 0.012167 -0.007845 -0.003388 0.007141 0.006295 0.008507
# 2 -0.007845 0.023827 -0.000945 -0.016403 -0.007773 -0.008423
# 3 -0.003388 -0.000945 0.026989 -0.028057 0.016119 -0.005019
# 4 0.007141 -0.016403 -0.028057 0.084612 -0.010237 0.016782
# 5 0.006295 -0.007773 0.016119 -0.010237 0.052608 0.000777
# 6 0.008507 -0.008423 -0.005019 0.016782 0.000777 0.031694
#
#
# Mechanical properties :
#
#
# Convention : Reuss Voigt Hill
#
# Bulk Modulus (GPa) = 25.88769 55.71117 40.79943
# Shear Modulus (GPa) = 18.57858 31.55452 25.06655
#
# Velocity S-wave (km/s) = 3.12805 4.07660 3.63341
# Velocity P-wave (km/s) = 5.16531 7.17630 6.25219
#
# Compressibility (1/GPa) = 0.03862840
#
# Stress axis : x y z
#
# Youngs Moduli (GPa) = 82.19282 41.96949 37.05172
#
# Poissons Ratio (x) = 0.32925 0.12551
# Poissons Ratio (y) = 0.64480 0.03500
# Poissons Ratio (z) = 0.27843 0.03965
#
# Static dielectric constant tensor:
#      x y z
#    x 1.712190 -0.011700 -0.047500 
#    y -0.011700 1.730430 0.020400 
#    z -0.047500 0.020400 1.634610 
# 
# From -- ./inp_files/471771.got.cif
#   From: 2010.05.17/outbox.cif.g08.bks.cpg/sg2_236_cif.got.tgz:471771.got - 2010.06.03 11:33:40.
