data_PCOD9098768
_publ_section_title
;
Structure prediction by ZEFSAII (Michael W. Deem and Ramdas Pophale) SiO2 
 PCOD9098768
Probable space group: P -1
;
_chemical_formula_sum "Si O2"
_cell_formula_units_Z 14
_cell_length_a 6.280664
_cell_length_b 32.983486
_cell_length_c 9.755452
_cell_angle_alpha 153.673658
_cell_angle_beta 132.966876
_cell_angle_gamma 45.944670
_cell_volume 633.219601
_symmetry_space_group_name_H-M "P -1"
_symmetry_group_IT_number 2
_symmetry_cell_setting 'triclinic'
loop_
_space_group_symop_operation_xyz
x,y,z
-x,-y,-z
loop_
_atom_site_type_symbol
_atom_site_label
_atom_site_fract_x
_atom_site_fract_y
_atom_site_fract_z
Si Si1 0.247315 0.556806 0.251799
Si Si2 0.076479 0.293824 0.245789
Si Si3 0.667414 0.372129 0.779377
Si Si4 0.722551 0.953643 0.625955
Si Si5 0.672593 0.846712 0.830122
Si Si6 0.894619 0.050672 0.752350
Si Si7 0.875437 0.230678 0.678392
O O1 0.177120 0.615154 0.256433
O O2 0.206589 0.630446 0.580505
O O3 0.553573 0.476018 0.114502
O O4 0.000000 0.500000 0.000000
O O5 0.368060 0.336889 0.505154
O O6 0.164158 0.205126 0.119573
O O7 0.990503 0.268808 0.981950
O O8 0.856947 0.299544 0.751169
O O9 0.465141 0.914982 0.318989
O O10 0.902020 0.873134 0.560418
O O11 0.938602 0.979038 0.681527
O O12 0.550342 0.051473 0.918284
O O13 0.458307 0.784451 0.492708
O O14 0.927284 0.869686 0.914979
O O15 0.000000 0.000000 0.500000
#
# Coordination Sequence:
#
# PCOD9098768 Si02
#       7
#     2   2   2   2   2   2   2
#     4   9  19  42  67  85 117 158 192 242 305 364
#     4  10  21  38  61  91 123 155 199 249 298 354
#     4   9  21  42  64  88 120 155 194 244 305 365
#     4  10  20  37  57  82 122 164 203 249 297 348
#     4  10  22  39  58  86 123 164 206 247 294 352
#     4   9  18  35  58  80 113 162 206 247 296 345
#     4  11  22  38  62  93 123 158 205 252 300 356
#
# _framework density 22.109231999999999
#
# number of rings (size 3 to 8) (size 9 to 14) (size 15 to 20)
#    0.000    2.286    0.000    3.000    0.000    4.571 
#    0.000   26.429    0.000    0.000    0.000    0.000 
#    0.000    0.000    0.000    0.000    0.000    0.000 
#
# Total GULP energy -78223.171127 kJ/mol
# GULP energy per Si atom -5587.369366 kJ/mol
# Density = 2.205891 g / cm^3
# Si number density = 22.109232 Si / 1000 Ang^3
#
#
#
# Elastic Constant Matrix: (Units=GPa)
#
#
# Indices 1 2 3 4 5 6 
#
# 1 82.1450 36.5781 28.9515 9.0421 6.5226 30.6138
# 2 36.5781 147.5294 53.4140 10.7586 15.7286 30.2064
# 3 28.9515 53.4140 88.3830 0.4777 -8.5010 8.3605
# 4 9.0421 10.7586 0.4777 29.0901 8.0894 5.8931
# 5 6.5226 15.7286 -8.5010 8.0894 22.4630 3.8930
# 6 30.6138 30.2064 8.3605 5.8931 3.8930 23.8735
#
#
#
# Elastic Compliance Matrix: (Units=1/GPa)
#
#
# Indices 1 2 3 4 5 6 
#
# 1 0.027974 0.005179 -0.009578 -0.000424 -0.008714 -0.037545
# 2 0.005179 0.014152 -0.009558 0.000542 -0.011864 -0.019400
# 3 -0.009578 -0.009558 0.020235 -0.001020 0.014879 0.015115
# 4 -0.000424 0.000542 -0.001020 0.039601 -0.013632 -0.007338
# 5 -0.008714 -0.011864 0.014879 -0.013632 0.063471 0.013990
# 6 -0.037545 -0.019400 0.015115 -0.007338 0.013990 0.108816
#
#
# Mechanical properties :
#
#
# Convention : Reuss Voigt Hill
#
# Bulk Modulus (GPa) = 29.02948 61.77162 45.40055
# Shear Modulus (GPa) = 15.94156 28.35955 22.15055
#
# Velocity S-wave (km/s) = 2.68812 3.58537 3.16867
# Velocity P-wave (km/s) = 4.77422 6.71861 5.82808
#
# Compressibility (1/GPa) = 0.03444774
#
# Stress axis : x y z
#
# Youngs Moduli (GPa) = 35.74748 70.66044 49.41887
#
# Poissons Ratio (x) = -0.36597 0.47332
# Poissons Ratio (y) = -0.18514 0.47236
# Poissons Ratio (z) = 0.34238 0.67539
#
# Static dielectric constant tensor:
#      x y z
#    x 1.827670 -0.031270 -0.004430 
#    y -0.031270 1.800100 0.017600 
#    z -0.004430 0.017600 1.875130 
# 
# From -- ./inp_files/143307.got.cif
#   From: 2010.05.17/outbox.cif.g08.bks.cpg/sg2_72_cif.got.tgz:143307.got - 2010.06.03 11:33:40.
