data_PCOD9098336
_publ_section_title
;
Structure prediction by ZEFSAII (Michael W. Deem and Ramdas Pophale) SiO2 
 PCOD9098336
Probable space group: P -1
;
_chemical_formula_sum "Si O2"
_cell_formula_units_Z 16
_cell_length_a 14.235712
_cell_length_b 18.966043
_cell_length_c 8.167158
_cell_angle_alpha 87.475940
_cell_angle_beta 84.099343
_cell_angle_gamma 161.504539
_cell_volume 621.896544
_symmetry_space_group_name_H-M "P -1"
_symmetry_group_IT_number 2
_symmetry_cell_setting 'triclinic'
loop_
_space_group_symop_operation_xyz
x,y,z
-x,-y,-z
loop_
_atom_site_type_symbol
_atom_site_label
_atom_site_fract_x
_atom_site_fract_y
_atom_site_fract_z
Si Si1 0.784313 0.806485 0.917065
Si Si2 0.080080 0.245957 0.068468
Si Si3 0.401488 0.970579 0.853902
Si Si4 0.175700 0.510955 0.205447
Si Si5 0.411079 0.203507 0.208739
Si Si6 0.212473 0.333462 0.661963
Si Si7 0.891429 0.230390 0.581372
Si Si8 0.207138 0.644411 0.773142
O O1 0.401128 0.513099 0.067379
O O2 0.712472 0.805080 0.773526
O O3 0.970380 0.866845 0.831851
O O4 0.000000 0.000000 0.000000
O O5 0.216313 0.326242 0.855182
O O6 0.762441 0.069148 0.116825
O O7 0.099321 0.711657 0.853835
O O8 0.721365 0.182232 0.667012
O O9 0.500000 0.000000 0.000000
O O10 0.119977 0.415624 0.368840
O O11 0.057316 0.504590 0.277081
O O12 0.493789 0.740107 0.007858
O O13 0.691787 0.365655 0.250027
O O14 0.099559 0.932344 0.323631
O O15 0.500000 0.500000 0.500000
O O16 0.130690 0.356982 0.642849
O O17 0.555731 0.939243 0.656997
O O18 0.000000 0.500000 0.000000
#
# Coordination Sequence:
#
# PCOD9098336 Si02
#       8
#     2   2   2   2   2   2   2   2
#     4  11  23  41  71 102 136 182 247 294 352 425
#     4  11  24  42  68 107 141 188 241 294 358 437
#     4  11  20  37  65 101 143 184 233 288 357 432
#     4  10  20  36  65 103 135 182 241 288 356 427
#     4  10  20  39  65  96 133 183 230 291 351 425
#     4  11  24  42  68 103 142 188 244 293 366 440
#     4  10  21  36  64 104 136 185 240 297 354 425
#     4   8  16  31  54  91 131 172 226 278 343 419
#
# _framework density 25.727751999999999
#
# number of rings (size 3 to 8) (size 9 to 14) (size 15 to 20)
#    0.000    1.750    3.750    1.500    1.750    0.000 
#    0.000    0.625    0.000    0.750    9.750    0.000 
#    0.000    0.000    0.000    0.000    0.000    0.000 
#
# Total GULP energy -89132.170765 kJ/mol
# GULP energy per Si atom -5570.760673 kJ/mol
# Density = 2.566919 g / cm^3
# Si number density = 25.727752 Si / 1000 Ang^3
#
#
#
# Elastic Constant Matrix: (Units=GPa)
#
#
# Indices 1 2 3 4 5 6 
#
# 1 229.9336 32.3333 25.4115 -6.5791 2.5632 35.1052
# 2 32.3333 103.8670 -0.5286 -12.6739 -7.8793 10.6650
# 3 25.4115 -0.5286 64.7260 -26.1935 -6.1491 15.8931
# 4 -6.5791 -12.6739 -26.1935 25.4519 8.7313 -1.3611
# 5 2.5632 -7.8793 -6.1491 8.7313 46.8278 -1.1680
# 6 35.1052 10.6650 15.8931 -1.3611 -1.1680 45.7879
#
#
#
# Elastic Compliance Matrix: (Units=1/GPa)
#
#
# Indices 1 2 3 4 5 6 
#
# 1 0.005206 -0.001529 -0.001911 -0.001331 -0.000621 -0.003028
# 2 -0.001529 0.011963 0.006325 0.011658 0.000668 -0.003446
# 3 -0.001911 0.006325 0.033925 0.037562 -0.001647 -0.010710
# 4 -0.001331 0.011658 0.037562 0.085958 -0.009370 -0.012417
# 5 -0.000621 0.000668 -0.001647 -0.009370 0.023062 0.001202
# 6 -0.003028 -0.003446 -0.010710 -0.012417 0.001202 0.028343
#
#
# Mechanical properties :
#
#
# Convention : Reuss Voigt Hill
#
# Bulk Modulus (GPa) = 17.58513 56.99544 37.29028
# Shear Modulus (GPa) = 24.79658 46.36754 35.58206
#
# Velocity S-wave (km/s) = 3.10789 4.24988 3.72294
# Velocity P-wave (km/s) = 4.44169 6.80319 5.74508
#
# Compressibility (1/GPa) = 0.05686624
#
# Stress axis : x y z
#
# Youngs Moduli (GPa) = 192.07349 83.59187 29.47650
#
# Poissons Ratio (x) = 0.12781 0.05632
# Poissons Ratio (y) = 0.29368 -0.18645
# Poissons Ratio (z) = 0.36697 -0.52876
#
# Static dielectric constant tensor:
#      x y z
#    x 2.283680 -0.055800 -0.006080 
#    y -0.055800 2.091670 0.005900 
#    z -0.006080 0.005900 2.018750 
# 
# From -- ./inp_files/319354.got.cif
#   From: 2010.05.17/outbox.cif.g08.bks.cpg/sg2_160_cif.got.tgz:319354.got - 2010.06.03 11:33:40.
