data_PCOD9098914
_publ_section_title
;
Structure prediction by ZEFSAII (Michael W. Deem and Ramdas Pophale) SiO2 
 PCOD9098914
Probable space group: P -1
;
_chemical_formula_sum "Si O2"
_cell_formula_units_Z 16
_cell_length_a 13.698989
_cell_length_b 10.077596
_cell_length_c 8.441238
_cell_angle_alpha 73.838445
_cell_angle_beta 80.416785
_cell_angle_gamma 134.213375
_cell_volume 683.395979
_symmetry_space_group_name_H-M "P -1"
_symmetry_group_IT_number 2
_symmetry_cell_setting 'triclinic'
loop_
_space_group_symop_operation_xyz
x,y,z
-x,-y,-z
loop_
_atom_site_type_symbol
_atom_site_label
_atom_site_fract_x
_atom_site_fract_y
_atom_site_fract_z
Si Si1 0.356916 0.444822 0.106288
Si Si2 0.061213 0.718257 0.466860
Si Si3 0.461016 0.566574 0.356768
Si Si4 0.786113 0.816226 0.070397
Si Si5 0.898337 0.683812 0.257871
Si Si6 0.601518 0.953019 0.866919
Si Si7 0.865326 0.347715 0.221510
Si Si8 0.449748 0.041181 0.761472
O O1 0.223639 0.270704 0.069189
O O2 0.439484 0.685401 0.992233
O O3 0.500000 0.500000 0.000000
O O4 0.329061 0.388294 0.318793
O O5 0.084261 0.717302 0.646559
O O6 0.000000 0.500000 0.500000
O O7 0.942362 0.697808 0.424438
O O8 0.235999 0.939042 0.271326
O O9 0.500000 0.500000 0.500000
O O10 0.631690 0.743255 0.157988
O O11 0.451444 0.711100 0.371730
O O12 0.788917 0.696002 0.239917
O O13 0.938334 0.081275 0.946725
O O14 0.855579 0.489603 0.256601
O O15 0.569410 0.044460 0.727027
O O16 0.618872 0.028674 0.016005
O O17 0.694886 0.128167 0.263293
O O18 0.000000 0.500000 0.000000
#
# Coordination Sequence:
#
# PCOD9098914 Si02
#       8
#     2   2   2   2   2   2   2   2
#     4   9  18  34  57  80 109 148 186 228 276 331
#     4  10  21  36  56  80 112 151 189 231 279 339
#     4  10  21  35  54  83 115 146 181 230 288 341
#     4  10  20  37  59  80 110 148 190 233 276 336
#     4  10  21  38  58  81 109 148 192 232 278 337
#     4  10  20  37  58  85 114 146 192 236 284 339
#     4  11  22  37  58  83 115 151 188 233 289 342
#     4  10  21  36  58  84 116 149 183 239 291 333
#
# _framework density 23.412489000000001
#
# number of rings (size 3 to 8) (size 9 to 14) (size 15 to 20)
#    0.000    2.000    0.000    5.250    0.000    5.500 
#    0.000    2.500    0.000    3.750    0.000    0.000 
#    0.000    0.000    0.000    0.000    0.000    0.000 
#
# Total GULP energy -89358.967528 kJ/mol
# GULP energy per Si atom -5584.935471 kJ/mol
# Density = 2.335920 g / cm^3
# Si number density = 23.412489 Si / 1000 Ang^3
#
#
#
# Elastic Constant Matrix: (Units=GPa)
#
#
# Indices 1 2 3 4 5 6 
#
# 1 94.8327 8.7855 5.7086 19.3802 32.2907 4.4359
# 2 8.7855 104.4262 21.1337 21.0541 20.8900 5.5346
# 3 5.7086 21.1337 91.5032 15.1869 30.8124 5.7975
# 4 19.3802 21.0541 15.1869 25.6624 11.6467 9.5246
# 5 32.2907 20.8900 30.8124 11.6467 51.0991 -0.2974
# 6 4.4359 5.5346 5.7975 9.5246 -0.2974 28.3136
#
#
#
# Elastic Compliance Matrix: (Units=1/GPa)
#
#
# Indices 1 2 3 4 5 6 
#
# 1 0.016199 0.002348 0.004080 -0.011547 -0.011025 -0.000064
# 2 0.002348 0.012220 0.000102 -0.010166 -0.004221 0.000598
# 3 0.004080 0.000102 0.015384 -0.007013 -0.010307 -0.001558
# 4 -0.011547 -0.010166 -0.007013 0.066298 0.000471 -0.017065
# 5 -0.011025 -0.004221 -0.010307 0.000471 0.034398 0.004866
# 6 -0.000064 0.000598 -0.001558 -0.017065 0.004866 0.041323
#
#
# Mechanical properties :
#
#
# Convention : Reuss Voigt Hill
#
# Bulk Modulus (GPa) = 17.58601 40.22416 28.90508
# Shear Modulus (GPa) = 26.08027 38.02399 32.05213
#
# Velocity S-wave (km/s) = 3.34121 4.03437 3.70404
# Velocity P-wave (km/s) = 4.73419 6.23855 5.53769
#
# Compressibility (1/GPa) = 0.05686340
#
# Stress axis : x y z
#
# Youngs Moduli (GPa) = 61.73383 81.83140 65.00288
#
# Poissons Ratio (x) = -0.19218 -0.26522
# Poissons Ratio (y) = -0.14498 -0.00661
# Poissons Ratio (z) = -0.25188 -0.00832
#
# Static dielectric constant tensor:
#      x y z
#    x 1.904030 0.010490 -0.024620 
#    y 0.010490 1.880910 0.012020 
#    z -0.024620 0.012020 2.002850 
# 
# From -- ./inp_files/251864.got.cif
#   From: 2010.05.17/outbox.cif.g08.bks.cpg/sg2_126_cif.got.tgz:251864.got - 2010.06.03 11:33:40.
