data_PCOD9098805
_publ_section_title
;
Structure prediction by ZEFSAII (Michael W. Deem and Ramdas Pophale) SiO2 
 PCOD9098805
Probable space group: P -1
;
_chemical_formula_sum "Si O2"
_cell_formula_units_Z 15
_cell_length_a 5.002080
_cell_length_b 22.450201
_cell_length_c 4.963594
_cell_angle_alpha 82.822738
_cell_angle_beta 95.518353
_cell_angle_gamma 75.133674
_cell_volume 529.721392
_symmetry_space_group_name_H-M "P -1"
_symmetry_group_IT_number 2
_symmetry_cell_setting 'triclinic'
loop_
_space_group_symop_operation_xyz
x,y,z
-x,-y,-z
loop_
_atom_site_type_symbol
_atom_site_label
_atom_site_fract_x
_atom_site_fract_y
_atom_site_fract_z
Si Si1 0.210265 0.284902 0.504946
Si Si2 0.513819 0.677595 0.963307
Si Si3 0.445556 0.841523 0.477810
Si Si4 0.087836 0.785269 0.070827
Si Si5 0.974887 0.911038 0.807642
Si Si6 0.000000 0.500000 0.500000
Si Si7 0.405263 0.554403 0.181266
Si Si8 0.641958 0.035730 0.784778
O O1 0.371191 0.311603 0.739774
O O2 0.329299 0.220688 0.381792
O O3 0.004694 0.259916 0.699284
O O4 0.248187 0.330138 0.236641
O O5 0.248494 0.739503 0.875132
O O6 0.388570 0.618915 0.994393
O O7 0.318178 0.812080 0.231805
O O8 0.559518 0.900131 0.380985
O O9 0.204651 0.874776 0.640107
O O10 0.869282 0.852612 0.940714
O O11 0.787669 0.977637 0.641415
O O12 0.131736 0.936971 0.051352
O O13 0.673491 0.541493 0.410542
O O14 0.878521 0.450389 0.702468
O O15 0.500000 0.500000 0.000000
O O16 0.500000 0.000000 0.000000
#
# Coordination Sequence:
#
# PCOD9098805 Si02
#       8
#     2   2   2   2   2   1   2   2
#     4  11  25  44  69 101 140 191 239 302 372 443
#     4  11  27  44  71 109 144 188 250 300 367 455
#     4  10  21  39  59  89 127 173 234 294 358 442
#     4  10  23  42  64  94 135 182 230 303 364 439
#     4  10  20  37  57  86 128 165 230 292 355 437
#     4  10  26  50  78 116 158 208 258 320 386 460
#     4  11  26  50  81 117 162 209 263 322 388 465
#     4  10  21  34  55  86 121 170 225 287 365 430
#
# _framework density 28.316775
#
# number of rings (size 3 to 8) (size 9 to 14) (size 15 to 20)
#    0.000    1.600    1.333    1.600    7.467    1.600 
#    0.000    0.000    0.000    0.000    0.000    0.000 
#    0.000    0.000    0.000    0.000    0.000    0.000 
#
# Total GULP energy -83518.981144 kJ/mol
# GULP energy per Si atom -5567.932076 kJ/mol
# Density = 2.825232 g / cm^3
# Si number density = 28.316775 Si / 1000 Ang^3
#
#
#
# Elastic Constant Matrix: (Units=GPa)
#
#
# Indices 1 2 3 4 5 6 
#
# 1 134.6173 45.0105 33.4042 -12.2392 -44.3756 24.3713
# 2 45.0105 179.8832 35.4247 -3.6315 -5.1661 39.4086
# 3 33.4042 35.4247 104.0505 -6.7984 -29.5118 12.2136
# 4 -12.2392 -3.6315 -6.7984 47.6870 7.3821 -14.7127
# 5 -44.3756 -5.1661 -29.5118 7.3821 47.8751 -12.4289
# 6 24.3713 39.4086 12.2136 -14.7127 -12.4289 53.3590
#
#
#
# Elastic Compliance Matrix: (Units=1/GPa)
#
#
# Indices 1 2 3 4 5 6 
#
# 1 0.011945 -0.002497 0.000171 0.000985 0.010514 -0.000930
# 2 -0.002497 0.007690 -0.002466 -0.001407 -0.004173 -0.005334
# 3 0.000171 -0.002466 0.012533 0.000715 0.007735 0.000873
# 4 0.000985 -0.001407 0.000715 0.023394 -0.000660 0.006722
# 5 0.010514 -0.004173 0.007735 -0.000660 0.036294 0.004781
# 6 -0.000930 -0.005334 0.000873 0.006722 0.004781 0.025873
#
#
# Mechanical properties :
#
#
# Convention : Reuss Voigt Hill
#
# Bulk Modulus (GPa) = 44.27718 71.80331 58.04025
# Shear Modulus (GPa) = 37.08096 50.09835 43.58966
#
# Velocity S-wave (km/s) = 3.62263 4.21076 3.92772
# Velocity P-wave (km/s) = 5.75919 7.00378 6.41175
#
# Compressibility (1/GPa) = 0.02258500
#
# Stress axis : x y z
#
# Youngs Moduli (GPa) = 83.71837 130.04009 79.78726
#
# Poissons Ratio (x) = 0.32470 -0.01365
# Poissons Ratio (y) = 0.20904 0.19673
# Poissons Ratio (z) = -0.01432 0.32064
#
# Static dielectric constant tensor:
#      x y z
#    x 2.656850 -0.295420 0.320000 
#    y -0.295420 2.386240 -0.329700 
#    z 0.320000 -0.329700 2.564900 
# 
# From -- ./inp_files/10687.got.cif
#   From: 2010.05.17/outbox.cif.g08.bks.cpg/sg2_6_cif.got.tgz:10687.got - 2010.06.03 11:33:40.
