data_PCOD9098421
_publ_section_title
;
Structure prediction by ZEFSAII (Michael W. Deem and Ramdas Pophale) SiO2 
 PCOD9098421
Probable space group: P -1
;
_chemical_formula_sum "Si O2"
_cell_formula_units_Z 14
_cell_length_a 9.526177
_cell_length_b 8.460689
_cell_length_c 13.776195
_cell_angle_alpha 134.986609
_cell_angle_beta 53.861723
_cell_angle_gamma 122.133081
_cell_volume 621.229712
_symmetry_space_group_name_H-M "P -1"
_symmetry_group_IT_number 2
_symmetry_cell_setting 'triclinic'
loop_
_space_group_symop_operation_xyz
x,y,z
-x,-y,-z
loop_
_atom_site_type_symbol
_atom_site_label
_atom_site_fract_x
_atom_site_fract_y
_atom_site_fract_z
Si Si1 0.148549 0.135118 0.426828
Si Si2 0.029830 0.187460 0.284208
Si Si3 0.477072 0.946265 0.240342
Si Si4 0.177463 0.200692 0.036661
Si Si5 0.506292 0.746919 0.343402
Si Si6 0.310730 0.613737 0.548292
Si Si7 0.120324 0.331532 0.913038
O O1 0.072602 0.209405 0.388997
O O2 0.295895 0.982668 0.282141
O O3 0.244044 0.383414 0.535392
O O4 0.000000 0.000000 0.500000
O O5 0.852706 0.274635 0.369318
O O6 0.162706 0.293464 0.190728
O O7 0.997705 0.918820 0.161782
O O8 0.564817 0.193457 0.356443
O O9 0.636545 0.881256 0.085270
O O10 0.439098 0.773719 0.272771
O O11 0.170673 0.368831 0.022200
O O12 0.000000 0.000000 0.000000
O O13 0.404992 0.577584 0.392289
O O14 0.699818 0.687164 0.225247
O O15 0.500000 0.000000 0.500000
O O16 0.000000 0.500000 0.000000
#
# Coordination Sequence:
#
# PCOD9098421 Si02
#       7
#     2   2   2   2   2   2   2
#     4  12  28  40  60  99 139 168 220 284 336 382
#     4  11  22  42  61  94 136 176 209 277 336 396
#     4  10  20  41  67  96 125 173 221 270 321 400
#     4   9  18  39  65  90 127 173 215 264 326 393
#     4   9  17  37  66  91 127 163 219 270 323 384
#     4  11  21  41  69  90 126 183 221 266 331 397
#     4  10  20  36  66 102 127 166 223 275 320 391
#
# _framework density 22.535948000000001
#
# number of rings (size 3 to 8) (size 9 to 14) (size 15 to 20)
#    0.000    1.714    5.714    1.714    2.000    4.000 
#    0.000    0.000    0.000    4.286    0.000    0.000 
#    0.000    0.000    0.000    0.000    0.000    0.000 
#
# Total GULP energy -78135.719821 kJ/mol
# GULP energy per Si atom -5581.122844 kJ/mol
# Density = 2.248466 g / cm^3
# Si number density = 22.535948 Si / 1000 Ang^3
#
#
#
# Elastic Constant Matrix: (Units=GPa)
#
#
# Indices 1 2 3 4 5 6 
#
# 1 88.0830 14.8589 46.0918 0.0155 -33.6992 -18.0304
# 2 14.8589 120.8658 39.4932 -13.4352 -11.0645 -1.3142
# 3 46.0918 39.4932 93.8605 -24.1202 -21.7033 -15.5420
# 4 0.0155 -13.4352 -24.1202 36.4142 -9.0005 -5.5499
# 5 -33.6992 -11.0645 -21.7033 -9.0005 48.7017 8.9496
# 6 -18.0304 -1.3142 -15.5420 -5.5499 8.9496 16.8533
#
#
#
# Elastic Compliance Matrix: (Units=1/GPa)
#
#
# Indices 1 2 3 4 5 6 
#
# 1 0.020399 0.000505 -0.006143 0.000157 0.009458 0.011227
# 2 0.000505 0.009822 -0.004560 0.000389 0.001252 -0.003436
# 3 -0.006143 -0.004560 0.025211 0.019473 0.005950 0.019575
# 4 0.000157 0.000389 0.019473 0.047784 0.012719 0.027138
# 5 0.009458 0.001252 0.005950 0.012719 0.031813 0.002998
# 6 0.011227 -0.003436 0.019575 0.027138 0.002998 0.096475
#
#
# Mechanical properties :
#
#
# Convention : Reuss Voigt Hill
#
# Bulk Modulus (GPa) = 28.54307 55.96635 42.25471
# Shear Modulus (GPa) = 18.96952 33.88488 26.42720
#
# Velocity S-wave (km/s) = 2.90443 3.88183 3.42814
# Velocity P-wave (km/s) = 4.89292 6.70668 5.87028
#
# Compressibility (1/GPa) = 0.03503477
#
# Stress axis : x y z
#
# Youngs Moduli (GPa) = 49.02183 101.81090 39.66514
#
# Poissons Ratio (x) = -0.05141 0.24367
# Poissons Ratio (y) = -0.02475 0.18089
# Poissons Ratio (z) = 0.30115 0.46430
#
# Static dielectric constant tensor:
#      x y z
#    x 1.929720 0.071570 0.015540 
#    y 0.071570 1.906270 -0.033760 
#    z 0.015540 -0.033760 1.915250 
# 
# From -- ./inp_files/237445.got.cif
#   From: 2010.05.17/outbox.cif.g08.bks.cpg/sg2_119_cif.got.tgz:237445.got - 2010.06.03 11:33:40.
