data_PCOD9098760
_publ_section_title
;
Structure prediction by ZEFSAII (Michael W. Deem and Ramdas Pophale) SiO2 
 PCOD9098760
Probable space group: P -1
;
_chemical_formula_sum "Si O2"
_cell_formula_units_Z 16
_cell_length_a 8.547957
_cell_length_b 18.003063
_cell_length_c 10.392410
_cell_angle_alpha 140.530723
_cell_angle_beta 43.306466
_cell_angle_gamma 131.729133
_cell_volume 677.220775
_symmetry_space_group_name_H-M "P -1"
_symmetry_group_IT_number 2
_symmetry_cell_setting 'triclinic'
loop_
_space_group_symop_operation_xyz
x,y,z
-x,-y,-z
loop_
_atom_site_type_symbol
_atom_site_label
_atom_site_fract_x
_atom_site_fract_y
_atom_site_fract_z
Si Si1 0.889896 0.353208 0.468376
Si Si2 0.294106 0.569119 0.550329
Si Si3 0.058580 0.671851 0.309937
Si Si4 0.330800 0.580426 0.818364
Si Si5 0.675908 0.953729 0.024457
Si Si6 0.709588 0.921564 0.455363
Si Si7 0.825844 0.864142 0.573226
Si Si8 0.840930 0.838350 0.004799
O O1 0.685380 0.356471 0.493739
O O2 0.844909 0.297024 0.562412
O O3 0.026529 0.490568 0.600090
O O4 0.064821 0.281594 0.202301
O O5 0.350670 0.639568 0.744388
O O6 0.452044 0.472391 0.338787
O O7 0.877182 0.540730 0.238875
O O8 0.917102 0.762464 0.457673
O O9 0.262257 0.662020 0.077148
O O10 0.487659 0.014486 0.286984
O O11 0.920031 0.055366 0.003244
O O12 0.640375 0.903790 0.833245
O O13 0.716061 0.851422 0.962140
O O14 0.745079 0.836342 0.438089
O O15 0.685177 0.858722 0.246871
O O16 0.947098 0.025278 0.432331
#
# Coordination Sequence:
#
# PCOD9098760 Si02
#       8
#     2   2   2   2   2   2   2   2
#     4  10  20  37  57  82 114 147 179 233 282 330
#     4   9  20  38  58  83 111 142 188 228 277 337
#     4  10  20  37  58  79 115 147 180 232 285 326
#     4   9  20  38  58  82 110 145 184 231 277 334
#     4  10  20  39  57  78 118 147 184 235 278 330
#     4  10  22  37  57  84 113 149 190 230 279 332
#     4  10  21  38  57  85 112 147 191 233 275 333
#     4  10  21  36  57  83 114 148 185 230 280 334
#
# _framework density 23.625972999999998
#
# number of rings (size 3 to 8) (size 9 to 14) (size 15 to 20)
#    0.000    2.250    1.250    0.750    1.750    2.500 
#    4.500    0.000    0.000    0.000    0.000    0.000 
#    0.000    0.000    0.000    0.000    0.000    0.000 
#
# Total GULP energy -89349.777435 kJ/mol
# GULP energy per Si atom -5584.361090 kJ/mol
# Density = 2.357220 g / cm^3
# Si number density = 23.625973 Si / 1000 Ang^3
#
#
#
# Elastic Constant Matrix: (Units=GPa)
#
#
# Indices 1 2 3 4 5 6 
#
# 1 85.7958 46.9523 39.6564 -21.1339 12.0289 -43.6241
# 2 46.9523 90.2426 28.5408 -11.4780 10.4262 -12.8386
# 3 39.6564 28.5408 164.5816 -36.5036 8.9462 -33.0178
# 4 -21.1339 -11.4780 -36.5036 25.1474 -2.3758 0.1756
# 5 12.0289 10.4262 8.9462 -2.3758 28.5661 -4.8857
# 6 -43.6241 -12.8386 -33.0178 0.1756 -4.8857 54.0874
#
#
#
# Elastic Compliance Matrix: (Units=1/GPa)
#
#
# Indices 1 2 3 4 5 6 
#
# 1 0.050549 -0.016489 0.010509 0.049234 -0.007202 0.042462
# 2 -0.016489 0.017963 -0.003896 -0.011357 -0.001303 -0.011494
# 3 0.010509 -0.003896 0.013129 0.025783 -0.002359 0.015270
# 4 0.049234 -0.011357 0.025783 0.112413 -0.006452 0.051805
# 5 -0.007202 -0.001303 -0.002359 -0.006452 0.038015 -0.004104
# 6 0.042462 -0.011494 0.015270 0.051805 -0.004104 0.058790
#
#
# Mechanical properties :
#
#
# Convention : Reuss Voigt Hill
#
# Bulk Modulus (GPa) = 16.15752 63.43546 39.79649
# Shear Modulus (GPa) = 15.09469 36.59155 25.84312
#
# Velocity S-wave (km/s) = 2.53039 3.93973 3.31092
# Velocity P-wave (km/s) = 3.92313 6.89953 5.61224
#
# Compressibility (1/GPa) = 0.06189070
#
# Stress axis : x y z
#
# Youngs Moduli (GPa) = 19.78262 55.66903 76.16437
#
# Poissons Ratio (x) = 0.91793 -0.80043
# Poissons Ratio (y) = 0.32620 0.29674
# Poissons Ratio (z) = -0.20790 0.21689
#
# Static dielectric constant tensor:
#      x y z
#    x 1.925340 0.014440 0.016580 
#    y 0.014440 1.937380 -0.031200 
#    z 0.016580 -0.031200 1.871530 
# 
# From -- ./inp_files/208159.got.cif
#   From: 2010.05.17/outbox.cif.g08.bks.cpg/sg2_105_cif.got.tgz:208159.got - 2010.06.03 11:33:40.
