data_PCOD9098283
_publ_section_title
;
Structure prediction by ZEFSAII (Michael W. Deem and Ramdas Pophale) SiO2 
 PCOD9098283
Probable space group: P -1
;
_chemical_formula_sum "Si O2"
_cell_formula_units_Z 16
_cell_length_a 16.776406
_cell_length_b 12.109045
_cell_length_c 9.648697
_cell_angle_alpha 43.510290
_cell_angle_beta 138.893281
_cell_angle_gamma 142.455625
_cell_volume 744.256161
_symmetry_space_group_name_H-M "P -1"
_symmetry_group_IT_number 2
_symmetry_cell_setting 'triclinic'
loop_
_space_group_symop_operation_xyz
x,y,z
-x,-y,-z
loop_
_atom_site_type_symbol
_atom_site_label
_atom_site_fract_x
_atom_site_fract_y
_atom_site_fract_z
Si Si1 0.063056 0.274308 0.865545
Si Si2 0.687626 0.332336 0.190064
Si Si3 0.559986 0.723508 0.908260
Si Si4 0.904426 0.745675 0.745487
Si Si5 0.206554 0.022050 0.776018
Si Si6 0.644757 0.971728 0.303537
Si Si7 0.394625 0.578063 0.278684
Si Si8 0.228030 0.078843 0.233679
O O1 0.148240 0.493398 0.731657
O O2 0.071823 0.241827 0.069798
O O3 0.147105 0.184508 0.988119
O O4 0.894955 0.144645 0.730599
O O5 0.579777 0.276800 0.226582
O O6 0.669971 0.150251 0.259117
O O7 0.635924 0.424253 0.922553
O O8 0.638229 0.844776 0.762872
O O9 0.500000 0.500000 0.000000
O O10 0.682950 0.834001 0.090708
O O11 0.856750 0.873881 0.489068
O O12 0.755535 0.537797 0.729430
O O13 0.065046 0.826270 0.824183
O O14 0.292132 0.982566 0.809337
O O15 0.481098 0.797225 0.238132
O O16 0.719429 0.886308 0.571686
O O17 0.500000 0.500000 0.500000
#
# Coordination Sequence:
#
# PCOD9098283 Si02
#       8
#     2   2   2   2   2   2   2   2
#     4  10  20  41  62  95 123 167 215 256 316 375
#     4  11  24  41  65  92 130 168 210 258 326 380
#     4  12  24  40  64  96 126 164 213 266 314 371
#     4  10  20  36  64  95 122 160 213 269 297 366
#     4  11  22  39  64  97 126 157 216 263 312 369
#     4  12  24  41  65  94 131 169 206 262 326 380
#     4  11  20  39  66  95 121 162 215 261 304 368
#     4  11  23  39  66  90 129 168 210 265 312 373
#
# _framework density 21.497973999999999
#
# number of rings (size 3 to 8) (size 9 to 14) (size 15 to 20)
#    0.000    1.000    6.250    1.125    1.750    1.000 
#    0.000    3.750    0.000    0.000    0.000    0.000 
#    0.000    0.000    0.000    0.000    0.000    0.000 
#
# Total GULP energy -89251.176185 kJ/mol
# GULP energy per Si atom -5578.198512 kJ/mol
# Density = 2.144904 g / cm^3
# Si number density = 21.497974 Si / 1000 Ang^3
#
#
#
# Elastic Constant Matrix: (Units=GPa)
#
#
# Indices 1 2 3 4 5 6 
#
# 1 131.1831 96.2713 16.7224 -10.3143 -16.1154 22.3518
# 2 96.2713 198.5214 3.7211 4.0841 2.4866 36.4341
# 3 16.7224 3.7211 41.1213 12.4245 -1.5707 9.5849
# 4 -10.3143 4.0841 12.4245 27.1463 -3.2694 -1.2329
# 5 -16.1154 2.4866 -1.5707 -3.2694 23.8232 -8.3299
# 6 22.3518 36.4341 9.5849 -1.2329 -8.3299 43.7309
#
#
#
# Elastic Compliance Matrix: (Units=1/GPa)
#
#
# Indices 1 2 3 4 5 6 
#
# 1 0.020311 -0.011311 -0.013389 0.018064 0.018626 0.006034
# 2 -0.011311 0.012518 0.008880 -0.012287 -0.013376 -0.009488
# 3 -0.013389 0.008880 0.039537 -0.026987 -0.015611 -0.012955
# 4 0.018064 -0.012287 -0.026987 0.061501 0.024843 0.013385
# 5 0.018626 -0.013376 -0.015611 0.024843 0.064668 0.018064
# 6 0.006034 -0.009488 -0.012955 0.013385 0.018064 0.034346
#
#
# Mechanical properties :
#
#
# Convention : Reuss Voigt Hill
#
# Bulk Modulus (GPa) = 24.55457 67.13950 45.84704
# Shear Modulus (GPa) = 17.97948 35.88083 26.93016
#
# Velocity S-wave (km/s) = 2.89508 4.08981 3.54317
# Velocity P-wave (km/s) = 4.75625 7.32124 6.17343
#
# Compressibility (1/GPa) = 0.04072562
#
# Stress axis : x y z
#
# Youngs Moduli (GPa) = 49.23515 79.88747 25.29289
#
# Poissons Ratio (x) = 0.90360 0.33865
# Poissons Ratio (y) = 0.55689 -0.22460
# Poissons Ratio (z) = 0.65921 -0.70941
#
# Static dielectric constant tensor:
#      x y z
#    x 1.781880 0.003670 0.026080 
#    y 0.003670 1.855630 0.030100 
#    z 0.026080 0.030100 1.831340 
# 
# From -- ./inp_files/272233.got.cif
#   From: 2010.05.17/outbox.cif.g08.bks.cpg/sg2_137_cif.got.tgz:272233.got - 2010.06.03 11:33:40.
