data_PCOD9098920
_publ_section_title
;
Structure prediction by ZEFSAII (Michael W. Deem and Ramdas Pophale) SiO2 
 PCOD9098920
Probable space group: P -1
;
_chemical_formula_sum "Si O2"
_cell_formula_units_Z 14
_cell_length_a 7.295079
_cell_length_b 12.126885
_cell_length_c 12.072792
_cell_angle_alpha 133.693360
_cell_angle_beta 70.450338
_cell_angle_gamma 126.700604
_cell_volume 613.498205
_symmetry_space_group_name_H-M "P -1"
_symmetry_group_IT_number 2
_symmetry_cell_setting 'triclinic'
loop_
_space_group_symop_operation_xyz
x,y,z
-x,-y,-z
loop_
_atom_site_type_symbol
_atom_site_label
_atom_site_fract_x
_atom_site_fract_y
_atom_site_fract_z
Si Si1 0.799883 0.825213 0.487668
Si Si2 0.479906 0.938687 0.585804
Si Si3 0.840479 0.225648 0.897116
Si Si4 0.737595 0.535629 0.154009
Si Si5 0.619217 0.866895 0.779633
Si Si6 0.277181 0.252326 0.104402
Si Si7 0.180736 0.866318 0.781597
O O1 0.808579 0.654735 0.333069
O O2 0.763345 0.841777 0.636382
O O3 0.561998 0.798958 0.472812
O O4 0.000000 0.000000 0.500000
O O5 0.667665 0.102723 0.744515
O O6 0.500000 0.000000 0.500000
O O7 0.231647 0.860117 0.636983
O O8 0.103000 0.319852 0.870991
O O9 0.772435 0.085371 0.913337
O O10 0.799431 0.383862 0.040039
O O11 0.463965 0.423781 0.116485
O O12 0.603274 0.756960 0.812871
O O13 0.373899 0.833975 0.770852
O O14 0.062385 0.257902 0.196332
O O15 0.219543 0.065543 0.929067
#
# Coordination Sequence:
#
# PCOD9098920 Si02
#       7
#     2   2   2   2   2   2   2
#     4  10  20  37  58  85 117 155 200 244 298 360
#     4  10  20  38  62  83 118 165 197 244 301 364
#     4   9  20  36  60  89 121 150 207 254 289 353
#     4  11  19  36  60  91 121 152 199 262 292 343
#     4  10  20  39  61  87 114 167 199 236 307 362
#     4  11  21  35  67  85 123 162 198 245 300 368
#     4   9  21  38  54  92 121 156 202 241 297 366
#
# _framework density 22.819952000000001
#
# number of rings (size 3 to 8) (size 9 to 14) (size 15 to 20)
#    0.000    2.286    5.714    0.429    2.000    0.571 
#    0.000    5.000    3.143    0.000    0.000    0.000 
#    0.000    0.000    0.000    0.000    0.000    0.000 
#
# Total GULP energy -78039.329515 kJ/mol
# GULP energy per Si atom -5574.237823 kJ/mol
# Density = 2.276801 g / cm^3
# Si number density = 22.819952 Si / 1000 Ang^3
#
#
#
# Elastic Constant Matrix: (Units=GPa)
#
#
# Indices 1 2 3 4 5 6 
#
# 1 75.5145 37.2607 13.0801 -16.8006 -18.2648 20.3547
# 2 37.2607 84.6497 9.2196 -15.8528 -5.9909 42.1035
# 3 13.0801 9.2196 98.6168 -6.4308 -20.5709 3.3999
# 4 -16.8006 -15.8528 -6.4308 44.0002 5.1525 -9.0327
# 5 -18.2648 -5.9909 -20.5709 5.1525 24.2913 -16.6393
# 6 20.3547 42.1035 3.3999 -9.0327 -16.6393 47.0389
#
#
#
# Elastic Compliance Matrix: (Units=1/GPa)
#
#
# Indices 1 2 3 4 5 6 
#
# 1 0.022801 -0.013288 0.002842 0.003849 0.022716 0.010597
# 2 -0.013288 0.034031 -0.006657 0.002761 -0.031748 -0.034930
# 3 0.002842 -0.006657 0.014182 0.000666 0.019782 0.010829
# 4 0.003849 0.002761 0.000666 0.025480 -0.001030 0.000343
# 5 0.022716 -0.031748 0.019782 -0.001030 0.104271 0.053844
# 6 0.010597 -0.034930 0.010829 0.000343 0.053844 0.066268
#
#
# Mechanical properties :
#
#
# Convention : Reuss Voigt Hill
#
# Bulk Modulus (GPa) = 27.16775 41.98910 34.57842
# Shear Modulus (GPa) = 15.94844 36.34745 26.14795
#
# Velocity S-wave (km/s) = 2.64650 3.99531 3.38869
# Velocity P-wave (km/s) = 4.61191 6.30265 5.52237
#
# Compressibility (1/GPa) = 0.03680834
#
# Stress axis : x y z
#
# Youngs Moduli (GPa) = 43.85677 29.38462 70.51119
#
# Poissons Ratio (x) = 0.39047 -0.20041
# Poissons Ratio (y) = 0.58278 0.46941
# Poissons Ratio (z) = -0.12465 0.19562
#
# Static dielectric constant tensor:
#      x y z
#    x 3.268400 -1.597290 3.437490 
#    y -1.597290 3.868230 -4.108720 
#    z 3.437490 -4.108720 10.318430 
# 
# From -- ./inp_files/502119.got.cif
#   From: 2010.05.17/outbox.cif.g08.bks.cpg/sg2_252_cif.got.tgz:502119.got - 2010.06.03 11:33:40.
