data_PCOD9098288
_publ_section_title
;
Structure prediction by ZEFSAII (Michael W. Deem and Ramdas Pophale) SiO2 
 PCOD9098288
Probable space group: P -1
;
_chemical_formula_sum "Si O2"
_cell_formula_units_Z 14
_cell_length_a 10.621904
_cell_length_b 6.896918
_cell_length_c 12.034902
_cell_angle_alpha 117.195514
_cell_angle_beta 117.635930
_cell_angle_gamma 42.571714
_cell_volume 518.511350
_symmetry_space_group_name_H-M "P -1"
_symmetry_group_IT_number 2
_symmetry_cell_setting 'triclinic'
loop_
_space_group_symop_operation_xyz
x,y,z
-x,-y,-z
loop_
_atom_site_type_symbol
_atom_site_label
_atom_site_fract_x
_atom_site_fract_y
_atom_site_fract_z
Si Si1 0.626761 0.125009 0.563274
Si Si2 0.445500 0.892598 0.853055
Si Si3 0.000000 0.000000 0.000000
Si Si4 0.659353 0.607303 0.656218
Si Si5 0.590143 0.289857 0.830264
Si Si6 0.148573 0.680779 0.800948
Si Si7 0.000000 0.500000 0.500000
Si Si8 0.023764 0.290834 0.861356
O O1 0.658078 0.346604 0.603103
O O2 0.416176 0.287706 0.472058
O O3 0.633064 0.099583 0.691171
O O4 0.789809 0.823731 0.491695
O O5 0.511221 0.872614 0.749950
O O6 0.565217 0.556695 0.841114
O O7 0.224642 0.070070 0.823524
O O8 0.500000 0.000000 0.000000
O O9 0.774441 0.114509 0.934899
O O10 0.905972 0.326848 0.099535
O O11 0.863820 0.467952 0.747608
O O12 0.375718 0.466406 0.831174
O O13 0.064434 0.627059 0.652993
O O14 0.019355 0.046305 0.854195
O O15 0.000000 0.500000 0.000000
#
# Coordination Sequence:
#
# PCOD9098288 Si02
#       8
#     2   2   1   2   2   2   1   2
#     4  10  22  43  66  91 138 176 222 280 327 405
#     4  10  20  36  64  95 129 166 214 277 330 388
#     4  12  22  46  70  94 134 180 222 284 338 412
#     4  10  20  42  63  96 130 175 226 266 335 397
#     4  10  23  44  64  94 134 176 225 281 332 410
#     4  11  25  44  69  99 137 178 231 279 345 403
#     4  12  22  46  68  94 138 186 216 284 338 400
#     4  11  21  41  67  97 133 172 221 283 337 398
#
# _framework density 27.000371999999999
#
# number of rings (size 3 to 8) (size 9 to 14) (size 15 to 20)
#    0.000    1.429    4.286    1.286    0.000    1.714 
#    5.143    2.857    0.000    0.000    0.000    0.000 
#    0.000    0.000    0.000    0.000    0.000    0.000 
#
# Total GULP energy -77989.240537 kJ/mol
# GULP energy per Si atom -5570.660038 kJ/mol
# Density = 2.693892 g / cm^3
# Si number density = 27.000372 Si / 1000 Ang^3
#
#
#
# Elastic Constant Matrix: (Units=GPa)
#
#
# Indices 1 2 3 4 5 6 
#
# 1 63.4666 33.5479 28.6137 -12.8549 4.4114 -22.6063
# 2 33.5479 158.6366 88.3076 -6.1032 4.7644 -27.9011
# 3 28.6137 88.3076 220.1265 -9.1005 21.5063 -18.8470
# 4 -12.8549 -6.1032 -9.1005 84.5597 -8.3046 17.1717
# 5 4.4114 4.7644 21.5063 -8.3046 41.0198 -1.7268
# 6 -22.6063 -27.9011 -18.8470 17.1717 -1.7268 46.7719
#
#
#
# Elastic Compliance Matrix: (Units=1/GPa)
#
#
# Indices 1 2 3 4 5 6 
#
# 1 0.020454 -0.002411 -0.000904 0.001207 -0.000881 0.007608
# 2 -0.002411 0.009099 -0.003170 -0.000624 0.000875 0.003247
# 3 -0.000904 -0.003170 0.006210 0.000015 -0.002785 0.000066
# 4 0.001207 -0.000624 0.000015 0.013118 0.002401 -0.004510
# 5 -0.000881 0.000875 -0.002785 0.002401 0.026278 -0.000937
# 6 0.007608 0.003247 0.000066 -0.004510 -0.000937 0.028642
#
#
# Mechanical properties :
#
#
# Convention : Reuss Voigt Hill
#
# Bulk Modulus (GPa) = 43.87409 82.57425 63.22417
# Shear Modulus (GPa) = 40.20259 53.92100 47.06180
#
# Velocity S-wave (km/s) = 3.86290 4.47368 4.17946
# Velocity P-wave (km/s) = 6.01504 7.57193 6.83794
#
# Compressibility (1/GPa) = 0.02279250
#
# Stress axis : x y z
#
# Youngs Moduli (GPa) = 48.89015 109.90140 161.01831
#
# Poissons Ratio (x) = 0.26501 0.14557
# Poissons Ratio (y) = 0.11789 0.51045
# Poissons Ratio (z) = 0.04420 0.34840
#
# Static dielectric constant tensor:
#      x y z
#    x 1.364280 -0.203660 0.789470 
#    y -0.203660 1.937240 0.304740 
#    z 0.789470 0.304740 1.507930 
# 
# From -- ./inp_files/185577.got.cif
#   From: 2010.05.17/outbox.cif.g08.bks.cpg/sg2_93_cif.got.tgz:185577.got - 2010.06.03 11:33:40.
