data_PCOD9098414
_publ_section_title
;
Structure prediction by ZEFSAII (Michael W. Deem and Ramdas Pophale) SiO2 
 PCOD9098414
Probable space group: P -1
;
_chemical_formula_sum "Si O2"
_cell_formula_units_Z 16
_cell_length_a 12.282491
_cell_length_b 30.713717
_cell_length_c 9.151903
_cell_angle_alpha 28.745663
_cell_angle_beta 134.337425
_cell_angle_gamma 152.477048
_cell_volume 717.603798
_symmetry_space_group_name_H-M "P -1"
_symmetry_group_IT_number 2
_symmetry_cell_setting 'triclinic'
loop_
_space_group_symop_operation_xyz
x,y,z
-x,-y,-z
loop_
_atom_site_type_symbol
_atom_site_label
_atom_site_fract_x
_atom_site_fract_y
_atom_site_fract_z
Si Si1 0.035239 0.996730 0.214887
Si Si2 0.950752 0.353411 0.557800
Si Si3 0.537535 0.295283 0.423581
Si Si4 0.260349 0.523555 0.646602
Si Si5 0.219526 0.270040 0.595756
Si Si6 0.309353 0.937875 0.709905
Si Si7 0.828279 0.200409 0.313434
Si Si8 0.691085 0.535354 0.676623
O O1 0.751117 0.868079 0.383824
O O2 0.160494 0.960458 0.478519
O O3 0.000000 0.000000 0.000000
O O4 0.203718 0.159041 0.955532
O O5 0.120685 0.462586 0.537992
O O6 0.125454 0.435527 0.338682
O O7 0.719490 0.312321 0.463103
O O8 0.836136 0.196759 0.919382
O O9 0.625997 0.342594 0.538743
O O10 0.562773 0.406820 0.049153
O O11 0.514384 0.589448 0.648649
O O12 0.046342 0.378585 0.977111
O O13 0.179298 0.323442 0.526975
O O14 0.984852 0.182173 0.531334
O O15 0.296196 0.865540 0.768389
O O16 0.606548 0.102843 0.510892
O O17 0.500000 0.500000 0.500000
#
# Coordination Sequence:
#
# PCOD9098414 Si02
#       8
#     2   2   2   2   2   2   2   2
#     4  12  24  39  66 103 140 173 223 283 347 399
#     4  11  25  45  69 101 138 184 227 281 338 407
#     4  12  25  44  73 104 133 178 231 286 341 405
#     4  11  22  38  73 103 137 167 232 283 346 393
#     4  12  23  41  67 102 134 180 223 274 340 407
#     4  10  22  40  64  97 145 175 218 279 349 395
#     4  10  20  36  65  99 136 174 217 280 339 398
#     4  12  26  48  69  96 141 186 229 277 337 409
#
# _framework density 22.296424999999999
#
# number of rings (size 3 to 8) (size 9 to 14) (size 15 to 20)
#    0.000    0.750    5.000    2.625    5.250    1.000 
#    0.000    5.000    0.000    0.000    0.000    0.000 
#    0.000    0.000    0.000    0.000    0.000    0.000 
#
# Total GULP energy -89269.888543 kJ/mol
# GULP energy per Si atom -5579.368034 kJ/mol
# Density = 2.224568 g / cm^3
# Si number density = 22.296425 Si / 1000 Ang^3
#
#
#
# Elastic Constant Matrix: (Units=GPa)
#
#
# Indices 1 2 3 4 5 6 
#
# 1 74.7905 29.5695 8.6452 -1.0606 -3.2298 24.8487
# 2 29.5695 70.3786 29.0049 -17.2490 -5.7721 29.9900
# 3 8.6452 29.0049 81.7373 -7.8619 8.1892 2.3461
# 4 -1.0606 -17.2490 -7.8619 24.4254 9.4679 -3.4943
# 5 -3.2298 -5.7721 8.1892 9.4679 35.8431 -2.3658
# 6 24.8487 29.9900 2.3461 -3.4943 -2.3658 41.9091
#
#
#
# Elastic Compliance Matrix: (Units=1/GPa)
#
#
# Indices 1 2 3 4 5 6 
#
# 1 0.017890 -0.005399 -0.000401 -0.004806 0.001640 -0.007029
# 2 -0.005399 0.031621 -0.008685 0.016365 0.001111 -0.017513
# 3 -0.000401 -0.008685 0.015888 0.001742 -0.005167 0.005416
# 4 -0.004806 0.016365 0.001742 0.057452 -0.013698 -0.004941
# 5 0.001640 0.001111 -0.005167 -0.013698 0.032975 -0.000759
# 6 -0.007029 -0.017513 0.005416 -0.004941 -0.000759 0.039803
#
#
# Mechanical properties :
#
#
# Convention : Reuss Voigt Hill
#
# Bulk Modulus (GPa) = 27.45017 40.14950 33.79983
# Shear Modulus (GPa) = 21.11999 31.08130 26.10065
#
# Velocity S-wave (km/s) = 3.08106 3.73769 3.42514
# Velocity P-wave (km/s) = 4.99954 6.05585 5.55287
#
# Compressibility (1/GPa) = 0.03642965
#
# Stress axis : x y z
#
# Youngs Moduli (GPa) = 55.89773 31.62428 62.93967
#
# Poissons Ratio (x) = 0.17075 0.02524
# Poissons Ratio (y) = 0.30181 0.54660
# Poissons Ratio (z) = 0.02242 0.27464
#
# Static dielectric constant tensor:
#      x y z
#    x 1.810210 -0.053420 -0.007330 
#    y -0.053420 1.978460 -0.004500 
#    z -0.007330 -0.004500 1.883930 
# 
# From -- ./inp_files/286100.got.cif
#   From: 2010.05.17/outbox.cif.g08.bks.cpg/sg2_144_cif.got.tgz:286100.got - 2010.06.03 11:33:40.
