data_PCOD9098774
_publ_section_title
;
Structure prediction by ZEFSAII (Michael W. Deem and Ramdas Pophale) SiO2 
 PCOD9098774
Probable space group: P -1
;
_chemical_formula_sum "Si O2"
_cell_formula_units_Z 16
_cell_length_a 12.755297
_cell_length_b 10.199081
_cell_length_c 7.882372
_cell_angle_alpha 133.748703
_cell_angle_beta 119.921152
_cell_angle_gamma 56.860755
_cell_volume 607.774684
_symmetry_space_group_name_H-M "P -1"
_symmetry_group_IT_number 2
_symmetry_cell_setting 'triclinic'
loop_
_space_group_symop_operation_xyz
x,y,z
-x,-y,-z
loop_
_atom_site_type_symbol
_atom_site_label
_atom_site_fract_x
_atom_site_fract_y
_atom_site_fract_z
Si Si1 0.892699 0.902912 0.579401
Si Si2 0.647281 0.415188 0.987363
Si Si3 0.600454 0.306489 0.469964
Si Si4 0.881363 0.351058 0.963023
Si Si5 0.156808 0.277071 0.265169
Si Si6 0.628954 0.081402 0.843667
Si Si7 0.622195 0.942443 0.319622
Si Si8 0.832940 0.357514 0.548171
O O1 0.880502 0.801782 0.657507
O O2 0.773743 0.881983 0.353883
O O3 0.032621 0.794524 0.526454
O O4 0.882196 0.128026 0.780197
O O5 0.635426 0.349133 0.726827
O O6 0.770181 0.483599 0.116662
O O7 0.692858 0.242456 0.003645
O O8 0.500000 0.500000 0.000000
O O9 0.500000 0.500000 0.500000
O O10 0.720880 0.267506 0.409422
O O11 0.559834 0.121541 0.305125
O O12 0.850676 0.425879 0.814766
O O13 0.023062 0.340544 0.115753
O O14 0.202197 0.462729 0.446171
O O15 0.276509 0.097040 0.141375
O O16 0.482559 0.167051 0.868306
O O17 0.619188 0.004874 0.573106
#
# Coordination Sequence:
#
# PCOD9098774 Si02
#       8
#     2   2   2   2   2   2   2   2
#     4  11  21  39  63  90 116 160 207 241 290 360
#     4  10  21  38  59  84 114 157 201 234 290 360
#     4  10  20  37  57  83 118 152 191 245 295 342
#     4  11  22  41  60  85 129 161 188 245 312 353
#     4  11  22  38  62  90 122 155 202 245 297 351
#     4   9  18  35  58  84 113 153 190 247 289 338
#     4   9  17  34  59  79 114 151 193 235 295 339
#     4  11  23  38  61  91 121 157 201 245 300 354
#
# _framework density 26.325544000000001
#
# number of rings (size 3 to 8) (size 9 to 14) (size 15 to 20)
#    0.000    1.750    5.000    2.250    0.000    3.000 
#    0.000    0.000    0.000    4.500    0.000    0.000 
#    0.000    0.000    0.000    0.000    0.000    0.000 
#
# Total GULP energy -89322.611819 kJ/mol
# GULP energy per Si atom -5582.663239 kJ/mol
# Density = 2.626563 g / cm^3
# Si number density = 26.325544 Si / 1000 Ang^3
#
#
#
# Elastic Constant Matrix: (Units=GPa)
#
#
# Indices 1 2 3 4 5 6 
#
# 1 181.8193 25.9929 11.4715 18.8853 -10.6465 -14.3301
# 2 25.9929 84.6227 6.9833 -0.1674 -11.0386 3.5448
# 3 11.4715 6.9833 45.5452 -4.6443 -13.0084 19.6303
# 4 18.8853 -0.1674 -4.6443 35.7224 11.2101 -1.1812
# 5 -10.6465 -11.0386 -13.0084 11.2101 35.4442 8.6733
# 6 -14.3301 3.5448 19.6303 -1.1812 8.6733 56.3309
#
#
#
# Elastic Compliance Matrix: (Units=1/GPa)
#
#
# Indices 1 2 3 4 5 6 
#
# 1 0.006598 -0.001767 -0.002480 -0.004132 0.001247 0.002375
# 2 -0.001767 0.012971 0.000596 -0.000371 0.004372 -0.002154
# 3 -0.002480 0.000596 0.033055 0.000431 0.014980 -0.014485
# 4 -0.004132 -0.000371 0.000431 0.034157 -0.012354 0.001440
# 5 0.001247 0.004372 0.014980 -0.012354 0.042278 -0.011947
# 6 0.002375 -0.002154 -0.014485 0.001440 -0.011947 0.025409
#
#
# Mechanical properties :
#
#
# Convention : Reuss Voigt Hill
#
# Bulk Modulus (GPa) = 22.06467 44.54251 33.30359
# Shear Modulus (GPa) = 28.26798 43.33544 35.80171
#
# Velocity S-wave (km/s) = 3.28042 4.06166 3.69177
# Velocity P-wave (km/s) = 4.76947 6.24121 5.55431
#
# Compressibility (1/GPa) = 0.04532133
#
# Stress axis : x y z
#
# Youngs Moduli (GPa) = 151.55021 77.09763 30.25238
#
# Poissons Ratio (x) = 0.13624 0.07503
# Poissons Ratio (y) = 0.26781 -0.01802
# Poissons Ratio (z) = 0.37584 -0.04592
#
# Static dielectric constant tensor:
#      x y z
#    x 2.127250 -0.123120 -0.003160 
#    y -0.123120 2.101100 0.026560 
#    z -0.003160 0.026560 2.226050 
# 
# From -- ./inp_files/245599.got.cif
#   From: 2010.05.17/outbox.cif.g08.bks.cpg/sg2_123_cif.got.tgz:245599.got - 2010.06.03 11:33:40.
