data_PCOD9098741
_publ_section_title
;
Structure prediction by ZEFSAII (Michael W. Deem and Ramdas Pophale) SiO2 
 PCOD9098741
Probable space group: P -1
;
_chemical_formula_sum "Si O2"
_cell_formula_units_Z 16
_cell_length_a 7.807843
_cell_length_b 25.885495
_cell_length_c 5.822092
_cell_angle_alpha 42.954580
_cell_angle_beta 56.984525
_cell_angle_gamma 51.928908
_cell_volume 621.562180
_symmetry_space_group_name_H-M "P -1"
_symmetry_group_IT_number 2
_symmetry_cell_setting 'triclinic'
loop_
_space_group_symop_operation_xyz
x,y,z
-x,-y,-z
loop_
_atom_site_type_symbol
_atom_site_label
_atom_site_fract_x
_atom_site_fract_y
_atom_site_fract_z
Si Si1 0.919263 0.077612 0.569750
Si Si2 0.162495 0.406611 0.171388
Si Si3 0.242793 0.047028 0.018363
Si Si4 0.754348 0.391854 0.012232
Si Si5 0.234501 0.370065 0.739229
Si Si6 0.052418 0.804627 0.468383
Si Si7 0.735116 0.368831 0.601198
Si Si8 0.395218 0.783890 0.930764
O O1 0.119473 0.043178 0.355342
O O2 0.982491 0.143770 0.446250
O O3 0.855028 0.000857 0.936397
O O4 0.685783 0.138855 0.425459
O O5 0.299064 0.383502 0.386032
O O6 0.997131 0.356656 0.446060
O O7 0.284408 0.397310 0.867321
O O8 0.000000 0.500000 0.000000
O O9 0.156418 0.142793 0.704856
O O10 0.500000 0.000000 0.000000
O O11 0.869530 0.292090 0.250170
O O12 0.647014 0.414174 0.271951
O O13 0.970007 0.414414 0.781954
O O14 0.653274 0.411836 0.767162
O O15 0.354246 0.271942 0.007761
O O16 0.261764 0.815596 0.158703
O O17 0.703046 0.282934 0.877546
#
# Coordination Sequence:
#
# PCOD9098741 Si02
#       8
#     2   2   2   2   2   2   2   2
#     4  10  21  40  59  78 123 157 198 261 314 359
#     4  10  21  40  60  85 121 161 196 240 298 368
#     4  10  23  39  56  85 116 159 207 252 309 378
#     4   9  18  34  55  83 111 152 195 239 295 348
#     4  10  22  35  60  90 119 151 203 249 294 362
#     4  10  20  37  57  79 115 157 196 249 314 358
#     4   9  18  35  57  81 116 151 187 240 295 352
#     4  10  21  36  56  87 115 150 197 256 306 352
#
# _framework density 25.741595
#
# number of rings (size 3 to 8) (size 9 to 14) (size 15 to 20)
#    0.000    2.250    1.250    0.750    3.500    0.500 
#    2.250    1.250    0.000    0.000    0.000    0.000 
#    0.000    0.000    0.000    0.000    0.000    0.000 
#
# Total GULP energy -89186.216814 kJ/mol
# GULP energy per Si atom -5574.138551 kJ/mol
# Density = 2.568301 g / cm^3
# Si number density = 25.741595 Si / 1000 Ang^3
#
#
#
# Elastic Constant Matrix: (Units=GPa)
#
#
# Indices 1 2 3 4 5 6 
#
# 1 92.7696 3.5300 28.1276 19.9104 10.0703 12.1613
# 2 3.5300 98.6103 42.7112 15.0468 6.0462 3.1805
# 3 28.1276 42.7112 101.2859 7.0898 14.7589 4.9975
# 4 19.9104 15.0468 7.0898 61.5886 17.0536 17.3653
# 5 10.0703 6.0462 14.7589 17.0536 30.2004 -3.5115
# 6 12.1613 3.1805 4.9975 17.3653 -3.5115 38.4796
#
#
#
# Elastic Compliance Matrix: (Units=1/GPa)
#
#
# Indices 1 2 3 4 5 6 
#
# 1 0.013024 0.001848 -0.003859 -0.003153 -0.001333 -0.002466
# 2 0.001848 0.013191 -0.006165 -0.004033 0.002166 0.001144
# 3 -0.003859 -0.006165 0.014410 0.003689 -0.006887 -0.002435
# 4 -0.003153 -0.004033 0.003689 0.025628 -0.015830 -0.012160
# 5 -0.001333 0.002166 -0.006887 -0.015830 0.046888 0.012559
# 6 -0.002466 0.001144 -0.002435 -0.012160 0.012559 0.033623
#
#
# Mechanical properties :
#
#
# Convention : Reuss Voigt Hill
#
# Bulk Modulus (GPa) = 41.20133 49.04480 45.12307
# Shear Modulus (GPa) = 29.20424 40.60684 34.90554
#
# Velocity S-wave (km/s) = 3.37191 3.97606 3.68638
# Velocity P-wave (km/s) = 5.58571 6.33820 5.97382
#
# Compressibility (1/GPa) = 0.02427106
#
# Stress axis : x y z
#
# Youngs Moduli (GPa) = 76.78152 75.81021 69.39523
#
# Poissons Ratio (x) = -0.14008 0.26782
# Poissons Ratio (y) = -0.14188 0.42785
# Poissons Ratio (z) = 0.29633 0.46740
#
# Static dielectric constant tensor:
#      x y z
#    x 2.137930 0.018890 0.030920 
#    y 0.018890 1.983970 0.050290 
#    z 0.030920 0.050290 2.115170 
# 
# From -- ./inp_files/51622.got.cif
#   From: 2010.05.17/outbox.cif.g08.bks.cpg/sg2_26_cif.got.tgz:51622.got - 2010.06.03 11:33:40.
