data_PCOD9098662
_publ_section_title
;
Structure prediction by ZEFSAII (Michael W. Deem and Ramdas Pophale) SiO2 
 PCOD9098662
Probable space group: P -1
;
_chemical_formula_sum "Si O2"
_cell_formula_units_Z 10
_cell_length_a 9.507048
_cell_length_b 16.997566
_cell_length_c 5.127986
_cell_angle_alpha 88.416608
_cell_angle_beta 79.299346
_cell_angle_gamma 41.321971
_cell_volume 529.600259
_symmetry_space_group_name_H-M "P -1"
_symmetry_group_IT_number 2
_symmetry_cell_setting 'triclinic'
loop_
_space_group_symop_operation_xyz
x,y,z
-x,-y,-z
loop_
_atom_site_type_symbol
_atom_site_label
_atom_site_fract_x
_atom_site_fract_y
_atom_site_fract_z
Si Si1 0.954937 0.573684 0.254921
Si Si2 0.532308 0.205631 0.765372
Si Si3 0.358925 0.681866 0.499104
Si Si4 0.232766 0.885910 0.801915
Si Si5 0.307355 0.553272 0.259175
O O1 0.117502 0.580117 0.199917
O O2 0.000000 0.500000 0.500000
O O3 0.705149 0.707522 0.287689
O O4 0.000000 0.500000 0.000000
O O5 0.565256 0.286831 0.744407
O O6 0.585553 0.161490 0.046146
O O7 0.712677 0.100377 0.502067
O O8 0.224250 0.666944 0.421510
O O9 0.571497 0.552544 0.562632
O O10 0.250967 0.784811 0.739535
O O11 0.000000 0.000000 0.000000
O O12 0.500000 0.500000 0.000000
#
# Coordination Sequence:
#
# PCOD9098662 Si02
#       5
#     2   2   2   2   2
#     4  12  22  36  56  83 123 156 183 232 287 348
#     4  10  20  37  55  88 110 147 197 233 284 340
#     4   9  20  33  56  82 115 143 197 222 287 336
#     4  10  20  37  61  83 110 147 202 246 275 326
#     4  11  21  35  55  87 121 154 185 229 288 356
#
# _framework density 18.882166999999999
#
# number of rings (size 3 to 8) (size 9 to 14) (size 15 to 20)
#    1.200    0.400    2.000    5.400    2.800    0.000 
#    0.000    0.000    0.000    2.400    0.000    0.000 
#    0.000    0.000    0.000    0.000    0.000    0.000 
#
# Total GULP energy -55676.009295 kJ/mol
# GULP energy per Si atom -5567.600930 kJ/mol
# Density = 1.883919 g / cm^3
# Si number density = 18.882167 Si / 1000 Ang^3
#
#
#
# Elastic Constant Matrix: (Units=GPa)
#
#
# Indices 1 2 3 4 5 6 
#
# 1 146.1952 22.9946 35.7479 16.3649 20.9338 -9.7800
# 2 22.9946 26.6010 12.7582 15.4960 8.2183 -6.2609
# 3 35.7479 12.7582 102.4534 6.9746 22.2214 -3.4183
# 4 16.3649 15.4960 6.9746 35.5806 -0.9276 -0.8588
# 5 20.9338 8.2183 22.2214 -0.9276 26.9059 -0.7130
# 6 -9.7800 -6.2609 -3.4183 -0.8588 -0.7130 20.1794
#
#
#
# Elastic Compliance Matrix: (Units=1/GPa)
#
#
# Indices 1 2 3 4 5 6 
#
# 1 0.008844 -0.003575 -0.001386 -0.002296 -0.004653 0.002680
# 2 -0.003575 0.066121 -0.000854 -0.027026 -0.017194 0.016880
# 3 -0.001386 -0.000854 0.012433 -0.001643 -0.008965 0.000783
# 4 -0.002296 -0.027026 -0.001643 0.041400 0.012625 -0.007568
# 5 -0.004653 -0.017194 -0.008965 0.012625 0.053701 -0.006674
# 6 0.002680 0.016880 0.000783 -0.007568 -0.006674 0.055666
#
#
# Mechanical properties :
#
#
# Convention : Reuss Voigt Hill
#
# Bulk Modulus (GPa) = 13.19816 46.47233 29.83524
# Shear Modulus (GPa) = 18.17853 30.11643 24.14748
#
# Velocity S-wave (km/s) = 3.10616 3.99804 3.57998
# Velocity P-wave (km/s) = 4.45750 6.78068 5.73789
#
# Compressibility (1/GPa) = 0.07576812
#
# Stress axis : x y z
#
# Youngs Moduli (GPa) = 113.07426 15.12384 80.43238
#
# Poissons Ratio (x) = 0.05406 0.11146
# Poissons Ratio (y) = 0.40419 0.06871
# Poissons Ratio (z) = 0.15670 0.01292
#
# Static dielectric constant tensor:
#      x y z
#    x 1.659720 -0.012270 0.009210 
#    y -0.012270 1.691850 -0.041970 
#    z 0.009210 -0.041970 1.725310 
# 
# From -- ./inp_files/15875.got.cif
#   From: 2010.05.17/outbox.cif.g08.bks.cpg/sg2_8_cif.got.tgz:15875.got - 2010.06.03 11:33:40.
