data_PCOD9098010
_publ_section_title
;
Structure prediction by ZEFSAII (Michael W. Deem and Ramdas Pophale) SiO2 
 PCOD9098010
Probable space group: P -1
;
_chemical_formula_sum "Si O2"
_cell_formula_units_Z 12
_cell_length_a 12.736013
_cell_length_b 14.847521
_cell_length_c 12.205100
_cell_angle_alpha 26.485793
_cell_angle_beta 46.751870
_cell_angle_gamma 38.820443
_cell_volume 644.633839
_symmetry_space_group_name_H-M "P -1"
_symmetry_group_IT_number 2
_symmetry_cell_setting 'triclinic'
loop_
_space_group_symop_operation_xyz
x,y,z
-x,-y,-z
loop_
_atom_site_type_symbol
_atom_site_label
_atom_site_fract_x
_atom_site_fract_y
_atom_site_fract_z
Si Si1 0.823485 0.217757 0.429684
Si Si2 0.204474 0.395403 0.558788
Si Si3 0.013261 0.777532 0.471192
Si Si4 0.443377 0.942098 0.217623
Si Si5 0.176162 0.368529 0.084841
Si Si6 0.030595 0.816419 0.080818
O O1 0.856443 0.278699 0.461767
O O2 0.675794 0.164300 0.599588
O O3 0.784516 0.426529 0.146422
O O4 0.000000 0.000000 0.500000
O O5 0.101523 0.583472 0.524350
O O6 0.392917 0.232574 0.640483
O O7 0.120571 0.236029 0.771024
O O8 0.178937 0.560677 0.292321
O O9 0.862972 0.750239 0.657265
O O10 0.954382 0.041098 0.186577
O O11 0.500000 0.000000 0.000000
O O12 0.324551 0.177714 0.113001
O O13 0.000000 0.500000 0.000000
O O14 0.000000 0.000000 0.000000
#
# Coordination Sequence:
#
# PCOD9098010 Si02
#       6
#     2   2   2   2   2   2
#     4  11  22  37  60  87 125 162 197 234 301 365
#     4  10  22  37  61  92 121 153 205 257 292 353
#     4  10  20  36  63  86 119 165 201 238 298 360
#     4  12  23  36  60  93 126 155 199 252 296 350
#     4  10  21  36  54  84 120 160 198 235 293 358
#     4   9  20  40  63  86 117 159 205 245 310 353
#
# _framework density 18.615220000000001
#
# number of rings (size 3 to 8) (size 9 to 14) (size 15 to 20)
#    0.000    1.667    3.333    3.000    2.333    5.333 
#    0.000    0.833    0.000   10.000    0.000    0.000 
#    0.000    0.000    0.000    0.000    0.000    0.000 
#
# Total GULP energy -66892.452492 kJ/mol
# GULP energy per Si atom -5574.371041 kJ/mol
# Density = 1.857285 g / cm^3
# Si number density = 18.615220 Si / 1000 Ang^3
#
#
#
# Elastic Constant Matrix: (Units=GPa)
#
#
# Indices 1 2 3 4 5 6 
#
# 1 97.9830 31.6008 52.7569 -3.2860 -16.4399 -16.9933
# 2 31.6008 108.1227 55.3390 -5.7154 -3.9133 -17.8463
# 3 52.7569 55.3390 197.2469 3.8139 -17.8301 -25.3076
# 4 -3.2860 -5.7154 3.8139 20.8643 -1.4383 -5.9942
# 5 -16.4399 -3.9133 -17.8301 -1.4383 37.6669 -5.3129
# 6 -16.9933 -17.8463 -25.3076 -5.9942 -5.3129 29.4623
#
#
#
# Elastic Compliance Matrix: (Units=1/GPa)
#
#
# Indices 1 2 3 4 5 6 
#
# 1 0.014330 -0.001391 -0.001931 0.004961 0.006506 0.007947
# 2 -0.001391 0.012081 -0.002344 0.005179 0.000534 0.005652
# 3 -0.001931 -0.002344 0.006992 -0.000954 0.002718 0.003768
# 4 0.004961 0.005179 -0.000954 0.055891 0.006895 0.017793
# 5 0.006506 0.000534 0.002718 0.006895 0.032934 0.013753
# 6 0.007947 0.005652 0.003768 0.017793 0.013753 0.051286
#
#
# Mechanical properties :
#
#
# Convention : Reuss Voigt Hill
#
# Bulk Modulus (GPa) = 45.30740 75.86067 60.58403
# Shear Modulus (GPa) = 26.01442 35.17575 30.59509
#
# Velocity S-wave (km/s) = 3.74235 4.35170 4.05847
# Velocity P-wave (km/s) = 6.56241 8.12958 7.38767
#
# Compressibility (1/GPa) = 0.02207145
#
# Stress axis : x y z
#
# Youngs Moduli (GPa) = 69.78247 82.77461 143.03040
#
# Poissons Ratio (x) = 0.11511 0.27617
# Poissons Ratio (y) = 0.09704 0.33529
# Poissons Ratio (z) = 0.13474 0.19404
#
# Static dielectric constant tensor:
#      x y z
#    x 1.657710 0.028580 0.011090 
#    y 0.028580 1.612490 0.021740 
#    z 0.011090 0.021740 1.719120 
# 
# From -- ./inp_files/316719.got.cif
#   From: 2010.05.17/outbox.cif.g08.bks.cpg/sg2_159_cif.got.tgz:316719.got - 2010.06.03 11:33:40.
