data_PCOD9098150
_publ_section_title
;
Structure prediction by ZEFSAII (Michael W. Deem and Ramdas Pophale) SiO2 
 PCOD9098150
Probable space group: P -1
;
_chemical_formula_sum "Si O2"
_cell_formula_units_Z 15
_cell_length_a 14.570259
_cell_length_b 9.328749
_cell_length_c 13.618995
_cell_angle_alpha 127.161544
_cell_angle_beta 39.943668
_cell_angle_gamma 96.144010
_cell_volume 680.128939
_symmetry_space_group_name_H-M "P -1"
_symmetry_group_IT_number 2
_symmetry_cell_setting 'triclinic'
loop_
_space_group_symop_operation_xyz
x,y,z
-x,-y,-z
loop_
_atom_site_type_symbol
_atom_site_label
_atom_site_fract_x
_atom_site_fract_y
_atom_site_fract_z
Si Si1 0.153164 0.491200 0.254280
Si Si2 0.079693 0.943817 0.588898
Si Si3 0.562395 0.035201 0.162408
Si Si4 0.540391 0.818201 0.475840
Si Si5 0.504511 0.582864 0.138682
Si Si6 0.000000 0.500000 0.000000
Si Si7 0.374811 0.644844 0.854108
Si Si8 0.867853 0.748327 0.426250
O O1 0.098769 0.719107 0.451984
O O2 0.973613 0.591950 0.373615
O O3 0.339088 0.392735 0.990968
O O4 0.246005 0.250682 0.142839
O O5 0.271080 0.831522 0.452205
O O6 0.100886 0.063275 0.530190
O O7 0.859146 0.166066 0.902378
O O8 0.582206 0.050511 0.269324
O O9 0.548093 0.241336 0.209898
O O10 0.363537 0.098586 0.326374
O O11 0.519096 0.632699 0.379157
O O12 0.500000 0.000000 0.500000
O O13 0.767417 0.648378 0.250487
O O14 0.590031 0.379877 0.068141
O O15 0.500000 0.500000 0.000000
O O16 0.022881 0.425862 0.831325
#
# Coordination Sequence:
#
# PCOD9098150 Si02
#       8
#     2   2   2   2   2   1   2   2
#     4  11  22  41  67  93 126 175 225 261 313 391
#     4  11  23  39  70  94 126 173 227 265 310 388
#     4  11  26  41  63  99 139 167 209 273 335 378
#     4  11  23  42  69  95 124 173 222 261 317 394
#     4  10  22  39  66  95 120 170 225 261 306 386
#     4  10  20  36  64 100 118 154 220 274 302 372
#     4  12  25  43  64  99 137 169 208 275 334 378
#     4  11  21  39  66  97 127 172 220 269 317 384
#
# _framework density 22.054642000000001
#
# number of rings (size 3 to 8) (size 9 to 14) (size 15 to 20)
#    0.000    1.067    4.000    2.400    3.733    1.600 
#    0.000    4.667    0.000    6.400    0.000    0.000 
#    0.000    0.000    0.000    0.000    0.000    0.000 
#
# Total GULP energy -83577.591539 kJ/mol
# GULP energy per Si atom -5571.839436 kJ/mol
# Density = 2.200444 g / cm^3
# Si number density = 22.054642 Si / 1000 Ang^3
#
#
#
# Elastic Constant Matrix: (Units=GPa)
#
#
# Indices 1 2 3 4 5 6 
#
# 1 87.0142 25.0988 16.3498 14.3227 3.6997 -0.7845
# 2 25.0988 124.5867 9.2513 23.4568 20.9028 8.0458
# 3 16.3498 9.2513 56.8883 18.4641 0.3423 7.1223
# 4 14.3227 23.4568 18.4641 28.1539 7.4689 1.0127
# 5 3.6997 20.9028 0.3423 7.4689 31.6707 2.5316
# 6 -0.7845 8.0458 7.1223 1.0127 2.5316 25.4713
#
#
#
# Elastic Compliance Matrix: (Units=1/GPa)
#
#
# Indices 1 2 3 4 5 6 
#
# 1 0.013121 -0.001987 -0.002524 -0.003563 0.000500 0.001829
# 2 -0.001987 0.010761 0.001749 -0.007710 -0.004818 -0.003164
# 3 -0.002524 0.001749 0.024334 -0.016779 0.003403 -0.007105
# 4 -0.003563 -0.007710 -0.016779 0.056717 -0.008135 0.005571
# 5 0.000500 -0.004818 0.003403 -0.008135 0.036798 -0.002748
# 6 0.001829 -0.003164 -0.007105 0.005571 -0.002748 0.042354
#
#
# Mechanical properties :
#
#
# Convention : Reuss Voigt Hill
#
# Bulk Modulus (GPa) = 23.42331 41.09879 32.26105
# Shear Modulus (GPa) = 24.52889 31.57848 28.05368
#
# Velocity S-wave (km/s) = 3.33856 3.78806 3.57039
# Velocity P-wave (km/s) = 5.05025 6.14882 5.62641
#
# Compressibility (1/GPa) = 0.04269251
#
# Stress axis : x y z
#
# Youngs Moduli (GPa) = 76.21099 92.92567 41.09423
#
# Poissons Ratio (x) = 0.18466 0.10370
# Poissons Ratio (y) = 0.15145 -0.07185
# Poissons Ratio (z) = 0.19232 -0.16248
#
# Static dielectric constant tensor:
#      x y z
#    x 1.804640 0.002730 0.041160 
#    y 0.002730 1.819430 0.040920 
#    z 0.041160 0.040920 1.898520 
# 
# From -- ./inp_files/530117.got.cif
#   From: 2010.05.17/outbox.cif.g08.bks.cpg/sg2_266_cif.got.tgz:530117.got - 2010.06.03 11:33:40.
