data_PCOD9098273
_publ_section_title
;
Structure prediction by ZEFSAII (Michael W. Deem and Ramdas Pophale) SiO2 
 PCOD9098273
Probable space group: P -1
;
_chemical_formula_sum "Si O2"
_cell_formula_units_Z 16
_cell_length_a 5.235458
_cell_length_b 7.944658
_cell_length_c 21.835048
_cell_angle_alpha 127.263650
_cell_angle_beta 74.558560
_cell_angle_gamma 118.611657
_cell_volume 634.172652
_symmetry_space_group_name_H-M "P -1"
_symmetry_group_IT_number 2
_symmetry_cell_setting 'triclinic'
loop_
_space_group_symop_operation_xyz
x,y,z
-x,-y,-z
loop_
_atom_site_type_symbol
_atom_site_label
_atom_site_fract_x
_atom_site_fract_y
_atom_site_fract_z
Si Si1 0.520249 0.912798 0.304099
Si Si2 0.987618 0.551876 0.328665
Si Si3 0.234568 0.556710 0.551027
Si Si4 0.590345 0.305541 0.000279
Si Si5 0.089550 0.928465 0.793085
Si Si6 0.206320 0.108930 0.083216
Si Si7 0.099851 0.673596 0.126590
Si Si8 0.709159 0.500780 0.216692
O O1 0.212714 0.774819 0.327295
O O2 0.675128 0.742463 0.272030
O O3 0.654238 0.171312 0.379415
O O4 0.598461 0.956361 0.235912
O O5 0.901668 0.587393 0.409887
O O6 0.075789 0.334758 0.278650
O O7 0.725576 0.442231 0.272966
O O8 0.500000 0.500000 0.500000
O O9 0.000000 0.500000 0.500000
O O10 0.275000 0.202357 0.029997
O O11 0.813746 0.529234 0.071129
O O12 0.640099 0.343408 0.932814
O O13 0.720792 0.114297 0.964492
O O14 0.079047 0.924883 0.867044
O O15 0.907856 0.075323 0.817506
O O16 0.458042 0.309626 0.151249
O O17 0.011214 0.554437 0.172219
#
# Coordination Sequence:
#
# PCOD9098273 Si02
#       8
#     2   2   2   2   2   2   2   2
#     4  10  23  43  67  99 130 174 221 268 331 406
#     4  11  24  42  68  98 133 168 224 274 334 407
#     4  11  29  51  75 108 146 183 218 272 339 414
#     4   8  14  25  51  86 114 172 225 271 343 415
#     4   9  18  36  56  89 123 169 212 279 327 389
#     4   9  15  29  56  86 122 167 225 276 344 399
#     4   8  15  30  53  84 122 168 228 275 342 404
#     4  10  20  36  64  94 125 172 224 283 333 397
#
# _framework density 25.229721000000001
#
# number of rings (size 3 to 8) (size 9 to 14) (size 15 to 20)
#    0.000    2.500    1.250    0.000    3.500    1.000 
#   11.250    0.000    0.000   28.500    0.000    0.000 
#    0.000    0.000    0.000    0.000    0.000    0.000 
#
# Total GULP energy -89447.122501 kJ/mol
# GULP energy per Si atom -5590.445156 kJ/mol
# Density = 2.517230 g / cm^3
# Si number density = 25.229721 Si / 1000 Ang^3
#
#
#
# Elastic Constant Matrix: (Units=GPa)
#
#
# Indices 1 2 3 4 5 6 
#
# 1 86.3293 39.7595 43.6486 -11.0210 0.7429 6.6062
# 2 39.7595 159.1318 58.5119 -22.5032 1.1410 15.4010
# 3 43.6486 58.5119 132.2359 -27.1612 4.7198 -3.9292
# 4 -11.0210 -22.5032 -27.1612 65.6789 -9.3758 -7.7720
# 5 0.7429 1.1410 4.7198 -9.3758 23.0532 -2.7950
# 6 6.6062 15.4010 -3.9292 -7.7720 -2.7950 42.7732
#
#
#
# Elastic Compliance Matrix: (Units=1/GPa)
#
#
# Indices 1 2 3 4 5 6 
#
# 1 0.014687 -0.002013 -0.004041 -0.000098 0.000181 -0.001921
# 2 -0.002013 0.008246 -0.002866 0.001029 0.000333 -0.002713
# 3 -0.004041 -0.002866 0.010927 0.003202 -0.000272 0.003224
# 4 -0.000098 0.001029 0.003202 0.018359 0.007218 0.003746
# 5 0.000181 0.000333 -0.000272 0.007218 0.046856 0.004200
# 6 -0.001921 -0.002713 0.003224 0.003746 0.004200 0.025904
#
#
# Mechanical properties :
#
#
# Convention : Reuss Voigt Hill
#
# Bulk Modulus (GPa) = 62.41555 73.50412 67.95984
# Shear Modulus (GPa) = 33.74773 42.01953 37.88363
#
# Velocity S-wave (km/s) = 3.66131 4.08545 3.87918
# Velocity P-wave (km/s) = 6.53194 7.17299 6.85996
#
# Compressibility (1/GPa) = 0.01602165
#
# Stress axis : x y z
#
# Youngs Moduli (GPa) = 68.08950 121.26543 91.51625
#
# Poissons Ratio (x) = 0.24411 0.36978
# Poissons Ratio (y) = 0.13706 0.26224
# Poissons Ratio (z) = 0.27513 0.34749
#
# Static dielectric constant tensor:
#      x y z
#    x 2.044910 0.045440 -0.009190 
#    y 0.045440 2.116200 -0.054220 
#    z -0.009190 -0.054220 1.977410 
# 
# From -- ./inp_files/582573.got.cif
#   From: 2010.05.17/outbox.cif.g08.bks.cpg/sg2_292_cif.got.tgz:582573.got - 2010.06.03 11:33:40.
