data_PCOD9098059
_publ_section_title
;
Structure prediction by ZEFSAII (Michael W. Deem and Ramdas Pophale) SiO2 
 PCOD9098059
Probable space group: P -1
;
_chemical_formula_sum "Si O2"
_cell_formula_units_Z 16
_cell_length_a 14.700970
_cell_length_b 11.704785
_cell_length_c 9.505476
_cell_angle_alpha 59.681806
_cell_angle_beta 78.809546
_cell_angle_gamma 39.679761
_cell_volume 843.552112
_symmetry_space_group_name_H-M "P -1"
_symmetry_group_IT_number 2
_symmetry_cell_setting 'triclinic'
loop_
_space_group_symop_operation_xyz
x,y,z
-x,-y,-z
loop_
_atom_site_type_symbol
_atom_site_label
_atom_site_fract_x
_atom_site_fract_y
_atom_site_fract_z
Si Si1 0.715229 0.758628 0.012485
Si Si2 0.263553 0.969994 0.144955
Si Si3 0.400396 0.346589 0.703916
Si Si4 0.843068 0.176787 0.850927
Si Si5 0.097544 0.798737 0.496735
Si Si6 0.040149 0.284897 0.269864
Si Si7 0.380740 0.331482 0.392158
Si Si8 0.688568 0.851083 0.643603
O O1 0.618036 0.761166 0.125220
O O2 0.886954 0.509125 0.101929
O O3 0.738379 0.875908 0.005123
O O4 0.649378 0.859405 0.813482
O O5 0.148847 0.097928 0.233528
O O6 0.438184 0.764036 0.271221
O O7 0.222459 0.897931 0.098021
O O8 0.267675 0.596584 0.632425
O O9 0.358361 0.354040 0.552992
O O10 0.891514 0.164234 0.687056
O O11 0.710821 0.432802 0.775923
O O12 0.000000 0.000000 0.000000
O O13 0.020019 0.744278 0.573717
O O14 0.000000 0.000000 0.500000
O O15 0.144549 0.276973 0.314780
O O16 0.315860 0.276121 0.367811
O O17 0.564311 0.098489 0.470181
#
# Coordination Sequence:
#
# PCOD9098059 Si02
#       8
#     2   2   2   2   2   2   2   2
#     4  10  21  36  63  93 120 149 203 244 291 347
#     4  11  20  37  64  86 116 161 193 242 291 353
#     4  10  21  38  60  94 116 149 199 251 288 348
#     4  11  26  40  58  86 124 158 198 243 302 354
#     4  10  21  40  60  85 119 154 197 248 292 347
#     4  10  20  36  63  92 111 158 205 240 286 357
#     4  10  22  38  57  89 120 158 190 248 300 343
#     4  10  20  37  62  87 121 158 193 244 296 355
#
# _framework density 18.967413000000001
#
# number of rings (size 3 to 8) (size 9 to 14) (size 15 to 20)
#    0.000    1.750    3.750    1.875    3.500    3.000 
#    2.250    1.875    0.000    2.250    0.000    0.000 
#    0.000    0.000    0.000    0.000    0.000    0.000 
#
# Total GULP energy -89124.835382 kJ/mol
# GULP energy per Si atom -5570.302211 kJ/mol
# Density = 1.892424 g / cm^3
# Si number density = 18.967413 Si / 1000 Ang^3
#
#
#
# Elastic Constant Matrix: (Units=GPa)
#
#
# Indices 1 2 3 4 5 6 
#
# 1 104.0306 39.5085 33.5084 -13.2250 19.2016 5.8354
# 2 39.5085 102.7733 20.6251 -34.0236 8.7144 4.1482
# 3 33.5084 20.6251 69.5004 -27.5001 5.5803 0.4850
# 4 -13.2250 -34.0236 -27.5001 23.3660 -4.2611 -1.1364
# 5 19.2016 8.7144 5.5803 -4.2611 24.8017 2.4078
# 6 5.8354 4.1482 0.4850 -1.1364 2.4078 31.9563
#
#
#
# Elastic Compliance Matrix: (Units=1/GPa)
#
#
# Indices 1 2 3 4 5 6 
#
# 1 0.017155 -0.011052 -0.013947 -0.024764 -0.010361 -0.001586
# 2 -0.011052 0.030567 0.021256 0.063996 0.004058 -0.000302
# 3 -0.013947 0.021256 0.044718 0.076910 0.006349 0.001366
# 4 -0.024764 0.063996 0.076910 0.215523 0.016266 0.001486
# 5 -0.010361 0.004058 0.006349 0.016266 0.048457 -0.001804
# 6 -0.001586 -0.000302 0.001366 0.001486 -0.001804 0.031790
#
#
# Mechanical properties :
#
#
# Convention : Reuss Voigt Hill
#
# Bulk Modulus (GPa) = 11.77113 51.50980 31.64047
# Shear Modulus (GPa) = 11.79204 28.20228 19.99716
#
# Velocity S-wave (km/s) = 2.49610 3.86019 3.25051
# Velocity P-wave (km/s) = 3.81140 6.86178 5.55026
#
# Compressibility (1/GPa) = 0.08495360
#
# Stress axis : x y z
#
# Youngs Moduli (GPa) = 58.29064 32.71464 22.36250
#
# Poissons Ratio (x) = 0.36155 0.31190
# Poissons Ratio (y) = 0.64421 -0.47533
# Poissons Ratio (z) = 0.81299 -0.69537
#
# Static dielectric constant tensor:
#      x y z
#    x 1.668620 0.000890 -0.036470 
#    y 0.000890 1.728080 -0.051690 
#    z -0.036470 -0.051690 1.683130 
# 
# From -- ./inp_files/273472.got.cif
#   From: 2010.05.17/outbox.cif.g08.bks.cpg/sg2_137_cif.got.tgz:273472.got - 2010.06.03 11:33:40.
