data_PCOD9098384
_publ_section_title
;
Structure prediction by ZEFSAII (Michael W. Deem and Ramdas Pophale) SiO2 
 PCOD9098384
Probable space group: P -1
;
_chemical_formula_sum "Si O2"
_cell_formula_units_Z 16
_cell_length_a 13.506702
_cell_length_b 9.335118
_cell_length_c 9.729797
_cell_angle_alpha 49.760683
_cell_angle_beta 112.781136
_cell_angle_gamma 82.610660
_cell_volume 727.744592
_symmetry_space_group_name_H-M "P -1"
_symmetry_group_IT_number 2
_symmetry_cell_setting 'triclinic'
loop_
_space_group_symop_operation_xyz
x,y,z
-x,-y,-z
loop_
_atom_site_type_symbol
_atom_site_label
_atom_site_fract_x
_atom_site_fract_y
_atom_site_fract_z
Si Si1 0.469611 0.033027 0.701330
Si Si2 0.569109 0.573292 0.168139
Si Si3 0.665797 0.456262 0.992052
Si Si4 0.101317 0.030754 0.620646
Si Si5 0.084153 0.919837 0.954473
Si Si6 0.363594 0.521569 0.438795
Si Si7 0.928750 0.760601 0.799241
Si Si8 0.674438 0.886225 0.695676
O O1 0.385549 0.287464 0.543386
O O2 0.409588 0.989919 0.560872
O O3 0.600740 0.990626 0.733046
O O4 0.499341 0.841347 0.945033
O O5 0.651210 0.470325 0.139555
O O6 0.650929 0.483408 0.402862
O O7 0.464953 0.505842 0.159043
O O8 0.772197 0.211218 0.158955
O O9 0.695100 0.641317 0.851323
O O10 0.116353 0.175293 0.423717
O O11 0.000000 0.000000 0.500000
O O12 0.071790 0.101199 0.721316
O O13 0.233481 0.736941 0.179406
O O14 0.023739 0.816814 0.887532
O O15 0.000000 0.000000 0.000000
O O16 0.500000 0.500000 0.500000
O O17 0.804288 0.872337 0.757861
O O18 0.000000 0.500000 0.000000
#
# Coordination Sequence:
#
# PCOD9098384 Si02
#       8
#     2   2   2   2   2   2   2   2
#     4  10  21  38  60  98 129 168 219 280 331 395
#     4  10  22  37  64  94 129 171 215 280 329 401
#     4  10  20  39  63  99 126 162 229 272 329 389
#     4  10  21  38  66  89 124 172 221 265 319 400
#     4  11  27  46  65 100 138 176 225 279 336 406
#     4  12  25  40  66  91 137 174 220 270 348 395
#     4  11  23  42  70  95 129 180 228 274 335 400
#     4  10  20  36  65  93 130 164 219 281 327 390
#
# _framework density 21.985734999999998
#
# number of rings (size 3 to 8) (size 9 to 14) (size 15 to 20)
#    0.000    1.500    0.000    5.625    5.250    2.000 
#    0.000    1.875    0.000    0.000    0.000    0.000 
#    0.000    0.000    0.000    0.000    0.000    0.000 
#
# Total GULP energy -89298.014821 kJ/mol
# GULP energy per Si atom -5581.125926 kJ/mol
# Density = 2.193569 g / cm^3
# Si number density = 21.985735 Si / 1000 Ang^3
#
#
#
# Elastic Constant Matrix: (Units=GPa)
#
#
# Indices 1 2 3 4 5 6 
#
# 1 87.1612 10.6597 44.7457 4.9015 9.9646 -6.4281
# 2 10.6597 72.1634 37.8036 10.2673 -10.3902 -15.7196
# 3 44.7457 37.8036 141.7857 19.6261 -16.6939 -12.2625
# 4 4.9015 10.2673 19.6261 33.2610 -1.3858 -2.9452
# 5 9.9646 -10.3902 -16.6939 -1.3858 28.5860 -0.7393
# 6 -6.4281 -15.7196 -12.2625 -2.9452 -0.7393 27.5168
#
#
#
# Elastic Compliance Matrix: (Units=1/GPa)
#
#
# Indices 1 2 3 4 5 6 
#
# 1 0.015605 -0.000515 -0.005946 0.001042 -0.009034 0.000570
# 2 -0.000515 0.018647 -0.003006 -0.002887 0.005296 0.009026
# 3 -0.005946 -0.003006 0.011368 -0.004445 0.007447 0.001685
# 4 0.001042 -0.002887 -0.004445 0.033336 -0.002389 0.000117
# 5 -0.009034 0.005296 0.007447 -0.002389 0.044423 0.005172
# 6 0.000570 0.009026 0.001685 0.000117 0.005172 0.042533
#
#
# Mechanical properties :
#
#
# Convention : Reuss Voigt Hill
#
# Bulk Modulus (GPa) = 37.47033 54.16980 45.82006
# Shear Modulus (GPa) = 25.80750 31.73285 28.77017
#
# Velocity S-wave (km/s) = 3.42984 3.80325 3.62136
# Velocity P-wave (km/s) = 5.72408 6.63162 6.19449
#
# Compressibility (1/GPa) = 0.02668778
#
# Stress axis : x y z
#
# Youngs Moduli (GPa) = 64.08360 53.62658 87.96247
#
# Poissons Ratio (x) = 0.02762 0.52301
# Poissons Ratio (y) = 0.03300 0.26438
# Poissons Ratio (z) = 0.38103 0.16118
#
# Static dielectric constant tensor:
#      x y z
#    x 1.992470 -0.016700 -0.019280 
#    y -0.016700 1.803400 -0.030300 
#    z -0.019280 -0.030300 1.819800 
# 
# From -- ./inp_files/297709.got.cif
#   From: 2010.05.17/outbox.cif.g08.bks.cpg/sg2_149_cif.got.tgz:297709.got - 2010.06.03 11:33:40.
