data_PCOD9098588
_publ_section_title
;
Structure prediction by ZEFSAII (Michael W. Deem and Ramdas Pophale) SiO2 
 PCOD9098588
Probable space group: P -1
;
_chemical_formula_sum "Si O2"
_cell_formula_units_Z 16
_cell_length_a 18.077043
_cell_length_b 7.720747
_cell_length_c 7.507354
_cell_angle_alpha 56.146635
_cell_angle_beta 81.895700
_cell_angle_gamma 47.228313
_cell_volume 588.361160
_symmetry_space_group_name_H-M "P -1"
_symmetry_group_IT_number 2
_symmetry_cell_setting 'triclinic'
loop_
_space_group_symop_operation_xyz
x,y,z
-x,-y,-z
loop_
_atom_site_type_symbol
_atom_site_label
_atom_site_fract_x
_atom_site_fract_y
_atom_site_fract_z
Si Si1 0.181310 0.533304 0.295803
Si Si2 0.975287 0.390398 0.224949
Si Si3 0.369479 0.768607 0.734111
Si Si4 0.491622 0.144341 0.232203
Si Si5 0.378892 0.985796 0.274465
Si Si6 0.811477 0.146518 0.363062
Si Si7 0.061887 0.131850 0.871078
Si Si8 0.753267 0.669107 0.202697
O O1 0.280543 0.289895 0.260449
O O2 0.214293 0.394995 0.562699
O O3 0.065164 0.673169 0.191635
O O4 0.143337 0.853233 0.141403
O O5 0.937649 0.621573 0.262771
O O6 0.871929 0.460255 0.189416
O O7 0.090466 0.058316 0.415005
O O8 0.000000 0.500000 0.000000
O O9 0.408844 0.889864 0.768795
O O10 0.421353 0.720458 0.549491
O O11 0.248289 0.948834 0.606488
O O12 0.402141 0.498360 0.994676
O O13 0.467727 0.987571 0.212651
O O14 0.500000 0.000000 0.500000
O O15 0.326186 0.035484 0.072289
O O16 0.878839 0.064314 0.212609
O O17 0.724038 0.490061 0.266728
#
# Coordination Sequence:
#
# PCOD9098588 Si02
#       8
#     2   2   2   2   2   2   2   2
#     4  11  23  39  62  87 129 176 215 264 322 372
#     4  12  25  37  56  90 129 176 223 261 311 379
#     4  10  20  36  71  94 123 172 212 261 333 385
#     4   9  19  39  67 102 121 160 218 266 325 393
#     4  11  22  42  64  97 132 165 216 271 320 383
#     4  12  22  39  61  91 129 169 218 264 317 381
#     4  11  23  39  58  86 131 174 226 265 307 380
#     4  12  24  39  61  92 131 174 216 265 320 377
#
# _framework density 27.194181
#
# number of rings (size 3 to 8) (size 9 to 14) (size 15 to 20)
#    0.000    1.000    3.750    3.750    3.500    0.000 
#    0.000    0.000    0.000    7.500    0.000    0.000 
#    0.000    0.000    0.000    0.000    0.000    0.000 
#
# Total GULP energy -89126.994442 kJ/mol
# GULP energy per Si atom -5570.437153 kJ/mol
# Density = 2.713229 g / cm^3
# Si number density = 27.194181 Si / 1000 Ang^3
#
#
#
# Elastic Constant Matrix: (Units=GPa)
#
#
# Indices 1 2 3 4 5 6 
#
# 1 102.1966 9.9664 5.7111 4.6479 -4.6840 -7.1585
# 2 9.9664 49.0566 8.5812 23.8543 -7.9827 0.5834
# 3 5.7111 8.5812 175.4981 18.1140 -3.1949 -13.2621
# 4 4.6479 23.8543 18.1140 49.7075 4.8106 -1.2353
# 5 -4.6840 -7.9827 -3.1949 4.8106 45.5277 -5.4019
# 6 -7.1585 0.5834 -13.2621 -1.2353 -5.4019 34.3619
#
#
#
# Elastic Compliance Matrix: (Units=1/GPa)
#
#
# Indices 1 2 3 4 5 6 
#
# 1 0.010181 -0.001895 -0.000041 -0.000067 0.000991 0.002291
# 2 -0.001895 0.028722 0.000226 -0.014309 0.006332 -0.000314
# 3 -0.000041 0.000226 0.006136 -0.002377 0.001005 0.002428
# 4 -0.000067 -0.014309 -0.002377 0.028400 -0.005751 -0.000572
# 5 0.000991 0.006332 0.001005 -0.005751 0.024342 0.004107
# 6 0.002291 -0.000314 0.002428 -0.000572 0.004107 0.031147
#
#
# Mechanical properties :
#
#
# Convention : Reuss Voigt Hill
#
# Bulk Modulus (GPa) = 24.02711 41.69651 32.86181
# Shear Modulus (GPa) = 34.19504 46.08559 40.14032
#
# Velocity S-wave (km/s) = 3.54989 4.12112 3.84612
# Velocity P-wave (km/s) = 5.06526 6.16531 5.64216
#
# Compressibility (1/GPa) = 0.04161965
#
# Stress axis : x y z
#
# Youngs Moduli (GPa) = 98.22171 34.81628 162.98503
#
# Poissons Ratio (x) = 0.06597 0.00662
# Poissons Ratio (y) = 0.18610 -0.03678
# Poissons Ratio (z) = 0.00399 -0.00786
#
# Static dielectric constant tensor:
#      x y z
#    x 2.326630 0.013470 -0.076090 
#    y 0.013470 2.656470 -0.142990 
#    z -0.076090 -0.142990 2.448980 
# 
# From -- ./inp_files/327109.got.cif
#   From: 2010.05.17/outbox.cif.g08.bks.cpg/sg2_164_cif.got.tgz:327109.got - 2010.06.03 11:33:40.
