data_PCOD9098572
_publ_section_title
;
Structure prediction by ZEFSAII (Michael W. Deem and Ramdas Pophale) SiO2 
 PCOD9098572
Probable space group: P -1
;
_chemical_formula_sum "Si O2"
_cell_formula_units_Z 10
_cell_length_a 15.112696
_cell_length_b 10.468802
_cell_length_c 13.241370
_cell_angle_alpha 23.551012
_cell_angle_beta 146.275454
_cell_angle_gamma 154.018029
_cell_volume 366.357447
_symmetry_space_group_name_H-M "P -1"
_symmetry_group_IT_number 2
_symmetry_cell_setting 'triclinic'
loop_
_space_group_symop_operation_xyz
x,y,z
-x,-y,-z
loop_
_atom_site_type_symbol
_atom_site_label
_atom_site_fract_x
_atom_site_fract_y
_atom_site_fract_z
Si Si1 0.124541 0.904019 0.394778
Si Si2 0.244627 0.825426 0.984701
Si Si3 0.484969 0.993086 0.609305
Si Si4 0.777725 0.908997 0.028935
Si Si5 0.187381 0.098189 0.539210
O O1 0.357605 0.136717 0.420908
O O2 0.000000 0.500000 0.500000
O O3 0.011010 0.094170 0.121763
O O4 0.112923 0.848202 0.544858
O O5 0.311991 0.560032 0.280874
O O6 0.706846 0.004657 0.205172
O O7 0.000000 0.500000 0.000000
O O8 0.296114 0.157425 0.876483
O O9 0.336230 0.502733 0.846122
O O10 0.500000 0.000000 0.500000
O O11 0.702197 0.155683 0.738093
O O12 0.000000 0.000000 0.500000
#
# Coordination Sequence:
#
# PCOD9098572 Si02
#       5
#     2   2   2   2   2
#     4  10  21  42  67  96 128 177 227 268 338 399
#     4  10  20  36  69  94 134 173 222 274 337 396
#     4  10  24  41  63  96 136 168 228 277 334 397
#     4  10  21  42  64  95 128 178 221 276 333 399
#     4  10  20  39  63 101 129 171 226 273 330 403
#
# _framework density 27.295746000000001
#
# number of rings (size 3 to 8) (size 9 to 14) (size 15 to 20)
#    0.000    2.000    4.000    0.000    2.800    2.400 
#   10.800    2.000    0.000    0.000    0.000    0.000 
#    0.000    0.000    0.000    0.000    0.000    0.000 
#
# Total GULP energy -55857.185487 kJ/mol
# GULP energy per Si atom -5585.718549 kJ/mol
# Density = 2.723362 g / cm^3
# Si number density = 27.295746 Si / 1000 Ang^3
#
#
#
# Elastic Constant Matrix: (Units=GPa)
#
#
# Indices 1 2 3 4 5 6 
#
# 1 194.0831 53.3322 85.8940 31.1451 6.1661 -7.6728
# 2 53.3322 105.0278 40.7367 -4.5709 8.7116 -21.0753
# 3 85.8940 40.7367 220.0528 52.1896 -6.1189 15.8258
# 4 31.1451 -4.5709 52.1896 49.0161 -0.5594 8.1079
# 5 6.1661 8.7116 -6.1189 -0.5594 41.4100 12.1045
# 6 -7.6728 -21.0753 15.8258 8.1079 12.1045 62.3610
#
#
#
# Elastic Compliance Matrix: (Units=1/GPa)
#
#
# Indices 1 2 3 4 5 6 
#
# 1 0.007278 -0.002954 -0.001590 -0.003374 -0.001017 0.000937
# 2 -0.002954 0.014000 -0.003318 0.005783 -0.004474 0.005326
# 3 -0.001590 -0.003318 0.007732 -0.007017 0.002835 -0.002917
# 4 -0.003374 0.005783 -0.007017 0.030612 -0.001213 -0.000425
# 5 -0.001017 -0.004474 0.002835 -0.001213 0.027868 -0.007608
# 6 0.000937 0.005326 -0.002917 -0.000425 -0.007608 0.020223
#
#
# Mechanical properties :
#
#
# Convention : Reuss Voigt Hill
#
# Bulk Modulus (GPa) = 75.25747 97.67660 86.46704
# Shear Modulus (GPa) = 39.10381 53.17079 46.13730
#
# Velocity S-wave (km/s) = 3.78907 4.41835 4.11575
# Velocity P-wave (km/s) = 6.83913 7.86710 7.37106
#
# Compressibility (1/GPa) = 0.01328772
#
# Stress axis : x y z
#
# Youngs Moduli (GPa) = 137.39220 71.43016 129.33674
#
# Poissons Ratio (x) = 0.21100 0.20558
# Poissons Ratio (y) = 0.40586 0.42908
# Poissons Ratio (z) = 0.21839 0.23697
#
# Static dielectric constant tensor:
#      x y z
#    x 2.073530 -0.026680 0.029860 
#    y -0.026680 2.205760 -0.076870 
#    z 0.029860 -0.076870 2.275830 
# 
# From -- ./inp_files/411545.got.cif
#   From: 2010.05.17/outbox.cif.g08.bks.cpg/sg2_206_cif.got.tgz:411545.got - 2010.06.03 11:33:40.
