data_PCOD9098711
_publ_section_title
;
Structure prediction by ZEFSAII (Michael W. Deem and Ramdas Pophale) SiO2 
 PCOD9098711
Probable space group: P -1
;
_chemical_formula_sum "Si O2"
_cell_formula_units_Z 14
_cell_length_a 7.897348
_cell_length_b 14.391813
_cell_length_c 11.221464
_cell_angle_alpha 51.384863
_cell_angle_beta 35.975476
_cell_angle_gamma 58.699679
_cell_volume 585.115798
_symmetry_space_group_name_H-M "P -1"
_symmetry_group_IT_number 2
_symmetry_cell_setting 'triclinic'
loop_
_space_group_symop_operation_xyz
x,y,z
-x,-y,-z
loop_
_atom_site_type_symbol
_atom_site_label
_atom_site_fract_x
_atom_site_fract_y
_atom_site_fract_z
Si Si1 0.304353 0.171806 0.038890
Si Si2 0.223851 0.120369 0.650300
Si Si3 0.418909 0.281107 0.241025
Si Si4 0.020357 0.653076 0.751079
Si Si5 0.445256 0.545238 0.759226
Si Si6 0.777770 0.320504 0.766214
Si Si7 0.335843 0.040632 0.901832
O O1 0.055243 0.237364 0.203651
O O2 0.577709 0.251893 0.842527
O O3 0.394541 0.041404 0.142271
O O4 0.270573 0.152788 0.933840
O O5 0.412292 0.147883 0.405482
O O6 0.386187 0.077455 0.709021
O O7 0.083737 0.253026 0.647637
O O8 0.951129 0.036919 0.860515
O O9 0.101590 0.309781 0.339273
O O10 0.522374 0.370897 0.211677
O O11 0.635023 0.292520 0.998244
O O12 0.336849 0.608225 0.648447
O O13 0.805701 0.546488 0.990392
O O14 0.724727 0.458461 0.656661
#
# Coordination Sequence:
#
# PCOD9098711 Si02
#       7
#     2   2   2   2   2   2   2
#     4   8  16  34  58  76 105 145 189 219 281 329
#     4  10  21  36  57  80 114 143 187 230 280 323
#     4  10  20  37  56  86 114 143 189 231 263 342
#     4   9  18  35  59  84 112 149 181 228 278 332
#     4   9  18  35  58  83 115 147 183 221 283 328
#     4   9  19  37  57  82 112 146 181 227 277 337
#     4   9  18  36  55  78 109 151 181 233 280 327
#
# _framework density 23.926888999999999
#
# number of rings (size 3 to 8) (size 9 to 14) (size 15 to 20)
#    0.000    3.143    0.000    1.714    2.000    0.571 
#   10.286   15.000    0.000    0.000    0.000    0.000 
#    0.000    0.000    0.000    0.000    0.000    0.000 
#
# Total GULP energy -78133.865459 kJ/mol
# GULP energy per Si atom -5580.990390 kJ/mol
# Density = 2.387243 g / cm^3
# Si number density = 23.926889 Si / 1000 Ang^3
#
#
#
# Elastic Constant Matrix: (Units=GPa)
#
#
# Indices 1 2 3 4 5 6 
#
# 1 100.7568 38.1671 40.0357 -4.2556 26.6513 16.8457
# 2 38.1671 68.6279 34.2568 -3.6421 -2.0283 22.9201
# 3 40.0357 34.2568 -5.3957 -16.7819 9.7859 -19.0417
# 4 -4.2556 -3.6421 -16.7819 11.7005 -8.9366 -3.5104
# 5 26.6513 -2.0283 9.7859 -8.9366 27.9093 0.9086
# 6 16.8457 22.9201 -19.0417 -3.5104 0.9086 29.6605
#
#
#
# Elastic Compliance Matrix: (Units=1/GPa)
#
#
# Indices 1 2 3 4 5 6 
#
# 1 0.019018 -0.015731 0.005137 -0.007267 -0.023579 0.004515
# 2 -0.015731 0.023742 0.005624 0.026598 0.023402 -0.003371
# 3 0.005137 0.005624 -0.009250 -0.019614 -0.007035 -0.015307
# 4 -0.007267 0.026598 -0.019614 0.092172 0.045898 -0.019515
# 5 -0.023579 0.023402 -0.007035 0.045898 0.077411 -0.006148
# 6 0.004515 -0.003371 -0.015307 -0.019515 -0.006148 0.021807
#
#
# Mechanical properties :
#
#
# Convention : Reuss Voigt Hill
#
# Bulk Modulus (GPa) = 42.42937 43.21204 42.82070
# Shear Modulus (GPa) = 20.60180 17.28936 18.94558
#
# Velocity S-wave (km/s) = 2.93752 2.69102 2.81697
# Velocity P-wave (km/s) = 5.41080 5.26827 5.34001
#
# Compressibility (1/GPa) = 0.02356858
#
# Stress axis : x y z
#
# Youngs Moduli (GPa) = 52.58191 42.11945 -108.11140
#
# Poissons Ratio (x) = 0.66260 0.55535
# Poissons Ratio (y) = 0.82719 0.60799
# Poissons Ratio (z) = -0.27010 -0.23687
#
# Static dielectric constant tensor:
#      x y z
#    x 1.913280 -0.045460 -0.004920 
#    y -0.045460 1.968920 0.013930 
#    z -0.004920 0.013930 1.949120 
# 
# From -- ./inp_files/393746.got.cif
#   From: 2010.05.17/outbox.cif.g08.bks.cpg/sg2_197_cif.got.tgz:393746.got - 2010.06.03 11:33:40.
