data_PCOD9098856
_publ_section_title
;
Structure prediction by ZEFSAII (Michael W. Deem and Ramdas Pophale) SiO2 
 PCOD9098856
Probable space group: P -1
;
_chemical_formula_sum "Si O2"
_cell_formula_units_Z 12
_cell_length_a 8.026350
_cell_length_b 9.845613
_cell_length_c 8.418860
_cell_angle_alpha 66.755533
_cell_angle_beta 73.946278
_cell_angle_gamma 45.524512
_cell_volume 436.187834
_symmetry_space_group_name_H-M "P -1"
_symmetry_group_IT_number 2
_symmetry_cell_setting 'triclinic'
loop_
_space_group_symop_operation_xyz
x,y,z
-x,-y,-z
loop_
_atom_site_type_symbol
_atom_site_label
_atom_site_fract_x
_atom_site_fract_y
_atom_site_fract_z
Si Si1 0.468562 0.683743 0.722278
Si Si2 0.754732 0.937021 0.812364
Si Si3 0.074425 0.111509 0.552243
Si Si4 0.702336 0.758465 0.377658
Si Si5 0.699244 0.277256 0.805493
Si Si6 0.080512 0.600521 0.108703
O O1 0.585166 0.689036 0.531590
O O2 0.466303 0.507667 0.785280
O O3 0.655682 0.610323 0.847201
O O4 0.224071 0.901722 0.703032
O O5 0.889425 0.920502 0.628878
O O6 0.499330 0.045814 0.761240
O O7 0.699414 0.102406 0.873586
O O8 0.920000 0.718569 0.944752
O O9 0.202211 0.187004 0.539359
O O10 0.813639 0.259422 0.615468
O O11 0.869681 0.262291 0.893393
O O12 0.916660 0.607023 0.273514
#
# Coordination Sequence:
#
# PCOD9098856 Si02
#       6
#     2   2   2   2   2   2
#     4   9  19  36  61  78 108 142 188 214 271 321
#     4  11  19  35  58  84 109 142 180 227 273 313
#     4  10  21  37  58  80 109 146 183 219 268 323
#     4  10  20  37  58  79 111 146 181 220 269 324
#     4   9  21  36  61  76 112 145 179 220 273 324
#     4   9  20  35  58  80 110 143 180 223 273 316
#
# _framework density 27.511084
#
# number of rings (size 3 to 8) (size 9 to 14) (size 15 to 20)
#    1.000    1.333    0.000    4.000    0.000    2.667 
#    0.000    4.167   14.667    0.000    0.000    0.000 
#    0.000    0.000    0.000    0.000    0.000    0.000 
#
# Total GULP energy -67124.802746 kJ/mol
# GULP energy per Si atom -5593.733562 kJ/mol
# Density = 2.744847 g / cm^3
# Si number density = 27.511084 Si / 1000 Ang^3
#
#
#
# Elastic Constant Matrix: (Units=GPa)
#
#
# Indices 1 2 3 4 5 6 
#
# 1 73.4392 2.3604 32.8978 -8.3426 13.6721 0.4120
# 2 2.3604 92.9179 39.0218 -25.1179 0.9433 -3.7732
# 3 32.8978 39.0218 134.8459 -23.4609 10.4384 -2.8727
# 4 -8.3426 -25.1179 -23.4609 41.2008 -8.7198 2.4450
# 5 13.6721 0.9433 10.4384 -8.7198 41.4489 -1.7328
# 6 0.4120 -3.7732 -2.8727 2.4450 -1.7328 24.1482
#
#
#
# Elastic Compliance Matrix: (Units=1/GPa)
#
#
# Indices 1 2 3 4 5 6 
#
# 1 0.016234 0.001548 -0.003898 0.001177 -0.004199 -0.000919
# 2 0.001548 0.014110 -0.003287 0.007310 0.001582 0.001161
# 3 -0.003898 -0.003287 0.009833 0.002668 -0.000537 0.000414
# 4 0.001177 0.007310 0.002668 0.031707 0.005386 -0.001384
# 5 -0.004199 0.001582 -0.000537 0.005386 0.026812 0.001634
# 6 -0.000919 0.001161 0.000414 -0.001384 0.001634 0.041915
#
#
# Mechanical properties :
#
#
# Convention : Reuss Voigt Hill
#
# Bulk Modulus (GPa) = 34.59860 49.97367 42.28613
# Shear Modulus (GPa) = 30.95613 36.48778 33.72196
#
# Velocity S-wave (km/s) = 3.35807 3.64578 3.50488
# Velocity P-wave (km/s) = 5.25729 5.99389 5.63763
#
# Compressibility (1/GPa) = 0.02890291
#
# Stress axis : x y z
#
# Youngs Moduli (GPa) = 61.59979 70.86962 101.70273
#
# Poissons Ratio (x) = -0.10972 0.39646
# Poissons Ratio (y) = -0.09537 0.33429
# Poissons Ratio (z) = 0.24013 0.23294
#
# Static dielectric constant tensor:
#      x y z
#    x 2.137070 0.027690 -0.024670 
#    y 0.027690 2.081700 0.003350 
#    z -0.024670 0.003350 2.132260 
# 
# From -- ./inp_files/421112.got.cif
#   From: 2010.05.17/outbox.cif.g08.bks.cpg/sg2_211_cif.got.tgz:421112.got - 2010.06.03 11:33:40.
