data_PCOD9098932
_publ_section_title
;
Structure prediction by ZEFSAII (Michael W. Deem and Ramdas Pophale) SiO2 
 PCOD9098932
Probable space group: P -1
;
_chemical_formula_sum "Si O2"
_cell_formula_units_Z 14
_cell_length_a 5.626990
_cell_length_b 12.417889
_cell_length_c 10.176185
_cell_angle_alpha 66.443385
_cell_angle_beta 84.212300
_cell_angle_gamma 57.514902
_cell_volume 543.832954
_symmetry_space_group_name_H-M "P -1"
_symmetry_group_IT_number 2
_symmetry_cell_setting 'triclinic'
loop_
_space_group_symop_operation_xyz
x,y,z
-x,-y,-z
loop_
_atom_site_type_symbol
_atom_site_label
_atom_site_fract_x
_atom_site_fract_y
_atom_site_fract_z
Si Si1 0.050139 0.690362 0.874505
Si Si2 0.613833 0.272095 0.378019
Si Si3 0.067389 0.514899 0.182749
Si Si4 0.206258 0.644520 0.422271
Si Si5 0.607271 0.831869 0.374059
Si Si6 0.417539 0.760102 0.164785
Si Si7 0.543080 0.058673 0.106227
O O1 0.968874 0.602559 0.827662
O O2 0.762551 0.826356 0.874807
O O3 0.236045 0.735168 0.763118
O O4 0.178965 0.585727 0.042287
O O5 0.317225 0.423445 0.315332
O O6 0.801034 0.271935 0.487063
O O7 0.538989 0.159786 0.483790
O O8 0.746341 0.635539 0.182211
O O9 0.500000 0.500000 0.500000
O O10 0.235787 0.699535 0.252532
O O11 0.892670 0.676524 0.426297
O O12 0.417742 0.838198 0.259392
O O13 0.684045 0.942209 0.268401
O O14 0.314258 0.859329 0.995124
O O15 0.500000 0.000000 0.000000
#
# Coordination Sequence:
#
# PCOD9098932 Si02
#       7
#     2   2   2   2   2   2   2
#     4  10  21  37  60  83 110 147 185 230 282 333
#     4  11  21  35  55  83 116 148 182 228 280 329
#     4  10  20  37  58  86 115 142 185 234 279 329
#     4  11  21  34  57  87 115 149 187 227 278 329
#     4  10  21  36  56  83 116 150 187 228 271 328
#     4   9  19  36  59  83 113 148 185 233 277 321
#     4   9  20  41  60  80 110 146 190 233 275 330
#
# _framework density 25.743200000000002
#
# number of rings (size 3 to 8) (size 9 to 14) (size 15 to 20)
#    0.000    2.000    0.000    3.857    0.000    3.429 
#    0.000   15.714    0.000    0.000    0.000    0.000 
#    0.000    0.000    0.000    0.000    0.000    0.000 
#
# Total GULP energy -78175.289012 kJ/mol
# GULP energy per Si atom -5583.949215 kJ/mol
# Density = 2.568461 g / cm^3
# Si number density = 25.743200 Si / 1000 Ang^3
#
#
#
# Elastic Constant Matrix: (Units=GPa)
#
#
# Indices 1 2 3 4 5 6 
#
# 1 35.4418 5.6141 62.6890 9.5603 -8.7629 -10.9940
# 2 5.6141 69.9228 49.0097 1.8409 -16.0818 -14.5216
# 3 62.6890 49.0097 234.0079 9.0585 -53.1905 -22.3462
# 4 9.5603 1.8409 9.0585 31.6946 -12.8087 -1.2267
# 5 -8.7629 -16.0818 -53.1905 -12.8087 55.9342 18.8251
# 6 -10.9940 -14.5216 -22.3462 -1.2267 18.8251 29.7503
#
#
#
# Elastic Compliance Matrix: (Units=1/GPa)
#
#
# Indices 1 2 3 4 5 6 
#
# 1 0.087577 0.014389 -0.028261 -0.028805 -0.027096 0.034117
# 2 0.014389 0.020174 -0.007762 -0.004608 -0.004396 0.011926
# 3 -0.028261 -0.007762 0.015149 0.009764 0.013732 -0.011140
# 4 -0.028805 -0.004608 0.009764 0.044786 0.018999 -0.015736
# 5 -0.027096 -0.004396 0.013732 0.018999 0.038290 -0.025289
# 6 0.034117 0.011926 -0.011140 -0.015736 -0.025289 0.059028
#
#
# Mechanical properties :
#
#
# Convention : Reuss Voigt Hill
#
# Bulk Modulus (GPa) = 12.55768 63.77755 38.16761
# Shear Modulus (GPa) = 14.93361 38.27980 26.60670
#
# Velocity S-wave (km/s) = 2.41114 3.86033 3.21836
# Velocity P-wave (km/s) = 3.55529 6.68564 5.35434
#
# Compressibility (1/GPa) = 0.07963257
#
# Stress axis : x y z
#
# Youngs Moduli (GPa) = 11.41857 49.56989 66.00930
#
# Poissons Ratio (x) = -0.71324 1.86546
# Poissons Ratio (y) = -0.16430 0.51234
# Poissons Ratio (z) = 0.32270 0.38474
#
# Static dielectric constant tensor:
#      x y z
#    x 2.095080 0.100310 -0.090370 
#    y 0.100310 2.076370 -0.066030 
#    z -0.090370 -0.066030 2.078380 
# 
# From -- ./inp_files/67113.got.cif
#   From: 2010.05.17/outbox.cif.g08.bks.cpg/sg2_34_cif.got.tgz:67113.got - 2010.06.03 11:33:40.
