data_PCOD9098415
_publ_section_title
;
Structure prediction by ZEFSAII (Michael W. Deem and Ramdas Pophale) SiO2 
 PCOD9098415
Probable space group: P -1
;
_chemical_formula_sum "Si O2"
_cell_formula_units_Z 16
_cell_length_a 12.659127
_cell_length_b 12.806391
_cell_length_c 23.085527
_cell_angle_alpha 25.520599
_cell_angle_beta 143.346958
_cell_angle_gamma 155.551921
_cell_volume 663.434996
_symmetry_space_group_name_H-M "P -1"
_symmetry_group_IT_number 2
_symmetry_cell_setting 'triclinic'
loop_
_space_group_symop_operation_xyz
x,y,z
-x,-y,-z
loop_
_atom_site_type_symbol
_atom_site_label
_atom_site_fract_x
_atom_site_fract_y
_atom_site_fract_z
Si Si1 0.581977 0.689276 0.880064
Si Si2 0.479823 0.856738 0.413927
Si Si3 0.583555 0.909039 0.977124
Si Si4 0.204069 0.944951 0.777667
Si Si5 0.401358 0.569083 0.636744
Si Si6 0.224856 0.400086 0.166059
Si Si7 0.946789 0.926018 0.168759
Si Si8 0.979818 0.888135 0.481276
O O1 0.449191 0.810319 0.746211
O O2 0.500000 0.500000 0.000000
O O3 0.512228 0.405775 0.947520
O O4 0.879697 0.039313 0.818940
O O5 0.386355 0.775156 0.481529
O O6 0.257736 0.519199 0.443018
O O7 0.740887 0.957557 0.481797
O O8 0.449955 0.018826 0.840815
O O9 0.473158 0.773277 0.061641
O O10 0.871039 0.100880 0.014741
O O11 0.956733 0.606132 0.874031
O O12 0.286452 0.244016 0.707261
O O13 0.085140 0.935500 0.672377
O O14 0.684328 0.744324 0.685844
O O15 0.268477 0.443281 0.705156
O O16 0.095820 0.166922 0.169410
O O17 0.000000 0.000000 0.500000
#
# Coordination Sequence:
#
# PCOD9098415 Si02
#       8
#     2   2   2   2   2   2   2   2
#     4  11  27  47  66  95 138 192 240 285 347 426
#     4  11  25  48  75 104 143 186 237 297 356 421
#     4  10  22  39  62  97 135 181 231 279 347 415
#     4  10  20  36  65  99 138 175 225 288 355 412
#     4   9  19  38  68 101 136 175 230 299 361 412
#     4   9  17  36  60  97 135 171 223 283 353 412
#     4   9  21  41  64  98 137 182 236 286 354 422
#     4  11  25  47  74 107 139 183 239 298 360 418
#
# _framework density 24.116907000000001
#
# number of rings (size 3 to 8) (size 9 to 14) (size 15 to 20)
#    0.000    2.000    1.250    0.750    3.500    7.500 
#    0.000    5.625    0.000    0.000    0.000    0.000 
#    0.000    0.000    0.000    0.000    0.000    0.000 
#
# Total GULP energy -89097.826423 kJ/mol
# GULP energy per Si atom -5568.614151 kJ/mol
# Density = 2.406202 g / cm^3
# Si number density = 24.116907 Si / 1000 Ang^3
#
#
#
# Elastic Constant Matrix: (Units=GPa)
#
#
# Indices 1 2 3 4 5 6 
#
# 1 102.6076 35.9015 60.7564 19.7457 -19.6369 -6.4962
# 2 35.9015 101.4180 33.9865 26.3203 -6.0832 1.3682
# 3 60.7564 33.9865 149.3721 36.9515 -20.3382 -9.5182
# 4 19.7457 26.3203 36.9515 43.6216 -5.7755 8.8624
# 5 -19.6369 -6.0832 -20.3382 -5.7755 23.1354 5.2066
# 6 -6.4962 1.3682 -9.5182 8.8624 5.2066 26.5315
#
#
#
# Elastic Compliance Matrix: (Units=1/GPa)
#
#
# Indices 1 2 3 4 5 6 
#
# 1 0.015008 -0.003364 -0.004085 -0.000452 0.007930 0.000977
# 2 -0.003364 0.012642 -0.000044 -0.006440 -0.001388 0.000932
# 3 -0.004085 -0.000044 0.011144 -0.008192 0.003119 0.005124
# 4 -0.000452 -0.006440 -0.008192 0.037712 0.003747 -0.016050
# 5 0.007930 -0.001388 0.003119 0.003747 0.055286 -0.008969
# 6 0.000977 0.000932 0.005124 -0.016050 -0.008969 0.046842
#
#
# Mechanical properties :
#
#
# Convention : Reuss Voigt Hill
#
# Bulk Modulus (GPa) = 42.00507 68.29851 55.15179
# Shear Modulus (GPa) = 24.80687 33.50794 29.15740
#
# Velocity S-wave (km/s) = 3.21067 3.73150 3.48084
# Velocity P-wave (km/s) = 5.58566 6.85177 6.25086
#
# Compressibility (1/GPa) = 0.02380665
#
# Stress axis : x y z
#
# Youngs Moduli (GPa) = 66.62893 79.10435 89.73140
#
# Poissons Ratio (x) = 0.26612 0.36659
# Poissons Ratio (y) = 0.22415 0.00398
# Poissons Ratio (z) = 0.27221 0.00351
#
# Static dielectric constant tensor:
#      x y z
#    x 1.958240 0.051610 -0.038360 
#    y 0.051610 2.246150 -0.065760 
#    z -0.038360 -0.065760 2.066660 
# 
# From -- ./inp_files/595063.got.cif
#   From: 2010.05.17/outbox.cif.g08.bks.cpg/sg2_298_cif.got.tgz:595063.got - 2010.06.03 11:33:40.
