data_PCOD9098247
_publ_section_title
;
Structure prediction by ZEFSAII (Michael W. Deem and Ramdas Pophale) SiO2 
 PCOD9098247
Probable space group: P -1
;
_chemical_formula_sum "Si O2"
_cell_formula_units_Z 16
_cell_length_a 9.475459
_cell_length_b 9.745145
_cell_length_c 13.097692
_cell_angle_alpha 62.265636
_cell_angle_beta 64.977235
_cell_angle_gamma 43.875074
_cell_volume 734.356373
_symmetry_space_group_name_H-M "P -1"
_symmetry_group_IT_number 2
_symmetry_cell_setting 'triclinic'
loop_
_space_group_symop_operation_xyz
x,y,z
-x,-y,-z
loop_
_atom_site_type_symbol
_atom_site_label
_atom_site_fract_x
_atom_site_fract_y
_atom_site_fract_z
Si Si1 0.271608 0.887232 0.393888
Si Si2 0.180643 0.761190 0.659314
Si Si3 0.423463 0.088015 0.382678
Si Si4 0.198938 0.114585 0.815731
Si Si5 0.197164 0.449979 0.009440
Si Si6 0.698712 0.276593 0.135265
Si Si7 0.648250 0.681572 0.196757
Si Si8 0.749530 0.521773 0.797348
O O1 0.291843 0.745162 0.526414
O O2 0.447503 0.777899 0.292000
O O3 0.287420 0.038403 0.397242
O O4 0.050692 0.028327 0.358883
O O5 0.263117 0.775371 0.736830
O O6 0.202605 0.560689 0.736213
O O7 0.300497 0.327628 0.329840
O O8 0.500000 0.000000 0.500000
O O9 0.629572 0.966749 0.294556
O O10 0.256919 0.211857 0.844288
O O11 0.964095 0.298278 0.793737
O O12 0.230290 0.911385 0.892340
O O13 0.178145 0.648302 0.954432
O O14 0.378039 0.306441 0.921605
O O15 0.239881 0.378000 0.137589
O O16 0.000000 0.500000 0.000000
O O17 0.452447 0.452829 0.137657
#
# Coordination Sequence:
#
# PCOD9098247 Si02
#       8
#     2   2   2   2   2   2   2   2
#     4  10  20  36  64  92 124 167 217 256 320 377
#     4  10  21  39  62  92 130 168 205 267 318 379
#     4  10  22  40  62  96 131 164 211 270 319 384
#     4  10  21  40  65  95 124 167 215 262 319 389
#     4  11  23  43  68  92 129 176 213 269 321 374
#     4  10  24  41  64  94 134 163 214 267 318 383
#     4  10  21  40  62  92 126 165 215 265 314 380
#     4  11  22  42  67  90 131 171 211 264 329 374
#
# _framework density 21.787787999999999
#
# number of rings (size 3 to 8) (size 9 to 14) (size 15 to 20)
#    0.000    1.750    1.250    3.000    1.750    3.000 
#    0.000   16.875    0.000    0.000    0.000    0.000 
#    0.000    0.000    0.000    0.000    0.000    0.000 
#
# Total GULP energy -89306.336950 kJ/mol
# GULP energy per Si atom -5581.646059 kJ/mol
# Density = 2.173820 g / cm^3
# Si number density = 21.787788 Si / 1000 Ang^3
#
#
#
# Elastic Constant Matrix: (Units=GPa)
#
#
# Indices 1 2 3 4 5 6 
#
# 1 113.4986 25.5652 18.1428 -11.0031 -7.2938 1.5512
# 2 25.5652 87.3260 -1.2831 -5.8152 -11.3084 4.6288
# 3 18.1428 -1.2831 36.6063 -5.1859 -2.1413 0.4001
# 4 -11.0031 -5.8152 -5.1859 17.6551 2.9231 -4.8907
# 5 -7.2938 -11.3084 -2.1413 2.9231 29.7422 -5.4289
# 6 1.5512 4.6288 0.4001 -4.8907 -5.4289 44.2384
#
#
#
# Elastic Compliance Matrix: (Units=1/GPa)
#
#
# Indices 1 2 3 4 5 6 
#
# 1 0.010671 -0.002820 -0.004727 0.004340 0.000878 0.000551
# 2 -0.002820 0.013034 0.002445 0.002431 0.004107 -0.000514
# 3 -0.004727 0.002445 0.030790 0.006823 0.001419 0.000560
# 4 0.004340 0.002431 0.006823 0.064346 -0.002691 0.006315
# 5 0.000878 0.004107 0.001419 -0.002691 0.036442 0.003701
# 6 0.000551 -0.000514 0.000560 0.006315 0.003701 0.023787
#
#
# Mechanical properties :
#
#
# Convention : Reuss Voigt Hill
#
# Bulk Modulus (GPa) = 22.57859 35.80896 29.19378
# Shear Modulus (GPa) = 24.50530 31.32755 27.91643
#
# Velocity S-wave (km/s) = 3.35733 3.79601 3.58339
# Velocity P-wave (km/s) = 5.04127 5.97360 5.52713
#
# Compressibility (1/GPa) = 0.04428974
#
# Stress axis : x y z
#
# Youngs Moduli (GPa) = 93.70974 76.72320 32.47816
#
# Poissons Ratio (x) = 0.21636 0.15354
# Poissons Ratio (y) = 0.26426 -0.07940
# Poissons Ratio (z) = 0.44301 -0.18757
#
# Static dielectric constant tensor:
#      x y z
#    x 1.830750 0.016210 -0.028170 
#    y 0.016210 1.815180 -0.007950 
#    z -0.028170 -0.007950 1.867370 
# 
# From -- ./inp_files/492484.got.cif
#   From: 2010.05.17/outbox.cif.g08.bks.cpg/sg2_247_cif.got.tgz:492484.got - 2010.06.03 11:33:40.
