data_PCOD9098351
_publ_section_title
;
Structure prediction by ZEFSAII (Michael W. Deem and Ramdas Pophale) SiO2 
 PCOD9098351
Probable space group: P -1
;
_chemical_formula_sum "Si O2"
_cell_formula_units_Z 14
_cell_length_a 16.869779
_cell_length_b 5.692069
_cell_length_c 12.100733
_cell_angle_alpha 104.589091
_cell_angle_beta 139.396077
_cell_angle_gamma 69.846504
_cell_volume 709.842732
_symmetry_space_group_name_H-M "P -1"
_symmetry_group_IT_number 2
_symmetry_cell_setting 'triclinic'
loop_
_space_group_symop_operation_xyz
x,y,z
-x,-y,-z
loop_
_atom_site_type_symbol
_atom_site_label
_atom_site_fract_x
_atom_site_fract_y
_atom_site_fract_z
Si Si1 0.211263 0.532342 0.938839
Si Si2 0.619392 0.909774 0.847635
Si Si3 0.945502 0.626635 0.573006
Si Si4 0.370693 0.657723 0.931311
Si Si5 0.798704 0.208775 0.442515
Si Si6 0.600108 0.343224 0.439961
Si Si7 0.375057 0.792036 0.303557
O O1 0.285368 0.520817 0.899299
O O2 0.065573 0.636116 0.776348
O O3 0.274683 0.681915 0.113524
O O4 0.247418 0.252316 0.989862
O O5 0.626587 0.951670 0.729684
O O6 0.506277 0.783591 0.735803
O O7 0.592263 0.159536 0.918404
O O8 0.875666 0.422260 0.525585
O O9 0.000000 0.500000 0.500000
O O10 0.869952 0.917156 0.507392
O O11 0.285481 0.790632 0.756181
O O12 0.500000 0.500000 0.000000
O O13 0.708795 0.312641 0.462952
O O14 0.514849 0.618470 0.409000
O O15 0.648831 0.215270 0.593173
#
# Coordination Sequence:
#
# PCOD9098351 Si02
#       7
#     2   2   2   2   2   2   2
#     4  10  22  39  62  90 120 169 219 256 320 389
#     4  10  20  36  65  89 124 166 208 263 326 396
#     4  12  26  45  66  91 131 183 218 264 318 387
#     4  11  23  37  61  96 129 159 205 274 327 388
#     4  12  27  42  67  97 133 169 222 267 320 383
#     4  10  22  40  62  98 127 166 211 273 327 391
#     4   9  20  40  67  92 128 164 213 265 338 383
#
# _framework density 19.72268
#
# number of rings (size 3 to 8) (size 9 to 14) (size 15 to 20)
#    0.000    1.429    1.429    4.286    8.000    1.143 
#    0.000    1.429    0.000    0.000    0.000    0.000 
#    0.000    0.000    0.000    0.000    0.000    0.000 
#
# Total GULP energy -78084.445076 kJ/mol
# GULP energy per Si atom -5577.460363 kJ/mol
# Density = 1.967779 g / cm^3
# Si number density = 19.722680 Si / 1000 Ang^3
#
#
#
# Elastic Constant Matrix: (Units=GPa)
#
#
# Indices 1 2 3 4 5 6 
#
# 1 136.0765 31.6683 49.9500 -11.7466 -12.1765 16.0608
# 2 31.6683 75.1885 39.6391 -13.6670 -0.1226 16.2789
# 3 49.9500 39.6391 123.0425 -15.3971 -3.7621 1.3749
# 4 -11.7466 -13.6670 -15.3971 34.9399 4.2156 -8.4326
# 5 -12.1765 -0.1226 -3.7621 4.2156 28.3245 4.0880
# 6 16.0608 16.2789 1.3749 -8.4326 4.0880 18.5838
#
#
#
# Elastic Compliance Matrix: (Units=1/GPa)
#
#
# Indices 1 2 3 4 5 6 
#
# 1 0.010539 -0.000276 -0.004097 -0.001613 0.005749 -0.010559
# 2 -0.000276 0.020563 -0.006162 0.000891 0.001508 -0.017246
# 3 -0.004097 -0.006162 0.012135 0.004390 -0.002352 0.010551
# 4 -0.001613 0.000891 0.004390 0.035747 -0.008066 0.018284
# 5 0.005749 0.001508 -0.002352 -0.008066 0.041396 -0.018882
# 6 -0.010559 -0.017246 0.010551 0.018284 -0.018882 0.089712
#
#
# Mechanical properties :
#
#
# Convention : Reuss Voigt Hill
#
# Bulk Modulus (GPa) = 45.11467 64.09135 54.60301
# Shear Modulus (GPa) = 20.95974 30.57297 25.76636
#
# Velocity S-wave (km/s) = 3.26348 3.94146 3.61838
# Velocity P-wave (km/s) = 6.09299 7.29933 6.72327
#
# Compressibility (1/GPa) = 0.02216574
#
# Stress axis : x y z
#
# Youngs Moduli (GPa) = 94.88918 48.63088 82.40431
#
# Poissons Ratio (x) = 0.01343 0.33763
# Poissons Ratio (y) = 0.02621 0.50778
# Poissons Ratio (z) = 0.38879 0.29967
#
# Static dielectric constant tensor:
#      x y z
#    x 1.692630 0.060810 -0.008750 
#    y 0.060810 1.783660 -0.007920 
#    z -0.008750 -0.007920 1.710350 
# 
# From -- ./inp_files/26738.got.cif
#   From: 2010.05.17/outbox.cif.g08.bks.cpg/sg2_14_cif.got.tgz:26738.got - 2010.06.03 11:33:40.
