data_PCOD9098372
_publ_section_title
;
Structure prediction by ZEFSAII (Michael W. Deem and Ramdas Pophale) SiO2 
 PCOD9098372
Probable space group: P -1
;
_chemical_formula_sum "Si O2"
_cell_formula_units_Z 16
_cell_length_a 13.623603
_cell_length_b 14.997385
_cell_length_c 8.622870
_cell_angle_alpha 102.836526
_cell_angle_beta 74.656287
_cell_angle_gamma 38.743348
_cell_volume 748.686654
_symmetry_space_group_name_H-M "P -1"
_symmetry_group_IT_number 2
_symmetry_cell_setting 'triclinic'
loop_
_space_group_symop_operation_xyz
x,y,z
-x,-y,-z
loop_
_atom_site_type_symbol
_atom_site_label
_atom_site_fract_x
_atom_site_fract_y
_atom_site_fract_z
Si Si1 0.234888 0.127820 0.652267
Si Si2 0.683308 0.514854 0.781039
Si Si3 0.070717 0.348073 0.083913
Si Si4 0.161318 0.918951 0.173467
Si Si5 0.418528 0.196490 0.043314
Si Si6 0.932737 0.816614 0.759548
Si Si7 0.671585 0.788945 0.557033
Si Si8 0.980423 0.884879 0.357546
O O1 0.261588 0.160932 0.493717
O O2 0.166557 0.079178 0.633748
O O3 0.454789 0.948213 0.599856
O O4 0.067504 0.328179 0.896577
O O5 0.679712 0.623505 0.877938
O O6 0.852427 0.377494 0.511436
O O7 0.790308 0.352587 0.784939
O O8 0.422730 0.698861 0.936338
O O9 0.294985 0.223682 0.993361
O O10 0.066770 0.250889 0.122911
O O11 0.865692 0.567578 0.326354
O O12 0.032874 0.926172 0.237310
O O13 0.063147 0.078356 0.169712
O O14 0.129280 0.985569 0.388783
O O15 0.361344 0.208170 0.247449
O O16 0.688051 0.993620 0.852572
#
# Coordination Sequence:
#
# PCOD9098372 Si02
#       8
#     2   2   2   2   2   2   2   2
#     4  11  26  39  58  87 131 161 193 243 308 364
#     4  10  20  36  65  93 115 151 203 256 294 348
#     4  12  23  38  60  88 125 163 200 246 295 357
#     4   9  21  38  65  93 114 151 206 257 296 350
#     4  11  22  36  63  91 122 158 208 246 287 355
#     4  10  21  35  60  92 117 152 199 252 297 342
#     4  11  24  39  59  90 124 167 199 240 297 364
#     4  10  21  41  62  90 123 156 197 252 307 354
#
# _framework density 21.370757000000001
#
# number of rings (size 3 to 8) (size 9 to 14) (size 15 to 20)
#    0.000    1.500    2.500    2.250    3.500    5.000 
#    0.000    0.625    0.000    1.500    0.000    0.000 
#    0.000    0.000    0.000    0.000    0.000    0.000 
#
# Total GULP energy -89373.333486 kJ/mol
# GULP energy per Si atom -5585.833343 kJ/mol
# Density = 2.132212 g / cm^3
# Si number density = 21.370757 Si / 1000 Ang^3
#
#
#
# Elastic Constant Matrix: (Units=GPa)
#
#
# Indices 1 2 3 4 5 6 
#
# 1 121.8559 24.4733 35.4108 -9.7730 -9.6250 37.6432
# 2 24.4733 59.1696 24.2893 5.9246 -3.9177 29.6209
# 3 35.4108 24.2893 107.6230 14.8337 -10.3028 9.0880
# 4 -9.7730 5.9246 14.8337 23.5799 3.0524 -11.5857
# 5 -9.6250 -3.9177 -10.3028 3.0524 26.9781 -6.9182
# 6 37.6432 29.6209 9.0880 -11.5857 -6.9182 36.3795
#
#
#
# Elastic Compliance Matrix: (Units=1/GPa)
#
#
# Indices 1 2 3 4 5 6 
#
# 1 0.013720 0.005215 -0.003896 -0.002071 -0.000263 -0.018180
# 2 0.005215 0.045460 -0.003291 -0.032640 -0.002557 -0.052470
# 3 -0.003896 -0.003291 0.012789 -0.008611 0.004404 0.001611
# 4 -0.002071 -0.032640 -0.008611 0.083540 -0.003659 0.056779
# 5 -0.000263 -0.002557 0.004404 -0.003659 0.040705 0.007829
# 6 -0.018180 -0.052470 0.001611 0.056779 0.007829 0.108190
#
#
# Mechanical properties :
#
#
# Convention : Reuss Voigt Hill
#
# Bulk Modulus (GPa) = 14.70031 50.77727 32.73879
# Shear Modulus (GPa) = 15.10466 31.01918 23.06192
#
# Velocity S-wave (km/s) = 2.66144 3.81396 3.28858
# Velocity P-wave (km/s) = 4.04203 6.57319 5.45641
#
# Compressibility (1/GPa) = 0.06802576
#
# Stress axis : x y z
#
# Youngs Moduli (GPa) = 72.88542 21.99718 78.19388
#
# Poissons Ratio (x) = -0.11472 0.30463
# Poissons Ratio (y) = -0.38012 0.25735
# Poissons Ratio (z) = 0.28395 0.07240
#
# Static dielectric constant tensor:
#      x y z
#    x 1.764780 0.014030 -0.010240 
#    y 0.014030 1.796750 0.015370 
#    z -0.010240 0.015370 1.824290 
# 
# From -- ./inp_files/315405.got.cif
#   From: 2010.05.17/outbox.cif.g08.bks.cpg/sg2_158_cif.got.tgz:315405.got - 2010.06.03 11:33:40.
