data_PCOD9098624
_publ_section_title
;
Structure prediction by ZEFSAII (Michael W. Deem and Ramdas Pophale) SiO2 
 PCOD9098624
Probable space group: P -1
;
_chemical_formula_sum "Si O2"
_cell_formula_units_Z 16
_cell_length_a 5.037581
_cell_length_b 23.555497
_cell_length_c 5.431757
_cell_angle_alpha 64.014823
_cell_angle_beta 99.457035
_cell_angle_gamma 79.841850
_cell_volume 548.637751
_symmetry_space_group_name_H-M "P -1"
_symmetry_group_IT_number 2
_symmetry_cell_setting 'triclinic'
loop_
_space_group_symop_operation_xyz
x,y,z
-x,-y,-z
loop_
_atom_site_type_symbol
_atom_site_label
_atom_site_fract_x
_atom_site_fract_y
_atom_site_fract_z
Si Si1 0.210564 0.578806 0.953621
Si Si2 0.716197 0.898112 0.587887
Si Si3 0.843702 0.292885 0.509559
Si Si4 0.268252 0.973568 0.773795
Si Si5 0.778599 0.542339 0.581287
Si Si6 0.271177 0.840479 0.049389
Si Si7 0.774275 0.663083 0.111235
Si Si8 0.335396 0.222237 0.443870
O O1 0.331796 0.631432 0.725471
O O2 0.977367 0.562861 0.771970
O O3 0.022496 0.618307 0.070577
O O4 0.377928 0.507139 0.222647
O O5 0.531302 0.935319 0.716908
O O6 0.589850 0.839729 0.605191
O O7 0.690091 0.956439 0.273429
O O8 0.040513 0.860919 0.764638
O O9 0.078684 0.306321 0.708494
O O10 0.012914 0.260391 0.355804
O O11 0.747219 0.231503 0.717751
O O12 0.200667 0.914203 0.027746
O O13 0.000000 0.000000 0.500000
O O14 0.619783 0.611753 0.299444
O O15 0.000000 0.500000 0.500000
O O16 0.600900 0.815815 0.209268
O O17 0.579632 0.720378 0.804173
#
# Coordination Sequence:
#
# PCOD9098624 Si02
#       8
#     2   2   2   2   2   2   2   2
#     4   8  15  27  51  84 117 163 206 244 306 356
#     4  10  21  43  62  88 125 151 199 259 296 364
#     4  10  20  37  54  86 125 154 206 255 299 365
#     4   9  21  41  67  89 119 157 198 250 305 359
#     4   8  13  25  50  84 119 159 210 246 295 361
#     4  11  22  37  61  90 118 159 200 244 304 367
#     4   9  17  33  53  81 123 160 199 257 297 352
#     4  11  23  37  61  88 118 163 201 246 313 360
#
# _framework density 29.163141
#
# number of rings (size 3 to 8) (size 9 to 14) (size 15 to 20)
#    0.000    2.500    1.250    0.750    0.000    2.500 
#    0.000    6.250    0.000    0.750    0.000   78.750 
#    0.000    0.000    0.000    0.000    0.000    0.000 
#
# Total GULP energy -89122.726642 kJ/mol
# GULP energy per Si atom -5570.170415 kJ/mol
# Density = 2.909676 g / cm^3
# Si number density = 29.163141 Si / 1000 Ang^3
#
#
#
# Elastic Constant Matrix: (Units=GPa)
#
#
# Indices 1 2 3 4 5 6 
#
# 1 105.8575 62.7559 -7.5088 2.5339 21.0807 11.3666
# 2 62.7559 268.7338 22.8296 -54.7010 3.0026 53.3419
# 3 -7.5088 22.8296 214.0983 -85.9503 9.0468 -17.0469
# 4 2.5339 -54.7010 -85.9503 85.0772 -2.5143 -25.3846
# 5 21.0807 3.0026 9.0468 -2.5143 50.4849 -0.2660
# 6 11.3666 53.3419 -17.0469 -25.3846 -0.2660 48.7394
#
#
#
# Elastic Compliance Matrix: (Units=1/GPa)
#
#
# Indices 1 2 3 4 5 6 
#
# 1 0.012638 -0.003298 -0.000584 -0.003684 -0.005167 -0.001489
# 2 -0.003298 0.005867 -0.000194 0.002372 0.001158 -0.004478
# 3 -0.000584 -0.000194 0.012187 0.016040 -0.001061 0.012960
# 4 -0.003684 0.002372 0.016040 0.036423 0.000457 0.022846
# 5 -0.005167 0.001158 -0.001061 0.000457 0.022109 -0.000074
# 6 -0.001489 -0.004478 0.012960 0.022846 -0.000074 0.042196
#
#
# Mechanical properties :
#
#
# Convention : Reuss Voigt Hill
#
# Bulk Modulus (GPa) = 44.37170 82.76033 63.56602
# Shear Modulus (GPa) = 33.99365 70.90118 52.44742
#
# Velocity S-wave (km/s) = 3.41785 4.93606 4.24537
# Velocity P-wave (km/s) = 5.55190 7.80553 6.77310
#
# Compressibility (1/GPa) = 0.02253689
#
# Stress axis : x y z
#
# Youngs Moduli (GPa) = 79.12865 170.45794 82.05531
#
# Poissons Ratio (x) = 0.56220 0.04796
# Poissons Ratio (y) = 0.26098 0.01596
# Poissons Ratio (z) = 0.04625 0.03315
#
# Static dielectric constant tensor:
#      x y z
#    x 1.874020 -0.148310 -0.458420 
#    y -0.148310 2.071500 -0.284770 
#    z -0.458420 -0.284770 2.111680 
# 
# From -- ./inp_files/12810.got.cif
#   From: 2010.05.17/outbox.cif.g08.bks.cpg/sg2_7_cif.got.tgz:12810.got - 2010.06.03 11:33:40.
