data_PCOD9098338
_publ_section_title
;
Structure prediction by ZEFSAII (Michael W. Deem and Ramdas Pophale) SiO2 
 PCOD9098338
Probable space group: P -1
;
_chemical_formula_sum "Si O2"
_cell_formula_units_Z 14
_cell_length_a 13.692594
_cell_length_b 13.874522
_cell_length_c 14.045935
_cell_angle_alpha 38.944603
_cell_angle_beta 30.113408
_cell_angle_gamma 29.780486
_cell_volume 661.040773
_symmetry_space_group_name_H-M "P -1"
_symmetry_group_IT_number 2
_symmetry_cell_setting 'triclinic'
loop_
_space_group_symop_operation_xyz
x,y,z
-x,-y,-z
loop_
_atom_site_type_symbol
_atom_site_label
_atom_site_fract_x
_atom_site_fract_y
_atom_site_fract_z
Si Si1 0.190930 0.082210 0.387168
Si Si2 0.298231 0.698981 0.285666
Si Si3 0.339577 0.924299 0.687542
Si Si4 0.518004 0.290324 0.469384
Si Si5 0.781887 0.144240 0.968190
Si Si6 0.769940 0.938159 0.841268
Si Si7 0.750290 0.848880 0.123517
O O1 0.272940 0.868305 0.510861
O O2 0.454908 0.035584 0.217009
O O3 0.102834 0.135523 0.312048
O O4 0.979001 0.235041 0.520375
O O5 0.477307 0.488959 0.342666
O O6 0.344744 0.715386 0.123873
O O7 0.277027 0.865769 0.234872
O O8 0.407745 0.808564 0.620723
O O9 0.500000 0.000000 0.500000
O O10 0.375147 0.801491 0.845509
O O11 0.043677 0.098542 0.802182
O O12 0.275701 0.308663 0.691473
O O13 0.852048 0.935417 0.035825
O O14 0.868644 0.800314 0.956546
O O15 0.500000 0.000000 0.000000
#
# Coordination Sequence:
#
# PCOD9098338 Si02
#       7
#     2   2   2   2   2   2   2
#     4   9  18  37  59  79 120 153 187 240 288 333
#     4  11  21  36  60  89 112 156 197 234 294 346
#     4  11  20  38  65  85 113 159 192 238 297 346
#     4  10  21  36  59  86 119 146 198 243 286 340
#     4  10  20  36  65  82 115 157 193 231 299 347
#     4   9  18  35  60  79 117 161 193 232 292 341
#     4   8  17  36  58  83 115 154 188 239 289 340
#
# _framework density 21.178723000000002
#
# number of rings (size 3 to 8) (size 9 to 14) (size 15 to 20)
#    0.857    1.429    2.857    0.429    0.000    1.143 
#    0.000    5.714    0.000    0.000    0.000    0.000 
#    0.000    0.000    0.000    0.000    0.000    0.000 
#
# Total GULP energy -77971.198924 kJ/mol
# GULP energy per Si atom -5569.371352 kJ/mol
# Density = 2.113052 g / cm^3
# Si number density = 21.178723 Si / 1000 Ang^3
#
#
#
# Elastic Constant Matrix: (Units=GPa)
#
#
# Indices 1 2 3 4 5 6 
#
# 1 73.4538 -2.3922 41.4326 -3.7690 13.9187 2.0371
# 2 -2.3922 34.3594 19.9986 -15.9857 4.2479 -8.3736
# 3 41.4326 19.9986 131.0075 -10.1455 23.0598 0.0887
# 4 -3.7690 -15.9857 -10.1455 19.2784 -6.0969 1.3707
# 5 13.9187 4.2479 23.0598 -6.0969 55.6412 -2.1036
# 6 2.0371 -8.3736 0.0887 1.3707 -2.1036 14.0668
#
#
#
# Elastic Compliance Matrix: (Units=1/GPa)
#
#
# Indices 1 2 3 4 5 6 
#
# 1 0.018017 0.008583 -0.006172 0.006705 -0.001809 0.001615
# 2 0.008583 0.066773 -0.009639 0.050682 0.003595 0.034165
# 3 -0.006172 -0.009639 0.011291 -0.003854 -0.003011 -0.004990
# 4 0.006705 0.050682 -0.003854 0.093936 0.007143 0.021138
# 5 -0.001809 0.003595 -0.003011 0.007143 0.020361 0.004770
# 6 0.001615 0.034165 -0.004990 0.021138 0.004770 0.089878
#
#
# Mechanical properties :
#
#
# Convention : Reuss Voigt Hill
#
# Bulk Modulus (GPa) = 12.25084 39.65541 25.95312
# Shear Modulus (GPa) = 14.62333 29.78271 22.20302
#
# Velocity S-wave (km/s) = 2.63054 3.75408 3.24136
# Velocity P-wave (km/s) = 3.87600 6.12826 5.12733
#
# Compressibility (1/GPa) = 0.08162707
#
# Stress axis : x y z
#
# Youngs Moduli (GPa) = 55.50394 14.97605 88.56418
#
# Poissons Ratio (x) = -0.12854 0.54660
# Poissons Ratio (y) = -0.47640 0.85363
# Poissons Ratio (z) = 0.34256 0.14435
#
# Static dielectric constant tensor:
#      x y z
#    x 1.792890 -0.036990 0.011530 
#    y -0.036990 1.750170 0.020280 
#    z 0.011530 0.020280 1.886790 
# 
# From -- ./inp_files/533203.got.cif
#   From: 2010.05.17/outbox.cif.g08.bks.cpg/sg2_267_cif.got.tgz:533203.got - 2010.06.03 11:33:40.
