data_PCOD9098986
_publ_section_title
;
Structure prediction by ZEFSAII (Michael W. Deem and Ramdas Pophale) SiO2 
 PCOD9098986
Probable space group: P -1
;
_chemical_formula_sum "Si O2"
_cell_formula_units_Z 16
_cell_length_a 11.792845
_cell_length_b 9.041879
_cell_length_c 19.669093
_cell_angle_alpha 49.877563
_cell_angle_beta 147.908508
_cell_angle_gamma 127.493975
_cell_volume 841.809436
_symmetry_space_group_name_H-M "P -1"
_symmetry_group_IT_number 2
_symmetry_cell_setting 'triclinic'
loop_
_space_group_symop_operation_xyz
x,y,z
-x,-y,-z
loop_
_atom_site_type_symbol
_atom_site_label
_atom_site_fract_x
_atom_site_fract_y
_atom_site_fract_z
Si Si1 0.123605 0.326816 0.791973
Si Si2 0.430323 0.308422 0.724676
Si Si3 0.342917 0.847280 0.370734
Si Si4 0.000677 0.721861 0.413423
Si Si5 0.311624 0.142566 0.574849
Si Si6 0.827360 0.217267 0.288879
Si Si7 0.521208 0.949228 0.945595
Si Si8 0.469901 0.755471 0.613740
O O1 0.068949 0.279674 0.699215
O O2 0.190596 0.559037 0.767050
O O3 0.896299 0.261339 0.733750
O O4 0.304105 0.192680 0.938693
O O5 0.187707 0.219785 0.653726
O O6 0.409331 0.294280 0.637886
O O7 0.486836 0.533971 0.708187
O O8 0.575589 0.159947 0.873508
O O9 0.511932 0.837323 0.400036
O O10 0.429495 0.765776 0.509307
O O11 0.339594 0.077099 0.317008
O O12 0.000000 0.500000 0.500000
O O13 0.249504 0.815967 0.516281
O O14 0.079123 0.192211 0.419190
O O15 0.270246 0.933132 0.655922
O O16 0.695220 0.159630 0.169492
O O17 0.500000 0.000000 0.000000
#
# Coordination Sequence:
#
# PCOD9098986 Si02
#       8
#     2   2   2   2   2   2   2   2
#     4  11  22  40  57  87 124 161 199 239 299 358
#     4  10  20  37  58  90 120 151 202 250 296 346
#     4  10  22  36  59  89 126 154 194 247 308 367
#     4   9  17  30  60  86 114 144 192 245 298 341
#     4  10  22  37  62  96 118 149 197 258 308 346
#     4  10  23  38  62  91 119 154 204 249 304 350
#     4  11  23  39  60  87 121 162 205 248 284 356
#     4   9  20  34  57  87 119 157 191 244 310 354
#
# _framework density 19.006678000000001
#
# number of rings (size 3 to 8) (size 9 to 14) (size 15 to 20)
#    0.000    2.000    1.250    2.625    8.750    3.000 
#    0.000    3.125    0.000    1.500    0.000    0.000 
#    0.000    0.000    0.000    0.000    0.000    0.000 
#
# Total GULP energy -89212.190268 kJ/mol
# GULP energy per Si atom -5575.761892 kJ/mol
# Density = 1.896342 g / cm^3
# Si number density = 19.006678 Si / 1000 Ang^3
#
#
#
# Elastic Constant Matrix: (Units=GPa)
#
#
# Indices 1 2 3 4 5 6 
#
# 1 103.3353 -3.9999 21.8449 -2.0037 9.9583 1.2416
# 2 -3.9999 81.1132 20.4495 -23.7462 6.8646 -3.9369
# 3 21.8449 20.4495 89.2448 -18.4138 1.0200 -3.3287
# 4 -2.0037 -23.7462 -18.4138 26.4048 -12.0824 -0.6473
# 5 9.9583 6.8646 1.0200 -12.0824 21.0646 1.8095
# 6 1.2416 -3.9369 -3.3287 -0.6473 1.8095 22.9213
#
#
#
# Elastic Compliance Matrix: (Units=1/GPa)
#
#
# Indices 1 2 3 4 5 6 
#
# 1 0.011215 0.000756 -0.003853 -0.004883 -0.008117 -0.000534
# 2 0.000756 0.017307 -0.000600 0.016850 0.003435 0.003049
# 3 -0.003853 -0.000600 0.015131 0.013936 0.009108 0.001978
# 4 -0.004883 0.016850 0.013936 0.082094 0.042877 0.004116
# 5 -0.008117 0.003435 0.009108 0.042877 0.074543 -0.002322
# 6 -0.000534 0.003049 0.001978 0.004116 -0.002322 0.044767
#
#
# Mechanical properties :
#
#
# Convention : Reuss Voigt Hill
#
# Bulk Modulus (GPa) = 27.57929 38.92025 33.24977
# Shear Modulus (GPa) = 18.90094 29.77140 24.33617
#
# Velocity S-wave (km/s) = 3.15689 3.96203 3.58215
# Velocity P-wave (km/s) = 5.27539 6.43831 5.88564
#
# Compressibility (1/GPa) = 0.03625909
#
# Stress axis : x y z
#
# Youngs Moduli (GPa) = 89.16662 57.77959 66.09043
#
# Poissons Ratio (x) = -0.04367 0.25465
# Poissons Ratio (y) = -0.06739 0.03963
# Poissons Ratio (z) = 0.34357 0.03464
#
# Static dielectric constant tensor:
#      x y z
#    x 1.672920 -0.006070 0.021540 
#    y -0.006070 1.691240 -0.005030 
#    z 0.021540 -0.005030 1.669710 
# 
# From -- ./inp_files/298391.got.cif
#   From: 2010.05.17/outbox.cif.g08.bks.cpg/sg2_150_cif.got.tgz:298391.got - 2010.06.03 11:33:40.
