data_PCOD9098039
_publ_section_title
;
Structure prediction by ZEFSAII (Michael W. Deem and Ramdas Pophale) SiO2 
 PCOD9098039
Probable space group: P -1
;
_chemical_formula_sum "Si O2"
_cell_formula_units_Z 16
_cell_length_a 14.872742
_cell_length_b 12.332125
_cell_length_c 9.120605
_cell_angle_alpha 44.681167
_cell_angle_beta 34.754530
_cell_angle_gamma 53.926380
_cell_volume 670.502161
_symmetry_space_group_name_H-M "P -1"
_symmetry_group_IT_number 2
_symmetry_cell_setting 'triclinic'
loop_
_space_group_symop_operation_xyz
x,y,z
-x,-y,-z
loop_
_atom_site_type_symbol
_atom_site_label
_atom_site_fract_x
_atom_site_fract_y
_atom_site_fract_z
Si Si1 0.569390 0.735563 0.423383
Si Si2 0.686637 0.088856 0.925195
Si Si3 0.165556 0.059307 0.663066
Si Si4 0.410596 0.270809 0.271212
Si Si5 0.910376 0.645801 0.046860
Si Si6 0.630057 0.127602 0.652114
Si Si7 0.020145 0.784027 0.482549
Si Si8 0.881928 0.527957 0.496590
O O1 0.513013 0.714149 0.685140
O O2 0.458503 0.725946 0.440234
O O3 0.722369 0.628869 0.306113
O O4 0.623563 0.915284 0.179517
O O5 0.729254 0.142823 0.651576
O O6 0.840563 0.094311 0.813822
O O7 0.551006 0.211936 0.035852
O O8 0.281552 0.135280 0.551925
O O9 0.116703 0.180976 0.483997
O O10 0.264576 0.932047 0.565224
O O11 0.000000 0.000000 0.000000
O O12 0.292200 0.417754 0.269673
O O13 0.948909 0.774370 0.750532
O O14 0.941183 0.652709 0.174040
O O15 0.000000 0.500000 0.000000
O O16 0.500000 0.000000 0.000000
O O17 0.108952 0.629150 0.457533
O O18 0.000000 0.500000 0.500000
#
# Coordination Sequence:
#
# PCOD9098039 Si02
#       8
#     2   2   2   2   2   2   2   2
#     4  10  20  36  63  89 122 167 212 251 319 385
#     4  11  23  37  62  90 130 169 202 264 323 376
#     4  12  24  37  65 100 130 164 215 267 316 379
#     4  11  22  39  63  88 125 170 212 254 329 374
#     4   9  21  38  64  89 122 166 214 255 316 374
#     4  10  21  38  60  89 126 168 208 249 320 384
#     4  11  23  40  61  94 130 160 214 269 313 374
#     4  10  21  41  66  90 118 169 216 263 315 382
#
# _framework density 23.862711000000001
#
# number of rings (size 3 to 8) (size 9 to 14) (size 15 to 20)
#    0.000    1.500    3.750    2.625    1.750    4.500 
#    0.000    0.000    0.000    7.500    0.000    0.000 
#    0.000    0.000    0.000    0.000    0.000    0.000 
#
# Total GULP energy -89264.178312 kJ/mol
# GULP energy per Si atom -5579.011145 kJ/mol
# Density = 2.380840 g / cm^3
# Si number density = 23.862711 Si / 1000 Ang^3
#
#
#
# Elastic Constant Matrix: (Units=GPa)
#
#
# Indices 1 2 3 4 5 6 
#
# 1 90.2327 0.4747 11.3831 -11.8510 20.3691 -16.4911
# 2 0.4747 58.3152 -0.0919 25.2421 12.6537 -13.8201
# 3 11.3831 -0.0919 64.3889 7.0716 12.3835 11.6176
# 4 -11.8510 25.2421 7.0716 32.6401 0.5692 3.4942
# 5 20.3691 12.6537 12.3835 0.5692 24.2899 -5.1928
# 6 -16.4911 -13.8201 11.6176 3.4942 -5.1928 34.2036
#
#
#
# Elastic Compliance Matrix: (Units=1/GPa)
#
#
# Indices 1 2 3 4 5 6 
#
# 1 0.015882 0.002647 -0.002181 0.003626 -0.012119 0.007258
# 2 0.002647 0.038821 0.004138 -0.031275 -0.020476 0.015643
# 3 -0.002181 0.004138 0.020404 -0.007409 -0.012137 -0.007396
# 4 0.003626 -0.031275 -0.007409 0.058847 0.012997 -0.012410
# 5 -0.012119 -0.020476 -0.012137 0.012997 0.067658 -0.001050
# 6 0.007258 0.015643 -0.007396 -0.012410 -0.001050 0.042677
#
#
# Mechanical properties :
#
#
# Convention : Reuss Voigt Hill
#
# Bulk Modulus (GPa) = 11.86016 26.27428 19.06722
# Shear Modulus (GPa) = 18.99796 31.63809 25.31802
#
# Velocity S-wave (km/s) = 2.82465 3.64516 3.26081
# Velocity P-wave (km/s) = 3.95211 5.36197 4.71009
#
# Compressibility (1/GPa) = 0.08431591
#
# Stress axis : x y z
#
# Youngs Moduli (GPa) = 62.96392 25.75933 49.00897
#
# Poissons Ratio (x) = -0.06820 0.10688
# Poissons Ratio (y) = -0.16669 -0.20278
# Poissons Ratio (z) = 0.13732 -0.10658
#
# Static dielectric constant tensor:
#      x y z
#    x 1.951050 -0.006180 0.038780 
#    y -0.006180 2.010140 0.007880 
#    z 0.038780 0.007880 1.998910 
# 
# From -- ./inp_files/189414.got.cif
#   From: 2010.05.17/outbox.cif.g08.bks.cpg/sg2_95_cif.got.tgz:189414.got - 2010.06.03 11:33:40.
