data_PCOD9098746
_publ_section_title
;
Structure prediction by ZEFSAII (Michael W. Deem and Ramdas Pophale) SiO2 
 PCOD9098746
Probable space group: P -1
;
_chemical_formula_sum "Si O2"
_cell_formula_units_Z 16
_cell_length_a 11.025344
_cell_length_b 7.755863
_cell_length_c 21.585979
_cell_angle_alpha 119.799885
_cell_angle_beta 148.172155
_cell_angle_gamma 81.070431
_cell_volume 686.010246
_symmetry_space_group_name_H-M "P -1"
_symmetry_group_IT_number 2
_symmetry_cell_setting 'triclinic'
loop_
_space_group_symop_operation_xyz
x,y,z
-x,-y,-z
loop_
_atom_site_type_symbol
_atom_site_label
_atom_site_fract_x
_atom_site_fract_y
_atom_site_fract_z
Si Si1 0.885091 0.795451 0.540232
Si Si2 0.182100 0.732895 0.854506
Si Si3 0.288464 0.209410 0.345034
Si Si4 0.230347 0.825055 0.435513
Si Si5 0.291684 0.976465 0.631639
Si Si6 0.630657 0.197585 0.185301
Si Si7 0.597262 0.511939 0.805413
Si Si8 0.170255 0.968486 0.119021
O O1 0.069204 0.729032 0.645575
O O2 0.558017 0.581447 0.345528
O O3 0.047521 0.884569 0.559639
O O4 0.866408 0.006462 0.598572
O O5 0.342680 0.741449 0.864883
O O6 0.011226 0.844238 0.777482
O O7 0.967613 0.447663 0.725653
O O8 0.396384 0.904393 0.031876
O O9 0.500000 0.500000 0.500000
O O10 0.447893 0.093862 0.420174
O O11 0.241448 0.133545 0.239383
O O12 0.204093 0.834887 0.501905
O O13 0.464677 0.262907 0.741419
O O14 0.531309 0.959216 0.762352
O O15 0.514912 0.336170 0.190626
O O16 0.935553 0.685571 0.984812
O O17 0.000000 0.000000 0.000000
#
# Coordination Sequence:
#
# PCOD9098746 Si02
#       8
#     2   2   2   2   2   2   2   2
#     4  11  22  37  59  89 120 152 197 247 295 343
#     4  10  20  37  57  80 112 154 201 234 290 354
#     4   9  19  37  61  80 114 158 193 232 296 362
#     4   9  19  37  59  81 111 154 195 234 292 355
#     4  10  21  37  60  87 120 158 191 239 302 356
#     4  11  22  34  58  84 114 152 196 244 289 344
#     4  11  21  38  59  87 123 153 194 240 301 356
#     4  11  22  37  61  94 120 152 201 252 294 348
#
# _framework density 23.323266
#
# number of rings (size 3 to 8) (size 9 to 14) (size 15 to 20)
#    0.000    1.750    1.250    4.500    0.000    3.500 
#    0.000    0.625    0.000    0.000    0.000    0.000 
#    0.000    0.000    0.000    0.000    0.000    0.000 
#
# Total GULP energy -89325.058984 kJ/mol
# GULP energy per Si atom -5582.816187 kJ/mol
# Density = 2.327018 g / cm^3
# Si number density = 23.323266 Si / 1000 Ang^3
#
#
#
# Elastic Constant Matrix: (Units=GPa)
#
#
# Indices 1 2 3 4 5 6 
#
# 1 38.6792 -1.4160 11.0347 6.9914 12.8910 -10.2401
# 2 -1.4160 69.2295 14.4825 0.1120 -0.1003 -22.3329
# 3 11.0347 14.4825 103.6937 11.1199 -9.2452 -11.8207
# 4 6.9914 0.1120 11.1199 37.8454 -12.3236 4.2204
# 5 12.8910 -0.1003 -9.2452 -12.3236 25.7765 -10.6571
# 6 -10.2401 -22.3329 -11.8207 4.2204 -10.6571 32.8659
#
#
#
# Elastic Compliance Matrix: (Units=1/GPa)
#
#
# Indices 1 2 3 4 5 6 
#
# 1 0.041055 0.004166 -0.004831 -0.015699 -0.026768 0.007222
# 2 0.004166 0.019814 -0.000976 -0.001120 0.003609 0.015725
# 3 -0.004831 -0.000976 0.011622 -0.000315 0.008405 0.004777
# 4 -0.015699 -0.001120 -0.000315 0.037755 0.024708 -0.002602
# 5 -0.026768 0.003609 0.008405 0.024708 0.074517 0.018125
# 6 0.007222 0.015725 0.004777 -0.002602 0.018125 0.051292
#
#
# Mechanical properties :
#
#
# Convention : Reuss Voigt Hill
#
# Bulk Modulus (GPa) = 14.44875 28.86721 21.65798
# Shear Modulus (GPa) = 19.05441 31.79764 25.42602
#
# Velocity S-wave (km/s) = 2.86137 3.69635 3.30533
# Velocity P-wave (km/s) = 4.13824 5.53365 4.88601
#
# Compressibility (1/GPa) = 0.06921012
#
# Stress axis : x y z
#
# Youngs Moduli (GPa) = 24.35752 50.46947 86.04361
#
# Poissons Ratio (x) = -0.21028 0.41565
# Poissons Ratio (y) = -0.10148 0.08400
# Poissons Ratio (z) = 0.11766 0.04927
#
# Static dielectric constant tensor:
#      x y z
#    x 1.909380 0.055820 0.035050 
#    y 0.055820 1.936160 0.008840 
#    z 0.035050 0.008840 1.944820 
# 
# From -- ./inp_files/242950.got.cif
#   From: 2010.05.17/outbox.cif.g08.bks.cpg/sg2_122_cif.got.tgz:242950.got - 2010.06.03 11:33:40.
