data_PCOD9098657
_publ_section_title
;
Structure prediction by ZEFSAII (Michael W. Deem and Ramdas Pophale) SiO2 
 PCOD9098657
Probable space group: P -1
;
_chemical_formula_sum "Si O2"
_cell_formula_units_Z 16
_cell_length_a 25.084760
_cell_length_b 13.136953
_cell_length_c 17.973199
_cell_angle_alpha 29.275491
_cell_angle_beta 15.270379
_cell_angle_gamma 25.756527
_cell_volume 677.557472
_symmetry_space_group_name_H-M "P -1"
_symmetry_group_IT_number 2
_symmetry_cell_setting 'triclinic'
loop_
_space_group_symop_operation_xyz
x,y,z
-x,-y,-z
loop_
_atom_site_type_symbol
_atom_site_label
_atom_site_fract_x
_atom_site_fract_y
_atom_site_fract_z
Si Si1 0.504595 0.415419 0.965407
Si Si2 0.657562 0.628585 0.216373
Si Si3 0.993828 0.319913 0.848314
Si Si4 0.674595 0.448938 0.574866
Si Si5 0.084645 0.018109 0.290403
Si Si6 0.990772 0.305300 0.525132
Si Si7 0.607734 0.175899 0.403977
Si Si8 0.467160 0.077507 0.080204
O O1 0.243554 0.543308 0.212524
O O2 0.500000 0.500000 0.000000
O O3 0.646576 0.501668 0.666480
O O4 0.645836 0.136870 0.962693
O O5 0.500000 0.500000 0.500000
O O6 0.584442 0.736783 0.328185
O O7 0.585230 0.847183 0.118108
O O8 0.905541 0.437073 0.974033
O O9 0.978089 0.517044 0.685986
O O10 0.801757 0.245775 0.126673
O O11 0.242060 0.096506 0.647219
O O12 0.526253 0.670024 0.584451
O O13 0.936323 0.292503 0.298902
O O14 0.563366 0.266298 0.837521
O O15 0.023840 0.886499 0.389181
O O16 0.000000 0.000000 0.500000
O O17 0.195114 0.192634 0.380142
O O18 0.500000 0.000000 0.000000
#
# Coordination Sequence:
#
# PCOD9098657 Si02
#       8
#     2   2   2   2   2   2   2   2
#     4   9  22  38  56  89 114 158 207 252 300 342
#     4  10  21  36  54  81 135 167 188 233 303 392
#     4  10  20  37  55  86 132 163 192 244 310 380
#     4  11  20  38  64  89 122 153 202 260 294 378
#     4   9  19  37  60  83 112 160 204 256 295 340
#     4  11  20  35  62  88 127 150 201 262 296 371
#     4  10  22  37  56  89 131 165 195 234 318 387
#     4  12  20  34  60  99 120 152 199 247 322 362
#
# _framework density 23.614232999999999
#
# number of rings (size 3 to 8) (size 9 to 14) (size 15 to 20)
#    0.000    1.750    3.750    0.750    1.750    3.500 
#    2.250    0.000    0.000    7.500    0.000    0.000 
#    0.000    0.000    0.000    0.000    0.000    0.000 
#
# Total GULP energy -89294.097758 kJ/mol
# GULP energy per Si atom -5580.881110 kJ/mol
# Density = 2.356049 g / cm^3
# Si number density = 23.614233 Si / 1000 Ang^3
#
#
#
# Elastic Constant Matrix: (Units=GPa)
#
#
# Indices 1 2 3 4 5 6 
#
# 1 79.0040 42.8970 11.9211 10.4150 26.5204 8.0884
# 2 42.8970 132.4075 40.6797 35.8876 18.9817 -2.1803
# 3 11.9211 40.6797 105.1090 43.7128 20.0782 15.0030
# 4 10.4150 35.8876 43.7128 61.6329 -0.9739 -4.8494
# 5 26.5204 18.9817 20.0782 -0.9739 40.7949 0.6157
# 6 8.0884 -2.1803 15.0030 -4.8494 0.6157 35.7569
#
#
#
# Elastic Compliance Matrix: (Units=1/GPa)
#
#
# Indices 1 2 3 4 5 6 
#
# 1 0.020779 -0.005152 0.005639 -0.005350 -0.013896 -0.007867
# 2 -0.005152 0.011114 -0.002319 -0.003787 -0.000806 0.002316
# 3 0.005639 -0.002319 0.020068 -0.014952 -0.012645 -0.011647
# 4 -0.005350 -0.003787 -0.014952 0.031031 0.013170 0.011235
# 5 -0.013896 -0.000806 -0.012645 0.013170 0.040316 0.009492
# 6 -0.007867 0.002316 -0.011647 0.011235 0.009492 0.036135
#
#
# Mechanical properties :
#
#
# Convention : Reuss Voigt Hill
#
# Bulk Modulus (GPa) = 20.70458 56.39066 38.54762
# Shear Modulus (GPa) = 27.90075 42.37179 35.13627
#
# Velocity S-wave (km/s) = 3.44106 4.24055 3.86155
# Velocity P-wave (km/s) = 4.95729 6.92157 6.02009
#
# Compressibility (1/GPa) = 0.04829849
#
# Stress axis : x y z
#
# Youngs Moduli (GPa) = 48.12458 89.97588 49.82985
#
# Poissons Ratio (x) = 0.46357 -0.28101
# Poissons Ratio (y) = 0.24795 0.11555
# Poissons Ratio (z) = -0.27140 0.20865
#
# Static dielectric constant tensor:
#      x y z
#    x 1.983930 0.072780 -0.034140 
#    y 0.072780 1.908700 0.040710 
#    z -0.034140 0.040710 2.037820 
# 
# From -- ./inp_files/315353.got.cif
#   From: 2010.05.17/outbox.cif.g08.bks.cpg/sg2_158_cif.got.tgz:315353.got - 2010.06.03 11:33:40.
