data_PCOD9098031
_publ_section_title
;
Structure prediction by ZEFSAII (Michael W. Deem and Ramdas Pophale) SiO2 
 PCOD9098031
Probable space group: P -1
;
_chemical_formula_sum "Si O2"
_cell_formula_units_Z 16
_cell_length_a 9.173042
_cell_length_b 12.920404
_cell_length_c 6.934698
_cell_angle_alpha 51.766629
_cell_angle_beta 85.411194
_cell_angle_gamma 78.220956
_cell_volume 630.853674
_symmetry_space_group_name_H-M "P -1"
_symmetry_group_IT_number 2
_symmetry_cell_setting 'triclinic'
loop_
_space_group_symop_operation_xyz
x,y,z
-x,-y,-z
loop_
_atom_site_type_symbol
_atom_site_label
_atom_site_fract_x
_atom_site_fract_y
_atom_site_fract_z
Si Si1 0.030690 0.102759 0.094994
Si Si2 0.702713 0.114680 0.102849
Si Si3 0.511572 0.323542 0.427336
Si Si4 0.739637 0.828811 0.305899
Si Si5 0.903433 0.381279 0.852948
Si Si6 0.444085 0.614019 0.094412
Si Si7 0.201273 0.829220 0.537994
Si Si8 0.971327 0.363983 0.403435
O O1 0.869664 0.106110 0.002634
O O2 0.078457 0.957146 0.346570
O O3 0.173853 0.133876 0.933537
O O4 0.984399 0.233221 0.083903
O O5 0.581204 0.251593 0.927056
O O6 0.740839 0.131982 0.304881
O O7 0.659974 0.972068 0.235391
O O8 0.368709 0.275283 0.581158
O O9 0.496627 0.351133 0.162496
O O10 0.648871 0.198441 0.575348
O O11 0.533602 0.470660 0.323750
O O12 0.878208 0.748118 0.506190
O O13 0.924237 0.372410 0.626613
O O14 0.985994 0.492666 0.798078
O O15 0.727095 0.408990 0.878111
O O16 0.148281 0.690019 0.650671
#
# Coordination Sequence:
#
# PCOD9098031 Si02
#       8
#     2   2   2   2   2   2   2   2
#     4  10  21  36  61  93 116 151 194 247 293 340
#     4  10  21  38  63  90 115 154 199 245 285 344
#     4  10  22  40  58  85 120 159 192 238 291 349
#     4  11  21  37  65  85 117 160 202 230 281 363
#     4   9  19  37  63  88 110 152 206 236 279 355
#     4   9  19  38  62  80 115 159 200 230 281 358
#     4  11  23  38  59  89 128 148 185 251 304 332
#     4  10  20  36  63  89 114 150 197 248 287 338
#
# _framework density 25.362456999999999
#
# number of rings (size 3 to 8) (size 9 to 14) (size 15 to 20)
#    0.000    2.000    2.500    0.750    3.500    2.500 
#    0.000   11.250    2.750    0.000    0.000    0.000 
#    0.000    0.000    0.000    0.000    0.000    0.000 
#
# Total GULP energy -89311.420563 kJ/mol
# GULP energy per Si atom -5581.963785 kJ/mol
# Density = 2.530473 g / cm^3
# Si number density = 25.362457 Si / 1000 Ang^3
#
#
#
# Elastic Constant Matrix: (Units=GPa)
#
#
# Indices 1 2 3 4 5 6 
#
# 1 57.7485 11.5654 17.7455 -0.8234 -4.0015 -8.9415
# 2 11.5654 140.2115 54.1828 -15.6460 6.6917 -6.9856
# 3 17.7455 54.1828 62.1732 -22.5942 -9.6062 11.0010
# 4 -0.8234 -15.6460 -22.5942 71.6187 -1.9897 6.2862
# 5 -4.0015 6.6917 -9.6062 -1.9897 29.9709 -8.9768
# 6 -8.9415 -6.9856 11.0010 6.2862 -8.9768 42.4094
#
#
#
# Elastic Compliance Matrix: (Units=1/GPa)
#
#
# Indices 1 2 3 4 5 6 
#
# 1 0.021474 0.002350 -0.010687 -0.003318 0.001224 0.008437
# 2 0.002350 0.012881 -0.014652 -0.002429 -0.005754 0.005560
# 3 -0.010687 -0.014652 0.040121 0.010901 0.011135 -0.014333
# 4 -0.003318 -0.002429 0.010901 0.017432 0.002990 -0.005878
# 5 0.001224 -0.005754 0.011135 0.002990 0.039907 0.004426
# 6 0.008437 0.005560 -0.014333 -0.005878 0.004426 0.031801
#
#
# Mechanical properties :
#
#
# Convention : Reuss Voigt Hill
#
# Bulk Modulus (GPa) = 35.08909 47.45784 41.27347
# Shear Modulus (GPa) = 22.82159 40.57576 31.69868
#
# Velocity S-wave (km/s) = 3.00295 4.00413 3.53912
# Velocity P-wave (km/s) = 5.08809 6.33482 5.74537
#
# Compressibility (1/GPa) = 0.02849888
#
# Stress axis : x y z
#
# Youngs Moduli (GPa) = 46.56884 77.63516 24.92462
#
# Poissons Ratio (x) = -0.18246 0.26636
# Poissons Ratio (y) = -0.10945 0.36519
# Poissons Ratio (z) = 0.49766 1.13749
#
# Static dielectric constant tensor:
#      x y z
#    x 1.939580 -0.042390 0.014810 
#    y -0.042390 2.051050 0.054520 
#    z 0.014810 0.054520 2.142420 
# 
# From -- ./inp_files/205476.got.cif
#   From: 2010.05.17/outbox.cif.g08.bks.cpg/sg2_103_cif.got.tgz:205476.got - 2010.06.03 11:33:40.
