data_PCOD9098314
_publ_section_title
;
Structure prediction by ZEFSAII (Michael W. Deem and Ramdas Pophale) SiO2 
 PCOD9098314
Probable space group: P -1
;
_chemical_formula_sum "Si O2"
_cell_formula_units_Z 12
_cell_length_a 8.608320
_cell_length_b 12.396543
_cell_length_c 8.872963
_cell_angle_alpha 143.353225
_cell_angle_beta 67.586109
_cell_angle_gamma 114.032148
_cell_volume 513.583847
_symmetry_space_group_name_H-M "P -1"
_symmetry_group_IT_number 2
_symmetry_cell_setting 'triclinic'
loop_
_space_group_symop_operation_xyz
x,y,z
-x,-y,-z
loop_
_atom_site_type_symbol
_atom_site_label
_atom_site_fract_x
_atom_site_fract_y
_atom_site_fract_z
Si Si1 0.742446 0.650438 0.039014
Si Si2 0.868627 0.878365 0.527509
Si Si3 0.263937 0.054782 0.041614
Si Si4 0.133445 0.657179 0.211133
Si Si5 0.520787 0.151737 0.796379
Si Si6 0.977800 0.711375 0.756781
O O1 0.750932 0.739490 0.300989
O O2 0.582438 0.693978 0.055483
O O3 0.763365 0.440495 0.816034
O O4 0.912581 0.738637 0.982045
O O5 0.747175 0.939851 0.767252
O O6 0.009329 0.785844 0.461925
O O7 0.000000 0.000000 0.500000
O O8 0.172942 0.222864 0.208155
O O9 0.432427 0.078968 0.903950
O O10 0.146642 0.859056 0.826616
O O11 0.279027 0.766582 0.172496
O O12 0.000000 0.500000 0.000000
O O13 0.500000 0.000000 0.500000
O O14 0.000000 0.500000 0.500000
#
# Coordination Sequence:
#
# PCOD9098314 Si02
#       6
#     2   2   2   2   2   2
#     4  10  21  39  66  96 129 171 221 275 331 394
#     4  11  20  40  67  93 131 175 218 268 339 399
#     4  10  23  39  63  97 134 173 224 278 330 399
#     4  10  23  41  67  96 131 177 222 274 334 402
#     4  11  24  42  66  98 134 174 223 278 339 392
#     4  10  20  36  64  97 131 174 223 274 332 403
#
# _framework density 23.365220000000001
#
# number of rings (size 3 to 8) (size 9 to 14) (size 15 to 20)
#    0.000    1.667    1.667    2.500    7.000    0.000 
#    0.000    6.667    0.000    0.000    0.000    0.000 
#    0.000    0.000    0.000    0.000    0.000    0.000 
#
# Total GULP energy -66948.841828 kJ/mol
# GULP energy per Si atom -5579.070152 kJ/mol
# Density = 2.331204 g / cm^3
# Si number density = 23.365220 Si / 1000 Ang^3
#
#
#
# Elastic Constant Matrix: (Units=GPa)
#
#
# Indices 1 2 3 4 5 6 
#
# 1 100.7875 49.5820 41.9466 -5.8612 -22.6429 14.8599
# 2 49.5820 139.6903 57.7761 -35.9063 -13.2618 23.9249
# 3 41.9466 57.7761 115.1217 -29.4294 -4.4434 -1.4492
# 4 -5.8612 -35.9063 -29.4294 54.8060 -8.5488 -14.8369
# 5 -22.6429 -13.2618 -4.4434 -8.5488 30.1083 3.7278
# 6 14.8599 23.9249 -1.4492 -14.8369 3.7278 51.2377
#
#
#
# Elastic Compliance Matrix: (Units=1/GPa)
#
#
# Indices 1 2 3 4 5 6 
#
# 1 0.016074 -0.002419 -0.004887 -0.002258 0.010288 -0.005073
# 2 -0.002419 0.012035 -0.003630 0.005418 0.004956 -0.003813
# 3 -0.004887 -0.003630 0.013670 0.005498 -0.002347 0.005262
# 4 -0.002258 0.005418 0.005498 0.027354 0.008575 0.005578
# 5 0.010288 0.004956 -0.002347 0.008575 0.045993 -0.006228
# 6 -0.005073 -0.003813 0.005262 0.005578 -0.006228 0.024985
#
#
# Mechanical properties :
#
#
# Convention : Reuss Voigt Hill
#
# Bulk Modulus (GPa) = 50.23493 72.68988 61.46240
# Shear Modulus (GPa) = 29.65270 40.98339 35.31804
#
# Velocity S-wave (km/s) = 3.56630 4.19266 3.89210
# Velocity P-wave (km/s) = 6.20520 7.39024 6.82350
#
# Compressibility (1/GPa) = 0.01990647
#
# Stress axis : x y z
#
# Youngs Moduli (GPa) = 62.21351 83.09214 73.15246
#
# Poissons Ratio (x) = 0.20100 0.35748
# Poissons Ratio (y) = 0.15049 0.26556
# Poissons Ratio (z) = 0.30403 0.30165
#
# Static dielectric constant tensor:
#      x y z
#    x 1.890040 -0.077630 -0.030210 
#    y -0.077630 1.938820 0.016080 
#    z -0.030210 0.016080 1.914610 
# 
# From -- ./inp_files/191030.got.cif
#   From: 2010.05.17/outbox.cif.g08.bks.cpg/sg2_96_cif.got.tgz:191030.got - 2010.06.03 11:33:40.
