data_PCOD9098406
_publ_section_title
;
Structure prediction by ZEFSAII (Michael W. Deem and Ramdas Pophale) SiO2 
 PCOD9098406
Probable space group: P -1
;
_chemical_formula_sum "Si O2"
_cell_formula_units_Z 14
_cell_length_a 16.731771
_cell_length_b 12.414862
_cell_length_c 9.805261
_cell_angle_alpha 147.162344
_cell_angle_beta 135.261945
_cell_angle_gamma 31.409815
_cell_volume 575.432604
_symmetry_space_group_name_H-M "P -1"
_symmetry_group_IT_number 2
_symmetry_cell_setting 'triclinic'
loop_
_space_group_symop_operation_xyz
x,y,z
-x,-y,-z
loop_
_atom_site_type_symbol
_atom_site_label
_atom_site_fract_x
_atom_site_fract_y
_atom_site_fract_z
Si Si1 0.994747 0.733343 0.493580
Si Si2 0.408846 0.704805 0.729975
Si Si3 0.841802 0.053870 0.114726
Si Si4 0.526467 0.925175 0.238216
Si Si5 0.246619 0.224697 0.414398
Si Si6 0.945480 0.293977 0.772649
Si Si7 0.708643 0.874628 0.187998
O O1 0.086438 0.512369 0.487186
O O2 0.039480 0.633980 0.283260
O O3 0.817532 0.881040 0.424423
O O4 0.050630 0.895247 0.750200
O O5 0.500000 0.500000 0.500000
O O6 0.296252 0.716215 0.705812
O O7 0.309005 0.985311 0.824299
O O8 0.521884 0.698675 0.954375
O O9 0.944999 0.791803 0.057475
O O10 0.771864 0.991385 0.850104
O O11 0.670129 0.803515 0.378885
O O12 0.551738 0.020636 0.233388
O O13 0.368177 0.148655 0.363010
O O14 0.785292 0.569758 0.926735
O O15 0.000000 0.000000 0.500000
#
# Coordination Sequence:
#
# PCOD9098406 Si02
#       7
#     2   2   2   2   2   2   2
#     4  11  22  37  70  98 128 174 218 278 336 393
#     4  11  25  41  65 103 137 171 223 282 335 395
#     4  10  21  40  66  98 132 172 222 271 335 404
#     4  10  25  43  66  91 134 183 222 274 327 405
#     4  10  22  48  64  90 136 185 225 264 337 397
#     4  10  20  36  65  96 131 164 216 276 329 388
#     4  12  23  40  68 103 131 173 222 282 343 380
#
# _framework density 24.329522000000001
#
# number of rings (size 3 to 8) (size 9 to 14) (size 15 to 20)
#    0.000    1.429    2.857    2.571    6.000    0.571 
#    2.571    2.857    0.000    0.000    0.000    0.000 
#    0.000    0.000    0.000    0.000    0.000    0.000 
#
# Total GULP energy -78140.648627 kJ/mol
# GULP energy per Si atom -5581.474902 kJ/mol
# Density = 2.427415 g / cm^3
# Si number density = 24.329522 Si / 1000 Ang^3
#
#
#
# Elastic Constant Matrix: (Units=GPa)
#
#
# Indices 1 2 3 4 5 6 
#
# 1 84.1484 -4.7332 17.3423 2.4105 17.1402 -13.2519
# 2 -4.7332 64.9897 47.0755 -16.1658 1.4770 1.4666
# 3 17.3423 47.0755 111.9722 -20.1949 10.9658 0.2175
# 4 2.4105 -16.1658 -20.1949 49.6955 0.4153 3.0325
# 5 17.1402 1.4770 10.9658 0.4153 32.3304 -10.0590
# 6 -13.2519 1.4666 0.2175 3.0325 -10.0590 26.9590
#
#
#
# Elastic Compliance Matrix: (Units=1/GPa)
#
#
# Indices 1 2 3 4 5 6 
#
# 1 0.014667 0.003161 -0.003349 -0.001325 -0.005117 0.005305
# 2 0.003161 0.023598 -0.009836 0.003510 0.000592 0.000175
# 3 -0.003349 -0.009836 0.014500 0.003065 -0.003645 -0.002933
# 4 -0.001325 0.003510 0.003065 0.022849 -0.002105 -0.004222
# 5 -0.005117 0.000592 -0.003645 -0.002105 0.038658 0.012143
# 6 0.005305 0.000175 -0.002933 -0.004222 0.012143 0.044721
#
#
# Mechanical properties :
#
#
# Convention : Reuss Voigt Hill
#
# Bulk Modulus (GPa) = 30.56427 42.27550 36.41989
# Shear Modulus (GPa) = 26.32328 35.22536 30.77432
#
# Velocity S-wave (km/s) = 3.29287 3.80918 3.56040
# Velocity P-wave (km/s) = 5.20069 6.06304 5.64835
#
# Compressibility (1/GPa) = 0.03271794
#
# Stress axis : x y z
#
# Youngs Moduli (GPa) = 68.17863 42.37728 68.96543
#
# Poissons Ratio (x) = -0.13395 0.23095
# Poissons Ratio (y) = -0.21551 0.67832
# Poissons Ratio (z) = 0.22831 0.41681
#
# Static dielectric constant tensor:
#      x y z
#    x 1.935080 -0.036890 0.013150 
#    y -0.036890 1.948420 -0.014870 
#    z 0.013150 -0.014870 2.048030 
# 
# From -- ./inp_files/465690.got.cif
#   From: 2010.05.17/outbox.cif.g08.bks.cpg/sg2_233_cif.got.tgz:465690.got - 2010.06.03 11:33:40.
