data_PCOD9098126
_publ_section_title
;
Structure prediction by ZEFSAII (Michael W. Deem and Ramdas Pophale) SiO2 
 PCOD9098126
Probable space group: P -1
;
_chemical_formula_sum "Si O2"
_cell_formula_units_Z 9
_cell_length_a 5.020931
_cell_length_b 9.574296
_cell_length_c 12.422776
_cell_angle_alpha 48.927350
_cell_angle_beta 119.999763
_cell_angle_gamma 87.349056
_cell_volume 319.261549
_symmetry_space_group_name_H-M "P -1"
_symmetry_group_IT_number 2
_symmetry_cell_setting 'triclinic'
loop_
_space_group_symop_operation_xyz
x,y,z
-x,-y,-z
loop_
_atom_site_type_symbol
_atom_site_label
_atom_site_fract_x
_atom_site_fract_y
_atom_site_fract_z
Si Si1 0.495691 0.564800 0.705451
Si Si2 0.213416 0.191571 0.257459
Si Si3 0.500000 0.500000 0.500000
Si Si4 0.731917 0.018382 0.256026
Si Si5 0.443338 0.827852 0.157469
O O1 0.752747 0.604233 0.810226
O O2 0.644593 0.527012 0.632493
O O3 0.478149 0.350599 0.828411
O O4 0.084424 0.796407 0.496913
O O5 0.375625 0.106896 0.213566
O O6 0.842419 0.196098 0.189935
O O7 0.500000 0.000000 0.500000
O O8 0.589936 0.664364 0.374794
O O9 0.675178 0.939224 0.166627
O O10 0.000000 0.000000 0.000000
#
# Coordination Sequence:
#
# PCOD9098126 Si02
#       5
#     2   2   1   2   2
#     4   9  19  38  63  94 126 170 214 261 322 384
#     4  10  20  36  63  96 126 166 218 261 320 387
#     4   8  20  36  66  82 132 154 220 244 330 352
#     4  11  21  39  64  95 127 169 214 267 319 384
#     4  10  21  40  64  95 129 168 217 264 320 383
#
# _framework density 28.190055000000001
#
# number of rings (size 3 to 8) (size 9 to 14) (size 15 to 20)
#    1.333    0.889    0.000    6.000    0.000    0.000 
#    0.000    6.667    0.000    0.000    0.000    1.556 
#    0.000    0.000    0.000    0.000    0.000    0.000 
#
# Total GULP energy -50116.164525 kJ/mol
# GULP energy per Si atom -5568.462725 kJ/mol
# Density = 2.812589 g / cm^3
# Si number density = 28.190055 Si / 1000 Ang^3
#
#
#
# Elastic Constant Matrix: (Units=GPa)
#
#
# Indices 1 2 3 4 5 6 
#
# 1 93.7734 35.4833 8.3454 -8.4755 18.8887 28.6695
# 2 35.4833 223.5679 30.4081 0.6846 -2.5472 34.5996
# 3 8.3454 30.4081 86.0219 1.2644 11.6803 7.9322
# 4 -8.4755 0.6846 1.2644 65.8824 5.0304 -16.5864
# 5 18.8887 -2.5472 11.6803 5.0304 17.8639 2.3069
# 6 28.6695 34.5996 7.9322 -16.5864 2.3069 54.6930
#
#
#
# Elastic Compliance Matrix: (Units=1/GPa)
#
#
# Indices 1 2 3 4 5 6 
#
# 1 0.017650 -0.002351 0.002461 0.002136 -0.020354 -0.006615
# 2 -0.002351 0.005630 -0.002242 -0.001408 0.005494 -0.002663
# 3 0.002461 -0.002242 0.013915 0.000700 -0.012066 -0.001169
# 4 0.002136 -0.001408 0.000700 0.017444 -0.008516 0.005318
# 5 -0.020354 0.005494 -0.012066 -0.008516 0.088231 0.002639
# 6 -0.006615 -0.002663 -0.001169 0.005318 0.002639 0.025107
#
#
# Mechanical properties :
#
#
# Convention : Reuss Voigt Hill
#
# Bulk Modulus (GPa) = 30.36622 61.31520 45.84071
# Shear Modulus (GPa) = 27.29012 49.62964 38.45988
#
# Velocity S-wave (km/s) = 3.11477 4.20043 3.69766
# Velocity P-wave (km/s) = 4.87145 6.73221 5.87596
#
# Compressibility (1/GPa) = 0.03293133
#
# Stress axis : x y z
#
# Youngs Moduli (GPa) = 56.65717 177.62132 71.86741
#
# Poissons Ratio (x) = 0.41753 -0.17686
# Poissons Ratio (y) = 0.13318 0.16112
# Poissons Ratio (z) = -0.13943 0.39821
#
# Static dielectric constant tensor:
#      x y z
#    x 2.039750 0.073830 0.132940 
#    y 0.073830 2.311160 -0.143060 
#    z 0.132940 -0.143060 2.124350 
# 
# From -- ./inp_files/478351.got.cif
#   From: 2010.05.17/outbox.cif.g08.bks.cpg/sg2_240_cif.got.tgz:478351.got - 2010.06.03 11:33:40.
