data_PCOD9098049
_publ_section_title
;
Structure prediction by ZEFSAII (Michael W. Deem and Ramdas Pophale) SiO2 
 PCOD9098049
Probable space group: P -1
;
_chemical_formula_sum "Si O2"
_cell_formula_units_Z 16
_cell_length_a 13.483580
_cell_length_b 15.382080
_cell_length_c 11.698825
_cell_angle_alpha 111.820920
_cell_angle_beta 36.423057
_cell_angle_gamma 140.102264
_cell_volume 706.203600
_symmetry_space_group_name_H-M "P -1"
_symmetry_group_IT_number 2
_symmetry_cell_setting 'triclinic'
loop_
_space_group_symop_operation_xyz
x,y,z
-x,-y,-z
loop_
_atom_site_type_symbol
_atom_site_label
_atom_site_fract_x
_atom_site_fract_y
_atom_site_fract_z
Si Si1 0.143794 0.114775 0.242161
Si Si2 0.811497 0.435276 0.408739
Si Si3 0.132679 0.318231 0.107684
Si Si4 0.240641 0.519043 0.911095
Si Si5 0.205931 0.032743 0.741133
Si Si6 0.207737 0.414907 0.668884
Si Si7 0.024278 0.143351 0.601569
Si Si8 0.293216 0.526319 0.243792
O O1 0.013370 0.122765 0.465251
O O2 0.473032 0.307235 0.977562
O O3 0.905060 0.998441 0.300086
O O4 0.176602 0.029638 0.230051
O O5 0.562916 0.232718 0.528637
O O6 0.679482 0.461518 0.474184
O O7 0.857249 0.483911 0.521494
O O8 0.113091 0.545513 0.112940
O O9 0.194754 0.408097 0.982081
O O10 0.062204 0.354727 0.296331
O O11 0.459844 0.424050 0.894242
O O12 0.879984 0.115823 0.228485
O O13 0.070680 0.412451 0.897915
O O14 0.610178 0.709600 0.638668
O O15 0.000000 0.000000 0.000000
O O16 0.500000 0.500000 0.500000
O O17 0.988674 0.231384 0.724778
#
# Coordination Sequence:
#
# PCOD9098049 Si02
#       8
#     2   2   2   2   2   2   2   2
#     4  10  20  36  63  91 118 148 212 258 288 341
#     4  12  24  39  62  93 126 163 191 251 320 356
#     4  10  21  37  62  88 122 159 204 249 292 358
#     4  11  23  39  61  89 130 155 198 250 311 371
#     4  11  22  35  61  92 123 155 202 256 292 356
#     4  10  22  37  64  86 116 159 211 245 286 357
#     4  10  21  38  64  91 112 164 207 253 289 356
#     4  10  20  38  65  90 120 154 210 250 292 361
#
# _framework density 22.656354
#
# number of rings (size 3 to 8) (size 9 to 14) (size 15 to 20)
#    0.000    1.500    3.750    3.375    5.250    1.000 
#    0.000    0.000    2.750    3.750    0.000    0.000 
#    0.000    0.000    0.000    0.000    0.000    0.000 
#
# Total GULP energy -89462.296143 kJ/mol
# GULP energy per Si atom -5591.393509 kJ/mol
# Density = 2.260479 g / cm^3
# Si number density = 22.656354 Si / 1000 Ang^3
#
#
#
# Elastic Constant Matrix: (Units=GPa)
#
#
# Indices 1 2 3 4 5 6 
#
# 1 105.9605 43.1292 29.0333 5.1243 38.2249 -3.1260
# 2 43.1292 151.0103 30.9717 19.3847 28.9107 6.3239
# 3 29.0333 30.9717 70.7674 27.3193 25.1242 5.4419
# 4 5.1243 19.3847 27.3193 36.0239 10.5831 20.7654
# 5 38.2249 28.9107 25.1242 10.5831 39.5069 4.5387
# 6 -3.1260 6.3239 5.4419 20.7654 4.5387 39.8421
#
#
#
# Elastic Compliance Matrix: (Units=1/GPa)
#
#
# Indices 1 2 3 4 5 6 
#
# 1 0.015516 -0.001947 -0.002340 0.003679 -0.013250 0.001438
# 2 -0.001947 0.008256 -0.000542 -0.003238 -0.003020 0.000642
# 3 -0.002340 -0.000542 0.026265 -0.021523 -0.009264 0.008588
# 4 0.003679 -0.003238 -0.021523 0.061942 -0.000827 -0.028447
# 5 -0.013250 -0.003020 -0.009264 -0.000827 0.046938 -0.004211
# 6 0.001438 0.000642 0.008588 -0.028447 -0.004211 0.039243
#
#
# Mechanical properties :
#
#
# Convention : Reuss Voigt Hill
#
# Bulk Modulus (GPa) = 24.76557 59.33407 42.04982
# Shear Modulus (GPa) = 22.59607 38.04819 30.32213
#
# Velocity S-wave (km/s) = 3.16149 4.10245 3.66232
# Velocity P-wave (km/s) = 4.92762 6.97751 6.04016
#
# Compressibility (1/GPa) = 0.04037865
#
# Stress axis : x y z
#
# Youngs Moduli (GPa) = 64.45164 121.12151 38.07303
#
# Poissons Ratio (x) = 0.23585 0.08910
# Poissons Ratio (y) = 0.12550 0.02063
# Poissons Ratio (z) = 0.15082 0.06563
#
# Static dielectric constant tensor:
#      x y z
#    x 1.873110 0.001540 -0.051230 
#    y 0.001540 1.886590 0.033040 
#    z -0.051230 0.033040 1.928180 
# 
# From -- ./inp_files/257952.got.cif
#   From: 2010.05.17/outbox.cif.g08.bks.cpg/sg2_129_cif.got.tgz:257952.got - 2010.06.03 11:33:40.
