data_PCOD9098970
_publ_section_title
;
Structure prediction by ZEFSAII (Michael W. Deem and Ramdas Pophale) SiO2 
 PCOD9098970
Probable space group: P -1
;
_chemical_formula_sum "Si O2"
_cell_formula_units_Z 16
_cell_length_a 8.394076
_cell_length_b 16.291647
_cell_length_c 13.382018
_cell_angle_alpha 136.591569
_cell_angle_beta 32.480606
_cell_angle_gamma 137.015507
_cell_volume 639.451787
_symmetry_space_group_name_H-M "P -1"
_symmetry_group_IT_number 2
_symmetry_cell_setting 'triclinic'
loop_
_space_group_symop_operation_xyz
x,y,z
-x,-y,-z
loop_
_atom_site_type_symbol
_atom_site_label
_atom_site_fract_x
_atom_site_fract_y
_atom_site_fract_z
Si Si1 0.630007 0.196288 0.748212
Si Si2 0.118346 0.221132 0.665320
Si Si3 0.785804 0.749771 0.653888
Si Si4 0.238828 0.379454 0.144429
Si Si5 0.377969 0.806536 0.739888
Si Si6 0.637218 0.498639 0.313347
Si Si7 0.214047 0.395046 0.933164
Si Si8 0.002433 0.007992 0.886045
O O1 0.789084 0.163555 0.734229
O O2 0.912273 0.254979 0.572966
O O3 0.363564 0.083564 0.737770
O O4 0.459615 0.293242 0.961392
O O5 0.337098 0.143413 0.444060
O O6 0.272775 0.364139 0.662642
O O7 0.119435 0.257818 0.811857
O O8 0.528607 0.762444 0.719079
O O9 0.636854 0.625237 0.689332
O O10 0.884487 0.874190 0.777812
O O11 0.435437 0.516118 0.201965
O O12 0.879129 0.301206 0.284484
O O13 0.215339 0.390171 0.046436
O O14 0.214195 0.906658 0.948435
O O15 0.500000 0.500000 0.500000
O O16 0.952240 0.460478 0.105022
O O17 0.000000 0.000000 0.000000
#
# Coordination Sequence:
#
# PCOD9098970 Si02
#       8
#     2   2   2   2   2   2   2   2
#     4  10  22  41  65  87 125 163 211 257 312 372
#     4  11  23  39  64  98 125 168 205 261 313 373
#     4  11  22  42  67  90 122 172 213 247 309 380
#     4  10  20  37  58  88 128 169 201 254 311 377
#     4  10  22  43  63  87 123 168 210 254 311 377
#     4  12  20  38  66  95 127 162 209 249 309 382
#     4  11  22  34  59  93 131 164 209 250 317 372
#     4  11  26  42  65  93 125 161 211 270 312 358
#
# _framework density 25.021432000000001
#
# number of rings (size 3 to 8) (size 9 to 14) (size 15 to 20)
#    0.000    1.250    5.000    1.125    1.750    3.500 
#    0.000    2.500    0.000    0.000    0.000    0.000 
#    0.000    0.000    0.000    0.000    0.000    0.000 
#
# Total GULP energy -89485.428869 kJ/mol
# GULP energy per Si atom -5592.839304 kJ/mol
# Density = 2.496448 g / cm^3
# Si number density = 25.021432 Si / 1000 Ang^3
#
#
#
# Elastic Constant Matrix: (Units=GPa)
#
#
# Indices 1 2 3 4 5 6 
#
# 1 59.7003 18.8869 45.9476 -3.0493 -3.6686 16.7057
# 2 18.8869 87.1024 18.1566 6.0947 -14.1564 20.8635
# 3 45.9476 18.1566 76.2010 -8.0163 -12.9642 21.1363
# 4 -3.0493 6.0947 -8.0163 29.3604 17.0109 8.1226
# 5 -3.6686 -14.1564 -12.9642 17.0109 35.0117 -4.7356
# 6 16.7057 20.8635 21.1363 8.1226 -4.7356 44.4587
#
#
#
# Elastic Compliance Matrix: (Units=1/GPa)
#
#
# Indices 1 2 3 4 5 6 
#
# 1 0.033435 -0.004088 -0.019161 0.004546 -0.007887 -0.003207
# 2 -0.004088 0.015113 0.000558 -0.007808 0.009221 -0.003413
# 3 -0.019161 0.000558 0.027680 0.003883 0.005726 -0.006321
# 4 0.004546 -0.007808 0.003883 0.059839 -0.032245 -0.014257
# 5 -0.007887 0.009221 0.005726 -0.032245 0.050218 0.007155
# 6 -0.003207 -0.003413 -0.006321 -0.014257 0.007155 0.031671
#
#
# Mechanical properties :
#
#
# Convention : Reuss Voigt Hill
#
# Bulk Modulus (GPa) = 32.41847 43.22065 37.81956
# Shear Modulus (GPa) = 18.27346 31.10034 24.68690
#
# Velocity S-wave (km/s) = 2.70536 3.52937 3.14447
# Velocity P-wave (km/s) = 4.76897 5.82405 5.32272
#
# Compressibility (1/GPa) = 0.03084661
#
# Stress axis : x y z
#
# Youngs Moduli (GPa) = 29.90837 66.16705 36.12743
#
# Poissons Ratio (x) = 0.27047 0.69224
# Poissons Ratio (y) = 0.12226 -0.02015
# Poissons Ratio (z) = 0.57308 -0.03691
#
# Static dielectric constant tensor:
#      x y z
#    x 2.041880 -0.015730 0.033090 
#    y -0.015730 2.094330 -0.037260 
#    z 0.033090 -0.037260 1.962000 
# 
# From -- ./inp_files/178858.got.cif
#   From: 2010.05.17/outbox.cif.g08.bks.cpg/sg2_90_cif.got.tgz:178858.got - 2010.06.03 11:33:40.
