data_PCOD9098084
_publ_section_title
;
Structure prediction by ZEFSAII (Michael W. Deem and Ramdas Pophale) SiO2 
 PCOD9098084
Probable space group: P -1
;
_chemical_formula_sum "Si O2"
_cell_formula_units_Z 16
_cell_length_a 11.716573
_cell_length_b 8.786154
_cell_length_c 16.343945
_cell_angle_alpha 148.738869
_cell_angle_beta 112.832883
_cell_angle_gamma 64.198760
_cell_volume 785.615845
_symmetry_space_group_name_H-M "P -1"
_symmetry_group_IT_number 2
_symmetry_cell_setting 'triclinic'
loop_
_space_group_symop_operation_xyz
x,y,z
-x,-y,-z
loop_
_atom_site_type_symbol
_atom_site_label
_atom_site_fract_x
_atom_site_fract_y
_atom_site_fract_z
Si Si1 0.636870 0.260017 0.098791
Si Si2 0.263846 0.762096 0.654906
Si Si3 0.833302 0.166882 0.748274
Si Si4 0.895968 0.297929 0.128312
Si Si5 0.055731 0.098998 0.644555
Si Si6 0.031429 0.729219 0.682198
Si Si7 0.368843 0.215947 0.534686
Si Si8 0.360483 0.231880 0.986292
O O1 0.758022 0.215377 0.053474
O O2 0.652167 0.541780 0.287524
O O3 0.494287 0.326627 0.055712
O O4 0.639270 0.974035 0.027045
O O5 0.350731 0.434538 0.549075
O O6 0.155821 0.821908 0.723607
O O7 0.175451 0.836571 0.585207
O O8 0.341685 0.017463 0.807951
O O9 0.753048 0.484925 0.900557
O O10 0.943867 0.160277 0.709296
O O11 0.908875 0.996879 0.768522
O O12 0.736504 0.979123 0.596835
O O13 0.899559 0.588452 0.209170
O O14 0.934618 0.387093 0.271674
O O15 0.000000 0.000000 0.000000
O O16 0.000000 0.000000 0.500000
O O17 0.000000 0.500000 0.500000
O O18 0.500000 0.000000 0.500000
#
# Coordination Sequence:
#
# PCOD9098084 Si02
#       8
#     2   2   2   2   2   2   2   2
#     4  10  20  39  60  90 124 162 206 263 315 365
#     4  10  22  39  63  91 124 159 213 263 311 366
#     4  11  22  35  66  92 117 158 224 257 308 373
#     4  12  24  40  63  94 130 168 204 259 329 388
#     4  11  25  39  61  90 132 169 200 262 331 377
#     4  11  20  38  65  88 122 165 215 265 304 371
#     4  11  19  36  65  96 116 159 215 267 303 363
#     4  10  20  36  63  93 116 155 215 267 303 358
#
# _framework density 20.366188000000001
#
# number of rings (size 3 to 8) (size 9 to 14) (size 15 to 20)
#    0.000    1.250    5.000    3.000    1.750    1.000 
#    0.000    0.625    0.000    3.000    0.000    0.000 
#    0.000    0.000    0.000    0.000    0.000    0.000 
#
# Total GULP energy -89231.436046 kJ/mol
# GULP energy per Si atom -5576.964753 kJ/mol
# Density = 2.031983 g / cm^3
# Si number density = 20.366188 Si / 1000 Ang^3
#
#
#
# Elastic Constant Matrix: (Units=GPa)
#
#
# Indices 1 2 3 4 5 6 
#
# 1 98.0633 41.0685 24.2154 11.7346 17.8013 -22.4832
# 2 41.0685 128.4241 25.4669 12.8273 1.3232 -32.8465
# 3 24.2154 25.4669 57.9177 14.3618 8.1526 -5.8077
# 4 11.7346 12.8273 14.3618 37.2536 -11.1209 -6.0192
# 5 17.8013 1.3232 8.1526 -11.1209 32.0841 5.1484
# 6 -22.4832 -32.8465 -5.8077 -6.0192 5.1484 34.7549
#
#
#
# Elastic Compliance Matrix: (Units=1/GPa)
#
#
# Indices 1 2 3 4 5 6 
#
# 1 0.016509 -0.001742 -0.002008 -0.005923 -0.012151 0.009472
# 2 -0.001742 0.011347 -0.003083 -0.000852 -0.000458 0.009003
# 3 -0.002008 -0.003083 0.022828 -0.009560 -0.007728 -0.000908
# 4 -0.005923 -0.000852 -0.009560 0.038057 0.019345 -0.002509
# 5 -0.012151 -0.000458 -0.007728 0.019345 0.048757 -0.013457
# 6 0.009472 0.009003 -0.000908 -0.002509 -0.013457 0.044816
#
#
# Mechanical properties :
#
#
# Convention : Reuss Voigt Hill
#
# Bulk Modulus (GPa) = 27.01209 51.76743 39.38976
# Shear Modulus (GPa) = 24.00167 33.72882 28.86524
#
# Velocity S-wave (km/s) = 3.43666 4.07396 3.76880
# Velocity P-wave (km/s) = 5.38883 6.89949 6.19042
#
# Compressibility (1/GPa) = 0.03702045
#
# Stress axis : x y z
#
# Youngs Moduli (GPa) = 60.57336 88.12540 43.80574
#
# Poissons Ratio (x) = 0.15349 0.08794
# Poissons Ratio (y) = 0.10550 0.13504
# Poissons Ratio (z) = 0.12160 0.27167
#
# Static dielectric constant tensor:
#      x y z
#    x 1.747960 -0.020900 0.014340 
#    y -0.020900 1.817990 0.009130 
#    z 0.014340 0.009130 1.746900 
# 
# From -- ./inp_files/189212.got.cif
#   From: 2010.05.17/outbox.cif.g08.bks.cpg/sg2_95_cif.got.tgz:189212.got - 2010.06.03 11:33:40.
