data_PCOD9098712
_publ_section_title
;
Structure prediction by ZEFSAII (Michael W. Deem and Ramdas Pophale) SiO2 
 PCOD9098712
Probable space group: P -1
;
_chemical_formula_sum "Si O2"
_cell_formula_units_Z 16
_cell_length_a 13.023228
_cell_length_b 13.236800
_cell_length_c 5.513024
_cell_angle_alpha 68.648693
_cell_angle_beta 116.420190
_cell_angle_gamma 128.597353
_cell_volume 660.081525
_symmetry_space_group_name_H-M "P -1"
_symmetry_group_IT_number 2
_symmetry_cell_setting 'triclinic'
loop_
_space_group_symop_operation_xyz
x,y,z
-x,-y,-z
loop_
_atom_site_type_symbol
_atom_site_label
_atom_site_fract_x
_atom_site_fract_y
_atom_site_fract_z
Si Si1 0.199321 0.822627 0.324856
Si Si2 0.501135 0.684082 0.673092
Si Si3 0.096509 0.590403 0.736082
Si Si4 0.560303 0.132697 0.802064
Si Si5 0.960011 0.692888 0.831289
Si Si6 0.635923 0.385420 0.903947
Si Si7 0.934450 0.073927 0.632364
Si Si8 0.184547 0.206201 0.164144
O O1 0.200559 0.735521 0.614022
O O2 0.308829 0.849007 0.215552
O O3 0.186739 0.935451 0.322325
O O4 0.050353 0.727678 0.134452
O O5 0.500708 0.815896 0.513365
O O6 0.422856 0.609182 0.903356
O O7 0.658711 0.729282 0.802145
O O8 0.419424 0.594420 0.427207
O O9 0.199383 0.549017 0.968711
O O10 0.000000 0.500000 0.500000
O O11 0.995602 0.604032 0.794024
O O12 0.578099 0.233727 0.935061
O O13 0.500000 0.000000 0.000000
O O14 0.826053 0.688009 0.786485
O O15 0.036646 0.827739 0.637484
O O16 0.874561 0.926115 0.626077
O O17 0.075769 0.145302 0.877602
#
# Coordination Sequence:
#
# PCOD9098712 Si02
#       8
#     2   2   2   2   2   2   2   2
#     4  10  20  38  55  92 126 156 210 267 306 386
#     4  10  23  37  60  83 130 167 206 252 310 378
#     4  11  22  41  68  89 118 160 209 280 335 362
#     4  10  22  34  58  87 128 173 199 251 312 384
#     4  10  20  37  56  86 120 155 205 270 304 378
#     4  10  22  42  55  94 122 158 214 257 312 386
#     4   9  21  33  58  83 125 160 220 253 302 371
#     4  10  21  36  55  87 120 176 206 250 308 373
#
# _framework density 24.239429000000001
#
# number of rings (size 3 to 8) (size 9 to 14) (size 15 to 20)
#    0.750    1.250    2.500    0.375    5.250    1.000 
#    0.000    0.000    0.000    1.500    0.000    0.000 
#    0.000    0.000    0.000    0.000    0.000    0.000 
#
# Total GULP energy -89154.792138 kJ/mol
# GULP energy per Si atom -5572.174509 kJ/mol
# Density = 2.418426 g / cm^3
# Si number density = 24.239429 Si / 1000 Ang^3
#
#
#
# Elastic Constant Matrix: (Units=GPa)
#
#
# Indices 1 2 3 4 5 6 
#
# 1 184.2689 33.7869 43.2082 0.9696 -9.8440 5.6078
# 2 33.7869 46.3525 11.8342 2.7191 1.1287 -16.0182
# 3 43.2082 11.8342 93.2153 0.5915 -8.5625 5.7416
# 4 0.9696 2.7191 0.5915 34.7254 0.9799 -2.9752
# 5 -9.8440 1.1287 -8.5625 0.9799 31.9656 -5.0728
# 6 5.6078 -16.0182 5.7416 -2.9752 -5.0728 48.8301
#
#
#
# Elastic Compliance Matrix: (Units=1/GPa)
#
#
# Indices 1 2 3 4 5 6 
#
# 1 0.007100 -0.005353 -0.002350 0.000037 0.001404 -0.002147
# 2 -0.005353 0.029692 -0.002063 -0.001208 -0.001568 0.010361
# 3 -0.002350 -0.002063 0.012403 -0.000192 0.002419 -0.001625
# 4 0.000037 -0.001208 -0.000192 0.029026 -0.000677 0.001320
# 5 0.001404 -0.001568 0.002419 -0.000677 0.032822 0.002408
# 6 -0.002147 0.010361 -0.001625 0.001320 0.002408 0.024646
#
#
# Mechanical properties :
#
#
# Convention : Reuss Voigt Hill
#
# Bulk Modulus (GPa) = 33.71340 55.72171 44.71755
# Shear Modulus (GPa) = 30.28295 38.77138 34.52717
#
# Velocity S-wave (km/s) = 3.53842 4.00374 3.77825
# Velocity P-wave (km/s) = 5.53467 6.66417 6.12551
#
# Compressibility (1/GPa) = 0.02966180
#
# Stress axis : x y z
#
# Youngs Moduli (GPa) = 140.85154 33.67903 80.62743
#
# Poissons Ratio (x) = 0.18029 0.18950
# Poissons Ratio (y) = 0.75402 0.16631
# Poissons Ratio (z) = 0.33105 0.06947
#
# Static dielectric constant tensor:
#      x y z
#    x 2.008010 -0.050760 -0.023550 
#    y -0.050760 2.031350 -0.032930 
#    z -0.023550 -0.032930 1.974920 
# 
# From -- ./inp_files/77675.got.cif
#   From: 2010.05.17/outbox.cif.g08.bks.cpg/sg2_39_cif.got.tgz:77675.got - 2010.06.03 11:33:40.
