data_PCOD9098259
_publ_section_title
;
Structure prediction by ZEFSAII (Michael W. Deem and Ramdas Pophale) SiO2 
 PCOD9098259
Probable space group: P -1
;
_chemical_formula_sum "Si O2"
_cell_formula_units_Z 10
_cell_length_a 5.164284
_cell_length_b 11.375751
_cell_length_c 11.651284
_cell_angle_alpha 35.168076
_cell_angle_beta 112.436118
_cell_angle_gamma 117.651523
_cell_volume 349.215788
_symmetry_space_group_name_H-M "P -1"
_symmetry_group_IT_number 2
_symmetry_cell_setting 'triclinic'
loop_
_space_group_symop_operation_xyz
x,y,z
-x,-y,-z
loop_
_atom_site_type_symbol
_atom_site_label
_atom_site_fract_x
_atom_site_fract_y
_atom_site_fract_z
Si Si1 0.256838 0.266511 0.268976
Si Si2 0.378478 0.773139 0.841086
Si Si3 0.219902 0.788554 0.051411
Si Si4 0.822140 0.416018 0.368972
Si Si5 0.216964 0.233167 0.729406
O O1 0.358110 0.165398 0.253302
O O2 0.499254 0.270091 0.404134
O O3 0.911672 0.183534 0.296298
O O4 0.318976 0.519783 0.053389
O O5 0.394497 0.857096 0.907562
O O6 0.437042 0.745851 0.220001
O O7 0.970545 0.568283 0.167028
O O8 0.097448 0.978332 0.920151
O O9 0.810256 0.596503 0.315684
O O10 0.049105 0.294051 0.545360
#
# Coordination Sequence:
#
# PCOD9098259 Si02
#       5
#     2   2   2   2   2
#     4  10  20  36  64  93 121 165 211 256 315 374
#     4  10  20  36  64  93 121 165 211 256 315 374
#     4  11  21  40  62  88 124 161 207 260 308 375
#     4  11  21  40  62  88 124 161 207 260 308 375
#     4  10  24  38  60  92 120 164 210 250 318 368
#
# _framework density 28.635590000000001
#
# number of rings (size 3 to 8) (size 9 to 14) (size 15 to 20)
#    0.000    1.600    2.000    4.800    0.000    0.000 
#    0.000    2.000    0.000    0.000    0.000    2.800 
#    0.000    0.000    0.000    0.000    0.000    0.000 
#
# Total GULP energy -56040.528410 kJ/mol
# GULP energy per Si atom -5604.052841 kJ/mol
# Density = 2.857041 g / cm^3
# Si number density = 28.635590 Si / 1000 Ang^3
#
#
#
# Elastic Constant Matrix: (Units=GPa)
#
#
# Indices 1 2 3 4 5 6 
#
# 1 134.0153 60.6281 49.6302 7.0115 14.4069 -7.7442
# 2 60.6281 148.7728 51.9877 7.1502 12.5243 -8.9409
# 3 49.6302 51.9877 158.1829 -5.8553 56.6708 8.4711
# 4 7.0115 7.1502 -5.8553 45.8179 3.9626 11.0048
# 5 14.4069 12.5243 56.6708 3.9626 38.1587 6.8959
# 6 -7.7442 -8.9409 8.4711 11.0048 6.8959 63.5840
#
#
#
# Elastic Compliance Matrix: (Units=1/GPa)
#
#
# Indices 1 2 3 4 5 6 
#
# 1 0.009856 -0.003023 -0.002648 -0.001790 0.001153 0.001313
# 2 -0.003023 0.008995 -0.003176 -0.001917 0.002863 0.001341
# 3 -0.002648 -0.003176 0.016774 0.005391 -0.023172 -0.001424
# 4 -0.001790 -0.001917 0.005391 0.024924 -0.008457 -0.004602
# 5 0.001153 0.002863 -0.023172 -0.008457 0.060386 -0.001455
# 6 0.001313 0.001341 -0.001424 -0.004602 -0.001455 0.017220
#
#
# Mechanical properties :
#
#
# Convention : Reuss Voigt Hill
#
# Bulk Modulus (GPa) = 55.77378 85.05143 70.41261
# Shear Modulus (GPa) = 30.89730 48.09377 39.49554
#
# Velocity S-wave (km/s) = 3.28835 4.10263 3.71785
# Velocity P-wave (km/s) = 5.82555 7.22550 6.56296
#
# Compressibility (1/GPa) = 0.01792957
#
# Stress axis : x y z
#
# Youngs Moduli (GPa) = 101.46282 111.16928 59.61671
#
# Poissons Ratio (x) = 0.33608 0.15788
# Poissons Ratio (y) = 0.30674 0.18936
# Poissons Ratio (z) = 0.26870 0.35310
#
# Static dielectric constant tensor:
#      x y z
#    x 2.249440 0.037820 -0.088720 
#    y 0.037820 2.216700 0.014250 
#    z -0.088720 0.014250 2.257670 
# 
# From -- ./inp_files/24866.got.cif
#   From: 2010.05.17/outbox.cif.g08.bks.cpg/sg2_13_cif.got.tgz:24866.got - 2010.06.03 11:33:40.
