data_PCOD9098292
_publ_section_title
;
Structure prediction by ZEFSAII (Michael W. Deem and Ramdas Pophale) SiO2 
 PCOD9098292
Probable space group: P -1
;
_chemical_formula_sum "Si O2"
_cell_formula_units_Z 16
_cell_length_a 14.356325
_cell_length_b 9.867309
_cell_length_c 8.982290
_cell_angle_alpha 136.036118
_cell_angle_beta 95.746261
_cell_angle_gamma 100.462657
_cell_volume 817.466829
_symmetry_space_group_name_H-M "P -1"
_symmetry_group_IT_number 2
_symmetry_cell_setting 'triclinic'
loop_
_space_group_symop_operation_xyz
x,y,z
-x,-y,-z
loop_
_atom_site_type_symbol
_atom_site_label
_atom_site_fract_x
_atom_site_fract_y
_atom_site_fract_z
Si Si1 0.463370 0.389044 0.561866
Si Si2 0.862792 0.790598 0.431890
Si Si3 0.406415 0.800071 0.383193
Si Si4 0.783097 0.108182 0.558842
Si Si5 0.065806 0.907892 0.038514
Si Si6 0.275926 0.955673 0.152057
Si Si7 0.656231 0.406952 0.108739
Si Si8 0.015939 0.554966 0.218268
O O1 0.500000 0.500000 0.500000
O O2 0.549811 0.319081 0.587907
O O3 0.432630 0.537733 0.788031
O O4 0.362722 0.181405 0.361253
O O5 0.759460 0.602988 0.308854
O O6 0.942974 0.683011 0.331328
O O7 0.823391 0.916300 0.401380
O O8 0.915535 0.961717 0.701708
O O9 0.324710 0.890585 0.505453
O O10 0.500000 0.000000 0.500000
O O11 0.363479 0.648211 0.113371
O O12 0.770214 0.122037 0.749570
O O13 0.867367 0.298960 0.640930
O O14 0.180217 0.951155 0.037944
O O15 0.013984 0.658456 0.861205
O O16 0.000000 0.000000 0.000000
O O17 0.326501 0.794493 0.980345
O O18 0.000000 0.500000 0.000000
#
# Coordination Sequence:
#
# PCOD9098292 Si02
#       8
#     2   2   2   2   2   2   2   2
#     4  12  25  41  68  95 132 170 217 276 330 388
#     4  11  21  40  69  96 125 176 214 262 337 379
#     4  11  21  43  68  95 126 171 224 266 320 391
#     4  10  20  36  64  95 130 159 217 276 306 379
#     4  11  24  41  65  92 134 174 214 260 324 400
#     4  10  20  43  61  89 130 171 209 264 331 382
#     4  11  20  41  74  89 125 178 221 262 330 392
#     4  12  21  38  66  98 127 166 217 267 317 378
#
# _framework density 19.572659999999999
#
# number of rings (size 3 to 8) (size 9 to 14) (size 15 to 20)
#    0.000    1.000    8.750    1.500    0.000    2.000 
#    0.000    0.000    0.000    0.000    0.000    0.000 
#    0.000    0.000    0.000    0.000    0.000    0.000 
#
# Total GULP energy -89171.181760 kJ/mol
# GULP energy per Si atom -5573.198860 kJ/mol
# Density = 1.952811 g / cm^3
# Si number density = 19.572660 Si / 1000 Ang^3
#
#
#
# Elastic Constant Matrix: (Units=GPa)
#
#
# Indices 1 2 3 4 5 6 
#
# 1 162.8763 81.7358 40.1700 16.3039 8.6504 -35.4625
# 2 81.7358 99.1849 39.7579 13.7385 -5.2391 -31.5181
# 3 40.1700 39.7579 52.0459 28.0990 -5.5106 -6.4333
# 4 16.3039 13.7385 28.0990 24.3418 -8.0006 0.4462
# 5 8.6504 -5.2391 -5.5106 -8.0006 22.6978 4.5355
# 6 -35.4625 -31.5181 -6.4333 0.4462 4.5355 41.1173
#
#
#
# Elastic Compliance Matrix: (Units=1/GPa)
#
#
# Indices 1 2 3 4 5 6 
#
# 1 0.012939 -0.008282 0.000228 -0.007919 -0.010803 0.006125
# 2 -0.008282 0.026087 -0.021493 0.018363 0.008769 0.008325
# 3 0.000228 -0.021493 0.079427 -0.084745 -0.015389 -0.001233
# 4 -0.007919 0.018363 -0.084745 0.147589 0.041133 -0.012152
# 5 -0.010803 0.008769 -0.015389 0.041133 0.063448 -0.012448
# 6 0.006125 0.008325 -0.001233 -0.012152 -0.012448 0.037296
#
#
# Mechanical properties :
#
#
# Convention : Reuss Voigt Hill
#
# Bulk Modulus (GPa) = 16.84617 70.82605 43.83611
# Shear Modulus (GPa) = 11.21915 27.79427 19.50671
#
# Velocity S-wave (km/s) = 2.39677 3.77245 3.16037
# Velocity P-wave (km/s) = 4.03547 7.43236 5.98017
#
# Compressibility (1/GPa) = 0.05936069
#
# Stress axis : x y z
#
# Youngs Moduli (GPa) = 77.28346 38.33259 12.59024
#
# Poissons Ratio (x) = 0.31748 -0.00288
# Poissons Ratio (y) = 0.64007 0.27060
# Poissons Ratio (z) = -0.01765 0.82387
#
# Static dielectric constant tensor:
#      x y z
#    x 1.775220 0.001610 -0.015870 
#    y 0.001610 1.707040 0.023280 
#    z -0.015870 0.023280 1.708390 
# 
# From -- ./inp_files/296841.got.cif
#   From: 2010.05.17/outbox.cif.g08.bks.cpg/sg2_149_cif.got.tgz:296841.got - 2010.06.03 11:33:40.
