data_PCOD9098521
_publ_section_title
;
Structure prediction by ZEFSAII (Michael W. Deem and Ramdas Pophale) SiO2 
 PCOD9098521
Probable space group: P -1
;
_chemical_formula_sum "Si O2"
_cell_formula_units_Z 16
_cell_length_a 14.359418
_cell_length_b 14.321447
_cell_length_c 10.999547
_cell_angle_alpha 135.025380
_cell_angle_beta 32.138935
_cell_angle_gamma 132.789340
_cell_volume 830.896880
_symmetry_space_group_name_H-M "P -1"
_symmetry_group_IT_number 2
_symmetry_cell_setting 'triclinic'
loop_
_space_group_symop_operation_xyz
x,y,z
-x,-y,-z
loop_
_atom_site_type_symbol
_atom_site_label
_atom_site_fract_x
_atom_site_fract_y
_atom_site_fract_z
Si Si1 0.850862 0.244063 0.662681
Si Si2 0.982881 0.657159 0.664947
Si Si3 0.557370 0.798101 0.920246
Si Si4 0.069374 0.025239 0.308575
Si Si5 0.632866 0.592199 0.844636
Si Si6 0.116161 0.498846 0.711147
Si Si7 0.677599 0.613851 0.417385
Si Si8 0.959547 0.737977 0.041734
O O1 0.865487 0.264106 0.519812
O O2 0.978372 0.145164 0.471573
O O3 0.940254 0.390649 0.757753
O O4 0.644014 0.188890 0.872623
O O5 0.797948 0.667565 0.813641
O O6 0.000000 0.500000 0.500000
O O7 0.982202 0.713942 0.852558
O O8 0.715107 0.927163 0.891521
O O9 0.550901 0.693929 0.944805
O O10 0.632251 0.731448 0.659456
O O11 0.000000 0.000000 0.500000
O O12 0.006414 0.890853 0.175480
O O13 0.727798 0.509630 0.566804
O O14 0.500000 0.500000 0.000000
O O15 0.179261 0.448226 0.721333
O O16 0.085803 0.649188 0.883959
O O17 0.500000 0.500000 0.500000
O O18 0.762309 0.669701 0.247584
#
# Coordination Sequence:
#
# PCOD9098521 Si02
#       8
#     2   2   2   2   2   2   2   2
#     4  11  22  45  73  94 135 178 225 271 342 396
#     4  11  21  40  68  99 131 173 219 279 340 386
#     4  11  23  44  69  95 132 187 217 276 338 397
#     4  12  25  49  65  97 142 182 222 272 336 407
#     4  10  20  36  67  99 134 168 223 277 331 398
#     4  10  21  41  65  98 131 176 217 288 334 379
#     4  11  23  39  64 102 132 164 233 284 330 387
#     4  12  24  40  68  97 135 176 223 275 337 402
#
# _framework density 19.2563
#
# number of rings (size 3 to 8) (size 9 to 14) (size 15 to 20)
#    0.000    1.000    7.500    1.875    3.500    2.000 
#    2.250    0.625    0.000    0.000    0.000    0.000 
#    0.000    0.000    0.000    0.000    0.000    0.000 
#
# Total GULP energy -89361.297607 kJ/mol
# GULP energy per Si atom -5585.081100 kJ/mol
# Density = 1.921247 g / cm^3
# Si number density = 19.256300 Si / 1000 Ang^3
#
#
#
# Elastic Constant Matrix: (Units=GPa)
#
#
# Indices 1 2 3 4 5 6 
#
# 1 66.0004 3.8991 24.7462 -2.5148 15.1303 -5.3632
# 2 3.8991 73.2930 21.7605 -5.2425 3.4339 0.1889
# 3 24.7462 21.7605 55.5785 -8.0058 2.6211 -1.9086
# 4 -2.5148 -5.2425 -8.0058 39.4179 5.7965 3.9953
# 5 15.1303 3.4339 2.6211 5.7965 39.7778 -11.2355
# 6 -5.3632 0.1889 -1.9086 3.9953 -11.2355 27.3178
#
#
#
# Elastic Compliance Matrix: (Units=1/GPa)
#
#
# Indices 1 2 3 4 5 6 
#
# 1 0.020271 0.002105 -0.009394 0.000723 -0.007325 0.000190
# 2 0.002105 0.015772 -0.006862 0.001303 -0.002267 -0.001298
# 3 -0.009394 -0.006862 0.025244 0.003265 0.002130 0.000365
# 4 0.000723 0.001303 0.003265 0.027847 -0.006459 -0.006368
# 5 -0.007325 -0.002267 0.002130 -0.006459 0.032619 0.013087
# 6 0.000190 -0.001298 0.000365 -0.006368 0.013087 0.042992
#
#
# Mechanical properties :
#
#
# Convention : Reuss Voigt Hill
#
# Bulk Modulus (GPa) = 30.31645 32.85373 31.58509
# Shear Modulus (GPa) = 24.50456 30.93376 27.71916
#
# Velocity S-wave (km/s) = 3.57115 4.01237 3.79817
# Velocity P-wave (km/s) = 5.72555 6.20998 5.97268
#
# Compressibility (1/GPa) = 0.03298540
#
# Stress axis : x y z
#
# Youngs Moduli (GPa) = 49.33049 63.40323 39.61271
#
# Poissons Ratio (x) = -0.13347 0.37212
# Poissons Ratio (y) = -0.10384 0.27184
# Poissons Ratio (z) = 0.46340 0.43510
#
# Static dielectric constant tensor:
#      x y z
#    x 1.711510 -0.017850 0.001040 
#    y -0.017850 1.695050 -0.024930 
#    z 0.001040 -0.024930 1.697870 
# 
# From -- ./inp_files/455044.got.cif
#   From: 2010.05.17/outbox.cif.g08.bks.cpg/sg2_228_cif.got.tgz:455044.got - 2010.06.03 11:33:40.
