data_PCOD9098917
_publ_section_title
;
Structure prediction by ZEFSAII (Michael W. Deem and Ramdas Pophale) SiO2 
 PCOD9098917
Probable space group: P -1
;
_chemical_formula_sum "Si O2"
_cell_formula_units_Z 14
_cell_length_a 7.063508
_cell_length_b 24.316389
_cell_length_c 7.354271
_cell_angle_alpha 49.320784
_cell_angle_beta 140.476966
_cell_angle_gamma 111.101581
_cell_volume 582.338629
_symmetry_space_group_name_H-M "P -1"
_symmetry_group_IT_number 2
_symmetry_cell_setting 'triclinic'
loop_
_space_group_symop_operation_xyz
x,y,z
-x,-y,-z
loop_
_atom_site_type_symbol
_atom_site_label
_atom_site_fract_x
_atom_site_fract_y
_atom_site_fract_z
Si Si1 0.457749 0.233915 0.702224
Si Si2 0.036656 0.545259 0.672674
Si Si3 0.194069 0.773446 0.660206
Si Si4 0.189871 0.927099 0.686721
Si Si5 0.344656 0.610719 0.055028
Si Si6 0.572204 0.391767 0.445649
Si Si7 0.147827 0.067557 0.928699
O O1 0.524627 0.311188 0.532789
O O2 0.096291 0.240134 0.413398
O O3 0.545879 0.223482 0.006534
O O4 0.657267 0.154817 0.930898
O O5 0.675677 0.555798 0.354486
O O6 0.839210 0.409040 0.486195
O O7 0.083177 0.583808 0.816502
O O8 0.261453 0.460198 0.025495
O O9 0.046018 0.855038 0.281338
O O10 0.316011 0.697742 0.795778
O O11 0.943477 0.914117 0.388798
O O12 0.483372 0.945541 0.763843
O O13 0.000000 0.000000 0.500000
O O14 0.351506 0.608095 0.283791
O O15 0.000000 0.000000 0.000000
#
# Coordination Sequence:
#
# PCOD9098917 Si02
#       7
#     2   2   2   2   2   2   2
#     4   9  19  36  59  79 113 160 188 228 306 350
#     4  11  25  38  62  93 118 156 214 246 297 371
#     4   9  19  36  59  81 114 153 194 233 289 366
#     4  10  20  37  58  86 116 151 197 239 289 368
#     4  11  22  41  61  88 120 162 200 249 305 355
#     4  10  23  42  61  87 126 161 196 259 304 350
#     4  10  20  37  58  85 116 155 188 241 306 348
#
# _framework density 24.040996
#
# number of rings (size 3 to 8) (size 9 to 14) (size 15 to 20)
#    0.000    2.000    0.000    3.429    0.000    8.000 
#    5.143    0.000    0.000    0.000    0.000    0.000 
#    0.000    0.000    0.000    0.000    0.000    0.000 
#
# Total GULP energy -78302.305935 kJ/mol
# GULP energy per Si atom -5593.021852 kJ/mol
# Density = 2.398628 g / cm^3
# Si number density = 24.040996 Si / 1000 Ang^3
#
#
#
# Elastic Constant Matrix: (Units=GPa)
#
#
# Indices 1 2 3 4 5 6 
#
# 1 77.0454 31.1019 19.4763 -7.4531 -5.4084 13.1579
# 2 31.1019 156.4426 43.9997 -35.3876 3.9171 14.4383
# 3 19.4763 43.9997 79.0666 -9.7627 21.4166 -1.4279
# 4 -7.4531 -35.3876 -9.7627 63.8544 1.6886 -0.0715
# 5 -5.4084 3.9171 21.4166 1.6886 20.7630 -3.4000
# 6 13.1579 14.4383 -1.4279 -0.0715 -3.4000 35.3086
#
#
#
# Elastic Compliance Matrix: (Units=1/GPa)
#
#
# Indices 1 2 3 4 5 6 
#
# 1 0.016648 -0.001383 -0.006181 -0.000043 0.010172 -0.004909
# 2 -0.001383 0.009234 -0.004912 0.004146 0.002096 -0.003249
# 3 -0.006181 -0.004912 0.023781 0.000851 -0.024810 0.002887
# 4 -0.000043 0.004146 0.000851 0.018173 -0.003467 -0.001942
# 5 0.010172 0.002096 -0.024810 -0.003467 0.076570 0.001715
# 6 -0.004909 -0.003249 0.002887 -0.001942 0.001715 0.031758
#
#
# Mechanical properties :
#
#
# Convention : Reuss Voigt Hill
#
# Bulk Modulus (GPa) = 40.46676 55.74558 48.10617
# Shear Modulus (GPa) = 23.88310 38.51698 31.20004
#
# Velocity S-wave (km/s) = 3.15530 4.00701 3.60639
# Velocity P-wave (km/s) = 5.49031 6.68179 6.11513
#
# Compressibility (1/GPa) = 0.02471164
#
# Stress axis : x y z
#
# Youngs Moduli (GPa) = 60.06605 108.29799 42.05022
#
# Poissons Ratio (x) = 0.14974 0.25990
# Poissons Ratio (y) = 0.08305 0.20656
# Poissons Ratio (z) = 0.37126 0.53199
#
# Static dielectric constant tensor:
#      x y z
#    x 1.925490 -0.033580 -0.036540 
#    y -0.033580 1.971320 -0.102650 
#    z -0.036540 -0.102650 1.948790 
# 
# From -- ./inp_files/226215.got.cif
#   From: 2010.05.17/outbox.cif.g08.bks.cpg/sg2_114_cif.got.tgz:226215.got - 2010.06.03 11:33:40.
