data_PCOD9098323
_publ_section_title
;
Structure prediction by ZEFSAII (Michael W. Deem and Ramdas Pophale) SiO2 
 PCOD9098323
Probable space group: P -1
;
_chemical_formula_sum "Si O2"
_cell_formula_units_Z 15
_cell_length_a 5.248903
_cell_length_b 9.800795
_cell_length_c 15.639276
_cell_angle_alpha 56.144447
_cell_angle_beta 94.922892
_cell_angle_gamma 107.395480
_cell_volume 634.249148
_symmetry_space_group_name_H-M "P -1"
_symmetry_group_IT_number 2
_symmetry_cell_setting 'triclinic'
loop_
_space_group_symop_operation_xyz
x,y,z
-x,-y,-z
loop_
_atom_site_type_symbol
_atom_site_label
_atom_site_fract_x
_atom_site_fract_y
_atom_site_fract_z
Si Si1 0.686290 0.380043 0.232521
Si Si2 0.139457 0.755018 0.292334
Si Si3 0.247827 0.456508 0.314694
Si Si4 0.752893 0.671130 0.459787
Si Si5 0.624655 0.020232 0.283260
Si Si6 0.500000 0.500000 0.000000
Si Si7 0.138638 0.868693 0.085300
Si Si8 0.362361 0.835765 0.936960
O O1 0.487930 0.420521 0.282729
O O2 0.630482 0.173892 0.293030
O O3 0.993637 0.440670 0.252140
O O4 0.621613 0.456506 0.113695
O O5 0.318610 0.646201 0.293207
O O6 0.979052 0.781138 0.194966
O O7 0.961388 0.656623 0.398312
O O8 0.319051 0.932941 0.274741
O O9 0.161399 0.333045 0.437848
O O10 0.500000 0.500000 0.500000
O O11 0.706589 0.856553 0.375767
O O12 0.777572 0.114449 0.168745
O O13 0.495155 0.689817 0.967255
O O14 0.425074 0.985970 0.088698
O O15 0.180803 0.766587 0.038841
O O16 0.000000 0.000000 0.000000
#
# Coordination Sequence:
#
# PCOD9098323 Si02
#       8
#     2   2   2   2   2   1   2   2
#     4  11  28  48  72 109 145 189 236 298 361 436
#     4  11  24  42  71 100 139 188 243 294 356 430
#     4  12  27  46  72 107 141 187 248 297 353 423
#     4  12  25  45  74 102 140 191 242 306 360 415
#     4  10  24  45  69 100 143 189 238 290 363 427
#     4  10  22  48  70  94 148 186 226 282 370 430
#     4  10  20  36  64  98 131 173 229 289 344 411
#     4   9  20  40  63  99 134 177 226 281 348 423
#
# _framework density 23.650012
#
# number of rings (size 3 to 8) (size 9 to 14) (size 15 to 20)
#    0.000    1.333    1.333    2.800    5.600    1.600 
#    7.200    0.000    0.000    0.000    0.000    0.000 
#    0.000    0.000    0.000    0.000    0.000    0.000 
#
# Total GULP energy -83517.980184 kJ/mol
# GULP energy per Si atom -5567.865346 kJ/mol
# Density = 2.359618 g / cm^3
# Si number density = 23.650012 Si / 1000 Ang^3
#
#
#
# Elastic Constant Matrix: (Units=GPa)
#
#
# Indices 1 2 3 4 5 6 
#
# 1 75.1005 36.8165 37.8586 4.9321 -3.4928 -12.5818
# 2 36.8165 132.2993 39.0129 -19.4787 -9.1234 -22.4591
# 3 37.8586 39.0129 177.7289 4.8732 24.7171 -6.7808
# 4 4.9321 -19.4787 4.8732 38.5885 -12.2294 7.7029
# 5 -3.4928 -9.1234 24.7171 -12.2294 45.4739 -5.6134
# 6 -12.5818 -22.4591 -6.7808 7.7029 -5.6134 25.7828
#
#
#
# Elastic Compliance Matrix: (Units=1/GPa)
#
#
# Indices 1 2 3 4 5 6 
#
# 1 0.018041 -0.003536 -0.002956 -0.004447 0.001913 0.006692
# 2 -0.003536 0.012176 -0.002769 0.007583 0.006620 0.007329
# 3 -0.002956 -0.002769 0.007743 -0.003543 -0.006205 -0.002110
# 4 -0.004447 0.007583 -0.003543 0.035483 0.012097 -0.004464
# 5 0.001913 0.006620 -0.006205 0.012097 0.031107 0.008227
# 6 0.006692 0.007329 -0.002110 -0.004464 0.008227 0.051005
#
#
# Mechanical properties :
#
#
# Convention : Reuss Voigt Hill
#
# Bulk Modulus (GPa) = 51.43916 68.05609 59.74762
# Shear Modulus (GPa) = 27.69249 40.06509 33.87879
#
# Velocity S-wave (km/s) = 3.42560 4.12039 3.78895
# Velocity P-wave (km/s) = 6.11912 7.17465 6.66781
#
# Compressibility (1/GPa) = 0.01944044
#
# Stress axis : x y z
#
# Youngs Moduli (GPa) = 55.42984 82.12863 129.14263
#
# Poissons Ratio (x) = 0.29038 0.38170
# Poissons Ratio (y) = 0.19598 0.35754
# Poissons Ratio (z) = 0.16383 0.22738
#
# Static dielectric constant tensor:
#      x y z
#    x 1.965450 0.030910 0.030390 
#    y 0.030910 1.897470 -0.012200 
#    z 0.030390 -0.012200 2.085230 
# 
# From -- ./inp_files/480225.got.cif
#   From: 2010.05.17/outbox.cif.g08.bks.cpg/sg2_241_cif.got.tgz:480225.got - 2010.06.03 11:33:40.
