data_PCOD9098716
_publ_section_title
;
Structure prediction by ZEFSAII (Michael W. Deem and Ramdas Pophale) SiO2 
 PCOD9098716
Probable space group: P -1
;
_chemical_formula_sum "Si O2"
_cell_formula_units_Z 14
_cell_length_a 14.166808
_cell_length_b 6.285108
_cell_length_c 8.257348
_cell_angle_alpha 57.815209
_cell_angle_beta 69.191511
_cell_angle_gamma 70.651485
_cell_volume 572.207291
_symmetry_space_group_name_H-M "P -1"
_symmetry_group_IT_number 2
_symmetry_cell_setting 'triclinic'
loop_
_space_group_symop_operation_xyz
x,y,z
-x,-y,-z
loop_
_atom_site_type_symbol
_atom_site_label
_atom_site_fract_x
_atom_site_fract_y
_atom_site_fract_z
Si Si1 0.892636 0.989419 0.920273
Si Si2 0.703467 0.947041 0.830130
Si Si3 0.970005 0.780492 0.478763
Si Si4 0.759725 0.343925 0.109509
Si Si5 0.856170 0.479663 0.308226
Si Si6 0.391950 0.671885 0.031990
Si Si7 0.743149 0.730149 0.593980
O O1 0.804827 0.028866 0.817480
O O2 0.902080 0.701792 0.096650
O O3 0.994847 0.049646 0.753813
O O4 0.850878 0.198562 0.998567
O O5 0.678068 0.962461 0.647164
O O6 0.724989 0.645212 0.977389
O O7 0.612409 0.097378 0.934240
O O8 0.851968 0.775083 0.588181
O O9 0.000000 0.500000 0.500000
O O10 0.945983 0.257883 0.412725
O O11 0.793770 0.339981 0.275000
O O12 0.663879 0.228847 0.144012
O O13 0.783698 0.644854 0.422304
O O14 0.500000 0.500000 0.000000
O O15 0.319207 0.494020 0.233445
#
# Coordination Sequence:
#
# PCOD9098716 Si02
#       7
#     2   2   2   2   2   2   2
#     4  10  21  38  59  88 126 168 203 235 291 355
#     4   9  18  37  61  86 118 154 196 247 299 358
#     4  10  20  37  56  86 128 164 204 240 281 355
#     4   9  19  37  59  91 124 154 205 250 287 355
#     4  10  21  38  62  89 127 167 195 243 297 344
#     4  10  21  41  67  88 114 157 202 251 312 362
#     4  10  22  38  57  90 125 156 206 252 290 357
#
# _framework density 24.466657999999999
#
# number of rings (size 3 to 8) (size 9 to 14) (size 15 to 20)
#    0.000    2.286    0.000    5.143    0.000    7.429 
#    0.000   24.286    0.000   10.286    0.000    0.000 
#    0.000    0.000    0.000    0.000    0.000    0.000 
#
# Total GULP energy -77966.083896 kJ/mol
# GULP energy per Si atom -5569.005993 kJ/mol
# Density = 2.441097 g / cm^3
# Si number density = 24.466658 Si / 1000 Ang^3
#
#
#
# Elastic Constant Matrix: (Units=GPa)
#
#
# Indices 1 2 3 4 5 6 
#
# 1 79.6390 34.2888 39.4694 24.8248 12.8155 2.7813
# 2 34.2888 154.0707 58.1059 42.2248 11.7286 1.6886
# 3 39.4694 58.1059 104.8038 -5.0493 3.7464 -2.0386
# 4 24.8248 42.2248 -5.0493 63.8907 21.6707 16.2416
# 5 12.8155 11.7286 3.7464 21.6707 30.6390 15.1666
# 6 2.7813 1.6886 -2.0386 16.2416 15.1666 39.8803
#
#
#
# Elastic Compliance Matrix: (Units=1/GPa)
#
#
# Indices 1 2 3 4 5 6 
#
# 1 0.019133 0.001478 -0.008303 -0.008877 -0.002664 0.002807
# 2 0.001478 0.011563 -0.007465 -0.010019 0.001746 0.002442
# 3 -0.008303 -0.007465 0.017394 0.010852 -0.002670 -0.001620
# 4 -0.008877 -0.010019 0.010852 0.032938 -0.013829 -0.006557
# 5 -0.002664 0.001746 -0.002670 -0.013829 0.049789 -0.013327
# 6 0.002807 0.002442 -0.001620 -0.006557 -0.013327 0.032432
#
#
# Mechanical properties :
#
#
# Convention : Reuss Voigt Hill
#
# Bulk Modulus (GPa) = 51.25447 66.91573 59.08510
# Shear Modulus (GPa) = 25.21016 40.65865 32.93441
#
# Velocity S-wave (km/s) = 3.21345 4.08094 3.67289
# Velocity P-wave (km/s) = 5.89597 7.04376 6.49527
#
# Compressibility (1/GPa) = 0.01951049
#
# Stress axis : x y z
#
# Youngs Moduli (GPa) = 52.26555 86.48109 57.49034
#
# Poissons Ratio (x) = -0.12784 0.47734
# Poissons Ratio (y) = -0.07726 0.42918
# Poissons Ratio (z) = 0.43396 0.64560
#
# Static dielectric constant tensor:
#      x y z
#    x 2.196020 0.095930 0.063380 
#    y 0.095930 2.044000 -0.030220 
#    z 0.063380 -0.030220 2.089360 
# 
# From -- ./inp_files/105868.got.cif
#   From: 2010.05.17/outbox.cif.g08.bks.cpg/sg2_53_cif.got.tgz:105868.got - 2010.06.03 11:33:40.
