data_PCOD9098371
_publ_section_title
;
Structure prediction by ZEFSAII (Michael W. Deem and Ramdas Pophale) SiO2 
 PCOD9098371
Probable space group: P -1
;
_chemical_formula_sum "Si O2"
_cell_formula_units_Z 16
_cell_length_a 10.430581
_cell_length_b 10.032364
_cell_length_c 15.538492
_cell_angle_alpha 84.766259
_cell_angle_beta 120.614578
_cell_angle_gamma 140.489121
_cell_volume 742.984465
_symmetry_space_group_name_H-M "P -1"
_symmetry_group_IT_number 2
_symmetry_cell_setting 'triclinic'
loop_
_space_group_symop_operation_xyz
x,y,z
-x,-y,-z
loop_
_atom_site_type_symbol
_atom_site_label
_atom_site_fract_x
_atom_site_fract_y
_atom_site_fract_z
Si Si1 0.597348 0.480252 0.954062
Si Si2 0.206210 0.439025 0.367355
Si Si3 0.736210 0.732117 0.464726
Si Si4 0.387410 0.335330 0.224572
Si Si5 0.154680 0.924357 0.879374
Si Si6 0.236855 0.724780 0.467916
Si Si7 0.856414 0.248715 0.941107
Si Si8 0.620142 0.229963 0.291934
O O1 0.554011 0.534254 0.849036
O O2 0.404880 0.203035 0.913046
O O3 0.500000 0.500000 0.000000
O O4 0.910722 0.658091 0.039679
O O5 0.497487 0.659357 0.403825
O O6 0.191303 0.286684 0.420824
O O7 0.223759 0.564914 0.436578
O O8 0.963941 0.260659 0.225439
O O9 0.609129 0.535078 0.363229
O O10 0.000000 0.000000 0.500000
O O11 0.410872 0.196649 0.223847
O O12 0.092213 0.160514 0.171847
O O13 0.208245 0.878667 0.984893
O O14 0.298073 0.767297 0.587604
O O15 0.917403 0.522580 0.346728
O O16 0.500000 0.000000 0.500000
O O17 0.557053 0.018440 0.803707
O O18 0.000000 0.500000 0.000000
#
# Coordination Sequence:
#
# PCOD9098371 Si02
#       8
#     2   2   2   2   2   2   2   2
#     4  11  23  42  70 101 126 176 222 270 335 392
#     4  10  22  40  61  97 128 164 223 266 322 398
#     4  10  20  36  65  92 126 172 208 272 332 380
#     4  10  21  41  64  97 130 168 215 278 330 382
#     4  10  23  42  67  99 134 167 217 277 326 397
#     4  11  27  43  66  95 129 181 218 272 326 390
#     4  11  27  46  68  99 137 179 218 272 335 394
#     4  11  25  46  65  94 136 172 222 274 324 394
#
# _framework density 21.534772
#
# number of rings (size 3 to 8) (size 9 to 14) (size 15 to 20)
#    0.000    1.500    1.250    2.250    5.250    5.500 
#    0.000    0.000    0.000    0.000    0.000    0.000 
#    0.000    0.000    0.000    0.000    0.000    0.000 
#
# Total GULP energy -89306.561656 kJ/mol
# GULP energy per Si atom -5581.660104 kJ/mol
# Density = 2.148576 g / cm^3
# Si number density = 21.534772 Si / 1000 Ang^3
#
#
#
# Elastic Constant Matrix: (Units=GPa)
#
#
# Indices 1 2 3 4 5 6 
#
# 1 63.8993 -1.6582 32.8765 8.8342 -6.1947 3.6214
# 2 -1.6582 85.7018 65.8446 13.1455 14.3858 24.9277
# 3 32.8765 65.8446 135.0227 22.3229 -20.9638 7.0998
# 4 8.8342 13.1455 22.3229 24.7357 1.9996 -0.9357
# 5 -6.1947 14.3858 -20.9638 1.9996 17.1533 -5.6168
# 6 3.6214 24.9277 7.0998 -0.9357 -5.6168 26.8042
#
#
#
# Elastic Compliance Matrix: (Units=1/GPa)
#
#
# Indices 1 2 3 4 5 6 
#
# 1 0.015514 -0.009156 0.004859 -0.006564 0.023181 0.009761
# 2 -0.009156 -0.031152 0.027993 -0.009717 0.070344 0.037195
# 3 0.004859 0.027993 -0.012677 -0.002567 -0.047870 -0.033453
# 4 -0.006564 -0.009717 -0.002567 0.050659 0.000844 0.012549
# 5 0.023181 0.070344 -0.047870 0.000844 -0.074313 -0.071415
# 6 0.009761 0.037195 -0.033453 0.012549 -0.071415 -0.004268
#
#
# Mechanical properties :
#
#
# Convention : Reuss Voigt Hill
#
# Bulk Modulus (GPa) = 52.42112 53.19438 52.80775
# Shear Modulus (GPa) = -51.40259 26.24270 -12.57994
#
# Velocity S-wave (km/s) = -4.89095 3.49466 -2.41958
# Velocity P-wave (km/s) = 2.73858 6.40615 4.09506
#
# Compressibility (1/GPa) = 0.01907628
#
# Stress axis : x y z
#
# Youngs Moduli (GPa) = 64.45901 -32.10024 -78.88294
#
# Poissons Ratio (x) = -0.29392 0.38329
# Poissons Ratio (y) = 0.59021 2.20820
# Poissons Ratio (z) = -0.31320 0.89860
#
# Static dielectric constant tensor:
#      x y z
#    x 1.788560 -0.041000 0.035290 
#    y -0.041000 1.681460 0.041450 
#    z 0.035290 0.041450 1.790800 
# 
# From -- ./inp_files/519687.got.cif
#   From: 2010.05.17/outbox.cif.g08.bks.cpg/sg2_260_cif.got.tgz:519687.got - 2010.06.03 11:33:40.
