data_PCOD9098071
_publ_section_title
;
Structure prediction by ZEFSAII (Michael W. Deem and Ramdas Pophale) SiO2 
 PCOD9098071
Probable space group: P -1
;
_chemical_formula_sum "Si O2"
_cell_formula_units_Z 16
_cell_length_a 30.835457
_cell_length_b 9.417711
_cell_length_c 16.927493
_cell_angle_alpha 135.315941
_cell_angle_beta 17.710142
_cell_angle_gamma 144.568098
_cell_volume 805.509385
_symmetry_space_group_name_H-M "P -1"
_symmetry_group_IT_number 2
_symmetry_cell_setting 'triclinic'
loop_
_space_group_symop_operation_xyz
x,y,z
-x,-y,-z
loop_
_atom_site_type_symbol
_atom_site_label
_atom_site_fract_x
_atom_site_fract_y
_atom_site_fract_z
Si Si1 0.146985 0.665185 0.242457
Si Si2 0.469601 0.175353 0.571079
Si Si3 0.546625 0.740025 0.064591
Si Si4 0.837196 0.419826 0.361156
Si Si5 0.883138 0.107069 0.041084
Si Si6 0.297379 0.243653 0.035852
Si Si7 0.947170 0.630818 0.426151
Si Si8 0.687117 0.541503 0.203639
O O1 0.000000 0.500000 0.500000
O O2 0.036493 0.573514 0.315235
O O3 0.260869 0.975150 0.179150
O O4 0.287932 0.608425 0.964293
O O5 0.650944 0.401276 0.295193
O O6 0.500000 0.000000 0.500000
O O7 0.299752 0.993704 0.732076
O O8 0.404883 0.296504 0.789505
O O9 0.572671 0.706900 0.097758
O O10 0.500000 0.500000 0.000000
O O11 0.379323 0.741875 0.342502
O O12 0.902892 0.277177 0.147375
O O13 0.878539 0.464616 0.399781
O O14 0.946327 0.701117 0.238492
O O15 0.850340 0.852221 0.029463
O O16 0.216431 0.388633 0.255875
O O17 0.113720 0.934410 0.231851
O O18 0.500000 0.500000 0.500000
#
# Coordination Sequence:
#
# PCOD9098071 Si02
#       8
#     2   2   2   2   2   2   2   2
#     4  11  26  43  68  93 134 177 224 272 340 401
#     4  11  20  37  66  95 127 166 230 272 326 393
#     4  11  22  39  64  98 127 168 217 277 328 395
#     4  11  21  41  65  94 134 166 224 274 341 390
#     4  10  23  38  66  92 127 178 213 277 338 396
#     4  10  20  36  63  92 123 168 220 268 323 391
#     4  10  21  38  63  93 126 170 221 272 319 407
#     4  10  23  41  63  95 129 171 223 270 331 398
#
# _framework density 19.863209000000001
#
# number of rings (size 3 to 8) (size 9 to 14) (size 15 to 20)
#    0.000    1.500    2.500    3.750    5.250    0.000 
#    0.000    2.500    0.000    0.000    0.000    0.000 
#    0.000    0.000    0.000    0.000    0.000    0.000 
#
# Total GULP energy -89335.690999 kJ/mol
# GULP energy per Si atom -5583.480687 kJ/mol
# Density = 1.981800 g / cm^3
# Si number density = 19.863209 Si / 1000 Ang^3
#
#
#
# Elastic Constant Matrix: (Units=GPa)
#
#
# Indices 1 2 3 4 5 6 
#
# 1 93.5002 43.0346 45.5863 -1.4237 8.4083 12.8105
# 2 43.0346 82.8047 19.9342 -0.7170 19.5667 2.4733
# 3 45.5863 19.9342 78.4305 3.0488 22.8028 6.0113
# 4 -1.4237 -0.7170 3.0488 32.2332 1.7748 8.6687
# 5 8.4083 19.5667 22.8028 1.7748 41.6285 -2.0467
# 6 12.8105 2.4733 6.0113 8.6687 -2.0467 38.6965
#
#
#
# Elastic Compliance Matrix: (Units=1/GPa)
#
#
# Indices 1 2 3 4 5 6 
#
# 1 0.020463 -0.009208 -0.010999 0.002699 0.005870 -0.004771
# 2 -0.009208 0.018038 0.003097 -0.000113 -0.008261 0.001003
# 3 -0.010999 0.003097 0.021636 -0.001833 -0.011012 -0.000089
# 4 0.002699 -0.000113 -0.001833 0.033591 -0.001323 -0.008197
# 5 0.005870 -0.008261 -0.011012 -0.001323 0.032922 0.002333
# 6 -0.004771 0.001003 -0.000089 -0.008197 0.002333 0.029331
#
#
# Mechanical properties :
#
#
# Convention : Reuss Voigt Hill
#
# Bulk Modulus (GPa) = 38.58765 52.42729 45.50747
# Shear Modulus (GPa) = 25.14578 32.25699 28.70138
#
# Velocity S-wave (km/s) = 3.56188 4.03421 3.80538
# Velocity P-wave (km/s) = 6.03198 6.93911 6.50139
#
# Compressibility (1/GPa) = 0.02591503
#
# Stress axis : x y z
#
# Youngs Moduli (GPa) = 48.86874 55.43933 46.21969
#
# Poissons Ratio (x) = 0.51049 0.50838
# Poissons Ratio (y) = 0.44999 -0.14313
# Poissons Ratio (z) = 0.53752 -0.17168
#
# Static dielectric constant tensor:
#      x y z
#    x 1.715750 -0.025370 0.015690 
#    y -0.025370 1.728940 0.007470 
#    z 0.015690 0.007470 1.748720 
# 
# From -- ./inp_files/543860.got.cif
#   From: 2010.05.17/outbox.cif.g08.bks.cpg/sg2_272_cif.got.tgz:543860.got - 2010.06.03 11:33:40.
