data_PCOD9098810
_publ_section_title
;
Structure prediction by ZEFSAII (Michael W. Deem and Ramdas Pophale) SiO2 
 PCOD9098810
Probable space group: P -1
;
_chemical_formula_sum "Si O2"
_cell_formula_units_Z 14
_cell_length_a 9.343863
_cell_length_b 13.124989
_cell_length_c 11.861370
_cell_angle_alpha 61.929015
_cell_angle_beta 121.042260
_cell_angle_gamma 68.658996
_cell_volume 656.374704
_symmetry_space_group_name_H-M "P -1"
_symmetry_group_IT_number 2
_symmetry_cell_setting 'triclinic'
loop_
_space_group_symop_operation_xyz
x,y,z
-x,-y,-z
loop_
_atom_site_type_symbol
_atom_site_label
_atom_site_fract_x
_atom_site_fract_y
_atom_site_fract_z
Si Si1 0.778319 0.945285 0.759396
Si Si2 0.131361 0.304876 0.628135
Si Si3 0.283839 0.088417 0.999574
Si Si4 0.423572 0.839240 0.832571
Si Si5 0.315214 0.661230 0.983029
Si Si6 0.123242 0.722699 0.625038
Si Si7 0.308846 0.273034 0.235363
O O1 0.798513 0.930749 0.910147
O O2 0.736339 0.836369 0.757653
O O3 0.074180 0.816072 0.893632
O O4 0.512865 0.160813 0.486083
O O5 0.000000 0.500000 0.500000
O O6 0.028328 0.306593 0.468997
O O7 0.466839 0.121619 0.847852
O O8 0.070058 0.245239 0.733437
O O9 0.407512 0.144517 0.060374
O O10 0.456528 0.703840 0.984087
O O11 0.522031 0.769566 0.780290
O O12 0.097251 0.053082 0.597040
O O13 0.178959 0.686855 0.799776
O O14 0.579424 0.433626 0.235824
O O15 0.000000 0.500000 0.000000
#
# Coordination Sequence:
#
# PCOD9098810 Si02
#       7
#     2   2   2   2   2   2   2
#     4  10  22  38  53  89 126 149 190 252 295 353
#     4  10  20  39  64  84 109 159 210 246 281 345
#     4   9  21  39  62  86 117 152 199 251 294 337
#     4  10  20  37  57  87 118 153 194 236 292 361
#     4  11  22  35  61  89 124 155 189 236 308 358
#     4  10  22  35  58  87 119 153 200 241 284 359
#     4  10  22  33  55  83 121 157 191 234 297 348
#
# _framework density 21.329281000000002
#
# number of rings (size 3 to 8) (size 9 to 14) (size 15 to 20)
#    0.000    2.000    1.429    1.286    6.000    2.286 
#    0.000    0.714    0.000   12.000    0.000    0.000 
#    0.000    0.000    0.000    0.000    0.000    0.000 
#
# Total GULP energy -78149.661288 kJ/mol
# GULP energy per Si atom -5582.118663 kJ/mol
# Density = 2.128073 g / cm^3
# Si number density = 21.329281 Si / 1000 Ang^3
#
#
#
# Elastic Constant Matrix: (Units=GPa)
#
#
# Indices 1 2 3 4 5 6 
#
# 1 80.1169 17.3472 28.6528 -7.8362 -14.5962 -25.8271
# 2 17.3472 84.5526 32.5049 -20.0308 -8.8746 -13.2700
# 3 28.6528 32.5049 102.7446 -32.2366 4.2972 -26.8417
# 4 -7.8362 -20.0308 -32.2366 36.9569 -3.4696 -0.7132
# 5 -14.5962 -8.8746 4.2972 -3.4696 20.0071 4.4116
# 6 -25.8271 -13.2700 -26.8417 -0.7132 4.4116 38.4847
#
#
#
# Elastic Compliance Matrix: (Units=1/GPa)
#
#
# Indices 1 2 3 4 5 6 
#
# 1 0.019201 0.000880 -0.002287 0.004002 0.013348 0.010138
# 2 0.000880 0.015809 -0.002260 0.007668 0.008673 0.003614
# 3 -0.002287 -0.002260 0.019077 0.014515 -0.006909 0.012053
# 4 0.004002 0.007668 0.014515 0.045748 0.007738 0.015414
# 5 0.013348 0.008673 -0.006909 0.007738 0.066470 -0.000347
# 6 0.010138 0.003614 0.012053 0.015414 -0.000347 0.042766
#
#
# Mechanical properties :
#
#
# Convention : Reuss Voigt Hill
#
# Bulk Modulus (GPa) = 21.38869 47.15821 34.27345
# Shear Modulus (GPa) = 21.55278 31.68368 26.61823
#
# Velocity S-wave (km/s) = 3.18225 3.85834 3.53649
# Velocity P-wave (km/s) = 4.85303 6.48126 5.72532
#
# Compressibility (1/GPa) = 0.04675368
#
# Stress axis : x y z
#
# Youngs Moduli (GPa) = 52.08196 63.25454 52.41796
#
# Poissons Ratio (x) = -0.05567 0.11989
# Poissons Ratio (y) = -0.04584 0.11845
# Poissons Ratio (z) = 0.11912 0.14293
#
# Static dielectric constant tensor:
#      x y z
#    x 1.795230 0.005470 0.011130 
#    y 0.005470 1.769790 0.016600 
#    z 0.011130 0.016600 1.830090 
# 
# From -- ./inp_files/398608.got.cif
#   From: 2010.05.17/outbox.cif.g08.bks.cpg/sg2_200_cif.got.tgz:398608.got - 2010.06.03 11:33:40.
