data_PCOD9098376
_publ_section_title
;
Structure prediction by ZEFSAII (Michael W. Deem and Ramdas Pophale) SiO2 
 PCOD9098376
Probable space group: P -1
;
_chemical_formula_sum "Si O2"
_cell_formula_units_Z 16
_cell_length_a 15.880054
_cell_length_b 7.670890
_cell_length_c 9.754163
_cell_angle_alpha 107.345809
_cell_angle_beta 139.900950
_cell_angle_gamma 89.811198
_cell_volume 679.959805
_symmetry_space_group_name_H-M "P -1"
_symmetry_group_IT_number 2
_symmetry_cell_setting 'triclinic'
loop_
_space_group_symop_operation_xyz
x,y,z
-x,-y,-z
loop_
_atom_site_type_symbol
_atom_site_label
_atom_site_fract_x
_atom_site_fract_y
_atom_site_fract_z
Si Si1 0.281266 0.048346 0.003101
Si Si2 0.774791 0.031417 0.770008
Si Si3 0.596932 0.604490 0.430655
Si Si4 0.871103 0.364439 0.399239
Si Si5 0.314912 0.493068 0.191845
Si Si6 0.415302 0.942118 0.700577
Si Si7 0.406691 0.677944 0.873862
Si Si8 0.035875 0.573391 0.908373
O O1 0.272221 0.263948 0.039408
O O2 0.436263 0.075192 0.152904
O O3 0.271495 0.980454 0.132728
O O4 0.168409 0.866511 0.738211
O O5 0.685959 0.101456 0.564857
O O6 0.930401 0.193346 0.997417
O O7 0.730407 0.803432 0.625018
O O8 0.452419 0.624365 0.308162
O O9 0.637079 0.499119 0.587026
O O10 0.567635 0.479807 0.227295
O O11 0.724335 0.398697 0.204351
O O12 0.000000 0.500000 0.500000
O O13 0.919159 0.442390 0.629631
O O14 0.179346 0.549963 0.029683
O O15 0.362470 0.812132 0.738809
O O16 0.457422 0.169039 0.849207
O O17 0.000000 0.500000 0.000000
#
# Coordination Sequence:
#
# PCOD9098376 Si02
#       8
#     2   2   2   2   2   2   2   2
#     4  10  21  40  64  94 122 163 209 258 320 368
#     4  11  23  36  64  93 125 160 211 261 309 378
#     4  10  21  39  61  99 126 156 201 269 329 359
#     4  11  23  43  65  89 129 174 210 254 303 372
#     4  10  22  38  65  91 128 159 204 266 315 373
#     4  10  20  36  65  93 122 162 204 262 321 371
#     4  10  21  40  64  89 129 163 205 259 318 371
#     4  12  26  44  64  91 124 175 219 247 302 382
#
# _framework density 23.530801
#
# number of rings (size 3 to 8) (size 9 to 14) (size 15 to 20)
#    0.000    1.500    2.500    2.625    5.250    1.000 
#    2.250    1.875    0.000    0.000    0.000    0.000 
#    0.000    0.000    0.000    0.000    0.000    0.000 
#
# Total GULP energy -89458.295734 kJ/mol
# GULP energy per Si atom -5591.143483 kJ/mol
# Density = 2.347724 g / cm^3
# Si number density = 23.530801 Si / 1000 Ang^3
#
#
#
# Elastic Constant Matrix: (Units=GPa)
#
#
# Indices 1 2 3 4 5 6 
#
# 1 67.0831 9.8529 15.9748 19.0323 -3.9154 13.6326
# 2 9.8529 65.0236 29.7833 26.9700 -9.4837 3.7594
# 3 15.9748 29.7833 156.8945 36.5019 -20.5164 5.9833
# 4 19.0323 26.9700 36.5019 47.1826 -4.3645 -3.1979
# 5 -3.9154 -9.4837 -20.5164 -4.3645 43.2035 4.3374
# 6 13.6326 3.7594 5.9833 -3.1979 4.3374 32.9414
#
#
#
# Elastic Compliance Matrix: (Units=1/GPa)
#
#
# Indices 1 2 3 4 5 6 
#
# 1 0.019342 0.001703 0.000645 -0.009700 0.002414 -0.009576
# 2 0.001703 0.021376 -0.000690 -0.012345 0.003745 -0.004710
# 3 0.000645 -0.000690 0.008476 -0.006282 0.003579 -0.002809
# 4 -0.009700 -0.012345 -0.006282 0.037391 -0.003869 0.010704
# 5 0.002414 0.003745 0.003579 -0.003869 0.026087 -0.005887
# 6 -0.009576 -0.004710 -0.002809 0.010704 -0.005887 0.037182
#
#
# Mechanical properties :
#
#
# Convention : Reuss Voigt Hill
#
# Bulk Modulus (GPa) = 19.04414 44.46924 31.75669
# Shear Modulus (GPa) = 30.48028 40.22484 35.35256
#
# Velocity S-wave (km/s) = 3.60298 4.13904 3.88028
# Velocity P-wave (km/s) = 5.04177 6.46387 5.79660
#
# Compressibility (1/GPa) = 0.05250958
#
# Stress axis : x y z
#
# Youngs Moduli (GPa) = 51.70065 46.78213 117.98393
#
# Poissons Ratio (x) = -0.07966 -0.07610
# Poissons Ratio (y) = -0.08804 0.08139
# Poissons Ratio (z) = -0.03335 0.03227
#
# Static dielectric constant tensor:
#      x y z
#    x 1.880270 -0.024360 -0.011580 
#    y -0.024360 1.970530 0.036200 
#    z -0.011580 0.036200 1.886580 
# 
# From -- ./inp_files/299364.got.cif
#   From: 2010.05.17/outbox.cif.g08.bks.cpg/sg2_150_cif.got.tgz:299364.got - 2010.06.03 11:33:40.
