data_PCOD9098040
_publ_section_title
;
Structure prediction by ZEFSAII (Michael W. Deem and Ramdas Pophale) SiO2 
 PCOD9098040
Probable space group: P -1
;
_chemical_formula_sum "Si O2"
_cell_formula_units_Z 14
_cell_length_a 11.959216
_cell_length_b 9.569793
_cell_length_c 8.666100
_cell_angle_alpha 70.744811
_cell_angle_beta 137.430351
_cell_angle_gamma 83.997556
_cell_volume 531.477990
_symmetry_space_group_name_H-M "P -1"
_symmetry_group_IT_number 2
_symmetry_cell_setting 'triclinic'
loop_
_space_group_symop_operation_xyz
x,y,z
-x,-y,-z
loop_
_atom_site_type_symbol
_atom_site_label
_atom_site_fract_x
_atom_site_fract_y
_atom_site_fract_z
Si Si1 0.138226 0.069242 0.442546
Si Si2 0.259565 0.790662 0.171711
Si Si3 0.207707 0.318101 0.252219
Si Si4 0.238918 0.405426 0.755680
Si Si5 0.417782 0.438135 0.614068
Si Si6 0.791965 0.849592 0.007300
Si Si7 0.854254 0.253341 0.377648
O O1 0.019467 0.160212 0.446402
O O2 0.245551 0.164823 0.464491
O O3 0.972964 0.123507 0.121919
O O4 0.241452 0.860567 0.648817
O O5 0.337490 0.641555 0.435033
O O6 0.350916 0.695769 0.132031
O O7 0.297445 0.944980 0.182400
O O8 0.351615 0.381291 0.413628
O O9 0.207794 0.246572 0.111321
O O10 0.000000 0.500000 0.000000
O O11 0.318708 0.406373 0.668309
O O12 0.315217 0.209539 0.961178
O O13 0.280383 0.535074 0.848816
O O14 0.000000 0.500000 0.500000
O O15 0.008960 0.780034 0.320131
#
# Coordination Sequence:
#
# PCOD9098040 Si02
#       7
#     2   2   2   2   2   2   2
#     4  10  20  36  63  89 123 156 206 249 304 362
#     4  10  24  42  62  89 124 170 202 245 307 374
#     4  12  21  35  65  94 117 161 205 257 296 359
#     4  10  20  37  61  90 119 156 198 259 299 354
#     4  11  24  42  64  85 130 164 204 248 309 363
#     4  10  22  37  63  92 126 154 209 252 307 358
#     4   9  19  35  58  91 123 151 197 262 301 356
#
# _framework density 26.341633000000002
#
# number of rings (size 3 to 8) (size 9 to 14) (size 15 to 20)
#    0.000    1.714    1.429    4.286    2.000    2.286 
#    0.000    0.714    0.000    0.000    0.000    0.000 
#    0.000    0.000    0.000    0.000    0.000    0.000 
#
# Total GULP energy -78312.124274 kJ/mol
# GULP energy per Si atom -5593.723162 kJ/mol
# Density = 2.628168 g / cm^3
# Si number density = 26.341633 Si / 1000 Ang^3
#
#
#
# Elastic Constant Matrix: (Units=GPa)
#
#
# Indices 1 2 3 4 5 6 
#
# 1 134.7478 38.5087 28.9775 -14.7028 -40.4662 17.3036
# 2 38.5087 173.5725 40.8433 -31.1057 -33.1470 20.3160
# 3 28.9775 40.8433 68.8512 -22.6491 -13.8998 8.3252
# 4 -14.7028 -31.1057 -22.6491 45.4868 5.6222 -21.8540
# 5 -40.4662 -33.1470 -13.8998 5.6222 40.2469 -10.6290
# 6 17.3036 20.3160 8.3252 -21.8540 -10.6290 45.6478
#
#
#
# Elastic Compliance Matrix: (Units=1/GPa)
#
#
# Indices 1 2 3 4 5 6 
#
# 1 0.011159 0.000328 -0.002421 0.000800 0.010233 -0.001169
# 2 0.000328 0.007999 -0.002606 0.003471 0.005460 -0.000276
# 3 -0.002421 -0.002606 0.019924 0.008554 0.001893 0.002980
# 4 0.000800 0.003471 0.008554 0.035290 0.005593 0.014790
# 5 0.010233 0.005460 0.001893 0.005593 0.040975 0.005564
# 6 -0.001169 -0.000276 0.002980 0.014790 0.005564 0.030306
#
#
# Mechanical properties :
#
#
# Convention : Reuss Voigt Hill
#
# Bulk Modulus (GPa) = 33.68640 65.98116 49.83378
# Shear Modulus (GPa) = 30.31346 44.19908 37.25627
#
# Velocity S-wave (km/s) = 3.39600 4.10068 3.76486
# Velocity P-wave (km/s) = 5.30972 6.89372 6.15291
#
# Compressibility (1/GPa) = 0.02968557
#
# Stress axis : x y z
#
# Youngs Moduli (GPa) = 89.61732 125.02179 50.18952
#
# Poissons Ratio (x) = -0.04105 0.12150
# Poissons Ratio (y) = -0.02943 0.13077
# Poissons Ratio (z) = 0.21695 0.32575
#
# Static dielectric constant tensor:
#      x y z
#    x 2.136450 -0.017850 0.090500 
#    y -0.017850 2.062500 -0.016420 
#    z 0.090500 -0.016420 2.259230 
# 
# From -- ./inp_files/237963.got.cif
#   From: 2010.05.17/outbox.cif.g08.bks.cpg/sg2_119_cif.got.tgz:237963.got - 2010.06.03 11:33:40.
