data_PCOD9098613
_publ_section_title
;
Structure prediction by ZEFSAII (Michael W. Deem and Ramdas Pophale) SiO2 
 PCOD9098613
Probable space group: P -1
;
_chemical_formula_sum "Si O2"
_cell_formula_units_Z 16
_cell_length_a 19.927348
_cell_length_b 12.871829
_cell_length_c 11.527527
_cell_angle_alpha 144.470385
_cell_angle_beta 29.985380
_cell_angle_gamma 135.322832
_cell_volume 858.566211
_symmetry_space_group_name_H-M "P -1"
_symmetry_group_IT_number 2
_symmetry_cell_setting 'triclinic'
loop_
_space_group_symop_operation_xyz
x,y,z
-x,-y,-z
loop_
_atom_site_type_symbol
_atom_site_label
_atom_site_fract_x
_atom_site_fract_y
_atom_site_fract_z
Si Si1 0.571828 0.001000 0.189502
Si Si2 0.564823 0.370984 0.881616
Si Si3 0.861787 0.945749 0.720026
Si Si4 0.384572 0.607972 0.920530
Si Si5 0.148721 0.444661 0.694687
Si Si6 0.732588 0.214445 0.306074
Si Si7 0.380332 0.008926 0.280346
Si Si8 0.310333 0.356008 0.601752
O O1 0.535028 0.796550 0.090787
O O2 0.458312 0.066904 0.333505
O O3 0.594993 0.127439 0.380012
O O4 0.723829 0.000858 0.908969
O O5 0.696043 0.280022 0.547300
O O6 0.500000 0.500000 0.000000
O O7 0.600918 0.461218 0.032565
O O8 0.855006 0.731771 0.540477
O O9 0.000000 0.000000 0.500000
O O10 0.838589 0.059396 0.976200
O O11 0.304065 0.490076 0.841269
O O12 0.536748 0.628282 0.661547
O O13 0.327233 0.807875 0.193786
O O14 0.223810 0.611292 0.673479
O O15 0.219213 0.398129 0.667705
O O16 0.000000 0.500000 0.000000
O O17 0.284589 0.158577 0.512049
O O18 0.500000 0.000000 0.000000
#
# Coordination Sequence:
#
# PCOD9098613 Si02
#       8
#     2   2   2   2   2   2   2   2
#     4   9  20  34  53  81 120 149 190 232 297 337
#     4  11  20  35  56  87 122 157 190 237 292 359
#     4  10  20  37  54  81 113 152 192 237 287 334
#     4   9  20  34  52  83 115 148 183 227 300 338
#     4  12  22  38  58  87 114 151 197 241 289 344
#     4  10  23  35  57  81 120 153 192 240 287 345
#     4   9  17  31  49  77 113 147 179 230 285 350
#     4  10  21  33  55  82 116 146 185 239 291 344
#
# _framework density 18.635721
#
# number of rings (size 3 to 8) (size 9 to 14) (size 15 to 20)
#    0.750    1.250    1.250    4.125    7.000    0.000 
#    0.000    0.000    0.000    0.750    0.000    4.375 
#    0.000    0.000    0.000    0.000    0.000    0.000 
#
# Total GULP energy -89098.520786 kJ/mol
# GULP energy per Si atom -5568.657549 kJ/mol
# Density = 1.859331 g / cm^3
# Si number density = 18.635721 Si / 1000 Ang^3
#
#
#
# Elastic Constant Matrix: (Units=GPa)
#
#
# Indices 1 2 3 4 5 6 
#
# 1 55.5676 34.9607 24.2289 4.4605 12.0632 -8.3911
# 2 34.9607 68.1232 18.8836 8.9029 -1.7169 -0.6589
# 3 24.2289 18.8836 84.0807 4.7444 11.5205 2.6980
# 4 4.4605 8.9029 4.7444 26.2897 1.6402 3.9382
# 5 12.0632 -1.7169 11.5205 1.6402 30.5074 -0.0702
# 6 -8.3911 -0.6589 2.6980 3.9382 -0.0702 18.5619
#
#
#
# Elastic Compliance Matrix: (Units=1/GPa)
#
#
# Indices 1 2 3 4 5 6 
#
# 1 0.036917 -0.017496 -0.005349 -0.001083 -0.013465 0.017024
# 2 -0.017496 0.024837 -0.001317 -0.004907 0.009064 -0.005761
# 3 -0.005349 -0.001317 0.014356 -0.000355 -0.003372 -0.004489
# 4 -0.001083 -0.004907 -0.000355 0.041481 -0.001966 -0.009421
# 5 -0.013465 0.009064 -0.003372 -0.001966 0.039981 -0.004707
# 6 0.017024 -0.005761 -0.004489 -0.009421 -0.004707 0.063999
#
#
# Mechanical properties :
#
#
# Convention : Reuss Voigt Hill
#
# Bulk Modulus (GPa) = 35.98736 40.43532 38.21134
# Shear Modulus (GPa) = 17.91102 23.71835 20.81468
#
# Velocity S-wave (km/s) = 3.10354 3.57141 3.34567
# Velocity P-wave (km/s) = 5.67411 6.22507 5.95596
#
# Compressibility (1/GPa) = 0.02778753
#
# Stress axis : x y z
#
# Youngs Moduli (GPa) = 27.08777 40.26205 69.65525
#
# Poissons Ratio (x) = 0.70443 0.37258
# Poissons Ratio (y) = 0.47393 0.09171
# Poissons Ratio (z) = 0.14489 0.05301
#
# Static dielectric constant tensor:
#      x y z
#    x 1.702470 0.011090 0.025330 
#    y 0.011090 1.664420 0.028950 
#    z 0.025330 0.028950 1.706720 
# 
# From -- ./inp_files/471084.got.cif
#   From: 2010.05.17/outbox.cif.g08.bks.cpg/sg2_236_cif.got.tgz:471084.got - 2010.06.03 11:33:40.
