data_PCOD9098052
_publ_section_title
;
Structure prediction by ZEFSAII (Michael W. Deem and Ramdas Pophale) SiO2 
 PCOD9098052
Probable space group: P -1
;
_chemical_formula_sum "Si O2"
_cell_formula_units_Z 16
_cell_length_a 9.614123
_cell_length_b 8.676137
_cell_length_c 21.343460
_cell_angle_alpha 97.556475
_cell_angle_beta 62.112941
_cell_angle_gamma 144.775510
_cell_volume 790.403087
_symmetry_space_group_name_H-M "P -1"
_symmetry_group_IT_number 2
_symmetry_cell_setting 'triclinic'
loop_
_space_group_symop_operation_xyz
x,y,z
-x,-y,-z
loop_
_atom_site_type_symbol
_atom_site_label
_atom_site_fract_x
_atom_site_fract_y
_atom_site_fract_z
Si Si1 0.628081 0.937572 0.802187
Si Si2 0.620313 0.394327 0.630307
Si Si3 0.263876 0.915062 0.578523
Si Si4 0.448822 0.041048 0.947255
Si Si5 0.388013 0.564688 0.147525
Si Si6 0.134036 0.271549 0.909543
Si Si7 0.703655 0.275302 0.718258
Si Si8 0.924416 0.903296 0.217742
O O1 0.371736 0.585549 0.838888
O O2 0.936871 0.116889 0.771274
O O3 0.512530 0.963478 0.879091
O O4 0.671423 0.073534 0.737894
O O5 0.571992 0.199917 0.673698
O O6 0.990371 0.738120 0.578492
O O7 0.460611 0.216099 0.588670
O O8 0.431087 0.367874 0.704634
O O9 0.056559 0.637236 0.656280
O O10 0.500000 0.000000 0.500000
O O11 0.659584 0.368741 0.900045
O O12 0.500000 0.000000 0.000000
O O13 0.107277 0.826439 0.008571
O O14 0.669488 0.681788 0.088172
O O15 0.454904 0.743458 0.199005
O O16 0.102376 0.215911 0.210626
O O17 0.986156 0.053217 0.870989
#
# Coordination Sequence:
#
# PCOD9098052 Si02
#       8
#     2   2   2   2   2   2   2   2
#     4  10  23  38  56  81 119 155 202 254 301 358
#     4  10  20  36  63  91 122 156 199 240 295 361
#     4  10  20  37  66  98 124 151 195 247 299 356
#     4  11  22  39  52  80 112 157 198 261 311 349
#     4  10  21  38  56  78 114 153 208 248 301 362
#     4  11  21  37  54  79 109 158 200 250 311 353
#     4   9  20  36  60  89 114 159 199 246 297 355
#     4  11  20  37  59  84 113 156 202 246 300 357
#
# _framework density 20.242833999999998
#
# number of rings (size 3 to 8) (size 9 to 14) (size 15 to 20)
#    0.750    1.000    3.750    1.125    1.750    2.500 
#    2.250    0.000    0.000    1.500    0.000    0.000 
#    0.000    0.000    0.000    0.000    0.000    0.000 
#
# Total GULP energy -89111.033599 kJ/mol
# GULP energy per Si atom -5569.439600 kJ/mol
# Density = 2.019676 g / cm^3
# Si number density = 20.242834 Si / 1000 Ang^3
#
#
#
# Elastic Constant Matrix: (Units=GPa)
#
#
# Indices 1 2 3 4 5 6 
#
# 1 89.7458 24.4920 27.2745 -2.6886 -16.4319 -5.0852
# 2 24.4920 55.6342 5.6160 2.7030 -7.9930 6.4594
# 3 27.2745 5.6160 57.6526 -6.6635 -28.3023 7.7890
# 4 -2.6886 2.7030 -6.6635 18.1489 8.7422 -4.3675
# 5 -16.4319 -7.9930 -28.3023 8.7422 29.8955 -8.8846
# 6 -5.0852 6.4594 7.7890 -4.3675 -8.8846 27.8952
#
#
#
# Elastic Compliance Matrix: (Units=1/GPa)
#
#
# Indices 1 2 3 4 5 6 
#
# 1 0.015911 -0.006921 -0.006414 0.001575 0.002547 0.007352
# 2 -0.006921 0.022689 0.004323 -0.007617 0.006553 -0.006828
# 3 -0.006414 0.004323 0.035295 -0.004481 0.031560 -0.002675
# 4 0.001575 -0.007617 -0.004481 0.067580 -0.023250 0.006478
# 5 0.002547 0.006553 0.031560 -0.023250 0.076507 0.010862
# 6 0.007352 -0.006828 -0.002675 0.006478 0.010862 0.043991
#
#
# Mechanical properties :
#
#
# Convention : Reuss Voigt Hill
#
# Bulk Modulus (GPa) = 17.89811 35.31084 26.60448
# Shear Modulus (GPa) = 16.74369 24.89793 20.82081
#
# Velocity S-wave (km/s) = 2.87913 3.51089 3.21058
# Velocity P-wave (km/s) = 4.46244 5.82380 5.18797
#
# Compressibility (1/GPa) = 0.05587183
#
# Stress axis : x y z
#
# Youngs Moduli (GPa) = 62.85087 44.07340 28.33261
#
# Poissons Ratio (x) = 0.30504 0.18172
# Poissons Ratio (y) = 0.43500 -0.12249
# Poissons Ratio (z) = 0.40311 -0.19054
#
# Static dielectric constant tensor:
#      x y z
#    x 1.721870 0.038700 0.006950 
#    y 0.038700 1.777400 -0.003190 
#    z 0.006950 -0.003190 1.734300 
# 
# From -- ./inp_files/42430.got.cif
#   From: 2010.05.17/outbox.cif.g08.bks.cpg/sg2_22_cif.got.tgz:42430.got - 2010.06.03 11:33:40.
