data_PCOD9098771
_publ_section_title
;
Structure prediction by ZEFSAII (Michael W. Deem and Ramdas Pophale) SiO2 
 PCOD9098771
Probable space group: P -1
;
_chemical_formula_sum "Si O2"
_cell_formula_units_Z 16
_cell_length_a 11.677942
_cell_length_b 14.765141
_cell_length_c 9.284663
_cell_angle_alpha 111.703954
_cell_angle_beta 102.938050
_cell_angle_gamma 29.546594
_cell_volume 716.584097
_symmetry_space_group_name_H-M "P -1"
_symmetry_group_IT_number 2
_symmetry_cell_setting 'triclinic'
loop_
_space_group_symop_operation_xyz
x,y,z
-x,-y,-z
loop_
_atom_site_type_symbol
_atom_site_label
_atom_site_fract_x
_atom_site_fract_y
_atom_site_fract_z
Si Si1 0.522105 0.189004 0.750736
Si Si2 0.989708 0.098662 0.160394
Si Si3 0.776845 0.780393 0.970385
Si Si4 0.176708 0.590194 0.796431
Si Si5 0.737007 0.511468 0.571926
Si Si6 0.809544 0.246207 0.524176
Si Si7 0.919090 0.633188 0.216221
Si Si8 0.311567 0.880191 0.549591
O O1 0.375459 0.395838 0.834785
O O2 0.328546 0.245354 0.758938
O O3 0.607446 0.119616 0.568349
O O4 0.752719 0.035434 0.823736
O O5 0.819079 0.297954 0.149935
O O6 0.901826 0.148675 0.331256
O O7 0.000000 0.000000 0.000000
O O8 0.928209 0.730342 0.868612
O O9 0.874548 0.597848 0.885197
O O10 0.867648 0.741486 0.132505
O O11 0.500000 0.000000 0.000000
O O12 0.204099 0.534623 0.607545
O O13 0.689243 0.437894 0.579464
O O14 0.503164 0.749287 0.654163
O O15 0.972387 0.383395 0.634799
O O16 0.678614 0.245435 0.547555
O O17 0.032970 0.100553 0.608323
#
# Coordination Sequence:
#
# PCOD9098771 Si02
#       8
#     2   2   2   2   2   2   2   2
#     4   9  19  37  59  79 117 148 187 244 283 342
#     4  10  20  37  57  83 114 155 195 234 287 347
#     4  10  21  40  58  80 123 158 188 236 289 343
#     4   9  20  38  59  83 115 154 192 237 289 345
#     4  10  20  37  62  87 115 151 196 239 291 344
#     4   9  19  37  55  85 119 145 192 245 289 335
#     4  10  22  39  60  90 117 153 196 239 292 349
#     4   9  18  35  57  81 116 150 184 241 291 331
#
# _framework density 22.328154999999999
#
# number of rings (size 3 to 8) (size 9 to 14) (size 15 to 20)
#    0.000    2.500    0.000    1.125    0.000    6.000 
#   15.750    8.750    0.000    0.000    0.000    0.000 
#    0.000    0.000    0.000    0.000    0.000    0.000 
#
# Total GULP energy -89199.711940 kJ/mol
# GULP energy per Si atom -5574.981996 kJ/mol
# Density = 2.227734 g / cm^3
# Si number density = 22.328155 Si / 1000 Ang^3
#
#
#
# Elastic Constant Matrix: (Units=GPa)
#
#
# Indices 1 2 3 4 5 6 
#
# 1 63.1172 20.1404 24.3979 -12.5557 -13.6651 -12.2236
# 2 20.1404 99.8768 20.4466 -18.6801 -10.4843 -3.9360
# 3 24.3979 20.4466 36.7435 -8.3717 0.3372 -7.5887
# 4 -12.5557 -18.6801 -8.3717 20.1445 -6.5999 -3.5411
# 5 -13.6651 -10.4843 0.3372 -6.5999 30.4924 1.3657
# 6 -12.2236 -3.9360 -7.5887 -3.5411 1.3657 41.8306
#
#
#
# Elastic Compliance Matrix: (Units=1/GPa)
#
#
# Indices 1 2 3 4 5 6 
#
# 1 0.032039 0.004173 -0.016287 0.025439 0.021109 0.008265
# 2 0.004173 0.015129 -0.006681 0.017879 0.010900 0.002589
# 3 -0.016287 -0.006681 0.041885 -0.001993 -0.010598 0.002388
# 4 0.025439 0.017879 -0.001993 0.096365 0.037725 0.015680
# 5 0.021109 0.010900 -0.010598 0.037725 0.053985 0.006703
# 6 0.008265 0.002589 0.002388 0.015680 0.006703 0.028106
#
#
# Mechanical properties :
#
#
# Convention : Reuss Voigt Hill
#
# Bulk Modulus (GPa) = 19.43189 36.63416 28.03303
# Shear Modulus (GPa) = 15.51575 27.47701 21.49638
#
# Velocity S-wave (km/s) = 2.63895 3.51180 3.10618
# Velocity P-wave (km/s) = 4.24348 5.73467 5.04448
#
# Compressibility (1/GPa) = 0.05146181
#
# Stress axis : x y z
#
# Youngs Moduli (GPa) = 31.21209 66.09881 23.87512
#
# Poissons Ratio (x) = -0.27583 0.38885
# Poissons Ratio (y) = -0.13025 0.15952
# Poissons Ratio (z) = 0.50835 0.44163
#
# Static dielectric constant tensor:
#      x y z
#    x 1.832900 -0.012170 0.021950 
#    y -0.012170 1.913760 0.042470 
#    z 0.021950 0.042470 1.872960 
# 
# From -- ./inp_files/273764.got.cif
#   From: 2010.05.17/outbox.cif.g08.bks.cpg/sg2_137_cif.got.tgz:273764.got - 2010.06.03 11:33:40.
