data_PCOD9098554
_publ_section_title
;
Structure prediction by ZEFSAII (Michael W. Deem and Ramdas Pophale) SiO2 
 PCOD9098554
Probable space group: P -1
;
_chemical_formula_sum "Si O2"
_cell_formula_units_Z 14
_cell_length_a 9.144844
_cell_length_b 9.039153
_cell_length_c 8.469986
_cell_angle_alpha 60.703145
_cell_angle_beta 67.969974
_cell_angle_gamma 82.526190
_cell_volume 564.771541
_symmetry_space_group_name_H-M "P -1"
_symmetry_group_IT_number 2
_symmetry_cell_setting 'triclinic'
loop_
_space_group_symop_operation_xyz
x,y,z
-x,-y,-z
loop_
_atom_site_type_symbol
_atom_site_label
_atom_site_fract_x
_atom_site_fract_y
_atom_site_fract_z
Si Si1 0.980809 0.312763 0.181422
Si Si2 0.540917 0.458077 0.771797
Si Si3 0.852858 0.106078 0.049576
Si Si4 0.488329 0.911398 0.879872
Si Si5 0.038114 0.315651 0.645865
Si Si6 0.251624 0.219581 0.339497
Si Si7 0.268010 0.535076 0.624793
O O1 0.859016 0.328652 0.365285
O O2 0.144726 0.257725 0.211532
O O3 0.897810 0.192228 0.150018
O O4 0.000000 0.500000 0.000000
O O5 0.642566 0.613259 0.731370
O O6 0.371969 0.515455 0.749230
O O7 0.623998 0.416968 0.593531
O O8 0.525393 0.290868 0.971042
O O9 0.875739 0.243102 0.826820
O O10 0.674103 0.031819 0.158647
O O11 0.000000 0.000000 0.000000
O O12 0.633714 0.923673 0.690112
O O13 0.500000 0.000000 0.000000
O O14 0.123984 0.199749 0.545194
O O15 0.167339 0.360974 0.708192
O O16 0.000000 0.500000 0.500000
#
# Coordination Sequence:
#
# PCOD9098554 Si02
#       7
#     2   2   2   2   2   2   2
#     4  12  20  37  69  97 129 168 225 268 329 390
#     4  10  22  39  65  99 130 167 218 276 328 383
#     4  12  27  45  66  98 136 177 220 278 334 396
#     4  12  26  44  63  92 139 177 217 265 339 395
#     4  11  21  43  72 102 131 171 226 277 326 391
#     4  11  23  41  69 100 127 172 224 274 327 389
#     4  10  20  36  68  98 128 164 223 277 321 382
#
# _framework density 24.788785000000001
#
# number of rings (size 3 to 8) (size 9 to 14) (size 15 to 20)
#    0.000    0.857    2.857    5.571    2.000    0.000 
#    2.571    2.143    0.000    0.000    0.000    0.000 
#    0.000    0.000    0.000    0.000    0.000    0.000 
#
# Total GULP energy -78347.132782 kJ/mol
# GULP energy per Si atom -5596.223770 kJ/mol
# Density = 2.473236 g / cm^3
# Si number density = 24.788785 Si / 1000 Ang^3
#
#
#
# Elastic Constant Matrix: (Units=GPa)
#
#
# Indices 1 2 3 4 5 6 
#
# 1 182.4115 43.1953 6.4125 29.4493 -0.1293 -3.3035
# 2 43.1953 100.7614 21.8259 48.1316 -3.0526 -2.8462
# 3 6.4125 21.8259 60.1024 30.5114 -15.1067 -8.5360
# 4 29.4493 48.1316 30.5114 53.0189 -9.5542 0.6979
# 5 -0.1293 -3.0526 -15.1067 -9.5542 35.1429 14.2856
# 6 -3.3035 -2.8462 -8.5360 0.6979 14.2856 41.3031
#
#
#
# Elastic Compliance Matrix: (Units=1/GPa)
#
#
# Indices 1 2 3 4 5 6 
#
# 1 0.006309 -0.001542 0.001390 -0.003051 -0.000748 0.000996
# 2 -0.001542 0.018735 0.002036 -0.018031 -0.003694 0.003171
# 3 0.001390 0.002036 0.026172 -0.016804 0.005175 0.004154
# 4 -0.003051 -0.018031 -0.016804 0.048094 0.007704 -0.008437
# 5 -0.000748 -0.003694 0.005175 0.007704 0.037464 -0.012333
# 6 0.000996 0.003171 0.004154 -0.008437 -0.012333 0.029776
#
#
# Mechanical properties :
#
#
# Convention : Reuss Voigt Hill
#
# Bulk Modulus (GPa) = 18.18757 54.01584 36.10170
# Shear Modulus (GPa) = 27.60743 44.01575 35.81159
#
# Velocity S-wave (km/s) = 3.34084 4.21840 3.80500
# Velocity P-wave (km/s) = 4.71536 6.75013 5.82232
#
# Compressibility (1/GPa) = 0.05498262
#
# Stress axis : x y z
#
# Youngs Moduli (GPa) = 158.51285 53.37597 38.20873
#
# Poissons Ratio (x) = 0.08232 -0.05309
# Poissons Ratio (y) = 0.24448 -0.07780
# Poissons Ratio (z) = -0.22027 -0.10869
#
# Static dielectric constant tensor:
#      x y z
#    x 1.989780 -0.029390 0.006600 
#    y -0.029390 2.003520 -0.099100 
#    z 0.006600 -0.099100 2.227260 
# 
# From -- ./inp_files/157251.got.cif
#   From: 2010.05.17/outbox.cif.g08.bks.cpg/sg2_79_cif.got.tgz:157251.got - 2010.06.03 11:33:40.
