data_PCOD9098777
_publ_section_title
;
Structure prediction by ZEFSAII (Michael W. Deem and Ramdas Pophale) SiO2 
 PCOD9098777
Probable space group: P -1
;
_chemical_formula_sum "Si O2"
_cell_formula_units_Z 16
_cell_length_a 21.434533
_cell_length_b 16.069176
_cell_length_c 8.460038
_cell_angle_alpha 139.293796
_cell_angle_beta 43.738305
_cell_angle_gamma 156.188178
_cell_volume 762.602845
_symmetry_space_group_name_H-M "P -1"
_symmetry_group_IT_number 2
_symmetry_cell_setting 'triclinic'
loop_
_space_group_symop_operation_xyz
x,y,z
-x,-y,-z
loop_
_atom_site_type_symbol
_atom_site_label
_atom_site_fract_x
_atom_site_fract_y
_atom_site_fract_z
Si Si1 0.722106 0.817522 0.918024
Si Si2 0.389657 0.180317 0.202413
Si Si3 0.832858 0.319187 0.466514
Si Si4 0.598315 0.239779 0.706846
Si Si5 0.041017 0.193211 0.754282
Si Si6 0.915459 0.286843 0.936737
Si Si7 0.554015 0.835284 0.417309
Si Si8 0.378270 0.541104 0.577730
O O1 0.668022 0.812681 0.838849
O O2 0.682794 0.624963 0.686291
O O3 0.629777 0.783318 0.173955
O O4 0.906278 0.059424 0.938407
O O5 0.491024 0.368368 0.418240
O O6 0.232999 0.938131 0.209903
O O7 0.507354 0.207519 0.964210
O O8 0.768811 0.387672 0.651619
O O9 0.000000 0.500000 0.500000
O O10 0.698928 0.095855 0.492961
O O11 0.846050 0.265731 0.195731
O O12 0.575166 0.294269 0.669175
O O13 0.500000 0.000000 0.500000
O O14 0.223675 0.401871 0.754180
O O15 0.014948 0.276887 0.793911
O O16 0.000000 0.000000 0.500000
O O17 0.000000 0.500000 0.000000
O O18 0.470903 0.755781 0.621768
#
# Coordination Sequence:
#
# PCOD9098777 Si02
#       8
#     2   2   2   2   2   2   2   2
#     4   9  18  41  59  78 120 164 191 240 310 355
#     4  10  20  37  57  83 120 151 195 251 296 352
#     4  11  23  38  59  80 115 160 198 241 300 367
#     4   9  18  38  55  71 110 156 179 230 303 347
#     4   9  20  39  59  85 121 157 193 242 303 354
#     4  11  23  39  60  85 121 161 197 245 307 353
#     4  10  20  38  58  83 119 150 197 243 299 353
#     4  11  22  31  62  94 110 150 211 248 283 359
#
# _framework density 20.980777
#
# number of rings (size 3 to 8) (size 9 to 14) (size 15 to 20)
#    0.000    2.000    5.000    0.750    5.250    0.000 
#    0.000    3.125    0.000    0.000    0.000   15.750 
#    0.000    0.000    0.000    0.000    0.000    0.000 
#
# Total GULP energy -89113.221905 kJ/mol
# GULP energy per Si atom -5569.576369 kJ/mol
# Density = 2.093302 g / cm^3
# Si number density = 20.980777 Si / 1000 Ang^3
#
#
#
# Elastic Constant Matrix: (Units=GPa)
#
#
# Indices 1 2 3 4 5 6 
#
# 1 59.1829 52.5618 -1.8369 -3.2114 -15.0202 6.4766
# 2 52.5618 144.0984 6.3762 -8.9056 5.2456 12.9884
# 3 -1.8369 6.3762 26.4579 0.1859 -10.5791 -6.3428
# 4 -3.2114 -8.9056 0.1859 23.2237 1.8590 -1.8370
# 5 -15.0202 5.2456 -10.5791 1.8590 29.2282 -0.7011
# 6 6.4766 12.9884 -6.3428 -1.8370 -0.7011 40.9652
#
#
#
# Elastic Compliance Matrix: (Units=1/GPa)
#
#
# Indices 1 2 3 4 5 6 
#
# 1 0.040219 -0.017144 0.020076 -0.003476 0.031294 0.002565
# 2 -0.017144 0.014972 -0.012328 0.004459 -0.016339 -0.004025
# 3 0.020076 -0.012328 0.058276 -0.004348 0.034142 0.010147
# 4 -0.003476 0.004459 -0.004348 0.044913 -0.007008 0.000357
# 5 0.031294 -0.016339 0.034142 -0.007008 0.066183 0.006338
# 6 0.002565 -0.004025 0.010147 0.000357 0.006338 0.026977
#
#
# Mechanical properties :
#
#
# Convention : Reuss Voigt Hill
#
# Bulk Modulus (GPa) = 10.56247 38.21571 24.38909
# Shear Modulus (GPa) = 16.56239 30.19262 23.37751
#
# Velocity S-wave (km/s) = 2.81269 3.79761 3.34164
# Velocity P-wave (km/s) = 3.94887 6.12236 5.15155
#
# Compressibility (1/GPa) = 0.09467482
#
# Stress axis : x y z
#
# Youngs Moduli (GPa) = 24.86403 66.79217 17.15986
#
# Poissons Ratio (x) = 1.14508 -0.34450
# Poissons Ratio (y) = 0.42627 0.21154
# Poissons Ratio (z) = -0.49917 0.82340
#
# Static dielectric constant tensor:
#      x y z
#    x 1.817700 -0.004000 -0.020780 
#    y -0.004000 1.803710 0.034290 
#    z -0.020780 0.034290 1.789660 
# 
# From -- ./inp_files/187425.got.cif
#   From: 2010.05.17/outbox.cif.g08.bks.cpg/sg2_94_cif.got.tgz:187425.got - 2010.06.03 11:33:40.
