data_PCOD9098506
_publ_section_title
;
Structure prediction by ZEFSAII (Michael W. Deem and Ramdas Pophale) SiO2 
 PCOD9098506
Probable space group: P -1
;
_chemical_formula_sum "Si O2"
_cell_formula_units_Z 16
_cell_length_a 8.566851
_cell_length_b 19.785202
_cell_length_c 8.626969
_cell_angle_alpha 93.155399
_cell_angle_beta 130.574819
_cell_angle_gamma 124.980826
_cell_volume 660.717532
_symmetry_space_group_name_H-M "P -1"
_symmetry_group_IT_number 2
_symmetry_cell_setting 'triclinic'
loop_
_space_group_symop_operation_xyz
x,y,z
-x,-y,-z
loop_
_atom_site_type_symbol
_atom_site_label
_atom_site_fract_x
_atom_site_fract_y
_atom_site_fract_z
Si Si1 0.198652 0.115312 0.828871
Si Si2 0.427659 0.360426 0.694219
Si Si3 0.737877 0.574474 0.806135
Si Si4 0.307625 0.382679 0.923227
Si Si5 0.553800 0.024566 0.302490
Si Si6 0.480112 0.222947 0.682055
Si Si7 0.481176 0.159881 0.353341
Si Si8 0.282455 0.858878 0.884659
O O1 0.336523 0.179070 0.757881
O O2 0.824844 0.052491 0.579730
O O3 0.339596 0.157814 0.103831
O O4 0.342942 0.077175 0.881571
O O5 0.702151 0.490912 0.851900
O O6 0.407333 0.350428 0.866419
O O7 0.491200 0.304807 0.656256
O O8 0.039703 0.276028 0.373307
O O9 0.500000 0.500000 0.500000
O O10 0.594993 0.593977 0.831964
O O11 0.125456 0.695563 0.036147
O O12 0.894458 0.281869 0.637444
O O13 0.500000 0.500000 0.000000
O O14 0.440556 0.067452 0.300347
O O15 0.735537 0.095030 0.266459
O O16 0.267792 0.896240 0.039567
O O17 0.339666 0.146632 0.428498
#
# Coordination Sequence:
#
# PCOD9098506 Si02
#       8
#     2   2   2   2   2   2   2   2
#     4  11  20  40  68  90 125 168 215 249 328 374
#     4  11  19  41  60  88 127 169 201 259 316 366
#     4  10  22  37  61  91 124 165 208 258 314 375
#     4   9  18  35  61  80 123 162 195 257 310 355
#     4  10  20  39  64  92 126 166 214 262 315 371
#     4  11  23  40  63  93 130 166 210 260 316 375
#     4  10  22  42  60  93 132 162 211 269 304 376
#     4  10  20  36  67  92 125 167 210 265 314 369
#
# _framework density 24.216096
#
# number of rings (size 3 to 8) (size 9 to 14) (size 15 to 20)
#    0.000    1.750    3.750    1.500    1.750    0.000 
#    9.000    1.875    0.000    0.000    0.000    0.000 
#    0.000    0.000    0.000    0.000    0.000    0.000 
#
# Total GULP energy -89118.326997 kJ/mol
# GULP energy per Si atom -5569.895437 kJ/mol
# Density = 2.416098 g / cm^3
# Si number density = 24.216096 Si / 1000 Ang^3
#
#
#
# Elastic Constant Matrix: (Units=GPa)
#
#
# Indices 1 2 3 4 5 6 
#
# 1 119.1061 31.3670 48.6873 -13.6863 -41.6223 -9.1040
# 2 31.3670 70.0968 27.4705 -7.3287 -5.5690 6.7018
# 3 48.6873 27.4705 112.4708 -19.8648 -34.9118 6.1017
# 4 -13.6863 -7.3287 -19.8648 42.9717 -0.0499 0.0664
# 5 -41.6223 -5.5690 -34.9118 -0.0499 43.6119 0.1113
# 6 -9.1040 6.7018 6.1017 0.0664 0.1113 42.0065
#
#
#
# Elastic Compliance Matrix: (Units=1/GPa)
#
#
# Indices 1 2 3 4 5 6 
#
# 1 0.015752 -0.005695 -0.000763 0.003702 0.013688 0.004391
# 2 -0.005695 0.018086 -0.003736 -0.000458 -0.006108 -0.003560
# 3 -0.000763 -0.003736 0.014485 0.005831 0.010401 -0.001710
# 4 0.003702 -0.000458 0.005831 0.027077 0.008173 -0.000036
# 5 0.013688 -0.006108 0.010401 0.008173 0.043543 0.002302
# 6 0.004391 -0.003560 -0.001710 -0.000036 0.002302 0.025568
#
#
# Mechanical properties :
#
#
# Convention : Reuss Voigt Hill
#
# Bulk Modulus (GPa) = 35.79722 57.41369 46.60545
# Shear Modulus (GPa) = 28.70085 38.66128 33.68107
#
# Velocity S-wave (km/s) = 3.44640 3.99997 3.73346
# Velocity P-wave (km/s) = 5.53637 6.71516 6.15406
#
# Compressibility (1/GPa) = 0.02793513
#
# Stress axis : x y z
#
# Youngs Moduli (GPa) = 63.48308 55.29255 69.03575
#
# Poissons Ratio (x) = 0.31489 0.05270
# Poissons Ratio (y) = 0.36153 0.25789
# Poissons Ratio (z) = 0.04846 0.20655
#
# Static dielectric constant tensor:
#      x y z
#    x 1.987260 0.049800 -0.010650 
#    y 0.049800 2.005900 -0.016450 
#    z -0.010650 -0.016450 1.978130 
# 
# From -- ./inp_files/226344.got.cif
#   From: 2010.05.17/outbox.cif.g08.bks.cpg/sg2_114_cif.got.tgz:226344.got - 2010.06.03 11:33:40.
