data_PCOD9098752
_publ_section_title
;
Structure prediction by ZEFSAII (Michael W. Deem and Ramdas Pophale) SiO2 
 PCOD9098752
Probable space group: P -1
;
_chemical_formula_sum "Si O2"
_cell_formula_units_Z 16
_cell_length_a 17.482143
_cell_length_b 7.953155
_cell_length_c 20.628376
_cell_angle_alpha 60.463662
_cell_angle_beta 19.054680
_cell_angle_gamma 55.223506
_cell_volume 757.635564
_symmetry_space_group_name_H-M "P -1"
_symmetry_group_IT_number 2
_symmetry_cell_setting 'triclinic'
loop_
_space_group_symop_operation_xyz
x,y,z
-x,-y,-z
loop_
_atom_site_type_symbol
_atom_site_label
_atom_site_fract_x
_atom_site_fract_y
_atom_site_fract_z
Si Si1 0.506569 0.502773 0.598753
Si Si2 0.628687 0.292283 0.089803
Si Si3 0.901335 0.436878 0.192954
Si Si4 0.148256 0.758061 0.939650
Si Si5 0.447418 0.124207 0.786582
Si Si6 0.833264 0.278003 0.648323
Si Si7 0.709514 0.271761 0.885199
Si Si8 0.675255 0.954216 0.764650
O O1 0.770724 0.475557 0.360225
O O2 0.295557 0.588936 0.695608
O O3 0.404404 0.656771 0.711906
O O4 0.511324 0.276278 0.657784
O O5 0.783490 0.293420 0.029975
O O6 0.390105 0.505420 0.230039
O O7 0.535769 0.099536 0.208680
O O8 0.783627 0.254422 0.904763
O O9 0.972914 0.634461 0.080433
O O10 0.160493 0.243896 0.016904
O O11 0.000000 0.000000 0.000000
O O12 0.617915 0.093560 0.719291
O O13 0.895675 0.253407 0.679738
O O14 0.076807 0.242452 0.415822
O O15 0.736702 0.091880 0.743329
O O16 0.500000 0.500000 0.000000
O O17 0.559319 0.116003 0.024365
#
# Coordination Sequence:
#
# PCOD9098752 Si02
#       8
#     2   2   2   2   2   2   2   2
#     4  10  21  38  60  83 110 151 189 229 285 334
#     4  10  21  37  57  83 115 150 190 230 283 340
#     4  10  21  38  59  83 113 147 193 234 276 341
#     4  11  21  38  61  87 119 149 183 234 283 331
#     4  10  20  37  57  81 113 150 187 234 283 330
#     4  10  20  38  58  82 114 148 190 239 281 333
#     4   9  20  36  55  79 111 148 185 230 280 329
#     4  10  21  36  59  84 112 149 191 234 283 338
#
# _framework density 21.118334000000001
#
# number of rings (size 3 to 8) (size 9 to 14) (size 15 to 20)
#    0.000    2.000    0.000    4.875    0.000    7.000 
#    0.000   13.750    0.000    0.000    0.000    0.000 
#    0.000    0.000    0.000    0.000    0.000    0.000 
#
# Total GULP energy -89326.199255 kJ/mol
# GULP energy per Si atom -5582.887453 kJ/mol
# Density = 2.107027 g / cm^3
# Si number density = 21.118334 Si / 1000 Ang^3
#
#
#
# Elastic Constant Matrix: (Units=GPa)
#
#
# Indices 1 2 3 4 5 6 
#
# 1 80.7362 0.4552 5.6330 10.3498 9.3207 -1.8335
# 2 0.4552 84.3149 30.7809 16.9838 14.5723 -1.5242
# 3 5.6330 30.7809 72.8592 5.1876 15.2381 0.6628
# 4 10.3498 16.9838 5.1876 16.2563 -1.1723 -0.3325
# 5 9.3207 14.5723 15.2381 -1.1723 28.6751 3.3243
# 6 -1.8335 -1.5242 0.6628 -0.3325 3.3243 25.8370
#
#
#
# Elastic Compliance Matrix: (Units=1/GPa)
#
#
# Indices 1 2 3 4 5 6 
#
# 1 0.015227 0.004411 -0.000373 -0.014706 -0.007846 0.002171
# 2 0.004411 0.020117 -0.005105 -0.022877 -0.010186 0.002647
# 3 -0.000373 -0.005105 0.017299 -0.000418 -0.006502 0.000060
# 4 -0.014706 -0.022877 -0.000418 0.096348 0.021013 -0.003846
# 5 -0.007846 -0.010186 -0.006502 0.021013 0.047710 -0.006859
# 6 0.002171 0.002647 0.000060 -0.003846 -0.006859 0.039846
#
#
# Mechanical properties :
#
#
# Convention : Reuss Voigt Hill
#
# Bulk Modulus (GPa) = 19.79721 34.62762 27.21241
# Shear Modulus (GPa) = 19.56821 27.55643 23.56232
#
# Velocity S-wave (km/s) = 3.04731 3.61620 3.34388
# Velocity P-wave (km/s) = 4.66650 5.81966 5.27469
#
# Compressibility (1/GPa) = 0.05051218
#
# Stress axis : x y z
#
# Youngs Moduli (GPa) = 65.67072 49.71023 57.80528
#
# Poissons Ratio (x) = -0.21930 0.02154
# Poissons Ratio (y) = -0.28970 0.29507
# Poissons Ratio (z) = 0.02447 0.25375
#
# Static dielectric constant tensor:
#      x y z
#    x 1.805540 0.011190 0.028370 
#    y 0.011190 1.748720 0.004860 
#    z 0.028370 0.004860 1.788530 
# 
# From -- ./inp_files/312956.got.cif
#   From: 2010.05.17/outbox.cif.g08.bks.cpg/sg2_157_cif.got.tgz:312956.got - 2010.06.03 11:33:40.
