data_PCOD9098167
_publ_section_title
;
Structure prediction by ZEFSAII (Michael W. Deem and Ramdas Pophale) SiO2 
 PCOD9098167
Probable space group: P -1
;
_chemical_formula_sum "Si O2"
_cell_formula_units_Z 16
_cell_length_a 15.868436
_cell_length_b 9.276970
_cell_length_c 9.738890
_cell_angle_alpha 72.849579
_cell_angle_beta 83.090512
_cell_angle_gamma 36.200957
_cell_volume 791.324569
_symmetry_space_group_name_H-M "P -1"
_symmetry_group_IT_number 2
_symmetry_cell_setting 'triclinic'
loop_
_space_group_symop_operation_xyz
x,y,z
-x,-y,-z
loop_
_atom_site_type_symbol
_atom_site_label
_atom_site_fract_x
_atom_site_fract_y
_atom_site_fract_z
Si Si1 0.242059 0.427367 0.700770
Si Si2 0.804860 0.175332 0.431587
Si Si3 0.765215 0.227272 0.746312
Si Si4 0.951836 0.397828 0.537429
Si Si5 0.452746 0.652525 0.603635
Si Si6 0.965666 0.377653 0.082642
Si Si7 0.452396 0.978120 0.381079
Si Si8 0.835858 0.435365 0.817847
O O1 0.174050 0.690814 0.672305
O O2 0.196220 0.417369 0.568357
O O3 0.161640 0.442252 0.826862
O O4 0.413945 0.213684 0.701602
O O5 0.770604 0.263325 0.573117
O O6 0.683749 0.252072 0.353382
O O7 0.940428 0.868738 0.488982
O O8 0.591083 0.451285 0.734650
O O9 0.811052 0.298767 0.814881
O O10 0.880160 0.924828 0.822667
O O11 0.941340 0.354263 0.705594
O O12 0.000000 0.500000 0.500000
O O13 0.500000 0.500000 0.500000
O O14 0.414047 0.871666 0.486571
O O15 0.901542 0.373815 0.969844
O O16 0.000000 0.500000 0.000000
O O17 0.500000 0.000000 0.500000
O O18 0.315171 0.255657 0.259326
#
# Coordination Sequence:
#
# PCOD9098167 Si02
#       8
#     2   2   2   2   2   2   2   2
#     4  12  23  43  66  96 130 176 218 268 337 386
#     4  11  21  38  70 102 128 164 223 282 321 392
#     4  11  21  44  67  93 131 176 216 268 335 390
#     4  12  22  36  65  97 128 164 225 280 318 377
#     4  10  20  36  64 107 126 162 211 278 335 370
#     4  12  29  45  64  92 139 180 219 268 329 401
#     4  12  21  40  70 101 135 160 217 284 325 386
#     4  12  25  42  65  96 133 177 215 267 336 392
#
# _framework density 20.219265
#
# number of rings (size 3 to 8) (size 9 to 14) (size 15 to 20)
#    0.000    0.500    7.500    3.000    3.500    0.500 
#    0.000    0.000    0.000    2.250    0.000    0.000 
#    0.000    0.000    0.000    0.000    0.000    0.000 
#
# Total GULP energy -89227.777918 kJ/mol
# GULP energy per Si atom -5576.736120 kJ/mol
# Density = 2.017325 g / cm^3
# Si number density = 20.219265 Si / 1000 Ang^3
#
#
#
# Elastic Constant Matrix: (Units=GPa)
#
#
# Indices 1 2 3 4 5 6 
#
# 1 111.5215 35.0764 13.5562 -8.4418 -19.9647 2.0442
# 2 35.0764 70.9888 8.7387 -9.1236 -1.9146 7.3566
# 3 13.5562 8.7387 57.0493 -0.5381 -0.7562 -6.8671
# 4 -8.4418 -9.1236 -0.5381 31.8135 3.2612 0.8004
# 5 -19.9647 -1.9146 -0.7562 3.2612 26.2980 -9.5154
# 6 2.0442 7.3566 -6.8671 0.8004 -9.5154 34.0803
#
#
#
# Elastic Compliance Matrix: (Units=1/GPa)
#
#
# Indices 1 2 3 4 5 6 
#
# 1 0.012949 -0.006180 -0.001612 0.000491 0.010404 0.003126
# 2 -0.006180 0.018398 -0.002089 0.004368 -0.006058 -0.005816
# 3 -0.001612 -0.002089 0.018792 -0.000923 0.000951 0.004621
# 4 0.000491 0.004368 -0.000923 0.033358 -0.004644 -0.003238
# 5 0.010404 -0.006058 0.000951 -0.004644 0.051662 0.015409
# 6 0.003126 -0.005816 0.004621 -0.003238 0.015409 0.035720
#
#
# Mechanical properties :
#
#
# Convention : Reuss Voigt Hill
#
# Bulk Modulus (GPa) = 32.91833 39.36693 36.14263
# Shear Modulus (GPa) = 24.90458 30.58424 27.74441
#
# Velocity S-wave (km/s) = 3.51340 3.89347 3.70831
# Velocity P-wave (km/s) = 5.72492 6.30273 6.02076
#
# Compressibility (1/GPa) = 0.03037821
#
# Stress axis : x y z
#
# Youngs Moduli (GPa) = 77.22548 54.35295 53.21470
#
# Poissons Ratio (x) = 0.33591 0.08576
# Poissons Ratio (y) = 0.47726 0.11116
# Poissons Ratio (z) = 0.12445 0.11353
#
# Static dielectric constant tensor:
#      x y z
#    x 1.816240 -0.110040 0.003500 
#    y -0.110040 1.791250 0.002230 
#    z 0.003500 0.002230 1.684890 
# 
# From -- ./inp_files/243412.got.cif
#   From: 2010.05.17/outbox.cif.g08.bks.cpg/sg2_122_cif.got.tgz:243412.got - 2010.06.03 11:33:40.
