data_PCOD9098557
_publ_section_title
;
Structure prediction by ZEFSAII (Michael W. Deem and Ramdas Pophale) SiO2 
 PCOD9098557
Probable space group: P -1
;
_chemical_formula_sum "Si O2"
_cell_formula_units_Z 15
_cell_length_a 15.925995
_cell_length_b 7.384374
_cell_length_c 9.285901
_cell_angle_alpha 121.751359
_cell_angle_beta 36.769255
_cell_angle_gamma 119.208749
_cell_volume 551.107273
_symmetry_space_group_name_H-M "P -1"
_symmetry_group_IT_number 2
_symmetry_cell_setting 'triclinic'
loop_
_space_group_symop_operation_xyz
x,y,z
-x,-y,-z
loop_
_atom_site_type_symbol
_atom_site_label
_atom_site_fract_x
_atom_site_fract_y
_atom_site_fract_z
Si Si1 0.540108 0.325499 0.082730
Si Si2 0.745228 0.681241 0.575981
Si Si3 0.907231 0.681978 0.643320
Si Si4 0.806877 0.168534 0.646142
Si Si5 0.000000 0.500000 0.000000
Si Si6 0.935438 0.218160 0.178690
Si Si7 0.263113 0.991520 0.838523
Si Si8 0.487814 0.012395 0.281570
O O1 0.408808 0.460412 0.297107
O O2 0.495499 0.212403 0.248277
O O3 0.709305 0.355763 0.888291
O O4 0.533961 0.188385 0.883661
O O5 0.798499 0.641707 0.645799
O O6 0.869669 0.640817 0.282536
O O7 0.724192 0.932359 0.690978
O O8 0.000000 0.500000 0.500000
O O9 0.048644 0.839656 0.470403
O O10 0.827593 0.815350 0.924915
O O11 0.844143 0.194477 0.436914
O O12 0.026058 0.442204 0.116981
O O13 0.852273 0.214876 0.133498
O O14 0.000000 0.000000 0.000000
O O15 0.364146 0.019455 0.571881
O O16 0.366041 0.974950 0.824203
#
# Coordination Sequence:
#
# PCOD9098557 Si02
#       8
#     2   2   2   2   1   2   2   2
#     4  11  20  40  67 100 132 176 233 282 342 411
#     4  12  23  43  69  99 136 182 226 290 338 418
#     4  12  26  40  62  98 141 177 229 284 342 405
#     4  12  22  42  70  97 133 183 231 279 351 410
#     4  12  28  42  66 104 136 174 238 280 342 408
#     4  12  23  42  68  98 135 185 225 283 340 407
#     4  11  21  40  68  97 133 181 229 280 346 408
#     4  10  20  36  68  99 128 175 236 279 337 416
#
# _framework density 27.217932999999999
#
# number of rings (size 3 to 8) (size 9 to 14) (size 15 to 20)
#    0.000    0.533    8.000    1.200    0.000    1.067 
#    0.000    5.333    0.000    2.400    0.000    0.000 
#    0.000    0.000    0.000    0.000    0.000    0.000 
#
# Total GULP energy -83533.045009 kJ/mol
# GULP energy per Si atom -5568.869667 kJ/mol
# Density = 2.715598 g / cm^3
# Si number density = 27.217933 Si / 1000 Ang^3
#
#
#
# Elastic Constant Matrix: (Units=GPa)
#
#
# Indices 1 2 3 4 5 6 
#
# 1 177.0059 28.8774 44.4363 10.8035 -16.3054 -24.5389
# 2 28.8774 71.4422 7.0015 1.5232 5.4845 -30.5419
# 3 44.4363 7.0015 185.8235 1.8868 -26.8519 -8.5608
# 4 10.8035 1.5232 1.8868 22.6742 -12.4775 16.8242
# 5 -16.3054 5.4845 -26.8519 -12.4775 55.5086 -0.7955
# 6 -24.5389 -30.5419 -8.5608 16.8242 -0.7955 35.8475
#
#
#
# Elastic Compliance Matrix: (Units=1/GPa)
#
#
# Indices 1 2 3 4 5 6 
#
# 1 0.009283 0.007321 -0.001739 -0.024455 -0.003997 0.023565
# 2 0.007321 0.052429 -0.001930 -0.084268 -0.021640 0.088289
# 3 -0.001739 -0.001930 0.006194 0.005357 0.003826 -0.003785
# 4 -0.024455 -0.084268 0.005357 0.237318 0.054250 -0.197433
# 5 -0.003997 -0.021640 0.003826 0.054250 0.032380 -0.045003
# 6 0.023565 0.088289 -0.003785 -0.197433 -0.045003 0.210007
#
#
# Mechanical properties :
#
#
# Convention : Reuss Voigt Hill
#
# Bulk Modulus (GPa) = 13.29629 66.10024 39.69826
# Shear Modulus (GPa) = 8.84362 46.40317 27.62339
#
# Velocity S-wave (km/s) = 1.80451 4.13349 3.18920
# Velocity P-wave (km/s) = 3.03931 6.86435 5.30833
#
# Compressibility (1/GPa) = 0.07520896
#
# Stress axis : x y z
#
# Youngs Moduli (GPa) = 107.72169 19.07329 161.44057
#
# Poissons Ratio (x) = -0.13963 0.28081
# Poissons Ratio (y) = -0.78859 0.31160
# Poissons Ratio (z) = 0.18737 0.03681
#
# Static dielectric constant tensor:
#      x y z
#    x 2.305320 0.184600 -0.075100 
#    y 0.184600 2.051560 0.026150 
#    z -0.075100 0.026150 2.111690 
# 
# From -- ./inp_files/295925.got.cif
#   From: 2010.05.17/outbox.cif.g08.bks.cpg/sg2_148_cif.got.tgz:295925.got - 2010.06.03 11:33:40.
