data_PCOD9098875
_publ_section_title
;
Structure prediction by ZEFSAII (Michael W. Deem and Ramdas Pophale) SiO2 
 PCOD9098875
Probable space group: P -1
;
_chemical_formula_sum "Si O2"
_cell_formula_units_Z 16
_cell_length_a 12.597671
_cell_length_b 27.968959
_cell_length_c 27.731759
_cell_angle_alpha 10.304331
_cell_angle_beta 151.051169
_cell_angle_gamma 151.350990
_cell_volume 830.235998
_symmetry_space_group_name_H-M "P -1"
_symmetry_group_IT_number 2
_symmetry_cell_setting 'triclinic'
loop_
_space_group_symop_operation_xyz
x,y,z
-x,-y,-z
loop_
_atom_site_type_symbol
_atom_site_label
_atom_site_fract_x
_atom_site_fract_y
_atom_site_fract_z
Si Si1 0.302979 0.830586 0.789485
Si Si2 0.870946 0.403102 0.890340
Si Si3 0.567215 0.966774 0.667739
Si Si4 0.314254 0.499235 0.468634
Si Si5 0.817095 0.687845 0.687550
Si Si6 0.914980 0.051193 0.106637
Si Si7 0.384398 0.418817 0.085819
Si Si8 0.300348 0.144459 0.682237
O O1 0.070167 0.769004 0.727968
O O2 0.492061 0.974799 0.685244
O O3 0.274326 0.034460 0.619301
O O4 0.322411 0.538388 0.107996
O O5 0.822466 0.544653 0.780499
O O6 0.848674 0.637854 0.609816
O O7 0.118874 0.335591 0.056392
O O8 0.714155 0.115215 0.100603
O O9 0.493016 0.195530 0.378116
O O10 0.827713 0.962253 0.771810
O O11 0.430312 0.683876 0.874089
O O12 0.500000 0.500000 0.500000
O O13 0.202111 0.185734 0.741345
O O14 0.454009 0.671841 0.395185
O O15 0.130197 0.661672 0.214481
O O16 0.792088 0.984060 0.175763
O O17 0.500000 0.500000 0.000000
#
# Coordination Sequence:
#
# PCOD9098875 Si02
#       8
#     2   2   2   2   2   2   2   2
#     4  10  21  37  57  78 107 146 193 242 277 315
#     4  12  22  35  55  83 113 153 185 224 282 338
#     4  12  23  38  57  83 112 156 191 226 277 334
#     4  10  20  37  58  82 111 146 188 240 280 315
#     4  10  21  36  56  79 108 145 190 243 279 317
#     4  11  21  37  58  84 114 148 188 232 276 333
#     4  12  24  37  51  80 124 159 184 214 266 343
#     4  11  21  35  56  83 114 146 185 229 279 340
#
# _framework density 19.271629999999998
#
# number of rings (size 3 to 8) (size 9 to 14) (size 15 to 20)
#    0.000    1.000    1.250    8.625    3.500    0.000 
#    0.000    0.000    0.000    0.000    0.000   17.500 
#    0.000    0.000    0.000    0.000    0.000    0.000 
#
# Total GULP energy -89382.715147 kJ/mol
# GULP energy per Si atom -5586.419697 kJ/mol
# Density = 1.922777 g / cm^3
# Si number density = 19.271630 Si / 1000 Ang^3
#
#
#
# Elastic Constant Matrix: (Units=GPa)
#
#
# Indices 1 2 3 4 5 6 
#
# 1 63.4113 5.7996 3.7913 -1.2705 4.2478 -9.4182
# 2 5.7996 52.6395 17.5635 -1.5349 8.8014 -20.1515
# 3 3.7913 17.5635 102.1539 -3.1183 17.2226 -1.9029
# 4 -1.2705 -1.5349 -3.1183 32.7418 -2.6137 14.4551
# 5 4.2478 8.8014 17.2226 -2.6137 21.0031 -13.5691
# 6 -9.4182 -20.1515 -1.9029 14.4551 -13.5691 15.5384
#
#
#
# Elastic Compliance Matrix: (Units=1/GPa)
#
#
# Indices 1 2 3 4 5 6 
#
# 1 0.014633 -0.006875 0.002671 0.007217 -0.012682 -0.017507
# 2 -0.006875 -0.000168 0.007373 0.026505 -0.044665 -0.067143
# 3 0.002671 0.007373 0.007091 -0.011883 0.009185 0.031125
# 4 0.007217 0.026505 -0.011883 -0.001772 0.050744 0.083254
# 5 -0.012682 -0.044665 0.009185 0.050744 -0.010285 -0.120674
# 6 -0.017507 -0.067143 0.031125 0.083254 -0.120674 -0.212350
#
#
# Mechanical properties :
#
#
# Convention : Reuss Voigt Hill
#
# Bulk Modulus (GPa) = 35.85076 30.27925 33.06501
# Shear Modulus (GPa) = -25.01359 26.59334 0.78987
#
# Velocity S-wave (km/s) = -3.60661 3.71876 0.64090
# Velocity P-wave (km/s) = 1.14004 5.84678 4.21216
#
# Compressibility (1/GPa) = 0.02789341
#
# Stress axis : x y z
#
# Youngs Moduli (GPa) = 68.33897 -5941.79553 141.02526
#
# Poissons Ratio (x) = -40.84887 -0.37670
# Poissons Ratio (y) = 0.46982 -1.03973
# Poissons Ratio (z) = -0.18254 43.80664
#
# Static dielectric constant tensor:
#      x y z
#    x 1.689430 -0.026810 0.006840 
#    y -0.026810 1.688030 -0.010800 
#    z 0.006840 -0.010800 1.671500 
# 
# From -- ./inp_files/477206.got.cif
#   From: 2010.05.17/outbox.cif.g08.bks.cpg/sg2_239_cif.got.tgz:477206.got - 2010.06.03 11:33:40.
