data_PCOD9098065
_publ_section_title
;
Structure prediction by ZEFSAII (Michael W. Deem and Ramdas Pophale) SiO2 
 PCOD9098065
Probable space group: P -1
;
_chemical_formula_sum "Si O2"
_cell_formula_units_Z 14
_cell_length_a 12.522429
_cell_length_b 12.692040
_cell_length_c 12.950956
_cell_angle_alpha 94.022429
_cell_angle_beta 134.134090
_cell_angle_gamma 47.543070
_cell_volume 714.410536
_symmetry_space_group_name_H-M "P -1"
_symmetry_group_IT_number 2
_symmetry_cell_setting 'triclinic'
loop_
_space_group_symop_operation_xyz
x,y,z
-x,-y,-z
loop_
_atom_site_type_symbol
_atom_site_label
_atom_site_fract_x
_atom_site_fract_y
_atom_site_fract_z
Si Si1 0.116539 0.917965 0.874279
Si Si2 0.146602 0.184376 0.779652
Si Si3 0.129957 0.857024 0.478691
Si Si4 0.841507 0.879071 0.998921
Si Si5 0.212218 0.632487 0.032361
Si Si6 0.886355 0.688843 0.433239
Si Si7 0.306830 0.510776 0.870266
O O1 0.146516 0.792388 0.954147
O O2 0.444436 0.724565 0.022903
O O3 0.875840 0.068924 0.625948
O O4 0.076911 0.047592 0.924464
O O5 0.994983 0.347896 0.601097
O O6 0.098593 0.095967 0.701130
O O7 0.025168 0.262880 0.819733
O O8 0.500000 0.000000 0.000000
O O9 0.451935 0.601565 0.709068
O O10 0.000000 0.000000 0.500000
O O11 0.478000 0.087551 0.779091
O O12 0.973760 0.760113 0.971661
O O13 0.193926 0.569182 0.914783
O O14 0.000000 0.500000 0.500000
O O15 0.033138 0.674317 0.616519
O O16 0.500000 0.500000 0.000000
#
# Coordination Sequence:
#
# PCOD9098065 Si02
#       7
#     2   2   2   2   2   2   2
#     4  10  20  38  61  92 122 163 209 244 303 372
#     4   9  21  38  59  87 121 155 207 253 294 366
#     4  11  22  37  65  92 120 164 205 251 307 356
#     4  10  22  40  59  91 126 162 198 258 314 356
#     4  11  23  38  61  93 133 153 205 261 303 364
#     4  11  21  38  67  89 117 166 209 247 307 372
#     4  10  20  36  63  92 119 157 204 252 294 360
#
# _framework density 19.596575999999999
#
# number of rings (size 3 to 8) (size 9 to 14) (size 15 to 20)
#    0.000    1.714    2.857    2.143    2.000    2.857 
#    2.571    0.000    0.000    4.286    0.000    0.000 
#    0.000    0.000    0.000    0.000    0.000    0.000 
#
# Total GULP energy -77961.093792 kJ/mol
# GULP energy per Si atom -5568.649557 kJ/mol
# Density = 1.955197 g / cm^3
# Si number density = 19.596576 Si / 1000 Ang^3
#
#
#
# Elastic Constant Matrix: (Units=GPa)
#
#
# Indices 1 2 3 4 5 6 
#
# 1 112.5678 39.5647 45.3243 -0.8607 -31.1876 -19.4495
# 2 39.5647 47.0556 18.6925 6.6330 -9.3858 -21.1736
# 3 45.3243 18.6925 105.7804 9.6823 -24.0887 3.2079
# 4 -0.8607 6.6330 9.6823 31.4973 2.0166 -9.1220
# 5 -31.1876 -9.3858 -24.0887 2.0166 28.2890 5.8171
# 6 -19.4495 -21.1736 3.2079 -9.1220 5.8171 38.0013
#
#
#
# Elastic Compliance Matrix: (Units=1/GPa)
#
#
# Indices 1 2 3 4 5 6 
#
# 1 0.017908 -0.010617 -0.003336 0.003662 0.012609 0.002481
# 2 -0.010617 0.038351 -0.003792 -0.002042 -0.005479 0.016603
# 3 -0.003336 -0.003792 0.014624 -0.006771 0.009678 -0.008162
# 4 0.003662 -0.002042 -0.006771 0.038211 -0.007522 0.011632
# 5 0.012609 -0.005479 0.009678 -0.007522 0.057871 -0.008081
# 6 0.002481 0.016603 -0.008162 0.011632 -0.008081 0.041553
#
#
# Mechanical properties :
#
#
# Convention : Reuss Voigt Hill
#
# Bulk Modulus (GPa) = 28.25464 52.50743 40.38104
# Shear Modulus (GPa) = 19.54598 30.34568 24.94583
#
# Velocity S-wave (km/s) = 3.16162 3.93939 3.57174
# Velocity P-wave (km/s) = 5.27041 6.89522 6.13683
#
# Compressibility (1/GPa) = 0.03539241
#
# Stress axis : x y z
#
# Youngs Moduli (GPa) = 55.83944 26.07511 68.37948
#
# Poissons Ratio (x) = 0.27685 0.22813
# Poissons Ratio (y) = 0.59287 0.25929
# Poissons Ratio (z) = 0.18629 0.09888
#
# Static dielectric constant tensor:
#      x y z
#    x 1.731480 0.015240 -0.057570 
#    y 0.015240 1.685340 -0.005790 
#    z -0.057570 -0.005790 1.774210 
# 
# From -- ./inp_files/346409.got.cif
#   From: 2010.05.17/outbox.cif.g08.bks.cpg/sg2_174_cif.got.tgz:346409.got - 2010.06.03 11:33:40.
