data_PCOD9098443
_publ_section_title
;
Structure prediction by ZEFSAII (Michael W. Deem and Ramdas Pophale) SiO2 
 PCOD9098443
Probable space group: P -1
;
_chemical_formula_sum "Si O2"
_cell_formula_units_Z 15
_cell_length_a 8.424529
_cell_length_b 4.947211
_cell_length_c 18.074951
_cell_angle_alpha 95.785939
_cell_angle_beta 72.949971
_cell_angle_gamma 66.533611
_cell_volume 639.996562
_symmetry_space_group_name_H-M "P -1"
_symmetry_group_IT_number 2
_symmetry_cell_setting 'triclinic'
loop_
_space_group_symop_operation_xyz
x,y,z
-x,-y,-z
loop_
_atom_site_type_symbol
_atom_site_label
_atom_site_fract_x
_atom_site_fract_y
_atom_site_fract_z
Si Si1 0.291365 0.623515 0.509759
Si Si2 0.500000 0.000000 0.000000
Si Si3 0.899666 0.471676 0.131431
Si Si4 0.060433 0.344362 0.570007
Si Si5 0.329277 0.352449 0.334450
Si Si6 0.813882 0.359454 0.983865
Si Si7 0.519869 0.283710 0.760658
Si Si8 0.743246 0.974257 0.864587
O O1 0.500000 0.500000 0.500000
O O2 0.205824 0.468003 0.573561
O O3 0.315389 0.497101 0.419964
O O4 0.161898 0.983629 0.538486
O O5 0.346045 0.294137 0.981051
O O6 0.387744 0.177544 0.097402
O O7 0.690621 0.650256 0.192610
O O8 0.015290 0.645674 0.088442
O O9 0.040221 0.251305 0.168127
O O10 0.883289 0.285731 0.056708
O O11 0.000000 0.500000 0.500000
O O12 0.888086 0.469921 0.652858
O O13 0.461779 0.430370 0.266860
O O14 0.393481 0.996127 0.316398
O O15 0.718303 0.166102 0.951838
O O16 0.655879 0.164126 0.809748
#
# Coordination Sequence:
#
# PCOD9098443 Si02
#       8
#     2   1   2   2   2   2   2   2
#     4  11  22  43  75 109 131 170 227 282 318 382
#     4  10  20  36  66  92 114 164 238 286 336 382
#     4  10  24  41  62  94 126 174 225 292 333 391
#     4  10  20  42  74  96 135 172 225 267 314 390
#     4  11  25  46  66  99 137 180 213 261 342 403
#     4  10  21  41  65  90 123 162 242 291 335 374
#     4  12  27  44  66  95 147 180 216 269 349 420
#     4  11  24  40  65  91 124 178 229 278 346 396
#
# _framework density 23.437625000000001
#
# number of rings (size 3 to 8) (size 9 to 14) (size 15 to 20)
#    0.000    1.333    1.333    5.200    5.600    0.000 
#    7.200    0.000    0.000    0.000    0.000    0.000 
#    0.000    0.000    0.000    0.000    0.000    0.000 
#
# Total GULP energy -83524.133916 kJ/mol
# GULP energy per Si atom -5568.275594 kJ/mol
# Density = 2.338428 g / cm^3
# Si number density = 23.437625 Si / 1000 Ang^3
#
#
#
# Elastic Constant Matrix: (Units=GPa)
#
#
# Indices 1 2 3 4 5 6 
#
# 1 88.7239 33.1395 26.9923 9.3203 -34.2321 -23.6187
# 2 33.1395 20.8761 32.9056 15.8560 38.1718 1.1461
# 3 26.9923 32.9056 47.2291 17.9102 -34.1826 -5.6907
# 4 9.3203 15.8560 17.9102 36.7029 -0.2426 -1.8114
# 5 -34.2321 38.1718 -34.1826 -0.2426 2.3014 7.8394
# 6 -23.6187 1.1461 -5.6907 -1.8114 7.8394 33.4233
#
#
#
# Elastic Compliance Matrix: (Units=1/GPa)
#
#
# Indices 1 2 3 4 5 6 
#
# 1 0.015324 0.000997 -0.012286 0.002130 -0.004439 0.009860
# 2 0.000997 0.008113 0.008682 -0.008006 0.016810 -0.002472
# 3 -0.012286 0.008682 0.020589 -0.010942 -0.007154 -0.004389
# 4 0.002130 -0.008006 -0.010942 0.035608 -0.002906 0.002528
# 5 -0.004439 0.016810 -0.007154 -0.002906 0.002203 -0.005606
# 6 0.009860 -0.002472 -0.004389 0.002528 -0.005606 0.037676
#
#
# Mechanical properties :
#
#
# Convention : Reuss Voigt Hill
#
# Bulk Modulus (GPa) = 25.76458 38.10043 31.93251
# Shear Modulus (GPa) = 36.32077 18.73830 27.52954
#
# Velocity S-wave (km/s) = 3.94087 2.83060 3.43094
# Velocity P-wave (km/s) = 5.63240 5.19370 5.41749
#
# Compressibility (1/GPa) = 0.03881297
#
# Stress axis : x y z
#
# Youngs Moduli (GPa) = 65.25637 123.26564 48.57072
#
# Poissons Ratio (x) = -0.12291 0.59672
# Poissons Ratio (y) = -0.06507 -0.42171
# Poissons Ratio (z) = 0.80172 -1.07024
#
# Static dielectric constant tensor:
#      x y z
#    x 1.514080 -0.192350 0.195610 
#    y -0.192350 1.884630 0.065220 
#    z 0.195610 0.065220 1.802670 
# 
# From -- ./inp_files/340115.got.cif
#   From: 2010.05.17/outbox.cif.g08.bks.cpg/sg2_171_cif.got.tgz:340115.got - 2010.06.03 11:33:40.
