data_PCOD9098363
_publ_section_title
;
Structure prediction by ZEFSAII (Michael W. Deem and Ramdas Pophale) SiO2 
 PCOD9098363
Probable space group: P -1
;
_chemical_formula_sum "Si O2"
_cell_formula_units_Z 16
_cell_length_a 14.592718
_cell_length_b 11.436629
_cell_length_c 8.044482
_cell_angle_alpha 139.596177
_cell_angle_beta 55.081750
_cell_angle_gamma 109.250388
_cell_volume 699.154952
_symmetry_space_group_name_H-M "P -1"
_symmetry_group_IT_number 2
_symmetry_cell_setting 'triclinic'
loop_
_space_group_symop_operation_xyz
x,y,z
-x,-y,-z
loop_
_atom_site_type_symbol
_atom_site_label
_atom_site_fract_x
_atom_site_fract_y
_atom_site_fract_z
Si Si1 0.076622 0.084444 0.642807
Si Si2 0.658337 0.203405 0.240614
Si Si3 0.733371 0.782946 0.617811
Si Si4 0.146540 0.290782 0.248505
Si Si5 0.897447 0.464058 0.736730
Si Si6 0.126032 0.863814 0.834023
Si Si7 0.237988 0.713860 0.119363
Si Si8 0.569429 0.570493 0.355861
O O1 0.149668 0.203317 0.588198
O O2 0.175001 0.922723 0.439108
O O3 0.000000 0.000000 0.500000
O O4 0.980963 0.153225 0.954723
O O5 0.750194 0.202035 0.285983
O O6 0.529617 0.308582 0.520475
O O7 0.713534 0.288442 0.118487
O O8 0.666344 0.991788 0.949741
O O9 0.766152 0.704014 0.684709
O O10 0.651125 0.690675 0.488709
O O11 0.166192 0.362338 0.118290
O O12 0.032541 0.438208 0.573513
O O13 0.121548 0.082708 0.045853
O O14 0.878708 0.280165 0.461810
O O15 0.851778 0.419320 0.914275
O O16 0.346327 0.609278 0.000518
O O17 0.500000 0.500000 0.500000
#
# Coordination Sequence:
#
# PCOD9098363 Si02
#       8
#     2   2   2   2   2   2   2   2
#     4  11  18  36  61  91 122 150 200 254 312 357
#     4   9  20  39  65  88 114 158 210 251 302 354
#     4  10  20  36  65  91 117 157 201 261 300 364
#     4  10  22  36  56  91 128 160 200 239 303 384
#     4  11  23  37  57  87 133 167 194 240 309 375
#     4  11  21  39  65  88 127 167 193 251 310 366
#     4  10  20  37  57  88 119 152 202 252 297 362
#     4  10  22  38  62  89 118 154 207 263 303 344
#
# _framework density 22.884771000000001
#
# number of rings (size 3 to 8) (size 9 to 14) (size 15 to 20)
#    0.000    1.750    5.000    0.750    3.500    2.000 
#    2.250    2.500    0.000    1.500    0.000    0.000 
#    0.000    0.000    0.000    0.000    0.000    0.000 
#
# Total GULP energy -89222.144830 kJ/mol
# GULP energy per Si atom -5576.384052 kJ/mol
# Density = 2.283268 g / cm^3
# Si number density = 22.884771 Si / 1000 Ang^3
#
#
#
# Elastic Constant Matrix: (Units=GPa)
#
#
# Indices 1 2 3 4 5 6 
#
# 1 123.9214 23.0686 43.9813 17.2765 -25.2587 -1.7631
# 2 23.0686 83.9744 8.0302 14.0547 -2.2689 -8.2982
# 3 43.9813 8.0302 85.8288 24.0528 -19.2697 0.8598
# 4 17.2765 14.0547 24.0528 28.9538 -2.9302 -8.6545
# 5 -25.2587 -2.2689 -19.2697 -2.9302 34.6904 8.2277
# 6 -1.7631 -8.2982 0.8598 -8.6545 8.2277 34.8789
#
#
#
# Elastic Compliance Matrix: (Units=1/GPa)
#
#
# Indices 1 2 3 4 5 6 
#
# 1 0.011398 -0.002369 -0.003313 -0.002883 0.006575 -0.002172
# 2 -0.002369 0.013563 0.001321 -0.005812 -0.001040 0.001878
# 3 -0.003313 0.001321 0.019794 -0.016136 0.008831 -0.006428
# 4 -0.002883 -0.005812 -0.016136 0.055981 -0.010317 0.015194
# 5 0.006575 -0.001040 0.008831 -0.010317 0.040483 -0.012242
# 6 -0.002172 0.001878 -0.006428 0.015194 -0.012242 0.035824
#
#
# Mechanical properties :
#
#
# Convention : Reuss Voigt Hill
#
# Bulk Modulus (GPa) = 27.75178 49.32056 38.53617
# Shear Modulus (GPa) = 25.28121 34.28091 29.78106
#
# Velocity S-wave (km/s) = 3.32733 3.87457 3.61133
# Velocity P-wave (km/s) = 5.18793 6.45096 5.85361
#
# Compressibility (1/GPa) = 0.03603372
#
# Stress axis : x y z
#
# Youngs Moduli (GPa) = 87.73764 73.73026 50.51991
#
# Poissons Ratio (x) = 0.17465 0.16738
# Poissons Ratio (y) = 0.20783 -0.06675
# Poissons Ratio (z) = 0.29068 -0.09742
#
# Static dielectric constant tensor:
#      x y z
#    x 1.858980 -0.022460 -0.014590 
#    y -0.022460 1.936680 -0.010680 
#    z -0.014590 -0.010680 2.000920 
# 
# From -- ./inp_files/308675.got.cif
#   From: 2010.05.17/outbox.cif.g08.bks.cpg/sg2_155_cif.got.tgz:308675.got - 2010.06.03 11:33:40.
