data_PCOD9098666
_publ_section_title
;
Structure prediction by ZEFSAII (Michael W. Deem and Ramdas Pophale) SiO2 
 PCOD9098666
Probable space group: P -1
;
_chemical_formula_sum "Si O2"
_cell_formula_units_Z 16
_cell_length_a 9.135254
_cell_length_b 11.701953
_cell_length_c 27.058683
_cell_angle_alpha 159.582069
_cell_angle_beta 129.072251
_cell_angle_gamma 50.113544
_cell_volume 769.657015
_symmetry_space_group_name_H-M "P -1"
_symmetry_group_IT_number 2
_symmetry_cell_setting 'triclinic'
loop_
_space_group_symop_operation_xyz
x,y,z
-x,-y,-z
loop_
_atom_site_type_symbol
_atom_site_label
_atom_site_fract_x
_atom_site_fract_y
_atom_site_fract_z
Si Si1 0.941014 0.504948 0.431418
Si Si2 0.332155 0.545448 0.521473
Si Si3 0.243221 0.725704 0.316399
Si Si4 0.528634 0.585270 0.965681
Si Si5 0.937030 0.392611 0.996952
Si Si6 0.562076 0.334482 0.297263
Si Si7 0.848114 0.690465 0.200663
Si Si8 0.656477 0.699615 0.929642
O O1 0.775059 0.295996 0.303564
O O2 0.000000 0.500000 0.500000
O O3 0.152010 0.366510 0.398021
O O4 0.834604 0.876704 0.542770
O O5 0.500000 0.500000 0.500000
O O6 0.416059 0.511312 0.581200
O O7 0.228492 0.927084 0.650185
O O8 0.405943 0.583039 0.332716
O O9 0.318586 0.588961 0.223251
O O10 0.050063 0.574869 0.224400
O O11 0.718457 0.332471 0.923779
O O12 0.326530 0.488609 0.895930
O O13 0.577271 0.590048 0.920033
O O14 0.518804 0.961323 0.136599
O O15 0.903932 0.666125 0.144761
O O16 0.000000 0.500000 0.000000
O O17 0.138701 0.177944 0.971180
O O18 0.500000 0.000000 0.000000
#
# Coordination Sequence:
#
# PCOD9098666 Si02
#       8
#     2   2   2   2   2   2   2   2
#     4   9  21  40  65  85 112 158 208 257 298 355
#     4  10  22  42  60  86 118 159 207 258 307 357
#     4  10  21  40  62  85 122 163 199 251 312 362
#     4  11  21  36  59  92 122 161 195 254 307 365
#     4   9  19  35  58  84 116 158 203 241 293 358
#     4  11  21  38  63  86 119 156 210 251 307 367
#     4  10  21  39  59  87 129 157 198 253 311 366
#     4  10  20  37  55  89 125 155 198 246 299 372
#
# _framework density 20.788481000000001
#
# number of rings (size 3 to 8) (size 9 to 14) (size 15 to 20)
#    0.000    2.000    2.500    0.750    1.750    2.500 
#    4.500    3.750    0.000    0.000    0.000    0.000 
#    0.000    0.000    0.000    0.000    0.000    0.000 
#
# Total GULP energy -89089.117084 kJ/mol
# GULP energy per Si atom -5568.069818 kJ/mol
# Density = 2.074117 g / cm^3
# Si number density = 20.788481 Si / 1000 Ang^3
#
#
#
# Elastic Constant Matrix: (Units=GPa)
#
#
# Indices 1 2 3 4 5 6 
#
# 1 135.1140 51.6702 21.0966 -16.1064 -0.1057 -25.5006
# 2 51.6702 152.9993 20.1933 -13.7825 6.5934 -30.0626
# 3 21.0966 20.1933 33.6738 -3.6893 6.0826 -7.1420
# 4 -16.1064 -13.7825 -3.6893 22.2122 -4.0753 1.6364
# 5 -0.1057 6.5934 6.0826 -4.0753 44.0343 -9.2538
# 6 -25.5006 -30.0626 -7.1420 1.6364 -9.2538 29.4291
#
#
#
# Elastic Compliance Matrix: (Units=1/GPa)
#
#
# Indices 1 2 3 4 5 6 
#
# 1 0.010697 -0.001094 -0.004255 0.006351 0.002984 0.007705
# 2 -0.001094 0.009132 -0.002888 0.004011 0.001036 0.007783
# 3 -0.004255 -0.002888 0.034988 0.000109 -0.004296 0.000496
# 4 0.006351 0.004011 0.000109 0.052613 0.006079 0.008613
# 5 0.002984 0.001036 -0.004296 0.006079 0.025905 0.010409
# 6 0.007705 0.007783 0.000496 0.008613 0.010409 0.051521
#
#
# Mechanical properties :
#
#
# Convention : Reuss Voigt Hill
#
# Bulk Modulus (GPa) = 26.07999 56.41193 41.24596
# Shear Modulus (GPa) = 23.35217 34.39025 28.87121
#
# Velocity S-wave (km/s) = 3.35524 4.07171 3.73071
# Velocity P-wave (km/s) = 5.25193 7.02141 6.20012
#
# Compressibility (1/GPa) = 0.03834357
#
# Stress axis : x y z
#
# Youngs Moduli (GPa) = 93.48074 109.49950 28.58134
#
# Poissons Ratio (x) = 0.11975 0.12162
# Poissons Ratio (y) = 0.10223 0.08255
# Poissons Ratio (z) = 0.39778 0.31627
#
# Static dielectric constant tensor:
#      x y z
#    x 1.736690 -0.033580 0.041430 
#    y -0.033580 1.764750 -0.040720 
#    z 0.041430 -0.040720 1.833360 
# 
# From -- ./inp_files/208745.got.cif
#   From: 2010.05.17/outbox.cif.g08.bks.cpg/sg2_105_cif.got.tgz:208745.got - 2010.06.03 11:33:40.
