data_PCOD9098074
_publ_section_title
;
Structure prediction by ZEFSAII (Michael W. Deem and Ramdas Pophale) SiO2 
 PCOD9098074
Probable space group: P -1
;
_chemical_formula_sum "Si O2"
_cell_formula_units_Z 15
_cell_length_a 11.288428
_cell_length_b 9.625146
_cell_length_c 12.591307
_cell_angle_alpha 44.410502
_cell_angle_beta 125.707702
_cell_angle_gamma 94.105695
_cell_volume 617.365680
_symmetry_space_group_name_H-M "P -1"
_symmetry_group_IT_number 2
_symmetry_cell_setting 'triclinic'
loop_
_space_group_symop_operation_xyz
x,y,z
-x,-y,-z
loop_
_atom_site_type_symbol
_atom_site_label
_atom_site_fract_x
_atom_site_fract_y
_atom_site_fract_z
Si Si1 0.306091 0.049775 0.778728
Si Si2 0.000000 0.000000 0.500000
Si Si3 0.366647 0.466062 0.270638
Si Si4 0.119926 0.077750 0.071044
Si Si5 0.946070 0.899652 0.747393
Si Si6 0.848176 0.659189 0.661222
Si Si7 0.393583 0.868272 0.140375
Si Si8 0.393321 0.563820 0.017117
O O1 0.172614 0.162415 0.543169
O O2 0.254197 0.065637 0.865826
O O3 0.420866 0.755782 0.981350
O O4 0.428065 0.143187 0.776594
O O5 0.820627 0.275046 0.212741
O O6 0.074959 0.926235 0.452645
O O7 0.335094 0.308675 0.418314
O O8 0.439673 0.371700 0.240437
O O9 0.154215 0.710922 0.002803
O O10 0.445804 0.595093 0.298290
O O11 0.288212 0.975793 0.136722
O O12 0.997407 0.378010 0.853832
O O13 0.169212 0.977854 0.272050
O O14 0.000000 0.000000 0.000000
O O15 0.896641 0.737360 0.749741
O O16 0.500000 0.500000 0.000000
#
# Coordination Sequence:
#
# PCOD9098074 Si02
#       8
#     2   1   2   2   2   2   2   2
#     4  10  23  41  62  88 128 169 209 262 321 380
#     4  10  20  40  64  90 132 164 208 278 324 374
#     4   9  19  37  61  86 126 168 195 261 333 365
#     4  11  21  38  62  95 123 164 218 255 318 391
#     4  10  20  36  63  92 124 164 206 267 328 369
#     4  11  21  38  64  94 121 161 210 266 323 370
#     4  10  21  42  61  85 129 170 203 261 322 385
#     4  10  21  40  63  91 125 171 214 256 329 388
#
# _framework density 24.296783000000001
#
# number of rings (size 3 to 8) (size 9 to 14) (size 15 to 20)
#    0.000    1.867    4.000    1.600    0.000    4.267 
#    2.400    4.000    0.000    0.000    0.000    0.000 
#    0.000    0.000    0.000    0.000    0.000    0.000 
#
# Total GULP energy -83516.932409 kJ/mol
# GULP energy per Si atom -5567.795494 kJ/mol
# Density = 2.424148 g / cm^3
# Si number density = 24.296783 Si / 1000 Ang^3
#
#
#
# Elastic Constant Matrix: (Units=GPa)
#
#
# Indices 1 2 3 4 5 6 
#
# 1 140.4249 46.8913 21.0724 10.5175 -35.9456 -33.5989
# 2 46.8913 115.6723 12.1223 17.4209 -11.2272 -15.7502
# 3 21.0724 12.1223 82.9059 28.8025 -26.7937 -20.2059
# 4 10.5175 17.4209 28.8025 29.4411 -5.6091 -15.2825
# 5 -35.9456 -11.2272 -26.7937 -5.6091 52.7310 17.2856
# 6 -33.5989 -15.7502 -20.2059 -15.2825 17.2856 62.4490
#
#
#
# Elastic Compliance Matrix: (Units=1/GPa)
#
#
# Indices 1 2 3 4 5 6 
#
# 1 0.010370 -0.003373 0.000073 0.001073 0.005343 0.003536
# 2 -0.003373 0.010871 0.001704 -0.007007 0.000235 -0.000301
# 3 0.000073 0.001704 0.022077 -0.020893 0.009446 -0.000115
# 4 0.001073 -0.007007 -0.020893 0.061483 -0.007877 0.009277
# 5 0.005343 0.000235 0.009446 -0.007877 0.027810 -0.003635
# 6 0.003536 -0.000301 -0.000115 0.009277 -0.003635 0.021079
#
#
# Mechanical properties :
#
#
# Convention : Reuss Voigt Hill
#
# Bulk Modulus (GPa) = 24.92067 55.46392 40.19229
# Shear Modulus (GPa) = 29.36745 46.18535 37.77640
#
# Velocity S-wave (km/s) = 3.48040 4.36464 3.94736
# Velocity P-wave (km/s) = 5.14101 6.94819 6.11177
#
# Compressibility (1/GPa) = 0.04012733
#
# Stress axis : x y z
#
# Youngs Moduli (GPa) = 96.43260 91.98913 45.29533
#
# Poissons Ratio (x) = 0.31028 -0.00331
# Poissons Ratio (y) = 0.32527 -0.07720
# Poissons Ratio (z) = -0.00705 -0.15679
#
# Static dielectric constant tensor:
#      x y z
#    x 2.088370 -0.050730 0.084640 
#    y -0.050730 1.951890 0.096850 
#    z 0.084640 0.096850 2.101760 
# 
# From -- ./inp_files/184368.got.cif
#   From: 2010.05.17/outbox.cif.g08.bks.cpg/sg2_93_cif.got.tgz:184368.got - 2010.06.03 11:33:40.
