data_PCOD9098223
_publ_section_title
;
Structure prediction by ZEFSAII (Michael W. Deem and Ramdas Pophale) SiO2 
 PCOD9098223
Probable space group: P -1
;
_chemical_formula_sum "Si O2"
_cell_formula_units_Z 14
_cell_length_a 6.168573
_cell_length_b 11.032268
_cell_length_c 13.308881
_cell_angle_alpha 42.949915
_cell_angle_beta 77.501526
_cell_angle_gamma 64.463596
_cell_volume 549.546741
_symmetry_space_group_name_H-M "P -1"
_symmetry_group_IT_number 2
_symmetry_cell_setting 'triclinic'
loop_
_space_group_symop_operation_xyz
x,y,z
-x,-y,-z
loop_
_atom_site_type_symbol
_atom_site_label
_atom_site_fract_x
_atom_site_fract_y
_atom_site_fract_z
Si Si1 0.951335 0.752848 0.746036
Si Si2 0.246783 0.823521 0.487986
Si Si3 0.027958 0.633677 0.503295
Si Si4 0.610680 0.618236 0.063756
Si Si5 0.675207 0.629972 0.701313
Si Si6 0.217938 0.145194 0.951635
Si Si7 0.163511 0.003463 0.829700
O O1 0.740110 0.692752 0.763818
O O2 0.061511 0.801681 0.602314
O O3 0.173239 0.577657 0.884978
O O4 0.844019 0.963007 0.681072
O O5 0.474082 0.793571 0.554084
O O6 0.271239 0.655165 0.506816
O O7 0.909819 0.569324 0.646340
O O8 0.000000 0.500000 0.500000
O O9 0.878215 0.856095 0.346056
O O10 0.424960 0.535014 0.178138
O O11 0.758323 0.679876 0.095302
O O12 0.425063 0.818472 0.910134
O O13 0.141060 0.139712 0.847187
O O14 0.046650 0.072058 0.079232
O O15 0.500000 0.000000 0.000000
#
# Coordination Sequence:
#
# PCOD9098223 Si02
#       7
#     2   2   2   2   2   2   2
#     4   9  18  36  63  89 116 153 206 251 293 352
#     4   9  20  38  58  88 123 158 196 247 302 353
#     4  11  26  38  58  88 130 160 194 241 305 368
#     4  10  20  36  64  91 114 153 207 250 295 351
#     4  10  21  37  63  91 120 154 201 250 302 349
#     4   9  20  35  59  82 115 158 205 242 287 349
#     4  10  22  38  57  84 124 161 196 246 296 357
#
# _framework density 25.475539000000001
#
# number of rings (size 3 to 8) (size 9 to 14) (size 15 to 20)
#    0.000    2.286    0.000    1.286   12.000    4.000 
#    0.000    0.714    0.000    4.286    0.000    0.000 
#    0.000    0.000    0.000    0.000    0.000    0.000 
#
# Total GULP energy -78085.592891 kJ/mol
# GULP energy per Si atom -5577.542349 kJ/mol
# Density = 2.541756 g / cm^3
# Si number density = 25.475539 Si / 1000 Ang^3
#
#
#
# Elastic Constant Matrix: (Units=GPa)
#
#
# Indices 1 2 3 4 5 6 
#
# 1 140.3302 42.6939 52.0327 -13.5083 -9.6593 21.8988
# 2 42.6939 74.1139 22.4143 -17.4568 -8.2738 12.5150
# 3 52.0327 22.4143 124.1432 -17.4997 8.6672 -11.0135
# 4 -13.5083 -17.4568 -17.4997 41.9386 -8.8488 -0.9644
# 5 -9.6593 -8.2738 8.6672 -8.8488 43.3628 -12.5062
# 6 21.8988 12.5150 -11.0135 -0.9644 -12.5062 33.2105
#
#
#
# Elastic Compliance Matrix: (Units=1/GPa)
#
#
# Indices 1 2 3 4 5 6 
#
# 1 0.011185 -0.003703 -0.004702 0.000065 0.000633 -0.007299
# 2 -0.003703 0.018579 -0.001428 0.006560 0.003307 -0.003598
# 3 -0.004702 -0.001428 0.011347 0.002574 -0.001017 0.007093
# 4 0.000065 0.006560 0.002574 0.029250 0.007277 0.001928
# 5 0.000633 0.003307 -0.001017 0.007277 0.028052 0.008774
# 6 -0.007299 -0.003598 0.007093 0.001928 0.008774 0.041992
#
#
# Mechanical properties :
#
#
# Convention : Reuss Voigt Hill
#
# Bulk Modulus (GPa) = 46.62845 63.65211 55.14028
# Shear Modulus (GPa) = 29.90095 38.46549 34.18322
#
# Velocity S-wave (km/s) = 3.42966 3.88996 3.66704
# Velocity P-wave (km/s) = 5.83322 6.72425 6.29452
#
# Compressibility (1/GPa) = 0.02144613
#
# Stress axis : x y z
#
# Youngs Moduli (GPa) = 89.40701 53.82320 88.12906
#
# Poissons Ratio (x) = 0.19928 0.41438
# Poissons Ratio (y) = 0.33103 0.12585
# Poissons Ratio (z) = 0.42039 0.07686
#
# Static dielectric constant tensor:
#      x y z
#    x 2.075260 0.033160 0.061610 
#    y 0.033160 2.075060 -0.029570 
#    z 0.061610 -0.029570 1.998710 
# 
# From -- ./inp_files/78837.got.cif
#   From: 2010.05.17/outbox.cif.g08.bks.cpg/sg2_40_cif.got.tgz:78837.got - 2010.06.03 11:33:40.
