data_PCOD9098331
_publ_section_title
;
Structure prediction by ZEFSAII (Michael W. Deem and Ramdas Pophale) SiO2 
 PCOD9098331
Probable space group: P -1
;
_chemical_formula_sum "Si O2"
_cell_formula_units_Z 16
_cell_length_a 9.830908
_cell_length_b 8.518533
_cell_length_c 13.192154
_cell_angle_alpha 84.618041
_cell_angle_beta 108.852929
_cell_angle_gamma 47.578885
_cell_volume 690.675866
_symmetry_space_group_name_H-M "P -1"
_symmetry_group_IT_number 2
_symmetry_cell_setting 'triclinic'
loop_
_space_group_symop_operation_xyz
x,y,z
-x,-y,-z
loop_
_atom_site_type_symbol
_atom_site_label
_atom_site_fract_x
_atom_site_fract_y
_atom_site_fract_z
Si Si1 0.665981 0.333494 0.325902
Si Si2 0.546398 0.286338 0.492213
Si Si3 0.560902 0.969169 0.802285
Si Si4 0.159057 0.837151 0.953725
Si Si5 0.297458 0.233241 0.371066
Si Si6 0.736247 0.119458 0.758359
Si Si7 0.106491 0.514013 0.618181
Si Si8 0.485754 0.717915 0.906193
O O1 0.689757 0.186859 0.431736
O O2 0.426456 0.610452 0.261836
O O3 0.820681 0.360199 0.379169
O O4 0.648366 0.252072 0.221645
O O5 0.500000 0.500000 0.500000
O O6 0.318102 0.396724 0.403003
O O7 0.651072 0.129264 0.628310
O O8 0.641354 0.818387 0.728023
O O9 0.544527 0.849403 0.889579
O O10 0.718592 0.990309 0.841412
O O11 0.326347 0.240197 0.712960
O O12 0.338950 0.815465 0.964530
O O13 0.296980 0.564207 0.013826
O O14 0.980563 0.970561 0.814658
O O15 0.000000 0.000000 0.000000
O O16 0.069486 0.353920 0.343152
O O17 0.500000 0.000000 0.500000
O O18 0.000000 0.500000 0.500000
#
# Coordination Sequence:
#
# PCOD9098331 Si02
#       8
#     2   2   2   2   2   2   2   2
#     4  10  21  39  65 100 133 170 220 262 317 394
#     4  10  20  36  64  99 135 170 211 258 318 392
#     4  11  24  41  63  99 131 166 220 265 319 392
#     4  11  25  47  72  91 129 167 220 281 333 376
#     4  12  21  39  62  91 138 177 207 255 320 390
#     4  10  21  41  66  93 135 176 207 268 331 375
#     4  11  23  39  59  92 141 179 208 259 320 377
#     4  11  25  44  69 100 123 168 228 271 321 393
#
# _framework density 23.165714000000001
#
# number of rings (size 3 to 8) (size 9 to 14) (size 15 to 20)
#    0.000    1.250    5.000    1.500    1.750    4.500 
#    0.000    2.500    0.000    0.000    0.000    0.000 
#    0.000    0.000    0.000    0.000    0.000    0.000 
#
# Total GULP energy -89279.969120 kJ/mol
# GULP energy per Si atom -5579.998070 kJ/mol
# Density = 2.311299 g / cm^3
# Si number density = 23.165714 Si / 1000 Ang^3
#
#
#
# Elastic Constant Matrix: (Units=GPa)
#
#
# Indices 1 2 3 4 5 6 
#
# 1 136.7832 28.3169 18.9575 -21.6896 -15.3284 -21.0586
# 2 28.3169 74.3204 10.6025 6.7703 -0.9815 -30.0329
# 3 18.9575 10.6025 34.9401 0.3541 -4.4671 -9.9439
# 4 -21.6896 6.7703 0.3541 28.5549 0.5808 4.7243
# 5 -15.3284 -0.9815 -4.4671 0.5808 41.5541 -1.1038
# 6 -21.0586 -30.0329 -9.9439 4.7243 -1.1038 40.8316
#
#
#
# Elastic Compliance Matrix: (Units=1/GPa)
#
#
# Indices 1 2 3 4 5 6 
#
# 1 0.010548 -0.003958 -0.004020 0.008832 0.003258 0.000616
# 2 -0.003958 0.022239 -0.000120 -0.010839 -0.000384 0.015530
# 3 -0.004020 -0.000120 0.033019 -0.004551 0.002299 0.006469
# 4 0.008832 -0.010839 -0.004551 0.045943 0.001610 -0.009798
# 5 0.003258 -0.000384 0.002299 0.001610 0.025548 0.002463
# 6 0.000616 0.015530 0.006469 -0.009798 0.002463 0.039007
#
#
# Mechanical properties :
#
#
# Convention : Reuss Voigt Hill
#
# Bulk Modulus (GPa) = 20.15722 40.19974 30.17848
# Shear Modulus (GPa) = 23.91941 34.73258 29.32599
#
# Velocity S-wave (km/s) = 3.21679 3.87629 3.56184
# Velocity P-wave (km/s) = 4.74523 6.11760 5.47459
#
# Compressibility (1/GPa) = 0.04961001
#
# Stress axis : x y z
#
# Youngs Moduli (GPa) = 94.80716 44.96690 30.28579
#
# Poissons Ratio (x) = 0.17798 0.12173
# Poissons Ratio (y) = 0.37524 0.00364
# Poissons Ratio (z) = 0.38108 0.00540
#
# Static dielectric constant tensor:
#      x y z
#    x 2.018400 0.014710 -0.116300 
#    y 0.014710 2.044680 0.173290 
#    z -0.116300 0.173290 2.085990 
# 
# From -- ./inp_files/201290.got.cif
#   From: 2010.05.17/outbox.cif.g08.bks.cpg/sg2_101_cif.got.tgz:201290.got - 2010.06.03 11:33:40.
