data_PCOD9098411
_publ_section_title
;
Structure prediction by ZEFSAII (Michael W. Deem and Ramdas Pophale) SiO2 
 PCOD9098411
Probable space group: P -1
;
_chemical_formula_sum "Si O2"
_cell_formula_units_Z 13
_cell_length_a 14.016192
_cell_length_b 7.194312
_cell_length_c 9.535033
_cell_angle_alpha 121.171715
_cell_angle_beta 95.226848
_cell_angle_gamma 44.802243
_cell_volume 515.313117
_symmetry_space_group_name_H-M "P -1"
_symmetry_group_IT_number 2
_symmetry_cell_setting 'triclinic'
loop_
_space_group_symop_operation_xyz
x,y,z
-x,-y,-z
loop_
_atom_site_type_symbol
_atom_site_label
_atom_site_fract_x
_atom_site_fract_y
_atom_site_fract_z
Si Si1 0.000000 0.000000 0.500000
Si Si2 0.195451 0.770834 0.678453
Si Si3 0.494846 0.898937 0.614349
Si Si4 0.733922 0.273503 0.748641
Si Si5 0.149650 0.092252 0.089847
Si Si6 0.559859 0.166556 0.944036
Si Si7 0.193027 0.297595 0.621212
O O1 0.067629 0.031588 0.649482
O O2 0.156639 0.770654 0.343065
O O3 0.363146 0.515087 0.536641
O O4 0.182174 0.534893 0.617780
O O5 0.171628 0.936093 0.884202
O O6 0.500000 0.000000 0.500000
O O7 0.529681 0.027027 0.778078
O O8 0.325268 0.102458 0.677305
O O9 0.792615 0.163990 0.874795
O O10 0.757840 0.986882 0.582664
O O11 0.556852 0.651652 0.871279
O O12 0.973966 0.443493 0.237624
O O13 0.263319 0.097938 0.108610
O O14 0.500000 0.500000 0.000000
#
# Coordination Sequence:
#
# PCOD9098411 Si02
#       7
#     1   2   2   2   2   2   2
#     4  12  28  40  66  96 144 172 210 272 344 388
#     4  11  23  42  66  98 136 171 218 270 333 383
#     4  10  20  36  65  98 129 163 217 274 322 373
#     4  11  23  42  66  98 136 171 218 270 333 383
#     4  11  21  38  73  99 124 169 231 272 308 385
#     4  10  20  36  65  98 129 163 217 274 322 373
#     4  11  21  38  73  99 124 169 231 272 308 385
#
# _framework density 25.227383
#
# number of rings (size 3 to 8) (size 9 to 14) (size 15 to 20)
#    0.000    1.231    1.538    9.231    4.308    0.000 
#    0.000    4.615    0.000    0.000    0.000    0.000 
#    0.000    0.000    0.000    0.000    0.000    0.000 
#
# Total GULP energy -72573.260943 kJ/mol
# GULP energy per Si atom -5582.558534 kJ/mol
# Density = 2.516996 g / cm^3
# Si number density = 25.227383 Si / 1000 Ang^3
#
#
#
# Elastic Constant Matrix: (Units=GPa)
#
#
# Indices 1 2 3 4 5 6 
#
# 1 121.3263 68.9395 56.1543 19.9421 -39.0539 -38.2044
# 2 68.9395 74.9694 35.4209 11.2825 3.0463 -32.8803
# 3 56.1543 35.4209 174.6192 7.7841 -4.7788 -24.8034
# 4 19.9421 11.2825 7.7841 33.5167 -16.0265 -7.1805
# 5 -39.0539 3.0463 -4.7788 -16.0265 46.1614 18.8513
# 6 -38.2044 -32.8803 -24.8034 -7.1805 18.8513 66.3675
#
#
#
# Elastic Compliance Matrix: (Units=1/GPa)
#
#
# Indices 1 2 3 4 5 6 
#
# 1 0.076098 -0.081636 -0.009640 0.020271 0.084854 -0.022151
# 2 -0.081636 0.108688 0.007776 -0.030249 -0.100210 0.034951
# 3 -0.009640 0.007776 0.007631 -0.002817 -0.010412 0.003808
# 4 0.020271 -0.030249 -0.002817 0.044878 0.038730 -0.010516
# 5 0.084854 -0.100210 -0.010412 0.038730 0.127419 -0.036694
# 6 -0.022151 0.034951 0.003808 -0.010516 -0.036694 0.030340
#
#
# Mechanical properties :
#
#
# Convention : Reuss Voigt Hill
#
# Bulk Modulus (GPa) = 39.34412 76.88271 58.11342
# Shear Modulus (GPa) = 8.76384 43.23580 25.99982
#
# Velocity S-wave (km/s) = 1.86587 4.14435 3.21381
# Velocity P-wave (km/s) = 4.50240 7.31047 6.07102
#
# Compressibility (1/GPa) = 0.02541676
#
# Stress axis : x y z
#
# Youngs Moduli (GPa) = 13.14099 9.20064 131.04652
#
# Poissons Ratio (x) = 0.75111 1.26326
# Poissons Ratio (y) = 1.07278 -1.01905
# Poissons Ratio (z) = 0.12668 -0.07155
#
# Static dielectric constant tensor:
#      x y z
#    x 2.015590 -0.015420 -0.044670 
#    y -0.015420 2.164390 0.028280 
#    z -0.044670 0.028280 1.926900 
# 
# From -- ./inp_files/296880.got.cif
#   From: 2010.05.17/outbox.cif.g08.bks.cpg/sg2_149_cif.got.tgz:296880.got - 2010.06.03 11:33:40.
