data_PCOD9098045
_publ_section_title
;
Structure prediction by ZEFSAII (Michael W. Deem and Ramdas Pophale) SiO2 
 PCOD9098045
Probable space group: P -1
;
_chemical_formula_sum "Si O2"
_cell_formula_units_Z 16
_cell_length_a 8.643408
_cell_length_b 12.635675
_cell_length_c 18.598737
_cell_angle_alpha 139.158136
_cell_angle_beta 148.607528
_cell_angle_gamma 53.193723
_cell_volume 685.433784
_symmetry_space_group_name_H-M "P -1"
_symmetry_group_IT_number 2
_symmetry_cell_setting 'triclinic'
loop_
_space_group_symop_operation_xyz
x,y,z
-x,-y,-z
loop_
_atom_site_type_symbol
_atom_site_label
_atom_site_fract_x
_atom_site_fract_y
_atom_site_fract_z
Si Si1 0.181405 0.381176 0.557604
Si Si2 0.382690 0.858818 0.742200
Si Si3 0.802254 0.850709 0.033300
Si Si4 0.212987 0.632734 0.990655
Si Si5 0.286876 0.428248 0.043118
Si Si6 0.778410 0.639521 0.697332
Si Si7 0.334527 0.048552 0.684296
Si Si8 0.750135 0.834411 0.650817
O O1 0.417189 0.475443 0.753423
O O2 0.354715 0.283171 0.517438
O O3 0.000000 0.500000 0.500000
O O4 0.932106 0.257500 0.436247
O O5 0.626231 0.769286 0.750261
O O6 0.353341 0.009222 0.756043
O O7 0.523376 0.880855 0.888420
O O8 0.984994 0.728218 0.996688
O O9 0.727248 0.756097 0.029056
O O10 0.016513 0.019527 0.212342
O O11 0.276358 0.475496 0.979827
O O12 0.504021 0.768743 0.170695
O O13 0.044161 0.590256 0.826450
O O14 0.000000 0.500000 0.000000
O O15 0.500000 0.500000 0.500000
O O16 0.886203 0.724921 0.709071
O O17 0.512343 0.924982 0.645571
O O18 0.000000 0.000000 0.500000
#
# Coordination Sequence:
#
# PCOD9098045 Si02
#       8
#     2   2   2   2   2   2   2   2
#     4  12  23  40  66  99 130 170 219 269 322 391
#     4  10  20  36  63  90 127 169 213 264 328 379
#     4   9  18  38  59  95 125 172 208 269 322 386
#     4   9  19  36  64  92 124 173 219 256 335 391
#     4  10  21  38  63  88 130 180 209 261 336 379
#     4  10  20  37  67  93 125 166 219 272 325 388
#     4  10  20  40  64  92 131 175 215 270 329 386
#     4  10  23  38  67  99 126 163 225 267 322 387
#
# _framework density 23.342883
#
# number of rings (size 3 to 8) (size 9 to 14) (size 15 to 20)
#    0.000    2.000    1.250    2.250    3.500    3.500 
#    0.000   10.000    5.500    4.500    0.000    0.000 
#    0.000    0.000    0.000    0.000    0.000    0.000 
#
# Total GULP energy -89502.110954 kJ/mol
# GULP energy per Si atom -5593.881935 kJ/mol
# Density = 2.328975 g / cm^3
# Si number density = 23.342883 Si / 1000 Ang^3
#
#
#
# Elastic Constant Matrix: (Units=GPa)
#
#
# Indices 1 2 3 4 5 6 
#
# 1 90.7519 57.9778 32.0016 -3.0806 0.8626 12.5500
# 2 57.9778 126.5429 62.5238 -10.2713 -1.6491 53.4234
# 3 32.0016 62.5238 129.7039 -19.6748 7.9065 22.8178
# 4 -3.0806 -10.2713 -19.6748 29.1552 0.5293 3.3598
# 5 0.8626 -1.6491 7.9065 0.5293 35.5964 4.9586
# 6 12.5500 53.4234 22.8178 3.3598 4.9586 57.0704
#
#
#
# Elastic Compliance Matrix: (Units=1/GPa)
#
#
# Indices 1 2 3 4 5 6 
#
# 1 0.016992 -0.010600 -0.000648 -0.003126 -0.001656 0.006773
# 2 -0.010600 0.023532 -0.004870 0.005930 0.004921 -0.018527
# 3 -0.000648 -0.004870 0.011259 0.005854 -0.002811 0.000099
# 4 -0.003126 0.005930 0.005854 0.041119 -0.000223 -0.009605
# 5 -0.001656 0.004921 -0.002811 -0.000223 0.029782 -0.005693
# 6 0.006773 -0.018527 0.000099 -0.009605 -0.005693 0.034397
#
#
# Mechanical properties :
#
#
# Convention : Reuss Voigt Hill
#
# Bulk Modulus (GPa) = 51.15266 72.44503 61.79884
# Shear Modulus (GPa) = 25.53212 37.33077 31.43145
#
# Velocity S-wave (km/s) = 3.31083 4.00338 3.67346
# Velocity P-wave (km/s) = 6.04786 7.24375 6.67265
#
# Compressibility (1/GPa) = 0.01954933
#
# Stress axis : x y z
#
# Youngs Moduli (GPa) = 58.85002 42.49478 88.81870
#
# Poissons Ratio (x) = 0.45045 0.05751
# Poissons Ratio (y) = 0.62381 0.43250
# Poissons Ratio (z) = 0.03811 0.20693
#
# Static dielectric constant tensor:
#      x y z
#    x 1.900730 -0.019350 -0.022920 
#    y -0.019350 1.907960 0.017860 
#    z -0.022920 0.017860 1.799190 
# 
# From -- ./inp_files/333718.got.cif
#   From: 2010.05.17/outbox.cif.g08.bks.cpg/sg2_167_cif.got.tgz:333718.got - 2010.06.03 11:33:40.
