data_PCOD9098024
_publ_section_title
;
Structure prediction by ZEFSAII (Michael W. Deem and Ramdas Pophale) SiO2 
 PCOD9098024
Probable space group: P -1
;
_chemical_formula_sum "Si O2"
_cell_formula_units_Z 16
_cell_length_a 15.116351
_cell_length_b 12.362582
_cell_length_c 7.433332
_cell_angle_alpha 63.737017
_cell_angle_beta 75.577336
_cell_angle_gamma 31.447397
_cell_volume 624.949540
_symmetry_space_group_name_H-M "P -1"
_symmetry_group_IT_number 2
_symmetry_cell_setting 'triclinic'
loop_
_space_group_symop_operation_xyz
x,y,z
-x,-y,-z
loop_
_atom_site_type_symbol
_atom_site_label
_atom_site_fract_x
_atom_site_fract_y
_atom_site_fract_z
Si Si1 0.353410 0.762154 0.322355
Si Si2 0.960686 0.098487 0.186572
Si Si3 0.382233 0.962467 0.974360
Si Si4 0.941060 0.684464 0.293715
Si Si5 0.827214 0.432491 0.288168
Si Si6 0.793755 0.895284 0.556080
Si Si7 0.851550 0.330411 0.715075
Si Si8 0.633824 0.847225 0.836788
O O1 0.500000 0.500000 0.500000
O O2 0.164770 0.921437 0.225508
O O3 0.309165 0.893740 0.423278
O O4 0.426230 0.773852 0.126440
O O5 0.868761 0.263321 0.281734
O O6 0.995284 0.917408 0.286242
O O7 0.840033 0.263667 0.950254
O O8 0.469139 0.949112 0.786676
O O9 0.169414 0.212979 0.902276
O O10 0.433788 0.976926 0.116678
O O11 0.790151 0.916147 0.327551
O O12 0.000000 0.500000 0.500000
O O13 0.094460 0.606042 0.265942
O O14 0.735526 0.498976 0.476842
O O15 0.002837 0.306087 0.351821
O O16 0.745162 0.618471 0.051018
O O17 0.740829 0.815831 0.677773
#
# Coordination Sequence:
#
# PCOD9098024 Si02
#       8
#     2   2   2   2   2   2   2   2
#     4  10  21  40  63  83 119 167 196 242 309 358
#     4  10  21  38  62  85 123 151 207 256 291 363
#     4  10  21  39  58  86 123 152 202 248 296 368
#     4  11  22  39  63  88 122 158 194 254 310 351
#     4  10  20  36  63  88 118 156 199 250 311 355
#     4   9  21  38  60  87 120 151 206 246 296 365
#     4  10  21  37  56  91 116 152 198 250 293 354
#     4  10  21  37  59  89 116 156 198 247 305 368
#
# _framework density 25.602067000000002
#
# number of rings (size 3 to 8) (size 9 to 14) (size 15 to 20)
#    0.000    2.000    1.250    2.250    3.500    0.500 
#    2.250    3.125    0.000    0.000    0.000    0.000 
#    0.000    0.000    0.000    0.000    0.000    0.000 
#
# Total GULP energy -89129.982306 kJ/mol
# GULP energy per Si atom -5570.623894 kJ/mol
# Density = 2.554380 g / cm^3
# Si number density = 25.602067 Si / 1000 Ang^3
#
#
#
# Elastic Constant Matrix: (Units=GPa)
#
#
# Indices 1 2 3 4 5 6 
#
# 1 98.9392 15.5820 9.2779 -10.0608 -9.8371 17.3882
# 2 15.5820 42.8557 18.1113 2.6200 5.5020 9.4275
# 3 9.2779 18.1113 110.6443 -6.7866 -0.6025 14.0884
# 4 -10.0608 2.6200 -6.7866 39.9877 4.5783 -9.3746
# 5 -9.8371 5.5020 -0.6025 4.5783 42.6541 -4.2260
# 6 17.3882 9.4275 14.0884 -9.3746 -4.2260 25.2401
#
#
#
# Elastic Compliance Matrix: (Units=1/GPa)
#
#
# Indices 1 2 3 4 5 6 
#
# 1 0.012151 -0.003669 0.000491 0.001630 0.002488 -0.006253
# 2 -0.003669 0.029142 -0.003648 -0.004991 -0.005014 -0.009014
# 3 0.000491 -0.003648 0.010201 0.001079 0.000192 -0.004237
# 4 0.001630 -0.004991 0.001079 0.028517 -0.000979 0.010567
# 5 0.002488 -0.005014 0.000192 -0.000979 0.025159 0.003900
# 6 -0.006253 -0.009014 -0.004237 0.010567 0.003900 0.054236
#
#
# Mechanical properties :
#
#
# Convention : Reuss Voigt Hill
#
# Bulk Modulus (GPa) = 26.42623 37.59795 32.01209
# Shear Modulus (GPa) = 26.92915 35.54091 31.23503
#
# Velocity S-wave (km/s) = 3.24672 3.72990 3.49667
# Velocity P-wave (km/s) = 4.93956 5.76775 5.36965
#
# Compressibility (1/GPa) = 0.03784119
#
# Stress axis : x y z
#
# Youngs Moduli (GPa) = 82.29733 34.31502 98.03322
#
# Poissons Ratio (x) = 0.12591 -0.04818
# Poissons Ratio (y) = 0.30198 0.35765
# Poissons Ratio (z) = -0.04044 0.12519
#
# Static dielectric constant tensor:
#      x y z
#    x 2.277760 -0.159170 0.118330 
#    y -0.159170 2.176220 0.011510 
#    z 0.118330 0.011510 2.107870 
# 
# From -- ./inp_files/262682.got.cif
#   From: 2010.05.17/outbox.cif.g08.bks.cpg/sg2_132_cif.got.tgz:262682.got - 2010.06.03 11:33:40.
