data_PCOD9098654
_publ_section_title
;
Structure prediction by ZEFSAII (Michael W. Deem and Ramdas Pophale) SiO2 
 PCOD9098654
Probable space group: P -1
;
_chemical_formula_sum "Si O2"
_cell_formula_units_Z 16
_cell_length_a 9.292282
_cell_length_b 15.609872
_cell_length_c 13.913778
_cell_angle_alpha 47.588495
_cell_angle_beta 118.561312
_cell_angle_gamma 141.985261
_cell_volume 911.371676
_symmetry_space_group_name_H-M "P -1"
_symmetry_group_IT_number 2
_symmetry_cell_setting 'triclinic'
loop_
_space_group_symop_operation_xyz
x,y,z
-x,-y,-z
loop_
_atom_site_type_symbol
_atom_site_label
_atom_site_fract_x
_atom_site_fract_y
_atom_site_fract_z
Si Si1 0.807401 0.596152 0.595797
Si Si2 0.909141 0.901665 0.445303
Si Si3 0.037600 0.940797 0.962941
Si Si4 0.295698 0.109048 0.244620
Si Si5 0.163172 0.787957 0.400763
Si Si6 0.887386 0.284919 0.780072
Si Si7 0.555488 0.786708 0.260189
Si Si8 0.224149 0.650169 0.685179
O O1 0.813371 0.720708 0.558208
O O2 0.572084 0.402134 0.655853
O O3 0.913402 0.672242 0.464676
O O4 0.011263 0.616548 0.689380
O O5 0.701982 0.861036 0.350625
O O6 0.000000 0.000000 0.500000
O O7 0.131166 0.015774 0.357073
O O8 0.815641 0.852263 0.889931
O O9 0.262108 0.096797 0.854970
O O10 0.073908 0.826323 0.089682
O O11 0.000000 0.000000 0.000000
O O12 0.560614 0.265463 0.241677
O O13 0.275476 0.971967 0.293227
O O14 0.132345 0.721919 0.336078
O O15 0.303084 0.773088 0.528264
O O16 0.650725 0.223056 0.792918
O O17 0.103420 0.474785 0.737724
#
# Coordination Sequence:
#
# PCOD9098654 Si02
#       8
#     2   2   2   2   2   2   2   2
#     4   8  19  35  56  85 119 146 186 235 288 345
#     4  10  21  32  53  87 122 149 181 232 297 348
#     4  11  23  42  59  80 113 159 207 229 281 340
#     4  10  20  37  55  85 116 156 185 234 286 343
#     4   9  18  33  60  88 113 146 184 232 289 346
#     4  11  21  37  62  87 113 153 199 238 275 343
#     4  10  22  38  59  83 115 152 195 239 281 334
#     4   9  20  33  59  87 117 139 187 241 291 335
#
# _framework density 17.555954
#
# number of rings (size 3 to 8) (size 9 to 14) (size 15 to 20)
#    0.750    1.500    1.250    1.500    1.750    0.500 
#    2.250    0.000    0.000    1.500    0.000    0.000 
#    0.000    0.000    0.000    0.000    0.000    0.000 
#
# Total GULP energy -89153.379719 kJ/mol
# GULP energy per Si atom -5572.086232 kJ/mol
# Density = 1.751600 g / cm^3
# Si number density = 17.555954 Si / 1000 Ang^3
#
#
#
# Elastic Constant Matrix: (Units=GPa)
#
#
# Indices 1 2 3 4 5 6 
#
# 1 63.9496 38.9069 39.2130 -3.0818 18.7398 -5.0716
# 2 38.9069 74.3034 26.6969 8.6787 21.3290 7.4098
# 3 39.2130 26.6969 61.7030 15.0769 15.5198 -8.7291
# 4 -3.0818 8.6787 15.0769 7.2194 2.5980 10.8599
# 5 18.7398 21.3290 15.5198 2.5980 20.7516 -2.1274
# 6 -5.0716 7.4098 -8.7291 10.8599 -2.1274 27.3497
#
#
#
# Elastic Compliance Matrix: (Units=1/GPa)
#
#
# Indices 1 2 3 4 5 6 
#
# 1 0.013832 -0.006917 0.011825 -0.050774 -0.005001 0.027985
# 2 -0.006917 0.024663 -0.006256 0.008900 -0.017058 -0.014822
# 3 0.011825 -0.006256 -0.005905 0.067216 -0.010865 -0.025531
# 4 -0.050774 0.008900 0.067216 -0.132109 0.009413 0.062816
# 5 -0.005001 -0.017058 -0.010865 0.009413 0.077442 0.002513
# 6 0.027985 -0.014822 -0.025531 0.062816 0.002513 0.012873
#
#
# Mechanical properties :
#
#
# Convention : Reuss Voigt Hill
#
# Bulk Modulus (GPa) = 33.45018 45.50995 39.48007
# Shear Modulus (GPa) = 1446.30094 17.40674 731.85384
#
# Velocity S-wave (km/s) = 28.73347 3.15223 20.43953
# Velocity P-wave (km/s) = 33.46507 6.26321 24.07425
#
# Compressibility (1/GPa) = 0.02989521
#
# Stress axis : x y z
#
# Youngs Moduli (GPa) = 72.29526 40.54654 -169.36231
#
# Poissons Ratio (x) = 0.28044 2.00274
# Poissons Ratio (y) = 0.50003 -1.05960
# Poissons Ratio (z) = -0.85491 0.25368
#
# Static dielectric constant tensor:
#      x y z
#    x 1.614070 0.008620 0.023290 
#    y 0.008620 1.580310 0.002750 
#    z 0.023290 0.002750 1.596640 
# 
# From -- ./inp_files/502837.got.cif
#   From: 2010.05.17/outbox.cif.g08.bks.cpg/sg2_252_cif.got.tgz:502837.got - 2010.06.03 11:33:40.
