data_PCOD9098408
_publ_section_title
;
Structure prediction by ZEFSAII (Michael W. Deem and Ramdas Pophale) SiO2 
 PCOD9098408
Probable space group: P -1
;
_chemical_formula_sum "Si O2"
_cell_formula_units_Z 16
_cell_length_a 7.167471
_cell_length_b 13.988119
_cell_length_c 14.955137
_cell_angle_alpha 142.414253
_cell_angle_beta 98.188415
_cell_angle_gamma 54.923044
_cell_volume 583.072005
_symmetry_space_group_name_H-M "P -1"
_symmetry_group_IT_number 2
_symmetry_cell_setting 'triclinic'
loop_
_space_group_symop_operation_xyz
x,y,z
-x,-y,-z
loop_
_atom_site_type_symbol
_atom_site_label
_atom_site_fract_x
_atom_site_fract_y
_atom_site_fract_z
Si Si1 0.867092 0.971659 0.081166
Si Si2 0.248596 0.021008 0.592241
Si Si3 0.407756 0.862103 0.303194
Si Si4 0.757860 0.512027 0.339605
Si Si5 0.071162 0.706221 0.627168
Si Si6 0.488295 0.199329 0.927091
Si Si7 0.960544 0.324029 0.954936
Si Si8 0.696739 0.614043 0.756646
O O1 0.895242 0.870312 0.102568
O O2 0.889075 0.140816 0.226804
O O3 0.571484 0.133069 0.125652
O O4 0.132236 0.728613 0.862326
O O5 0.176695 0.026736 0.489012
O O6 0.454128 0.764430 0.466366
O O7 0.446892 0.055486 0.631835
O O8 0.973779 0.230263 0.791314
O O9 0.356173 0.837205 0.179819
O O10 0.647922 0.589158 0.154661
O O11 0.782235 0.494687 0.436049
O O12 0.015274 0.460238 0.280116
O O13 0.207655 0.588163 0.451768
O O14 0.718599 0.915170 0.757633
O O15 0.177935 0.333911 0.972726
O O16 0.408059 0.343974 0.118021
#
# Coordination Sequence:
#
# PCOD9098408 Si02
#       8
#     2   2   2   2   2   2   2   2
#     4  12  24  43  64  93 132 170 205 256 323 376
#     4  10  20  36  65  97 125 158 207 267 316 356
#     4  10  21  38  63  99 126 157 213 269 310 359
#     4  12  22  42  68  94 127 165 212 263 310 370
#     4  12  27  42  62  95 133 168 207 256 319 383
#     4  11  22  39  65  92 124 166 211 258 312 364
#     4  11  21  40  67  96 126 164 213 263 309 368
#     4  12  23  41  65  93 127 167 213 259 309 372
#
# _framework density 27.440864999999999
#
# number of rings (size 3 to 8) (size 9 to 14) (size 15 to 20)
#    0.000    0.750    3.750    6.000    0.000    3.000 
#    0.000    0.625    0.000    1.500    0.000    0.000 
#    0.000    0.000    0.000    0.000    0.000    0.000 
#
# Total GULP energy -89682.273837 kJ/mol
# GULP energy per Si atom -5605.142115 kJ/mol
# Density = 2.737841 g / cm^3
# Si number density = 27.440865 Si / 1000 Ang^3
#
#
#
# Elastic Constant Matrix: (Units=GPa)
#
#
# Indices 1 2 3 4 5 6 
#
# 1 62.7555 28.8617 20.0365 -3.6699 9.1414 -8.2164
# 2 28.8617 136.9952 65.7009 -31.9279 -10.2451 15.4066
# 3 20.0365 65.7009 189.0097 -35.0126 2.8692 10.5414
# 4 -3.6699 -31.9279 -35.0126 74.9966 6.4425 -10.0115
# 5 9.1414 -10.2451 2.8692 6.4425 27.4648 -3.6507
# 6 -8.2164 15.4066 10.5414 -10.0115 -3.6507 30.8922
#
#
#
# Elastic Compliance Matrix: (Units=1/GPa)
#
#
# Indices 1 2 3 4 5 6 
#
# 1 0.020821 -0.005541 -0.000566 0.000091 -0.007951 0.007584
# 2 -0.005541 0.011198 -0.002718 0.002139 0.005162 -0.004828
# 3 -0.000566 -0.002718 0.006746 0.002054 -0.002102 -0.000680
# 4 0.000091 0.002139 0.002054 0.015855 -0.002758 0.003068
# 5 -0.007951 0.005162 -0.002102 -0.002758 0.041860 0.000081
# 6 0.007584 -0.004828 -0.000680 0.003068 0.000081 0.038031
#
#
# Mechanical properties :
#
#
# Convention : Reuss Voigt Hill
#
# Bulk Modulus (GPa) = 47.36304 68.66205 58.01254
# Shear Modulus (GPa) = 31.40724 44.94816 38.17770
#
# Velocity S-wave (km/s) = 3.38678 4.05161 3.73402
# Velocity P-wave (km/s) = 5.70887 6.85300 6.30693
#
# Compressibility (1/GPa) = 0.02111351
#
# Stress axis : x y z
#
# Youngs Moduli (GPa) = 48.02935 89.30241 148.23755
#
# Poissons Ratio (x) = 0.49483 0.08397
# Poissons Ratio (y) = 0.26614 0.40289
# Poissons Ratio (z) = 0.02721 0.24271
#
# Static dielectric constant tensor:
#      x y z
#    x 2.225490 -0.000730 0.031250 
#    y -0.000730 2.148110 -0.033260 
#    z 0.031250 -0.033260 2.094480 
# 
# From -- ./inp_files/297475.got.cif
#   From: 2010.05.17/outbox.cif.g08.bks.cpg/sg2_149_cif.got.tgz:297475.got - 2010.06.03 11:33:40.
