data_PCOD9098279
_publ_section_title
;
Structure prediction by ZEFSAII (Michael W. Deem and Ramdas Pophale) SiO2 
 PCOD9098279
Probable space group: P -1
;
_chemical_formula_sum "Si O2"
_cell_formula_units_Z 13
_cell_length_a 14.505229
_cell_length_b 7.597335
_cell_length_c 8.814235
_cell_angle_alpha 145.446065
_cell_angle_beta 112.950885
_cell_angle_gamma 69.212279
_cell_volume 506.253274
_symmetry_space_group_name_H-M "P -1"
_symmetry_group_IT_number 2
_symmetry_cell_setting 'triclinic'
loop_
_space_group_symop_operation_xyz
x,y,z
-x,-y,-z
loop_
_atom_site_type_symbol
_atom_site_label
_atom_site_fract_x
_atom_site_fract_y
_atom_site_fract_z
Si Si1 0.799771 0.134895 0.102507
Si Si2 0.479889 0.041180 0.263082
Si Si3 0.399492 0.409360 0.173836
Si Si4 0.121958 0.978780 0.373597
Si Si5 0.000000 0.000000 0.000000
Si Si6 0.170311 0.303286 0.920330
Si Si7 0.295144 0.213936 0.457964
O O1 0.900015 0.222764 0.146618
O O2 0.716832 0.420186 0.253763
O O3 0.825058 0.996187 0.182846
O O4 0.767288 0.842294 0.776014
O O5 0.423056 0.193727 0.185701
O O6 0.570659 0.256603 0.513064
O O7 0.403935 0.072779 0.378229
O O8 0.526755 0.713518 0.001185
O O9 0.287258 0.368388 0.018312
O O10 0.110406 0.215232 0.671453
O O11 0.232304 0.039324 0.417907
O O12 0.122709 0.626008 0.183703
O O13 0.045480 0.019268 0.215629
#
# Coordination Sequence:
#
# PCOD9098279 Si02
#       7
#     2   2   2   2   1   2   2
#     4  11  24  41  73  93 135 162 228 266 331 384
#     4  10  20  36  64  94 128 178 221 260 299 392
#     4  10  21  35  61  98 132 165 222 268 311 373
#     4  11  26  43  69  91 140 166 220 266 342 384
#     4  10  26  50  68 100 120 180 218 270 320 426
#     4  12  24  43  64 105 131 174 203 289 327 376
#     4  11  22  43  65  99 127 188 214 263 317 402
#
# _framework density 25.678847000000001
#
# number of rings (size 3 to 8) (size 9 to 14) (size 15 to 20)
#    0.000    1.231    1.538    4.615    4.308    6.769 
#    0.000    4.615    0.000    0.000    0.000    0.000 
#    0.000    0.000    0.000    0.000    0.000    0.000 
#
# Total GULP energy -72505.163726 kJ/mol
# GULP energy per Si atom -5577.320287 kJ/mol
# Density = 2.562040 g / cm^3
# Si number density = 25.678847 Si / 1000 Ang^3
#
#
#
# Elastic Constant Matrix: (Units=GPa)
#
#
# Indices 1 2 3 4 5 6 
#
# 1 48.5950 15.2039 -8.9502 31.8904 -44.4619 -16.3914
# 2 15.2039 51.8548 33.8101 -13.0278 35.0368 1.4746
# 3 -8.9502 33.8101 111.9543 15.5200 -16.6075 -14.9653
# 4 31.8904 -13.0278 15.5200 12.2817 10.8764 12.1814
# 5 -44.4619 35.0368 -16.6075 10.8764 -0.0574 -18.3290
# 6 -16.3914 1.4746 -14.9653 12.1814 -18.3290 29.4283
#
#
#
# Elastic Compliance Matrix: (Units=1/GPa)
#
#
# Indices 1 2 3 4 5 6 
#
# 1 0.007893 0.006161 -0.003207 0.001422 -0.008768 -0.003593
# 2 0.006161 0.014057 -0.001121 -0.009209 0.002407 0.007468
# 3 -0.003207 -0.001121 0.008085 0.001439 -0.004182 -0.000819
# 4 0.001422 -0.009209 0.001439 0.040760 0.026706 0.001747
# 5 -0.008768 0.002407 -0.004182 0.026706 0.014591 -0.009098
# 6 -0.003593 0.007468 -0.000819 0.001747 -0.009098 0.024799
#
#
# Mechanical properties :
#
#
# Convention : Reuss Voigt Hill
#
# Bulk Modulus (GPa) = 29.67396 32.50352 31.08874
# Shear Modulus (GPa) = 42.46195 19.81987 31.14091
#
# Velocity S-wave (km/s) = 4.07083 2.78121 3.48617
# Velocity P-wave (km/s) = 5.80314 4.79569 5.32330
#
# Compressibility (1/GPa) = 0.03369958
#
# Stress axis : x y z
#
# Youngs Moduli (GPa) = 126.69471 71.14130 123.68932
#
# Poissons Ratio (x) = -0.43828 0.39673
# Poissons Ratio (y) = -0.78052 0.13860
# Poissons Ratio (z) = 0.40637 0.07971
#
# Static dielectric constant tensor:
#      x y z
#    x 2.095650 0.009630 0.037750 
#    y 0.009630 2.028680 -0.020290 
#    z 0.037750 -0.020290 1.936970 
# 
# From -- ./inp_files/201231.got.cif
#   From: 2010.05.17/outbox.cif.g08.bks.cpg/sg2_101_cif.got.tgz:201231.got - 2010.06.03 11:33:40.
