data_PCOD9098803
_publ_section_title
;
Structure prediction by ZEFSAII (Michael W. Deem and Ramdas Pophale) SiO2 
 PCOD9098803
Probable space group: P -1
;
_chemical_formula_sum "Si O2"
_cell_formula_units_Z 14
_cell_length_a 7.263522
_cell_length_b 11.694298
_cell_length_c 17.248656
_cell_angle_alpha 156.851307
_cell_angle_beta 79.106760
_cell_angle_gamma 104.069313
_cell_volume 556.395781
_symmetry_space_group_name_H-M "P -1"
_symmetry_group_IT_number 2
_symmetry_cell_setting 'triclinic'
loop_
_space_group_symop_operation_xyz
x,y,z
-x,-y,-z
loop_
_atom_site_type_symbol
_atom_site_label
_atom_site_fract_x
_atom_site_fract_y
_atom_site_fract_z
Si Si1 0.968209 0.169572 0.883345
Si Si2 0.187883 0.701370 0.574804
Si Si3 0.285396 0.740050 0.845658
Si Si4 0.528191 0.655691 0.291191
Si Si5 0.597020 0.779880 0.737776
Si Si6 0.096460 0.232689 0.737733
Si Si7 0.128543 0.593171 0.329246
O O1 0.994862 0.191416 0.802645
O O2 0.145080 0.017490 0.799257
O O3 0.755847 0.979719 0.795902
O O4 0.983929 0.492302 0.120322
O O5 0.369635 0.553654 0.485521
O O6 0.000000 0.500000 0.500000
O O7 0.185276 0.677892 0.467091
O O8 0.370353 0.487480 0.732874
O O9 0.376919 0.767567 0.769830
O O10 0.061464 0.642257 0.797433
O O11 0.326725 0.051642 0.081830
O O12 0.675791 0.634310 0.196695
O O13 0.310082 0.500454 0.216370
O O14 0.500000 0.000000 0.500000
O O15 0.084391 0.910011 0.501419
#
# Coordination Sequence:
#
# PCOD9098803 Si02
#       7
#     2   2   2   2   2   2   2
#     4   9  17  34  60  82 111 161 193 234 295 348
#     4   9  18  35  58  82 116 156 193 231 291 345
#     4  11  22  37  61  90 120 151 199 242 299 352
#     4  10  20  37  60  87 118 153 191 245 300 342
#     4  10  20  37  57  86 123 156 190 246 295 346
#     4   9  18  34  59  86 112 153 199 235 295 346
#     4  10  21  37  61  92 115 153 196 247 292 350
#
# _framework density 25.161944999999999
#
# number of rings (size 3 to 8) (size 9 to 14) (size 15 to 20)
#    0.000    2.286    2.857    0.000    0.000    2.857 
#    0.000    6.429    0.000   10.286    0.000    0.000 
#    0.000    0.000    0.000    0.000    0.000    0.000 
#
# Total GULP energy -77960.508311 kJ/mol
# GULP energy per Si atom -5568.607737 kJ/mol
# Density = 2.510467 g / cm^3
# Si number density = 25.161945 Si / 1000 Ang^3
#
#
#
# Elastic Constant Matrix: (Units=GPa)
#
#
# Indices 1 2 3 4 5 6 
#
# 1 70.2253 46.7706 -2.3194 0.2901 -15.4692 23.7765
# 2 46.7706 186.3468 14.6144 -17.1108 -10.8366 46.3832
# 3 -2.3194 14.6144 97.7973 3.6711 -27.2407 3.0872
# 4 0.2901 -17.1108 3.6711 33.0645 -2.4323 -14.0021
# 5 -15.4692 -10.8366 -27.2407 -2.4323 35.8583 1.6672
# 6 23.7765 46.3832 3.0872 -14.0021 1.6672 55.9573
#
#
#
# Elastic Compliance Matrix: (Units=1/GPa)
#
#
# Indices 1 2 3 4 5 6 
#
# 1 0.022500 -0.003698 0.005017 -0.005345 0.012432 -0.008480
# 2 -0.003698 0.007636 -0.001132 0.002387 0.000206 -0.004105
# 3 0.005017 -0.001132 0.014208 -0.002548 0.012582 -0.002990
# 4 -0.005345 0.002387 -0.002548 0.035679 -0.001537 0.009407
# 5 0.012432 0.000206 0.012582 -0.001537 0.043131 -0.007817
# 6 -0.008480 -0.004105 -0.002990 0.009407 -0.007817 0.027628
#
#
# Mechanical properties :
#
#
# Convention : Reuss Voigt Hill
#
# Bulk Modulus (GPa) = 22.36114 52.50005 37.43060
# Shear Modulus (GPa) = 30.24568 44.66294 37.45431
#
# Velocity S-wave (km/s) = 3.47081 4.21767 3.86233
# Velocity P-wave (km/s) = 4.99682 6.68045 5.89901
#
# Compressibility (1/GPa) = 0.04472043
#
# Stress axis : x y z
#
# Youngs Moduli (GPa) = 44.44421 130.95882 70.38262
#
# Poissons Ratio (x) = 0.48426 -0.35314
# Poissons Ratio (y) = 0.16435 0.07964
# Poissons Ratio (z) = -0.22300 0.14818
#
# Static dielectric constant tensor:
#      x y z
#    x 2.086860 -0.084100 -0.030790 
#    y -0.084100 2.045880 0.060830 
#    z -0.030790 0.060830 2.015930 
# 
# From -- ./inp_files/401158.got.cif
#   From: 2010.05.17/outbox.cif.g08.bks.cpg/sg2_201_cif.got.tgz:401158.got - 2010.06.03 11:33:40.
