data_PCOD9098687
_publ_section_title
;
Structure prediction by ZEFSAII (Michael W. Deem and Ramdas Pophale) SiO2 
 PCOD9098687
Probable space group: P -1
;
_chemical_formula_sum "Si O2"
_cell_formula_units_Z 14
_cell_length_a 8.594381
_cell_length_b 20.039847
_cell_length_c 9.514268
_cell_angle_alpha 130.906547
_cell_angle_beta 31.808317
_cell_angle_gamma 137.323096
_cell_volume 583.392193
_symmetry_space_group_name_H-M "P -1"
_symmetry_group_IT_number 2
_symmetry_cell_setting 'triclinic'
loop_
_space_group_symop_operation_xyz
x,y,z
-x,-y,-z
loop_
_atom_site_type_symbol
_atom_site_label
_atom_site_fract_x
_atom_site_fract_y
_atom_site_fract_z
Si Si1 0.861518 0.629304 0.300959
Si Si2 0.805565 0.534021 0.492556
Si Si3 0.298342 0.676055 0.771641
Si Si4 0.338431 0.077566 0.927942
Si Si5 0.823900 0.284211 0.377716
Si Si6 0.926207 0.014021 0.414100
Si Si7 0.284679 0.187050 0.873163
O O1 0.973014 0.603046 0.324635
O O2 0.590374 0.520460 0.303883
O O3 0.649803 0.688438 0.571257
O O4 0.100296 0.682842 0.065098
O O5 0.874433 0.439442 0.305920
O O6 0.908261 0.603979 0.643409
O O7 0.300124 0.734398 0.712206
O O8 0.452643 0.169062 0.858571
O O9 0.617034 0.039515 0.672535
O O10 0.000000 0.000000 0.000000
O O11 0.225626 0.088798 0.187450
O O12 0.528462 0.266572 0.686295
O O13 0.994743 0.213561 0.179816
O O14 0.842242 0.910686 0.259565
O O15 0.000000 0.000000 0.500000
#
# Coordination Sequence:
#
# PCOD9098687 Si02
#       7
#     2   2   2   2   2   2   2
#     4   9  20  36  60  76 107 144 223 241 279 348
#     4   9  22  36  60  80 109 160 209 235 291 353
#     4  10  20  37  56  82 110 160 201 243 289 344
#     4  10  20  41  69  90 120 161 199 234 291 377
#     4  12  24  36  58  86 127 149 192 256 295 343
#     4  11  22  42  72  93 118 157 205 245 290 367
#     4  11  24  41  57  92 122 155 191 241 308 351
#
# _framework density 23.997575999999999
#
# number of rings (size 3 to 8) (size 9 to 14) (size 15 to 20)
#    0.857    0.857    0.000    6.429    2.000    0.571 
#    0.000    8.571    0.000    0.000    0.000    0.000 
#    0.000    0.000    0.000    0.000    0.000    0.000 
#
# Total GULP energy -78193.088708 kJ/mol
# GULP energy per Si atom -5585.220622 kJ/mol
# Density = 2.394296 g / cm^3
# Si number density = 23.997576 Si / 1000 Ang^3
#
#
#
# Elastic Constant Matrix: (Units=GPa)
#
#
# Indices 1 2 3 4 5 6 
#
# 1 191.4629 23.1758 95.2641 40.9486 8.4674 -29.1479
# 2 23.1758 34.6647 12.0214 15.8049 5.0667 1.0170
# 3 95.2641 12.0214 188.9075 31.5638 -13.5622 -20.2789
# 4 40.9486 15.8049 31.5638 61.8146 -25.2855 2.3521
# 5 8.4674 5.0667 -13.5622 -25.2855 47.2440 7.4177
# 6 -29.1479 1.0170 -20.2789 2.3521 7.4177 31.9653
#
#
#
# Elastic Compliance Matrix: (Units=1/GPa)
#
#
# Indices 1 2 3 4 5 6 
#
# 1 0.011416 -0.000573 -0.003531 -0.010239 -0.010256 0.011321
# 2 -0.000573 0.037321 -0.000435 -0.013782 -0.011674 0.001738
# 3 -0.003531 -0.000435 0.007447 -0.000384 0.002458 0.000977
# 4 -0.010239 -0.013782 -0.000384 0.038206 0.026493 -0.018101
# 5 -0.010256 -0.011674 0.002458 0.026493 0.042149 -0.019151
# 6 0.011321 0.001738 0.000977 -0.018101 -0.019151 0.047948
#
#
# Mechanical properties :
#
#
# Convention : Reuss Voigt Hill
#
# Bulk Modulus (GPa) = 21.22814 75.10641 48.16727
# Shear Modulus (GPa) = 23.89305 47.17636 35.53470
#
# Velocity S-wave (km/s) = 3.15881 4.43863 3.85224
# Velocity P-wave (km/s) = 4.70842 7.59171 6.31678
#
# Compressibility (1/GPa) = 0.04710729
#
# Stress axis : x y z
#
# Youngs Moduli (GPa) = 87.59672 26.79491 134.27695
#
# Poissons Ratio (x) = 0.01534 0.47408
# Poissons Ratio (y) = 0.05016 0.05840
# Poissons Ratio (z) = 0.30927 0.01165
#
# Static dielectric constant tensor:
#      x y z
#    x 1.874520 0.014830 -0.009610 
#    y 0.014830 2.095490 -0.073800 
#    z -0.009610 -0.073800 1.870370 
# 
# From -- ./inp_files/226405.got.cif
#   From: 2010.05.17/outbox.cif.g08.bks.cpg/sg2_114_cif.got.tgz:226405.got - 2010.06.03 11:33:40.
