data_PCOD9098330
_publ_section_title
;
Structure prediction by ZEFSAII (Michael W. Deem and Ramdas Pophale) SiO2 
 PCOD9098330
Probable space group: P -1
;
_chemical_formula_sum "Si O2"
_cell_formula_units_Z 14
_cell_length_a 5.021714
_cell_length_b 8.331174
_cell_length_c 14.655330
_cell_angle_alpha 78.339721
_cell_angle_beta 90.361013
_cell_angle_gamma 97.577988
_cell_volume 595.103384
_symmetry_space_group_name_H-M "P -1"
_symmetry_group_IT_number 2
_symmetry_cell_setting 'triclinic'
loop_
_space_group_symop_operation_xyz
x,y,z
-x,-y,-z
loop_
_atom_site_type_symbol
_atom_site_label
_atom_site_fract_x
_atom_site_fract_y
_atom_site_fract_z
Si Si1 0.353553 0.768968 0.111782
Si Si2 0.107901 0.680746 0.634449
Si Si3 0.331673 0.646316 0.457230
Si Si4 0.919271 0.051610 0.764087
Si Si5 0.410273 0.508006 0.282781
Si Si6 0.822361 0.076020 0.067329
Si Si7 0.606061 0.961169 0.356434
O O1 0.120953 0.814469 0.173728
O O2 0.435427 0.605946 0.176654
O O3 0.574947 0.932434 0.102284
O O4 0.274481 0.770735 0.004789
O O5 0.090758 0.649469 0.528462
O O6 0.313697 0.559015 0.684303
O O7 0.241800 0.866542 0.629217
O O8 0.829016 0.642849 0.691039
O O9 0.500000 0.500000 0.500000
O O10 0.310878 0.624672 0.350282
O O11 0.503469 0.826876 0.447348
O O12 0.650505 0.011127 0.709245
O O13 0.010446 0.900939 0.841834
O O14 0.169631 0.114626 0.693785
O O15 0.000000 0.000000 0.000000
#
# Coordination Sequence:
#
# PCOD9098330 Si02
#       7
#     2   2   2   2   2   2   2
#     4  10  20  36  64  99 126 155 207 269 308 360
#     4  11  26  42  59  92 129 170 208 255 316 372
#     4  10  23  41  67  93 123 161 217 267 307 357
#     4  11  21  37  64  92 123 163 207 251 311 368
#     4  11  23  41  66  91 126 164 213 260 311 362
#     4   9  19  34  61 104 125 151 201 270 312 357
#     4  12  24  41  64  89 131 170 206 252 313 381
#
# _framework density 23.525326
#
# number of rings (size 3 to 8) (size 9 to 14) (size 15 to 20)
#    0.000    1.429    2.857    1.714    8.000    2.286 
#    0.000    5.000    0.000    5.143    0.000    0.000 
#    0.000    0.000    0.000    0.000    0.000    0.000 
#
# Total GULP energy -78189.699511 kJ/mol
# GULP energy per Si atom -5584.978537 kJ/mol
# Density = 2.347178 g / cm^3
# Si number density = 23.525326 Si / 1000 Ang^3
#
#
#
# Elastic Constant Matrix: (Units=GPa)
#
#
# Indices 1 2 3 4 5 6 
#
# 1 100.2108 1.4197 23.9890 -0.9692 -7.2686 9.9289
# 2 1.4197 68.7464 21.8742 -18.9312 14.5440 12.4899
# 3 23.9890 21.8742 100.9144 -28.8226 -2.7945 5.4314
# 4 -0.9692 -18.9312 -28.8226 25.8784 -2.1910 -2.1752
# 5 -7.2686 14.5440 -2.7945 -2.1910 36.1386 3.1045
# 6 9.9289 12.4899 5.4314 -2.1752 3.1045 26.0697
#
#
#
# Elastic Compliance Matrix: (Units=1/GPa)
#
#
# Indices 1 2 3 4 5 6 
#
# 1 0.011336 0.000260 -0.003434 -0.003392 0.002070 -0.004256
# 2 0.000260 0.021543 -0.000510 0.013901 -0.007101 -0.008308
# 3 -0.003434 -0.000510 0.015844 0.017255 0.001831 -0.000527
# 4 -0.003392 0.013901 0.017255 0.067581 -0.000566 -0.003257
# 5 0.002070 -0.007101 0.001831 -0.000566 0.031184 -0.001529
# 6 -0.004256 -0.008308 -0.000527 -0.003257 -0.001529 0.043980
#
#
# Mechanical properties :
#
#
# Convention : Reuss Voigt Hill
#
# Bulk Modulus (GPa) = 24.18138 40.49304 32.33721
# Shear Modulus (GPa) = 23.51594 32.45658 27.98626
#
# Velocity S-wave (km/s) = 3.16508 3.71839 3.45283
# Velocity P-wave (km/s) = 4.86396 5.97370 5.44717
#
# Compressibility (1/GPa) = 0.04135414
#
# Stress axis : x y z
#
# Youngs Moduli (GPa) = 88.21247 46.41861 63.11709
#
# Poissons Ratio (x) = -0.01205 0.21672
# Poissons Ratio (y) = -0.02290 0.03222
# Poissons Ratio (z) = 0.30288 0.02369
#
# Static dielectric constant tensor:
#      x y z
#    x 1.957360 0.032390 0.038650 
#    y 0.032390 1.946860 -0.018360 
#    z 0.038650 -0.018360 1.962050 
# 
# From -- ./inp_files/43634.got.cif
#   From: 2010.05.17/outbox.cif.g08.bks.cpg/sg2_22_cif.got.tgz:43634.got - 2010.06.03 11:33:40.
