data_PCOD9098383
_publ_section_title
;
Structure prediction by ZEFSAII (Michael W. Deem and Ramdas Pophale) SiO2 
 PCOD9098383
Probable space group: P -1
;
_chemical_formula_sum "Si O2"
_cell_formula_units_Z 16
_cell_length_a 12.189192
_cell_length_b 9.268092
_cell_length_c 12.154659
_cell_angle_alpha 131.711331
_cell_angle_beta 84.219748
_cell_angle_gamma 123.738645
_cell_volume 768.323220
_symmetry_space_group_name_H-M "P -1"
_symmetry_group_IT_number 2
_symmetry_cell_setting 'triclinic'
loop_
_space_group_symop_operation_xyz
x,y,z
-x,-y,-z
loop_
_atom_site_type_symbol
_atom_site_label
_atom_site_fract_x
_atom_site_fract_y
_atom_site_fract_z
Si Si1 0.828532 0.652884 0.223494
Si Si2 0.573338 0.050573 0.638066
Si Si3 0.351277 0.438266 0.012908
Si Si4 0.082896 0.653633 0.956604
Si Si5 0.852367 0.249449 0.603417
Si Si6 0.916901 0.802878 0.522988
Si Si7 0.268898 0.582590 0.459410
Si Si8 0.833492 0.865449 0.916528
O O1 0.736269 0.644655 0.134223
O O2 0.807013 0.398709 0.094900
O O3 0.812928 0.699459 0.374912
O O4 0.999459 0.903053 0.307069
O O5 0.711863 0.073601 0.609272
O O6 0.500000 0.000000 0.500000
O O7 0.436919 0.801564 0.589644
O O8 0.620907 0.310452 0.817380
O O9 0.500000 0.500000 0.000000
O O10 0.256387 0.215538 0.001638
O O11 0.965300 0.504662 0.793756
O O12 0.000000 0.500000 0.000000
O O13 0.158349 0.944624 0.072015
O O14 0.793921 0.293093 0.523954
O O15 0.948185 0.180558 0.518178
O O16 0.831829 0.607181 0.529491
O O17 0.248014 0.401633 0.273613
O O18 0.000000 0.000000 0.000000
#
# Coordination Sequence:
#
# PCOD9098383 Si02
#       8
#     2   2   2   2   2   2   2   2
#     4  10  24  42  63  95 140 169 224 278 343 390
#     4  10  21  41  60  94 138 169 212 273 332 391
#     4  12  26  44  71  99 134 181 227 280 332 404
#     4  11  21  37  64  95 132 172 215 283 345 383
#     4  10  20  36  65  93 129 173 217 270 329 394
#     4  10  22  40  66  98 131 178 220 278 336 398
#     4  11  21  37  65  98 134 168 229 272 324 401
#     4  12  22  41  67 102 130 172 230 281 327 396
#
# _framework density 20.824570000000001
#
# number of rings (size 3 to 8) (size 9 to 14) (size 15 to 20)
#    0.000    1.250    3.750    3.375    3.500    2.000 
#    0.000    3.750    0.000   10.500    0.000    0.000 
#    0.000    0.000    0.000    0.000    0.000    0.000 
#
# Total GULP energy -89249.053686 kJ/mol
# GULP energy per Si atom -5578.065855 kJ/mol
# Density = 2.077717 g / cm^3
# Si number density = 20.824570 Si / 1000 Ang^3
#
#
#
# Elastic Constant Matrix: (Units=GPa)
#
#
# Indices 1 2 3 4 5 6 
#
# 1 62.9268 57.3981 20.6449 -11.6934 -3.9726 12.9302
# 2 57.3981 135.1755 17.6298 -8.0934 0.7553 -0.4908
# 3 20.6449 17.6298 71.0084 -7.5411 4.7518 -5.5488
# 4 -11.6934 -8.0934 -7.5411 36.3171 -8.5202 0.3968
# 5 -3.9726 0.7553 4.7518 -8.5202 26.9611 0.9929
# 6 12.9302 -0.4908 -5.5488 0.3968 0.9929 31.0446
#
#
#
# Elastic Compliance Matrix: (Units=1/GPa)
#
#
# Indices 1 2 3 4 5 6 
#
# 1 0.038650 -0.014796 -0.008684 0.010256 0.011558 -0.018385
# 2 -0.014796 0.013384 0.001508 -0.002444 -0.003844 0.006798
# 3 -0.008684 0.001508 0.017068 -0.000071 -0.004604 0.006840
# 4 0.010256 -0.002444 -0.000071 0.033215 0.012278 -0.005140
# 5 0.011558 -0.003844 -0.004604 0.012278 0.043860 -0.007258
# 6 -0.018385 0.006798 0.006840 -0.005140 -0.007258 0.041497
#
#
# Mechanical properties :
#
#
# Convention : Reuss Voigt Hill
#
# Bulk Modulus (GPa) = 39.75094 51.16184 45.45639
# Shear Modulus (GPa) = 20.83286 30.42709 25.62997
#
# Velocity S-wave (km/s) = 3.16634 3.82660 3.51202
# Velocity P-wave (km/s) = 5.70066 6.64418 6.19042
#
# Compressibility (1/GPa) = 0.02515664
#
# Stress axis : x y z
#
# Youngs Moduli (GPa) = 25.87307 74.71767 58.58759
#
# Poissons Ratio (x) = 1.10554 0.50880
# Poissons Ratio (y) = 0.38282 -0.08834
# Poissons Ratio (z) = 0.22469 -0.11266
#
# Static dielectric constant tensor:
#      x y z
#    x 1.774910 0.002340 -0.024410 
#    y 0.002340 1.774030 0.010850 
#    z -0.024410 0.010850 1.781410 
# 
# From -- ./inp_files/418829.got.cif
#   From: 2010.05.17/outbox.cif.g08.bks.cpg/sg2_210_cif.got.tgz:418829.got - 2010.06.03 11:33:40.
