data_PCOD9098396
_publ_section_title
;
Structure prediction by ZEFSAII (Michael W. Deem and Ramdas Pophale) SiO2 
 PCOD9098396
Probable space group: P -1
;
_chemical_formula_sum "Si O2"
_cell_formula_units_Z 14
_cell_length_a 14.526828
_cell_length_b 14.167668
_cell_length_c 10.675105
_cell_angle_alpha 58.444494
_cell_angle_beta 31.280997
_cell_angle_gamma 37.578957
_cell_volume 607.920941
_symmetry_space_group_name_H-M "P -1"
_symmetry_group_IT_number 2
_symmetry_cell_setting 'triclinic'
loop_
_space_group_symop_operation_xyz
x,y,z
-x,-y,-z
loop_
_atom_site_type_symbol
_atom_site_label
_atom_site_fract_x
_atom_site_fract_y
_atom_site_fract_z
Si Si1 0.363097 0.034593 0.003896
Si Si2 0.574582 0.315060 0.203801
Si Si3 0.194339 0.564448 0.873692
Si Si4 0.285155 0.299022 0.347696
Si Si5 0.608883 0.783127 0.359943
Si Si6 0.712868 0.363059 0.542688
Si Si7 0.883000 0.846312 0.231028
O O1 0.522445 0.854969 0.874873
O O2 0.386414 0.136339 0.820417
O O3 0.500000 0.000000 0.000000
O O4 0.032293 0.166439 0.317824
O O5 0.463434 0.295938 0.231108
O O6 0.538929 0.261289 0.411450
O O7 0.391368 0.515660 0.300965
O O8 0.901975 0.190668 0.904905
O O9 0.457648 0.406327 0.766218
O O10 0.280521 0.558222 0.639944
O O11 0.938296 0.602908 0.135544
O O12 0.039882 0.748340 0.985704
O O13 0.160845 0.253653 0.595720
O O14 0.000000 0.500000 0.500000
O O15 0.415105 0.948280 0.566178
#
# Coordination Sequence:
#
# PCOD9098396 Si02
#       7
#     2   2   2   2   2   2   2
#     4  10  22  41  65  90 132 173 205 261 320 376
#     4  11  22  38  65 100 123 163 216 259 317 376
#     4   9  17  34  59  88 125 165 196 254 315 363
#     4  11  24  42  67  92 124 171 216 257 315 380
#     4  10  20  36  65  95 127 163 209 260 317 372
#     4   9  20  35  59  95 128 167 203 255 318 373
#     4  10  21  38  62  96 132 160 206 273 313 369
#
# _framework density 23.029309999999999
#
# number of rings (size 3 to 8) (size 9 to 14) (size 15 to 20)
#    0.000    2.000    1.429    1.714    4.000    2.857 
#    5.143    1.429    0.000    6.857    0.000    0.000 
#    0.000    0.000    0.000    0.000    0.000    0.000 
#
# Total GULP energy -78063.747847 kJ/mol
# GULP energy per Si atom -5575.981989 kJ/mol
# Density = 2.297689 g / cm^3
# Si number density = 23.029310 Si / 1000 Ang^3
#
#
#
# Elastic Constant Matrix: (Units=GPa)
#
#
# Indices 1 2 3 4 5 6 
#
# 1 150.1549 43.2818 57.1556 21.7197 -17.6308 10.2908
# 2 43.2818 91.1034 36.4040 28.9706 -8.7208 -0.8471
# 3 57.1556 36.4040 113.2697 29.8128 -23.5176 -1.7756
# 4 21.7197 28.9706 29.8128 34.7203 9.4072 -3.7409
# 5 -17.6308 -8.7208 -23.5176 9.4072 36.6049 10.8083
# 6 10.2908 -0.8471 -1.7756 -3.7409 10.8083 23.4507
#
#
#
# Elastic Compliance Matrix: (Units=1/GPa)
#
#
# Indices 1 2 3 4 5 6 
#
# 1 0.010335 -0.001049 -0.000822 -0.008562 0.009459 -0.010361
# 2 -0.001049 0.018687 0.003449 -0.022853 0.014701 -0.009024
# 3 -0.000822 0.003449 0.020581 -0.028342 0.025076 -0.014035
# 4 -0.008562 -0.022853 -0.028342 0.101202 -0.068045 0.048291
# 5 0.009459 0.014701 0.025076 -0.068045 0.084138 -0.051354
# 6 -0.010361 -0.009024 -0.014035 0.048291 -0.051354 0.077173
#
#
# Mechanical properties :
#
#
# Convention : Reuss Voigt Hill
#
# Bulk Modulus (GPa) = 18.95442 69.80120 44.37781
# Shear Modulus (GPa) = 15.31176 33.46761 24.38968
#
# Velocity S-wave (km/s) = 2.58133 3.81630 3.25787
# Velocity P-wave (km/s) = 4.13917 7.05652 5.78477
#
# Compressibility (1/GPa) = 0.05275814
#
# Stress axis : x y z
#
# Youngs Moduli (GPa) = 96.76304 53.51215 48.58859
#
# Poissons Ratio (x) = 0.05615 0.03996
# Poissons Ratio (y) = 0.10153 -0.16760
# Poissons Ratio (z) = 0.07958 -0.18458
#
# Static dielectric constant tensor:
#      x y z
#    x 1.951440 0.008880 -0.009630 
#    y 0.008880 1.921840 -0.010630 
#    z -0.009630 -0.010630 1.925340 
# 
# From -- ./inp_files/455583.got.cif
#   From: 2010.05.17/outbox.cif.g08.bks.cpg/sg2_228_cif.got.tgz:455583.got - 2010.06.03 11:33:40.
