data_PCOD9098888
_publ_section_title
;
Structure prediction by ZEFSAII (Michael W. Deem and Ramdas Pophale) SiO2 
 PCOD9098888
Probable space group: P -1
;
_chemical_formula_sum "Si O2"
_cell_formula_units_Z 16
_cell_length_a 7.884812
_cell_length_b 14.669809
_cell_length_c 13.879058
_cell_angle_alpha 150.898187
_cell_angle_beta 124.984686
_cell_angle_gamma 62.902786
_cell_volume 635.529476
_symmetry_space_group_name_H-M "P -1"
_symmetry_group_IT_number 2
_symmetry_cell_setting 'triclinic'
loop_
_space_group_symop_operation_xyz
x,y,z
-x,-y,-z
loop_
_atom_site_type_symbol
_atom_site_label
_atom_site_fract_x
_atom_site_fract_y
_atom_site_fract_z
Si Si1 0.192370 0.043722 0.961880
Si Si2 0.166824 0.100967 0.543665
Si Si3 0.783165 0.250335 0.448204
Si Si4 0.659169 0.622725 0.794769
Si Si5 0.658083 0.151252 0.984961
Si Si6 0.714140 0.876907 0.607167
Si Si7 0.945846 0.703789 0.139836
Si Si8 0.100556 0.480065 0.618910
O O1 0.306842 0.925120 0.808458
O O2 0.227348 0.964969 0.005787
O O3 0.949476 0.984122 0.800637
O O4 0.279289 0.260147 0.173987
O O5 0.310506 0.129321 0.522067
O O6 0.216000 0.228155 0.771450
O O7 0.942536 0.170801 0.501767
O O8 0.123712 0.881011 0.353510
O O9 0.631666 0.397134 0.570596
O O10 0.928198 0.385415 0.547992
O O11 0.477890 0.718778 0.876587
O O12 0.852161 0.676769 0.978724
O O13 0.806655 0.313364 0.128877
O O14 0.569794 0.996616 0.734745
O O15 0.728478 0.667472 0.457245
O O16 0.000000 0.500000 0.000000
O O17 0.000000 0.500000 0.500000
#
# Coordination Sequence:
#
# PCOD9098888 Si02
#       8
#     2   2   2   2   2   2   2   2
#     4  10  21  39  57  84 119 161 197 228 283 348
#     4   9  20  38  62  89 104 145 205 242 283 336
#     4  10  20  37  61  82 118 153 197 243 275 346
#     4  12  24  36  57  92 122 150 191 245 301 343
#     4  12  24  36  56  90 126 158 186 238 296 339
#     4  10  21  38  63  82 115 155 201 239 274 349
#     4  11  20  37  65  89 110 147 195 247 293 345
#     4  10  20  37  58  83 111 160 207 228 271 345
#
# _framework density 25.175858000000002
#
# number of rings (size 3 to 8) (size 9 to 14) (size 15 to 20)
#    0.000    1.750    6.250    1.500    1.750    1.500 
#    0.000    0.625    0.000    5.250    0.000    0.000 
#    0.000    0.000    0.000    0.000    0.000    0.000 
#
# Total GULP energy -89475.945723 kJ/mol
# GULP energy per Si atom -5592.246608 kJ/mol
# Density = 2.511856 g / cm^3
# Si number density = 25.175858 Si / 1000 Ang^3
#
#
#
# Elastic Constant Matrix: (Units=GPa)
#
#
# Indices 1 2 3 4 5 6 
#
# 1 60.4849 22.2488 14.3311 12.9290 -18.6380 4.3230
# 2 22.2488 108.3766 37.5781 31.5987 -4.8635 14.2350
# 3 14.3311 37.5781 142.3410 35.0059 -27.1826 -2.2142
# 4 12.9290 31.5987 35.0059 45.5373 -1.0082 -1.9878
# 5 -18.6380 -4.8635 -27.1826 -1.0082 40.4635 6.5647
# 6 4.3230 14.2350 -2.2142 -1.9878 6.5647 27.3951
#
#
#
# Elastic Compliance Matrix: (Units=1/GPa)
#
#
# Indices 1 2 3 4 5 6 
#
# 1 0.022385 -0.002161 0.002169 -0.006498 0.012261 -0.005644
# 2 -0.002161 0.013505 -0.001346 -0.008036 0.000748 -0.007548
# 3 0.002169 -0.001346 0.010543 -0.007665 0.007931 -0.001247
# 4 -0.006498 -0.008036 -0.007665 0.035472 -0.009765 0.009495
# 5 0.012261 0.000748 0.007931 -0.009765 0.037377 -0.011348
# 6 -0.005644 -0.007548 -0.001247 0.009495 -0.011348 0.044623
#
#
# Mechanical properties :
#
#
# Convention : Reuss Voigt Hill
#
# Bulk Modulus (GPa) = 22.85449 51.05763 36.95606
# Shear Modulus (GPa) = 27.59889 38.48217 33.04053
#
# Velocity S-wave (km/s) = 3.31455 3.91389 3.62662
# Velocity P-wave (km/s) = 4.87298 6.38350 5.67869
#
# Compressibility (1/GPa) = 0.04375507
#
# Stress axis : x y z
#
# Youngs Moduli (GPa) = 44.67314 74.04404 94.85362
#
# Poissons Ratio (x) = 0.16003 -0.20570
# Poissons Ratio (y) = 0.09655 0.12769
# Poissons Ratio (z) = -0.09688 0.09968
#
# Static dielectric constant tensor:
#      x y z
#    x 2.185280 -0.039090 -0.057020 
#    y -0.039090 1.985730 0.031220 
#    z -0.057020 0.031220 2.033330 
# 
# From -- ./inp_files/267300.got.cif
#   From: 2010.05.17/outbox.cif.g08.bks.cpg/sg2_134_cif.got.tgz:267300.got - 2010.06.03 11:33:40.
