data_PCOD9098709
_publ_section_title
;
Structure prediction by ZEFSAII (Michael W. Deem and Ramdas Pophale) SiO2 
 PCOD9098709
Probable space group: P -1
;
_chemical_formula_sum "Si O2"
_cell_formula_units_Z 14
_cell_length_a 18.462487
_cell_length_b 9.349248
_cell_length_c 14.269582
_cell_angle_alpha 108.308247
_cell_angle_beta 19.655069
_cell_angle_gamma 119.395264
_cell_volume 622.846451
_symmetry_space_group_name_H-M "P -1"
_symmetry_group_IT_number 2
_symmetry_cell_setting 'triclinic'
loop_
_space_group_symop_operation_xyz
x,y,z
-x,-y,-z
loop_
_atom_site_type_symbol
_atom_site_label
_atom_site_fract_x
_atom_site_fract_y
_atom_site_fract_z
Si Si1 0.697779 0.181459 0.862057
Si Si2 0.645763 0.688323 0.739975
Si Si3 0.548486 0.128415 0.243823
Si Si4 0.988702 0.924876 0.101002
Si Si5 0.547110 0.811257 0.265238
Si Si6 0.940982 0.633840 0.215407
Si Si7 0.249427 0.262552 0.176460
O O1 0.998072 0.269227 0.480849
O O2 0.594702 0.307995 0.002057
O O3 0.672098 0.135867 0.994110
O O4 0.500000 0.000000 0.000000
O O5 0.851533 0.730050 0.416364
O O6 0.754344 0.807648 0.728710
O O7 0.526513 0.476181 0.872160
O O8 0.297112 0.128079 0.527281
O O9 0.453545 0.937947 0.375022
O O10 0.777851 0.300757 0.066796
O O11 0.981271 0.741364 0.091330
O O12 0.000000 0.000000 0.000000
O O13 0.251915 0.093056 0.872041
O O14 0.295413 0.591175 0.544596
O O15 0.730037 0.832966 0.958650
#
# Coordination Sequence:
#
# PCOD9098709 Si02
#       7
#     2   2   2   2   2   2   2
#     4  12  22  32  57  89 124 167 209 244 299 365
#     4  10  20  37  56  85 125 168 203 243 299 360
#     4  11  23  41  64  92 126 164 210 261 313 368
#     4  11  25  46  68  92 123 161 210 268 322 374
#     4  10  24  42  64  96 129 165 209 254 312 375
#     4  10  22  43  66  91 130 166 205 260 314 371
#     4  10  21  36  57  87 127 164 201 245 294 367
#
# _framework density 22.477450999999999
#
# number of rings (size 3 to 8) (size 9 to 14) (size 15 to 20)
#    0.000    1.429    2.857    2.143    2.000    5.143 
#    2.571    1.429    0.000    0.000    0.000    0.000 
#    0.000    0.000    0.000    0.000    0.000    0.000 
#
# Total GULP energy -78198.541578 kJ/mol
# GULP energy per Si atom -5585.610113 kJ/mol
# Density = 2.242629 g / cm^3
# Si number density = 22.477451 Si / 1000 Ang^3
#
#
#
# Elastic Constant Matrix: (Units=GPa)
#
#
# Indices 1 2 3 4 5 6 
#
# 1 129.1464 35.4906 14.8757 -20.3490 -17.8687 -18.6875
# 2 35.4906 63.3933 29.0086 -23.5764 -20.3429 -7.0508
# 3 14.8757 29.0086 55.8568 -20.8642 -12.8448 1.4810
# 4 -20.3490 -23.5764 -20.8642 37.4900 0.3229 -3.2310
# 5 -17.8687 -20.3429 -12.8448 0.3229 38.7369 2.0420
# 6 -18.6875 -7.0508 1.4810 -3.2310 2.0420 21.9047
#
#
#
# Elastic Compliance Matrix: (Units=1/GPa)
#
#
# Indices 1 2 3 4 5 6 
#
# 1 0.011001 -0.002237 0.001050 0.005903 0.003718 0.009118
# 2 -0.002237 0.030854 -0.007367 0.014811 0.012100 0.009578
# 3 0.001050 -0.007367 0.026723 0.010568 0.005506 -0.002237
# 4 0.005903 0.014811 0.010568 0.046230 0.012844 0.014710
# 5 0.003718 0.012100 0.005506 0.012844 0.035324 0.005296
# 6 0.009118 0.009578 -0.002237 0.014710 0.005296 0.058341
#
#
# Mechanical properties :
#
#
# Convention : Reuss Voigt Hill
#
# Bulk Modulus (GPa) = 19.42897 45.23845 32.33371
# Shear Modulus (GPa) = 20.59829 30.89443 25.74636
#
# Velocity S-wave (km/s) = 3.03049 3.71140 3.38809
# Velocity P-wave (km/s) = 4.57249 6.20772 5.45177
#
# Compressibility (1/GPa) = 0.05146953
#
# Stress axis : x y z
#
# Youngs Moduli (GPa) = 90.90282 32.41023 37.42156
#
# Poissons Ratio (x) = 0.07249 -0.03929
# Poissons Ratio (y) = 0.20332 0.27570
# Poissons Ratio (z) = -0.09545 0.23878
#
# Static dielectric constant tensor:
#      x y z
#    x 1.867130 0.018520 0.061930 
#    y 0.018520 1.856950 0.007250 
#    z 0.061930 0.007250 1.853320 
# 
# From -- ./inp_files/35384.got.cif
#   From: 2010.05.17/outbox.cif.g08.bks.cpg/sg2_18_cif.got.tgz:35384.got - 2010.06.03 11:33:40.
