data_PCOD9098867
_publ_section_title
;
Structure prediction by ZEFSAII (Michael W. Deem and Ramdas Pophale) SiO2 
 PCOD9098867
Probable space group: P -1
;
_chemical_formula_sum "Si O2"
_cell_formula_units_Z 16
_cell_length_a 6.834373
_cell_length_b 13.793992
_cell_length_c 7.285432
_cell_angle_alpha 106.416336
_cell_angle_beta 113.871251
_cell_angle_gamma 90.831988
_cell_volume 595.925475
_symmetry_space_group_name_H-M "P -1"
_symmetry_group_IT_number 2
_symmetry_cell_setting 'triclinic'
loop_
_space_group_symop_operation_xyz
x,y,z
-x,-y,-z
loop_
_atom_site_type_symbol
_atom_site_label
_atom_site_fract_x
_atom_site_fract_y
_atom_site_fract_z
Si Si1 0.655935 0.316274 0.471809
Si Si2 0.908192 0.545270 0.715042
Si Si3 0.739655 0.808032 0.611481
Si Si4 0.089880 0.895823 0.037540
Si Si5 0.615009 0.627352 0.909969
Si Si6 0.944910 0.141123 0.558084
Si Si7 0.275957 0.437441 0.726150
Si Si8 0.514925 0.015045 0.295948
O O1 0.764213 0.432873 0.599273
O O2 0.162348 0.150400 0.524549
O O3 0.830327 0.241767 0.535119
O O4 0.542306 0.308348 0.223168
O O5 0.873778 0.589101 0.522196
O O6 0.144698 0.519184 0.824329
O O7 0.827490 0.619877 0.869610
O O8 0.551550 0.711013 0.486577
O O9 0.605009 0.885307 0.711621
O O10 0.955776 0.809898 0.815295
O O11 0.045525 0.874231 0.226087
O O12 0.348413 0.919969 0.106843
O O13 0.000000 0.000000 0.000000
O O14 0.510027 0.488410 0.206078
O O15 0.682894 0.645881 0.154278
O O16 0.765705 0.048186 0.361738
O O17 0.500000 0.000000 0.500000
#
# Coordination Sequence:
#
# PCOD9098867 Si02
#       8
#     2   2   2   2   2   2   2   2
#     4  10  22  37  53  81 118 147 185 232 271 335
#     4  10  20  37  58  81 109 146 190 235 280 322
#     4  10  21  37  55  80 114 150 177 217 284 330
#     4   9  19  37  61  85 107 139 188 228 262 328
#     4  10  20  37  58  82 109 143 191 239 276 321
#     4  10  21  38  56  81 117 149 178 225 283 330
#     4   9  19  34  57  83 103 134 190 236 277 328
#     4   8  17  35  57  83 108 132 181 230 259 321
#
# _framework density 26.848994999999999
#
# number of rings (size 3 to 8) (size 9 to 14) (size 15 to 20)
#    0.000    2.500    0.000    1.875    0.000   10.000 
#    0.000   17.500    0.000    0.000    0.000    0.000 
#    0.000    0.000    0.000    0.000    0.000    0.000 
#
# Total GULP energy -89437.411049 kJ/mol
# GULP energy per Si atom -5589.838191 kJ/mol
# Density = 2.678789 g / cm^3
# Si number density = 26.848995 Si / 1000 Ang^3
#
#
#
# Elastic Constant Matrix: (Units=GPa)
#
#
# Indices 1 2 3 4 5 6 
#
# 1 99.1438 35.3779 18.2839 3.4324 1.8431 24.0280
# 2 35.3779 129.1590 52.9950 -25.5955 -9.0122 17.0130
# 3 18.2839 52.9950 99.6405 -29.2795 -8.3564 8.5365
# 4 3.4324 -25.5955 -29.2795 60.6723 10.1300 11.4283
# 5 1.8431 -9.0122 -8.3564 10.1300 30.2409 -1.2454
# 6 24.0280 17.0130 8.5365 11.4283 -1.2454 48.9911
#
#
#
# Elastic Compliance Matrix: (Units=1/GPa)
#
#
# Indices 1 2 3 4 5 6 
#
# 1 0.012461 -0.002760 -0.000875 -0.001116 -0.001647 -0.004782
# 2 -0.002760 0.011282 -0.004255 0.003137 0.001200 -0.002524
# 3 -0.000875 -0.004255 0.014251 0.005326 0.000865 -0.001797
# 4 -0.001116 0.003137 0.005326 0.022636 -0.005392 -0.006888
# 5 -0.001647 0.001200 0.000865 -0.005392 0.035670 0.002405
# 6 -0.004782 -0.002524 -0.001797 -0.006888 0.002405 0.025615
#
#
# Mechanical properties :
#
#
# Convention : Reuss Voigt Hill
#
# Bulk Modulus (GPa) = 45.01741 60.13966 52.57853
# Shear Modulus (GPa) = 34.45869 42.73329 38.59599
#
# Velocity S-wave (km/s) = 3.58638 3.99383 3.79558
# Velocity P-wave (km/s) = 5.82690 6.61177 6.23170
#
# Compressibility (1/GPa) = 0.02221363
#
# Stress axis : x y z
#
# Youngs Moduli (GPa) = 80.25109 88.63329 70.16883
#
# Poissons Ratio (x) = 0.24466 0.06138
# Poissons Ratio (y) = 0.22153 0.29860
# Poissons Ratio (z) = 0.07020 0.37717
#
# Static dielectric constant tensor:
#      x y z
#    x 2.161070 -0.032160 -0.033410 
#    y -0.032160 2.248370 0.046100 
#    z -0.033410 0.046100 2.113850 
# 
# From -- ./inp_files/202699.got.cif
#   From: 2010.05.17/outbox.cif.g08.bks.cpg/sg2_102_cif.got.tgz:202699.got - 2010.06.03 11:33:40.
