data_PCOD9098426
_publ_section_title
;
Structure prediction by ZEFSAII (Michael W. Deem and Ramdas Pophale) SiO2 
 PCOD9098426
Probable space group: P -1
;
_chemical_formula_sum "Si O2"
_cell_formula_units_Z 14
_cell_length_a 15.606059
_cell_length_b 11.062168
_cell_length_c 6.560344
_cell_angle_alpha 90.151608
_cell_angle_beta 90.531419
_cell_angle_gamma 31.444979
_cell_volume 590.776337
_symmetry_space_group_name_H-M "P -1"
_symmetry_group_IT_number 2
_symmetry_cell_setting 'triclinic'
loop_
_space_group_symop_operation_xyz
x,y,z
-x,-y,-z
loop_
_atom_site_type_symbol
_atom_site_label
_atom_site_fract_x
_atom_site_fract_y
_atom_site_fract_z
Si Si1 0.886598 0.794963 0.858075
Si Si2 0.765799 0.753288 0.167571
Si Si3 0.169713 0.742518 0.578553
Si Si4 0.345916 0.925639 0.498350
Si Si5 0.376823 0.327671 0.819413
Si Si6 0.400061 0.471968 0.207255
Si Si7 0.844354 0.095983 0.043348
O O1 0.800537 0.942719 0.648885
O O2 0.053754 0.523067 0.815925
O O3 0.773262 0.834036 0.975164
O O4 0.904087 0.888378 0.009304
O O5 0.721130 0.884131 0.365647
O O6 0.642170 0.790637 0.145212
O O7 0.203955 0.584381 0.718771
O O8 0.267484 0.598011 0.375799
O O9 0.220878 0.785681 0.737448
O O10 0.000000 0.000000 0.500000
O O11 0.487041 0.800733 0.344838
O O12 0.433745 0.729803 0.659258
O O13 0.407101 0.364713 0.027956
O O14 0.314739 0.690927 0.104117
O O15 0.000000 0.000000 0.000000
#
# Coordination Sequence:
#
# PCOD9098426 Si02
#       7
#     2   2   2   2   2   2   2
#     4  11  26  44  68 100 142 179 224 282 347 399
#     4  11  25  46  67 100 138 186 227 281 331 404
#     4  10  20  36  66 104 125 165 222 281 333 391
#     4  11  24  45  67 102 138 183 229 275 339 410
#     4  10  23  43  72  99 137 178 229 278 334 400
#     4  10  22  40  68 101 133 171 223 284 338 394
#     4  11  22  43  69 100 135 174 226 284 340 402
#
# _framework density 23.697631000000001
#
# number of rings (size 3 to 8) (size 9 to 14) (size 15 to 20)
#    0.000    1.429    1.429    3.429    0.000    6.286 
#    2.571   10.000    0.000    0.000    0.000    0.000 
#    0.000    0.000    0.000    0.000    0.000    0.000 
#
# Total GULP energy -78225.523261 kJ/mol
# GULP energy per Si atom -5587.537376 kJ/mol
# Density = 2.364369 g / cm^3
# Si number density = 23.697631 Si / 1000 Ang^3
#
#
#
# Elastic Constant Matrix: (Units=GPa)
#
#
# Indices 1 2 3 4 5 6 
#
# 1 75.0153 31.7759 22.2989 0.0606 -13.2712 12.4575
# 2 31.7759 123.4654 55.2331 -0.6116 10.7081 11.8727
# 3 22.2989 55.2331 149.9183 1.9805 4.6307 6.3526
# 4 0.0606 -0.6116 1.9805 66.8577 -5.7328 7.3037
# 5 -13.2712 10.7081 4.6307 -5.7328 14.2031 6.2205
# 6 12.4575 11.8727 6.3526 7.3037 6.2205 20.7452
#
#
#
# Elastic Compliance Matrix: (Units=1/GPa)
#
#
# Indices 1 2 3 4 5 6 
#
# 1 0.034254 -0.009596 -0.002003 0.008840 0.058895 -0.035237
# 2 -0.009596 0.013154 -0.002993 -0.002351 -0.021697 0.006484
# 3 -0.002003 -0.002993 0.008111 -0.000731 -0.003288 0.001675
# 4 0.008840 -0.002351 -0.000731 0.019179 0.026025 -0.018295
# 5 0.058895 -0.021697 -0.003288 0.026025 0.192241 -0.088749
# 6 -0.035237 0.006484 0.001675 -0.018295 -0.088749 0.098193
#
#
# Mechanical properties :
#
#
# Convention : Reuss Voigt Hill
#
# Bulk Modulus (GPa) = 37.96810 63.00163 50.48487
# Shear Modulus (GPa) = 12.40403 36.30060 24.35231
#
# Velocity S-wave (km/s) = 2.29034 3.91810 3.20914
# Velocity P-wave (km/s) = 4.80113 6.86382 5.92296
#
# Compressibility (1/GPa) = 0.02633790
#
# Stress axis : x y z
#
# Youngs Moduli (GPa) = 29.19329 76.01993 123.29014
#
# Poissons Ratio (x) = 0.72947 0.24690
# Poissons Ratio (y) = 0.28013 0.36896
# Poissons Ratio (z) = 0.05846 0.22750
#
# Static dielectric constant tensor:
#      x y z
#    x 1.894680 -0.053580 -0.034920 
#    y -0.053580 1.947170 -0.057170 
#    z -0.034920 -0.057170 1.919460 
# 
# From -- ./inp_files/108559.got.cif
#   From: 2010.05.17/outbox.cif.g08.bks.cpg/sg2_55_cif.got.tgz:108559.got - 2010.06.03 11:33:40.
