data_PCOD9098222
_publ_section_title
;
Structure prediction by ZEFSAII (Michael W. Deem and Ramdas Pophale) SiO2 
 PCOD9098222
Probable space group: P -1
;
_chemical_formula_sum "Si O2"
_cell_formula_units_Z 15
_cell_length_a 9.110614
_cell_length_b 8.880741
_cell_length_c 14.377678
_cell_angle_alpha 128.872138
_cell_angle_beta 115.706536
_cell_angle_gamma 48.637134
_cell_volume 679.382211
_symmetry_space_group_name_H-M "P -1"
_symmetry_group_IT_number 2
_symmetry_cell_setting 'triclinic'
loop_
_space_group_symop_operation_xyz
x,y,z
-x,-y,-z
loop_
_atom_site_type_symbol
_atom_site_label
_atom_site_fract_x
_atom_site_fract_y
_atom_site_fract_z
Si Si1 0.500000 0.500000 0.000000
Si Si2 0.326550 0.594576 0.186280
Si Si3 0.202490 0.261239 0.980242
Si Si4 0.043022 0.087613 0.246327
Si Si5 0.221369 0.039827 0.086991
Si Si6 0.634290 0.440217 0.367596
Si Si7 0.564592 0.060655 0.255646
Si Si8 0.410513 0.105333 0.415813
O O1 0.431600 0.602183 0.126005
O O2 0.363267 0.764299 0.023424
O O3 0.329693 0.359538 0.090680
O O4 0.445332 0.579076 0.302682
O O5 0.112237 0.832879 0.207451
O O6 0.173990 0.124022 0.000541
O O7 0.000000 0.500000 0.000000
O O8 0.299143 0.122087 0.857793
O O9 0.056604 0.105061 0.144559
O O10 0.215713 0.110466 0.343944
O O11 0.830955 0.283860 0.300675
O O12 0.345420 0.143971 0.197357
O O13 0.607003 0.259739 0.346341
O O14 0.646382 0.630997 0.500563
O O15 0.571790 0.968436 0.325585
O O16 0.500000 0.000000 0.500000
#
# Coordination Sequence:
#
# PCOD9098222 Si02
#       8
#     1   2   2   2   2   2   2   2
#     4  10  20  36  64  90 130 180 216 262 332 400
#     4  11  22  39  65  97 134 176 216 278 341 390
#     4  12  24  41  67 103 142 176 224 278 337 414
#     4  10  24  43  66 104 133 173 234 272 337 411
#     4  10  21  41  66  95 137 177 223 272 332 407
#     4  12  23  43  71  93 135 176 226 284 334 394
#     4  11  23  43  68  96 131 182 226 267 344 404
#     4  11  24  45  70  94 132 177 227 284 342 396
#
# _framework density 22.078882
#
# number of rings (size 3 to 8) (size 9 to 14) (size 15 to 20)
#    0.000    1.067    4.000    2.800    0.000    2.133 
#    0.000    4.000    0.000    0.000    0.000    0.000 
#    0.000    0.000    0.000    0.000    0.000    0.000 
#
# Total GULP energy -83571.014059 kJ/mol
# GULP energy per Si atom -5571.400937 kJ/mol
# Density = 2.202863 g / cm^3
# Si number density = 22.078882 Si / 1000 Ang^3
#
#
#
# Elastic Constant Matrix: (Units=GPa)
#
#
# Indices 1 2 3 4 5 6 
#
# 1 117.0989 45.2201 38.7275 0.0523 -14.2128 16.3787
# 2 45.2201 103.1393 30.4497 -6.8961 -10.6091 37.3651
# 3 38.7275 30.4497 79.0734 6.3850 -1.1409 16.9482
# 4 0.0523 -6.8961 6.3850 45.7996 13.1338 -1.4781
# 5 -14.2128 -10.6091 -1.1409 13.1338 46.8013 -3.6661
# 6 16.3787 37.3651 16.9482 -1.4781 -3.6661 21.4073
#
#
#
# Elastic Compliance Matrix: (Units=1/GPa)
#
#
# Indices 1 2 3 4 5 6 
#
# 1 0.011772 -0.004834 -0.004538 -0.000820 0.002870 0.003458
# 2 -0.004834 0.028820 0.001215 0.002448 0.000704 -0.047277
# 3 -0.004538 0.001215 0.017292 -0.002340 -0.001017 -0.012675
# 4 -0.000820 0.002448 -0.002340 0.024411 -0.006700 -0.001255
# 5 0.002870 0.000704 -0.001017 -0.006700 0.024338 0.001086
# 6 0.003458 -0.047277 -0.012675 -0.001255 0.001086 0.136722
#
#
# Mechanical properties :
#
#
# Convention : Reuss Voigt Hill
#
# Bulk Modulus (GPa) = 24.05528 58.67848 41.36688
# Shear Modulus (GPa) = 18.27984 35.12926 26.70455
#
# Velocity S-wave (km/s) = 2.88050 3.99316 3.48157
# Velocity P-wave (km/s) = 4.68848 6.92061 5.91087
#
# Compressibility (1/GPa) = 0.04157092
#
# Stress axis : x y z
#
# Youngs Moduli (GPa) = 84.94497 34.69807 57.83052
#
# Poissons Ratio (x) = 0.16774 0.26242
# Poissons Ratio (y) = 0.41064 -0.07028
# Poissons Ratio (z) = 0.38546 -0.04217
#
# Static dielectric constant tensor:
#      x y z
#    x 1.856610 0.034680 0.050320 
#    y 0.034680 1.797150 -0.014080 
#    z 0.050320 -0.014080 1.847820 
# 
# From -- ./inp_files/227639.got.cif
#   From: 2010.05.17/outbox.cif.g08.bks.cpg/sg2_114_cif.got.tgz:227639.got - 2010.06.03 11:33:40.
