data_PCOD9098539
_publ_section_title
;
Structure prediction by ZEFSAII (Michael W. Deem and Ramdas Pophale) SiO2 
 PCOD9098539
Probable space group: P -1
;
_chemical_formula_sum "Si O2"
_cell_formula_units_Z 15
_cell_length_a 8.959616
_cell_length_b 9.402985
_cell_length_c 15.687524
_cell_angle_alpha 76.440795
_cell_angle_beta 143.752168
_cell_angle_gamma 110.354474
_cell_volume 730.123302
_symmetry_space_group_name_H-M "P -1"
_symmetry_group_IT_number 2
_symmetry_cell_setting 'triclinic'
loop_
_space_group_symop_operation_xyz
x,y,z
-x,-y,-z
loop_
_atom_site_type_symbol
_atom_site_label
_atom_site_fract_x
_atom_site_fract_y
_atom_site_fract_z
Si Si1 0.045890 0.865854 0.100462
Si Si2 0.481723 0.640647 0.913332
Si Si3 0.695581 0.168587 0.056492
Si Si4 0.796559 0.153364 0.525512
Si Si5 0.211380 0.447873 0.659964
Si Si6 0.224688 0.082489 0.308220
Si Si7 0.000000 0.000000 0.500000
Si Si8 0.517786 0.240371 0.781207
O O1 0.238393 0.779204 0.158258
O O2 0.172991 0.948362 0.233668
O O3 0.767634 0.750195 0.009653
O O4 0.000000 0.000000 0.000000
O O5 0.328121 0.736340 0.884329
O O6 0.343420 0.572375 0.772028
O O7 0.500000 0.500000 0.000000
O O8 0.991507 0.159950 0.182245
O O9 0.598056 0.233950 0.917665
O O10 0.500000 0.000000 0.000000
O O11 0.518516 0.184400 0.412060
O O12 0.037216 0.292243 0.646220
O O13 0.792444 0.999056 0.596546
O O14 0.836513 0.111732 0.452570
O O15 0.424131 0.393523 0.709279
O O16 0.000000 0.500000 0.500000
O O17 0.731874 0.897867 0.341594
#
# Coordination Sequence:
#
# PCOD9098539 Si02
#       8
#     2   2   2   2   2   2   1   2
#     4  12  24  41  73 106 135 173 237 293 348 409
#     4  12  26  48  72  98 144 188 224 290 363 418
#     4  12  22  41  71 100 133 181 238 285 347 417
#     4  10  23  42  66  96 140 177 225 286 341 416
#     4  11  26  44  66  95 140 188 226 275 355 427
#     4  11  22  41  67 102 134 172 229 295 341 401
#     4  10  20  36  68  92 132 172 222 274 356 386
#     4  11  23  41  64 102 136 178 233 291 340 418
#
# _framework density 20.544474000000001
#
# number of rings (size 3 to 8) (size 9 to 14) (size 15 to 20)
#    0.000    0.800    5.333    2.400    1.867    4.800 
#    2.400    0.667    0.000    0.000    0.000    0.000 
#    0.000    0.000    0.000    0.000    0.000    0.000 
#
# Total GULP energy -83604.439949 kJ/mol
# GULP energy per Si atom -5573.629330 kJ/mol
# Density = 2.049771 g / cm^3
# Si number density = 20.544474 Si / 1000 Ang^3
#
#
#
# Elastic Constant Matrix: (Units=GPa)
#
#
# Indices 1 2 3 4 5 6 
#
# 1 111.4497 35.4329 29.8664 2.4671 28.5470 -30.2217
# 2 35.4329 55.5143 11.7864 -1.7088 1.9083 -17.3659
# 3 29.8664 11.7864 91.1470 0.5335 12.2550 -16.9046
# 4 2.4671 -1.7088 0.5335 45.3973 -10.1911 1.5890
# 5 28.5470 1.9083 12.2550 -10.1911 38.7874 4.1339
# 6 -30.2217 -17.3659 -16.9046 1.5890 4.1339 45.3987
#
#
#
# Elastic Compliance Matrix: (Units=1/GPa)
#
#
# Indices 1 2 3 4 5 6 
#
# 1 0.018833 -0.008089 -0.001011 -0.005202 -0.015648 0.010673
# 2 -0.008089 0.024160 -0.000631 0.002434 0.005278 0.003056
# 3 -0.001011 -0.000631 0.012712 -0.001163 -0.003997 0.004224
# 4 -0.005202 0.002434 -0.001163 0.025098 0.011189 -0.004863
# 5 -0.015648 0.005278 -0.003997 0.011189 0.042751 -0.014170
# 6 0.010673 0.003056 0.004224 -0.004863 -0.014170 0.033334
#
#
# Mechanical properties :
#
#
# Convention : Reuss Voigt Hill
#
# Bulk Modulus (GPa) = 27.59209 45.80916 36.70062
# Shear Modulus (GPa) = 26.53496 37.98502 32.25999
#
# Velocity S-wave (km/s) = 3.59776 4.30457 3.96694
# Velocity P-wave (km/s) = 5.54239 6.85942 6.23578
#
# Compressibility (1/GPa) = 0.03624227
#
# Stress axis : x y z
#
# Youngs Moduli (GPa) = 53.09879 41.39102 78.66763
#
# Poissons Ratio (x) = 0.33482 0.07955
# Poissons Ratio (y) = 0.42953 0.04961
# Poissons Ratio (z) = 0.05369 0.02610
#
# Static dielectric constant tensor:
#      x y z
#    x 1.793940 0.005410 0.001530 
#    y 0.005410 1.727610 -0.036370 
#    z 0.001530 -0.036370 1.727220 
# 
# From -- ./inp_files/240009.got.cif
#   From: 2010.05.17/outbox.cif.g08.bks.cpg/sg2_121_cif.got.tgz:240009.got - 2010.06.03 11:33:40.
