data_PCOD9098891
_publ_section_title
;
Structure prediction by ZEFSAII (Michael W. Deem and Ramdas Pophale) SiO2 
 PCOD9098891
Probable space group: P -1
;
_chemical_formula_sum "Si O2"
_cell_formula_units_Z 16
_cell_length_a 7.183505
_cell_length_b 15.974151
_cell_length_c 16.262772
_cell_angle_alpha 24.212793
_cell_angle_beta 114.718256
_cell_angle_gamma 104.742717
_cell_volume 653.665152
_symmetry_space_group_name_H-M "P -1"
_symmetry_group_IT_number 2
_symmetry_cell_setting 'triclinic'
loop_
_space_group_symop_operation_xyz
x,y,z
-x,-y,-z
loop_
_atom_site_type_symbol
_atom_site_label
_atom_site_fract_x
_atom_site_fract_y
_atom_site_fract_z
Si Si1 0.982221 0.735758 0.753403
Si Si2 0.273040 0.563995 0.821428
Si Si3 0.353514 0.255280 0.739218
Si Si4 0.601096 0.371007 0.486124
Si Si5 0.560836 0.711691 0.625108
Si Si6 0.022919 0.550647 0.627242
Si Si7 0.844965 0.900020 0.012639
Si Si8 0.301431 0.100062 0.308573
O O1 0.766319 0.785313 0.613587
O O2 0.918124 0.867109 0.709009
O O3 0.182327 0.715432 0.748994
O O4 0.000000 0.500000 0.000000
O O5 0.488696 0.579669 0.802670
O O6 0.087021 0.610946 0.674943
O O7 0.309167 0.324325 0.075264
O O8 0.448397 0.439080 0.625185
O O9 0.213625 0.329237 0.564248
O O10 0.195733 0.250358 0.788909
O O11 0.500000 0.000000 0.000000
O O12 0.417823 0.411124 0.346443
O O13 0.807991 0.382514 0.460628
O O14 0.658148 0.123746 0.750556
O O15 0.350725 0.931075 0.394973
O O16 0.066770 0.289082 0.869468
O O17 0.000000 0.000000 0.000000
O O18 0.500000 0.000000 0.500000
#
# Coordination Sequence:
#
# PCOD9098891 Si02
#       8
#     2   2   2   2   2   2   2   2
#     4   9  20  38  58  86 119 147 189 240 291 362
#     4  10  21  38  60  86 120 158 189 251 299 339
#     4  11  23  37  53  86 123 151 198 252 288 344
#     4  10  20  38  60  84 114 158 204 237 290 354
#     4  10  21  38  61  89 115 155 199 240 298 355
#     4  10  20  37  58  83 119 153 203 243 285 354
#     4  11  18  36  62  78 107 162 201 234 289 344
#     4   9  19  37  60  87 116 146 194 242 292 368
#
# _framework density 24.477364000000001
#
# number of rings (size 3 to 8) (size 9 to 14) (size 15 to 20)
#    0.000    2.000    2.500    1.500    0.000    6.500 
#    2.250    8.750    0.000    0.000    0.000    0.000 
#    0.000    0.000    0.000    0.000    0.000    0.000 
#
# Total GULP energy -89143.916046 kJ/mol
# GULP energy per Si atom -5571.494753 kJ/mol
# Density = 2.442165 g / cm^3
# Si number density = 24.477364 Si / 1000 Ang^3
#
#
#
# Elastic Constant Matrix: (Units=GPa)
#
#
# Indices 1 2 3 4 5 6 
#
# 1 42.8646 30.9397 13.7738 5.2297 -13.7381 -5.5137
# 2 30.9397 80.1859 7.6688 8.9123 8.3506 -2.2174
# 3 13.7738 7.6688 145.6922 -3.6389 -17.2828 -3.0794
# 4 5.2297 8.9123 -3.6389 38.9821 1.9402 -3.1725
# 5 -13.7381 8.3506 -17.2828 1.9402 39.8044 2.8986
# 6 -5.5137 -2.2174 -3.0794 -3.1725 2.8986 28.1349
#
#
#
# Elastic Compliance Matrix: (Units=1/GPa)
#
#
# Indices 1 2 3 4 5 6 
#
# 1 0.043498 -0.018198 -0.000953 -0.002273 0.018174 0.004857
# 2 -0.018198 0.020874 -0.000732 -0.001952 -0.010802 -0.001109
# 3 -0.000953 -0.000732 0.007372 0.000865 0.002958 0.000355
# 4 -0.002273 -0.001952 0.000865 0.026777 -0.001499 0.002669
# 5 0.018174 -0.010802 0.002958 -0.001499 0.035073 -0.000748
# 6 0.004857 -0.001109 0.000355 0.002669 -0.000748 0.036825
#
#
# Mechanical properties :
#
#
# Convention : Reuss Voigt Hill
#
# Bulk Modulus (GPa) = 31.27071 41.50082 36.38576
# Shear Modulus (GPa) = 22.64045 35.80831 29.22438
#
# Velocity S-wave (km/s) = 3.04461 3.82896 3.45908
# Velocity P-wave (km/s) = 5.01623 6.04479 5.55437
#
# Compressibility (1/GPa) = 0.03197881
#
# Stress axis : x y z
#
# Youngs Moduli (GPa) = 22.98966 47.90646 135.64205
#
# Poissons Ratio (x) = 0.87181 0.12921
# Poissons Ratio (y) = 0.41837 0.09927
# Poissons Ratio (z) = 0.02190 0.03506
#
# Static dielectric constant tensor:
#      x y z
#    x 1.972190 -0.293920 -0.102450 
#    y -0.293920 1.830100 -0.171370 
#    z -0.102450 -0.171370 1.968330 
# 
# From -- ./inp_files/227614.got.cif
#   From: 2010.05.17/outbox.cif.g08.bks.cpg/sg2_114_cif.got.tgz:227614.got - 2010.06.03 11:33:40.
