data_PCOD9098680
_publ_section_title
;
Structure prediction by ZEFSAII (Michael W. Deem and Ramdas Pophale) SiO2 
 PCOD9098680
Probable space group: P -1
;
_chemical_formula_sum "Si O2"
_cell_formula_units_Z 14
_cell_length_a 5.234266
_cell_length_b 8.034996
_cell_length_c 16.744347
_cell_angle_alpha 68.986915
_cell_angle_beta 119.856155
_cell_angle_gamma 98.311666
_cell_volume 569.638568
_symmetry_space_group_name_H-M "P -1"
_symmetry_group_IT_number 2
_symmetry_cell_setting 'triclinic'
loop_
_space_group_symop_operation_xyz
x,y,z
-x,-y,-z
loop_
_atom_site_type_symbol
_atom_site_label
_atom_site_fract_x
_atom_site_fract_y
_atom_site_fract_z
Si Si1 0.764938 0.091569 0.283615
Si Si2 0.366145 0.621232 0.387975
Si Si3 0.837455 0.442978 0.066890
Si Si4 0.136753 0.119755 0.114846
Si Si5 0.422249 0.024775 0.391491
Si Si6 0.115861 0.750511 0.114864
Si Si7 0.290514 0.309072 0.723642
O O1 0.671845 0.104853 0.360321
O O2 0.762103 0.887493 0.285997
O O3 0.106682 0.133637 0.319363
O O4 0.464995 0.172286 0.181061
O O5 0.500000 0.500000 0.500000
O O6 0.392953 0.826456 0.384634
O O7 0.543827 0.592242 0.338865
O O8 0.021051 0.595648 0.324887
O O9 0.906079 0.232386 0.113470
O O10 0.981841 0.559065 0.137999
O O11 0.500000 0.500000 0.000000
O O12 0.000000 0.500000 0.000000
O O13 0.096069 0.907053 0.150808
O O14 0.058862 0.170288 0.002776
O O15 0.500000 0.000000 0.500000
O O16 0.467488 0.717391 0.163806
#
# Coordination Sequence:
#
# PCOD9098680 Si02
#       7
#     2   2   2   2   2   2   2
#     4   9  19  35  57  82 112 146 185 234 282 337
#     4  10  20  37  56  80 112 144 185 237 287 338
#     4  10  22  38  56  84 120 154 196 244 282 334
#     4   9  19  38  62  88 120 160 198 236 293 353
#     4  10  20  37  56  80 112 144 185 237 287 338
#     4   9  19  38  62  88 120 160 198 236 293 353
#     4   9  19  35  57  82 112 146 185 234 282 337
#
# _framework density 24.576991
#
# number of rings (size 3 to 8) (size 9 to 14) (size 15 to 20)
#    0.000    2.571    0.000    0.857    0.000    5.143 
#    5.143    8.571    0.000    0.000    0.000    0.000 
#    0.000    0.000    0.000    0.000    0.000    0.000 
#
# Total GULP energy -78200.540014 kJ/mol
# GULP energy per Si atom -5585.752858 kJ/mol
# Density = 2.452105 g / cm^3
# Si number density = 24.576991 Si / 1000 Ang^3
#
#
#
# Elastic Constant Matrix: (Units=GPa)
#
#
# Indices 1 2 3 4 5 6 
#
# 1 125.5098 18.0385 21.0159 -6.7527 17.3765 -22.0628
# 2 18.0385 103.9163 -5.7853 5.0836 16.6381 -20.0913
# 3 21.0159 -5.7853 128.4196 -3.2642 -3.3241 -13.5189
# 4 -6.7527 5.0836 -3.2642 31.1325 -5.5594 5.3108
# 5 17.3765 16.6381 -3.3241 -5.5594 44.2533 -3.7706
# 6 -22.0628 -20.0913 -13.5189 5.3108 -3.7706 19.4377
#
#
#
# Elastic Compliance Matrix: (Units=1/GPa)
#
#
# Indices 1 2 3 4 5 6 
#
# 1 0.010503 0.001130 -0.000492 -0.000693 -0.003631 0.012232
# 2 0.001130 0.014039 0.002060 -0.005730 -0.004765 0.017867
# 3 -0.000492 0.002060 0.008804 -0.000771 0.000668 0.008034
# 4 -0.000693 -0.005730 -0.000771 0.036579 0.005587 -0.016156
# 5 -0.003631 -0.004765 0.000668 0.005587 0.026137 -0.005038
# 6 0.012232 0.017867 0.008034 -0.016156 -0.005038 0.092823
#
#
# Mechanical properties :
#
#
# Convention : Reuss Voigt Hill
#
# Bulk Modulus (GPa) = 25.81265 47.15375 36.48320
# Shear Modulus (GPa) = 25.45772 40.60314 33.03043
#
# Velocity S-wave (km/s) = 3.22193 4.06899 3.66998
# Velocity P-wave (km/s) = 4.93626 6.42677 5.73018
#
# Compressibility (1/GPa) = 0.03874070
#
# Stress axis : x y z
#
# Youngs Moduli (GPa) = 95.20994 71.22797 113.58931
#
# Poissons Ratio (x) = -0.08046 0.05587
# Poissons Ratio (y) = -0.10755 -0.23394
# Poissons Ratio (z) = 0.04683 -0.14670
#
# Static dielectric constant tensor:
#      x y z
#    x 2.007850 0.045680 -0.055300 
#    y 0.045680 2.045140 -0.034240 
#    z -0.055300 -0.034240 1.989680 
# 
# From -- ./inp_files/46240.got.cif
#   From: 2010.05.17/outbox.cif.g08.bks.cpg/sg2_24_cif.got.tgz:46240.got - 2010.06.03 11:33:40.
