data_PCOD9098284
_publ_section_title
;
Structure prediction by ZEFSAII (Michael W. Deem and Ramdas Pophale) SiO2 
 PCOD9098284
Probable space group: P -1
;
_chemical_formula_sum "Si O2"
_cell_formula_units_Z 14
_cell_length_a 9.414369
_cell_length_b 7.629441
_cell_length_c 15.271331
_cell_angle_alpha 93.684731
_cell_angle_beta 40.375011
_cell_angle_gamma 68.827165
_cell_volume 548.090320
_symmetry_space_group_name_H-M "P -1"
_symmetry_group_IT_number 2
_symmetry_cell_setting 'triclinic'
loop_
_space_group_symop_operation_xyz
x,y,z
-x,-y,-z
loop_
_atom_site_type_symbol
_atom_site_label
_atom_site_fract_x
_atom_site_fract_y
_atom_site_fract_z
Si Si1 0.183686 0.544180 0.627429
Si Si2 0.289901 0.064210 0.019390
Si Si3 0.645067 0.500324 0.634480
Si Si4 0.973709 0.226114 0.010358
Si Si5 0.138687 0.255337 0.524059
Si Si6 0.320613 0.922310 0.549746
Si Si7 0.760571 0.291704 0.928746
O O1 0.196118 0.641713 0.533056
O O2 0.003156 0.728099 0.791011
O O3 0.052481 0.422261 0.653577
O O4 0.507400 0.672225 0.492469
O O5 0.229610 0.165385 0.951392
O O6 0.349081 0.827607 0.975140
O O7 0.500000 0.000000 0.000000
O O8 0.335580 0.582522 0.795381
O O9 0.854006 0.360592 0.610518
O O10 0.657065 0.707999 0.619961
O O11 0.926640 0.304058 0.932502
O O12 0.000000 0.000000 0.000000
O O13 0.286392 0.996781 0.467943
O O14 0.008907 0.094659 0.742554
O O15 0.500000 0.000000 0.500000
O O16 0.500000 0.500000 0.000000
#
# Coordination Sequence:
#
# PCOD9098284 Si02
#       7
#     2   2   2   2   2   2   2
#     4   9  19  36  60  88 124 161 212 256 321 368
#     4  11  26  42  63  95 131 175 212 275 328 370
#     4   9  17  33  59  93 119 163 209 261 306 384
#     4  10  22  37  62  90 128 165 220 252 318 393
#     4   8  18  32  62  91 121 156 210 255 313 374
#     4  10  20  36  64  95 123 167 211 262 315 379
#     4  11  25  43  70  94 132 171 216 262 327 394
#
# _framework density 25.543236
#
# number of rings (size 3 to 8) (size 9 to 14) (size 15 to 20)
#    0.857    1.429    0.000    2.571    8.000    2.286 
#    0.000    2.143    0.000    3.429    0.000    0.000 
#    0.000    0.000    0.000    0.000    0.000    0.000 
#
# Total GULP energy -77935.275482 kJ/mol
# GULP energy per Si atom -5566.805392 kJ/mol
# Density = 2.548510 g / cm^3
# Si number density = 25.543236 Si / 1000 Ang^3
#
#
#
# Elastic Constant Matrix: (Units=GPa)
#
#
# Indices 1 2 3 4 5 6 
#
# 1 183.2307 40.0090 8.2440 8.3519 -4.6769 -60.5135
# 2 40.0090 122.0987 9.7104 17.3705 -6.5451 -44.8929
# 3 8.2440 9.7104 80.5125 26.4286 -0.7931 -27.3619
# 4 8.3519 17.3705 26.4286 22.0647 -1.5263 -6.3281
# 5 -4.6769 -6.5451 -0.7931 -1.5263 33.1171 1.9234
# 6 -60.5135 -44.8929 -27.3619 -6.3281 1.9234 52.9871
#
#
#
# Elastic Compliance Matrix: (Units=1/GPa)
#
#
# Indices 1 2 3 4 5 6 
#
# 1 0.011492 0.005299 0.010127 -0.014538 0.001019 0.021071
# 2 0.005299 0.019132 0.015349 -0.027619 0.002067 0.026813
# 3 0.010127 0.015349 0.040071 -0.052693 0.000733 0.038942
# 4 -0.014538 -0.027619 -0.052693 0.120525 -0.000151 -0.052814
# 5 0.001019 0.002067 0.000733 -0.000151 0.030633 0.002163
# 6 0.021071 0.026813 0.038942 -0.052814 0.002163 0.079377
#
#
# Mechanical properties :
#
#
# Convention : Reuss Voigt Hill
#
# Bulk Modulus (GPa) = 7.56176 55.75209 31.65692
# Shear Modulus (GPa) = 17.62044 43.49235 30.55639
#
# Velocity S-wave (km/s) = 2.62931 4.13085 3.46245
# Velocity P-wave (km/s) = 3.49063 6.68026 5.32965
#
# Compressibility (1/GPa) = 0.13224441
#
# Stress axis : x y z
#
# Youngs Moduli (GPa) = 87.01457 52.26927 24.95589
#
# Poissons Ratio (x) = -0.27697 -0.25273
# Poissons Ratio (y) = -0.46108 -0.38304
# Poissons Ratio (z) = -0.88122 -0.80226
#
# Static dielectric constant tensor:
#      x y z
#    x 2.237710 0.077000 0.055770 
#    y 0.077000 2.382770 0.033860 
#    z 0.055770 0.033860 2.105110 
# 
# From -- ./inp_files/495132.got.cif
#   From: 2010.05.17/outbox.cif.g08.bks.cpg/sg2_248_cif.got.tgz:495132.got - 2010.06.03 11:33:40.
