data_PCOD9098199
_publ_section_title
;
Structure prediction by ZEFSAII (Michael W. Deem and Ramdas Pophale) SiO2 
 PCOD9098199
Probable space group: P -1
;
_chemical_formula_sum "Si O2"
_cell_formula_units_Z 16
_cell_length_a 15.826851
_cell_length_b 17.024365
_cell_length_c 7.660225
_cell_angle_alpha 61.632068
_cell_angle_beta 61.595480
_cell_angle_gamma 22.805146
_cell_volume 699.615242
_symmetry_space_group_name_H-M "P -1"
_symmetry_group_IT_number 2
_symmetry_cell_setting 'triclinic'
loop_
_space_group_symop_operation_xyz
x,y,z
-x,-y,-z
loop_
_atom_site_type_symbol
_atom_site_label
_atom_site_fract_x
_atom_site_fract_y
_atom_site_fract_z
Si Si1 0.544287 0.952760 0.798728
Si Si2 0.001083 0.339705 0.356023
Si Si3 0.091217 0.399669 0.708355
Si Si4 0.452877 0.678484 0.305892
Si Si5 0.849345 0.975738 0.515253
Si Si6 0.687172 0.633800 0.943538
Si Si7 0.593125 0.615960 0.697183
Si Si8 0.317219 0.630710 0.291377
O O1 0.334779 0.165710 0.685931
O O2 0.754455 0.831502 0.654755
O O3 0.577151 0.821511 0.869865
O O4 0.500000 0.000000 0.000000
O O5 0.069611 0.192196 0.340213
O O6 0.906480 0.520470 0.238170
O O7 0.819188 0.455280 0.547064
O O8 0.000000 0.500000 0.500000
O O9 0.944192 0.442360 0.884136
O O10 0.403174 0.658601 0.208676
O O11 0.574610 0.515545 0.499936
O O12 0.225531 0.905808 0.367537
O O13 0.610535 0.631254 0.171636
O O14 0.054857 0.847808 0.347629
O O15 0.627050 0.166190 0.415199
O O16 0.609404 0.649799 0.829469
O O17 0.608188 0.495248 0.807112
#
# Coordination Sequence:
#
# PCOD9098199 Si02
#       8
#     2   2   2   2   2   2   2   2
#     4  11  26  41  61  93 127 167 211 264 312 364
#     4  10  21  37  63  83 124 161 208 248 307 365
#     4  11  24  42  62  90 125 169 211 251 309 371
#     4  10  21  41  62  92 122 162 203 261 311 372
#     4  10  20  36  64  88 120 157 214 244 313 364
#     4  11  25  39  63  89 130 158 212 255 312 361
#     4  10  21  38  58  95 117 166 200 257 302 376
#     4   9  21  40  66  88 122 161 208 251 317 376
#
# _framework density 22.869714999999999
#
# number of rings (size 3 to 8) (size 9 to 14) (size 15 to 20)
#    0.000    1.750    1.250    1.875    1.750    9.500 
#    0.000    0.625    0.000    0.000    0.000    0.000 
#    0.000    0.000    0.000    0.000    0.000    0.000 
#
# Total GULP energy -89264.418043 kJ/mol
# GULP energy per Si atom -5579.026128 kJ/mol
# Density = 2.281766 g / cm^3
# Si number density = 22.869715 Si / 1000 Ang^3
#
#
#
# Elastic Constant Matrix: (Units=GPa)
#
#
# Indices 1 2 3 4 5 6 
#
# 1 121.4715 38.5076 24.2243 4.5081 -13.0324 29.1706
# 2 38.5076 152.4620 23.1062 -0.7996 -5.1557 1.5104
# 3 24.2243 23.1062 45.7412 6.3079 -7.8473 -1.1729
# 4 4.5081 -0.7996 6.3079 18.2525 4.3892 -0.4366
# 5 -13.0324 -5.1557 -7.8473 4.3892 43.5191 8.2804
# 6 29.1706 1.5104 -1.1729 -0.4366 8.2804 33.1658
#
#
#
# Elastic Compliance Matrix: (Units=1/GPa)
#
#
# Indices 1 2 3 4 5 6 
#
# 1 0.014229 -0.002496 -0.005082 -0.003676 0.006113 -0.014155
# 2 -0.002496 0.007594 -0.002943 0.002253 -0.000990 0.002022
# 3 -0.005082 -0.002943 0.027981 -0.009205 0.003215 0.004669
# 4 -0.003676 0.002253 -0.009205 0.061489 -0.009851 0.006074
# 5 0.006113 -0.000990 0.003215 -0.009851 0.028643 -0.012499
# 6 -0.014155 0.002022 0.004669 0.006074 -0.012499 0.045875
#
#
# Mechanical properties :
#
#
# Convention : Reuss Voigt Hill
#
# Bulk Modulus (GPa) = 34.76840 54.59453 44.68147
# Shear Modulus (GPa) = 23.10120 34.57657 28.83889
#
# Velocity S-wave (km/s) = 3.18169 3.89253 3.55492
# Velocity P-wave (km/s) = 5.36035 6.64275 6.03571
#
# Compressibility (1/GPa) = 0.02876175
#
# Stress axis : x y z
#
# Youngs Moduli (GPa) = 70.28089 131.68820 35.73885
#
# Poissons Ratio (x) = 0.32868 0.18162
# Poissons Ratio (y) = 0.17541 0.10517
# Poissons Ratio (z) = 0.35716 0.38754
#
# Static dielectric constant tensor:
#      x y z
#    x 1.912810 0.015510 0.040160 
#    y 0.015510 1.821130 -0.008710 
#    z 0.040160 -0.008710 1.972160 
# 
# From -- ./inp_files/336705.got.cif
#   From: 2010.05.17/outbox.cif.g08.bks.cpg/sg2_169_cif.got.tgz:336705.got - 2010.06.03 11:33:40.
