data_PCOD9098830
_publ_section_title
;
Structure prediction by ZEFSAII (Michael W. Deem and Ramdas Pophale) SiO2 
 PCOD9098830
Probable space group: P -1
;
_chemical_formula_sum "Si O2"
_cell_formula_units_Z 16
_cell_length_a 25.762247
_cell_length_b 14.165497
_cell_length_c 20.115150
_cell_angle_alpha 159.282634
_cell_angle_beta 159.100067
_cell_angle_gamma 20.692900
_cell_volume 808.155023
_symmetry_space_group_name_H-M "P -1"
_symmetry_group_IT_number 2
_symmetry_cell_setting 'triclinic'
loop_
_space_group_symop_operation_xyz
x,y,z
-x,-y,-z
loop_
_atom_site_type_symbol
_atom_site_label
_atom_site_fract_x
_atom_site_fract_y
_atom_site_fract_z
Si Si1 0.282883 0.680709 0.540892
Si Si2 0.678717 0.279443 0.605114
Si Si3 0.028921 0.877028 0.246814
Si Si4 0.789651 0.740766 0.091338
Si Si5 0.289729 0.887379 0.896353
Si Si6 0.471948 0.943829 0.623944
Si Si7 0.520179 0.186308 0.707211
Si Si8 0.869271 0.670714 0.809057
O O1 0.157102 0.731303 0.364164
O O2 0.457793 0.401116 0.545525
O O3 0.216082 0.540837 0.425549
O O4 0.281276 0.987897 0.761808
O O5 0.500000 0.500000 0.500000
O O6 0.843852 0.096672 0.636168
O O7 0.662278 0.029966 0.466057
O O8 0.706483 0.529328 0.843234
O O9 0.859008 0.110506 0.236376
O O10 0.962018 0.688806 0.998878
O O11 0.983197 0.501815 0.180110
O O12 0.775198 0.913674 0.117474
O O13 0.430114 0.543927 0.821025
O O14 0.382656 0.028079 0.144553
O O15 0.439388 0.145051 0.651774
O O16 0.500000 0.000000 0.500000
O O17 0.720215 0.012550 0.843507
#
# Coordination Sequence:
#
# PCOD9098830 Si02
#       8
#     2   2   2   2   2   2   2   2
#     4  11  19  32  57  96 120 156 197 265 306 350
#     4  11  22  41  58  93 129 169 202 253 312 376
#     4  11  21  34  62  88 123 159 208 252 300 369
#     4  11  23  34  64  94 129 156 207 263 317 361
#     4  12  21  39  66  95 118 165 212 258 306 367
#     4  11  22  41  64  86 131 164 207 250 309 375
#     4  11  25  40  63  95 125 159 207 266 312 361
#     4  10  20  37  57  90 125 160 198 259 308 365
#
# _framework density 19.798182000000001
#
# number of rings (size 3 to 8) (size 9 to 14) (size 15 to 20)
#    0.000    1.000    6.250    3.375    1.750    0.500 
#    0.000    0.625    0.000    3.000    0.000    0.000 
#    0.000    0.000    0.000    0.000    0.000    0.000 
#
# Total GULP energy -89092.047970 kJ/mol
# GULP energy per Si atom -5568.252998 kJ/mol
# Density = 1.975312 g / cm^3
# Si number density = 19.798182 Si / 1000 Ang^3
#
#
#
# Elastic Constant Matrix: (Units=GPa)
#
#
# Indices 1 2 3 4 5 6 
#
# 1 58.2608 10.5689 26.3406 -14.3336 17.4534 2.3304
# 2 10.5689 73.8713 26.6936 12.8760 8.0503 5.6583
# 3 26.3406 26.6936 44.2808 -11.1420 6.9819 -9.7404
# 4 -14.3336 12.8760 -11.1420 18.4602 -8.2085 -5.1440
# 5 17.4534 8.0503 6.9819 -8.2085 34.7977 -8.9726
# 6 2.3304 5.6583 -9.7404 -5.1440 -8.9726 17.2108
#
#
#
# Elastic Compliance Matrix: (Units=1/GPa)
#
#
# Indices 1 2 3 4 5 6 
#
# 1 0.025379 -0.012064 0.003632 0.034428 0.000894 0.013342
# 2 -0.012064 -0.013436 0.035463 0.049290 0.027964 0.055432
# 3 0.003632 0.035463 -0.031449 -0.081088 -0.042533 -0.076360
# 4 0.034428 0.049290 -0.081088 -0.058581 -0.055395 -0.113147
# 5 0.000894 0.027964 -0.042533 -0.055395 0.005093 -0.047288
# 6 0.013342 0.055432 -0.076360 -0.113147 -0.047288 -0.063614
#
#
# Mechanical properties :
#
#
# Convention : Reuss Voigt Hill
#
# Bulk Modulus (GPa) = 28.93905 33.73545 31.33725
# Shear Modulus (GPa) = -27.90913 21.61439 -3.14737
#
# Velocity S-wave (km/s) = -3.75865 3.30773 -1.26221
# Velocity P-wave (km/s) = 2.04641 5.62714 3.70654
#
# Compressibility (1/GPa) = 0.03455539
#
# Stress axis : x y z
#
# Youngs Moduli (GPa) = 39.40263 -74.42509 -31.79730
#
# Poissons Ratio (x) = -0.89785 0.11549
# Poissons Ratio (y) = 0.47534 1.12762
# Poissons Ratio (z) = -0.14312 2.63931
#
# Static dielectric constant tensor:
#      x y z
#    x 1.777700 -0.015360 -0.008430 
#    y -0.015360 1.721030 -0.018630 
#    z -0.008430 -0.018630 1.675510 
# 
# From -- ./inp_files/416256.got.cif
#   From: 2010.05.17/outbox.cif.g08.bks.cpg/sg2_209_cif.got.tgz:416256.got - 2010.06.03 11:33:40.
