data_PCOD9098990
_publ_section_title
;
Structure prediction by ZEFSAII (Michael W. Deem and Ramdas Pophale) SiO2 
 PCOD9098990
Probable space group: P -1
;
_chemical_formula_sum "Si O2"
_cell_formula_units_Z 16
_cell_length_a 16.702135
_cell_length_b 14.425268
_cell_length_c 13.618748
_cell_angle_alpha 51.103077
_cell_angle_beta 24.068214
_cell_angle_gamma 36.615905
_cell_volume 720.029712
_symmetry_space_group_name_H-M "P -1"
_symmetry_group_IT_number 2
_symmetry_cell_setting 'triclinic'
loop_
_space_group_symop_operation_xyz
x,y,z
-x,-y,-z
loop_
_atom_site_type_symbol
_atom_site_label
_atom_site_fract_x
_atom_site_fract_y
_atom_site_fract_z
Si Si1 0.775509 0.317210 0.177015
Si Si2 0.202997 0.186010 0.634485
Si Si3 0.658972 0.165001 0.056882
Si Si4 0.246513 0.468693 0.194141
Si Si5 0.529596 0.673869 0.173034
Si Si6 0.794794 0.683403 0.051104
Si Si7 0.275547 0.916211 0.626880
Si Si8 0.990472 0.153613 0.256814
O O1 0.567674 0.516871 0.260074
O O2 0.692564 0.232461 0.269759
O O3 0.811070 0.267092 0.283851
O O4 0.076248 0.230227 0.855758
O O5 0.431939 0.188986 0.358494
O O6 0.923781 0.340776 0.778315
O O7 0.313734 0.009778 0.593574
O O8 0.505087 0.347762 0.061685
O O9 0.750960 0.036235 0.950356
O O10 0.952363 0.061501 0.852322
O O11 0.000000 0.500000 0.500000
O O12 0.365988 0.358818 0.032740
O O13 0.723864 0.661540 0.038915
O O14 0.204745 0.837759 0.457711
O O15 0.506133 0.823049 0.344345
O O16 0.918892 0.761322 0.854927
O O17 0.000000 0.500000 0.000000
#
# Coordination Sequence:
#
# PCOD9098990 Si02
#       8
#     2   2   2   2   2   2   2   2
#     4  10  20  37  58  90 126 161 194 249 299 369
#     4  10  21  40  61  88 125 161 208 246 302 357
#     4  10  21  41  61  86 122 161 205 254 298 350
#     4   9  22  44  68  86 117 166 206 254 299 353
#     4  11  21  41  62  91 124 158 203 248 307 358
#     4  12  22  37  61  91 127 161 196 244 305 370
#     4  11  22  37  59  93 124 161 199 250 305 360
#     4  11  21  36  59  90 125 159 199 249 309 359
#
# _framework density 22.221305000000001
#
# number of rings (size 3 to 8) (size 9 to 14) (size 15 to 20)
#    0.000    1.500    5.000    1.500    0.000    3.000 
#    2.250    9.375    0.000    0.000    0.000    0.000 
#    0.000    0.000    0.000    0.000    0.000    0.000 
#
# Total GULP energy -89373.319477 kJ/mol
# GULP energy per Si atom -5585.832467 kJ/mol
# Density = 2.217073 g / cm^3
# Si number density = 22.221305 Si / 1000 Ang^3
#
#
#
# Elastic Constant Matrix: (Units=GPa)
#
#
# Indices 1 2 3 4 5 6 
#
# 1 41.0498 17.7280 38.5300 -12.0020 4.2751 -1.2152
# 2 17.7280 56.4218 -7.2308 -0.1005 -2.7584 -2.7362
# 3 38.5300 -7.2308 133.2625 -7.1612 21.3541 -0.1248
# 4 -12.0020 -0.1005 -7.1612 19.6330 -0.8706 -3.1835
# 5 4.2751 -2.7584 21.3541 -0.8706 42.7928 -0.7134
# 6 -1.2152 -2.7362 -0.1248 -3.1835 -0.7134 24.4021
#
#
#
# Elastic Compliance Matrix: (Units=1/GPa)
#
#
# Indices 1 2 3 4 5 6 
#
# 1 0.056280 -0.019384 -0.016036 0.029252 0.001799 0.004416
# 2 -0.019384 0.024658 0.006422 -0.009273 0.000143 0.000627
# 3 -0.016036 0.006422 0.012929 -0.005394 -0.004560 -0.000849
# 4 0.029252 -0.009273 -0.005394 0.068346 0.000718 0.009327
# 5 0.001799 0.000143 -0.004560 0.000718 0.025503 0.000921
# 6 0.004416 0.000627 -0.000849 0.009327 0.000921 0.042510
#
#
# Mechanical properties :
#
#
# Convention : Reuss Voigt Hill
#
# Bulk Modulus (GPa) = 27.87869 36.53204 32.20537
# Shear Modulus (GPa) = 16.65670 29.47937 23.06804
#
# Velocity S-wave (km/s) = 2.74082 3.64624 3.22546
# Velocity P-wave (km/s) = 4.75282 5.84829 5.32878
#
# Compressibility (1/GPa) = 0.03586969
#
# Stress axis : x y z
#
# Youngs Moduli (GPa) = 17.76835 40.55445 77.34613
#
# Poissons Ratio (x) = 0.78612 1.24033
# Poissons Ratio (y) = 0.34443 -0.49670
# Poissons Ratio (z) = 0.28494 -0.26043
#
# Static dielectric constant tensor:
#      x y z
#    x 1.840740 -0.022230 -0.012380 
#    y -0.022230 1.849730 0.027250 
#    z -0.012380 0.027250 1.839350 
# 
# From -- ./inp_files/455594.got.cif
#   From: 2010.05.17/outbox.cif.g08.bks.cpg/sg2_228_cif.got.tgz:455594.got - 2010.06.03 11:33:40.
