data_PCOD9098257
_publ_section_title
;
Structure prediction by ZEFSAII (Michael W. Deem and Ramdas Pophale) SiO2 
 PCOD9098257
Probable space group: P -1
;
_chemical_formula_sum "Si O2"
_cell_formula_units_Z 16
_cell_length_a 8.513546
_cell_length_b 14.111618
_cell_length_c 12.163398
_cell_angle_alpha 98.930910
_cell_angle_beta 72.844910
_cell_angle_gamma 152.172596
_cell_volume 633.271832
_symmetry_space_group_name_H-M "P -1"
_symmetry_group_IT_number 2
_symmetry_cell_setting 'triclinic'
loop_
_space_group_symop_operation_xyz
x,y,z
-x,-y,-z
loop_
_atom_site_type_symbol
_atom_site_label
_atom_site_fract_x
_atom_site_fract_y
_atom_site_fract_z
Si Si1 0.033851 0.065148 0.797475
Si Si2 0.539040 0.186206 0.819970
Si Si3 0.091530 0.650642 0.457873
Si Si4 0.446173 0.511294 0.324271
Si Si5 0.880545 0.219820 0.189087
Si Si6 0.380191 0.074137 0.414765
Si Si7 0.336480 0.808716 0.979674
Si Si8 0.299547 0.233756 0.374353
O O1 0.322960 0.172598 0.842483
O O2 0.217407 0.249949 0.732541
O O3 0.660589 0.907779 0.894061
O O4 0.946959 0.937580 0.703332
O O5 0.773447 0.288443 0.682088
O O6 0.224238 0.942815 0.847891
O O7 0.776069 0.294554 0.899539
O O8 0.425902 0.855322 0.500833
O O9 0.000000 0.500000 0.500000
O O10 0.769956 0.553661 0.540989
O O11 0.512566 0.434850 0.322351
O O12 0.182825 0.380668 0.248527
O O13 0.521030 0.077034 0.293108
O O14 0.940007 0.314537 0.084554
O O15 0.492149 0.239301 0.382169
O O16 0.967491 0.867907 0.493706
O O17 0.500000 0.000000 0.000000
#
# Coordination Sequence:
#
# PCOD9098257 Si02
#       8
#     2   2   2   2   2   2   2   2
#     4  12  22  44  68  97 131 176 221 270 325 395
#     4  11  21  40  69  92 129 183 217 262 331 389
#     4  11  20  39  63 100 137 168 215 269 328 395
#     4  11  23  39  70 104 134 167 219 275 330 394
#     4  10  20  40  66  96 130 174 218 268 326 393
#     4  10  20  36  64  92 135 177 217 263 330 399
#     4  10  24  44  68  92 128 182 225 268 327 390
#     4  11  21  39  63  99 135 177 214 272 337 384
#
# _framework density 25.265611
#
# number of rings (size 3 to 8) (size 9 to 14) (size 15 to 20)
#    0.000    1.250    5.000    1.125    0.000    2.000 
#    4.500    6.250    0.000    0.000    0.000    0.000 
#    0.000    0.000    0.000    0.000    0.000    0.000 
#
# Total GULP energy -89627.301688 kJ/mol
# GULP energy per Si atom -5601.706356 kJ/mol
# Density = 2.520811 g / cm^3
# Si number density = 25.265611 Si / 1000 Ang^3
#
#
#
# Elastic Constant Matrix: (Units=GPa)
#
#
# Indices 1 2 3 4 5 6 
#
# 1 124.9810 42.9556 40.3055 -5.5276 28.7421 -18.0600
# 2 42.9556 54.0137 10.7433 -2.1540 14.4340 -10.5681
# 3 40.3055 10.7433 123.7579 9.5308 47.8678 5.9499
# 4 -5.5276 -2.1540 9.5308 20.3119 -2.1894 15.0288
# 5 28.7421 14.4340 47.8678 -2.1894 41.1408 4.4176
# 6 -18.0600 -10.5681 5.9499 15.0288 4.4176 52.0826
#
#
#
# Elastic Compliance Matrix: (Units=1/GPa)
#
#
# Indices 1 2 3 4 5 6 
#
# 1 0.012894 -0.008135 -0.002233 0.000971 -0.003840 0.003121
# 2 -0.008135 0.027434 0.004246 -0.005881 -0.009708 0.004781
# 3 -0.002233 0.004246 0.017664 -0.013610 -0.021618 0.003830
# 4 0.000971 -0.005881 -0.013610 0.074732 0.023654 -0.022873
# 5 -0.003840 -0.009708 -0.021618 0.023654 0.058159 -0.012590
# 6 0.003121 0.004781 0.003830 -0.022873 -0.012590 0.028483
#
#
# Mechanical properties :
#
#
# Convention : Reuss Voigt Hill
#
# Bulk Modulus (GPa) = 21.85837 54.52905 38.19371
# Shear Modulus (GPa) = 20.25439 36.62361 28.43900
#
# Velocity S-wave (km/s) = 2.83443 3.81142 3.35864
# Velocity P-wave (km/s) = 4.40252 6.40300 5.49457
#
# Compressibility (1/GPa) = 0.04574907
#
# Stress axis : x y z
#
# Youngs Moduli (GPa) = 77.55446 36.45117 56.61077
#
# Poissons Ratio (x) = 0.29652 0.12641
# Poissons Ratio (y) = 0.63089 -0.24036
# Poissons Ratio (z) = 0.17317 -0.15477
#
# Static dielectric constant tensor:
#      x y z
#    x 1.956010 0.008200 0.046040 
#    y 0.008200 2.066750 0.058860 
#    z 0.046040 0.058860 1.999140 
# 
# From -- ./inp_files/399113.got.cif
#   From: 2010.05.17/outbox.cif.g08.bks.cpg/sg2_200_cif.got.tgz:399113.got - 2010.06.03 11:33:40.
