data_PCOD9098729
_publ_section_title
;
Structure prediction by ZEFSAII (Michael W. Deem and Ramdas Pophale) SiO2 
 PCOD9098729
Probable space group: P -1
;
_chemical_formula_sum "Si O2"
_cell_formula_units_Z 12
_cell_length_a 19.290014
_cell_length_b 12.631950
_cell_length_c 9.030068
_cell_angle_alpha 80.834914
_cell_angle_beta 61.660232
_cell_angle_gamma 27.450424
_cell_volume 681.714620
_symmetry_space_group_name_H-M "P -1"
_symmetry_group_IT_number 2
_symmetry_cell_setting 'triclinic'
loop_
_space_group_symop_operation_xyz
x,y,z
-x,-y,-z
loop_
_atom_site_type_symbol
_atom_site_label
_atom_site_fract_x
_atom_site_fract_y
_atom_site_fract_z
Si Si1 0.080298 0.493909 0.526055
Si Si2 0.992191 0.258954 0.717568
Si Si3 0.433790 0.104829 0.873239
Si Si4 0.187826 0.822402 0.761755
Si Si5 0.358964 0.829170 0.656676
Si Si6 0.811491 0.789564 0.022592
O O1 0.053475 0.634201 0.420381
O O2 0.000000 0.500000 0.500000
O O3 0.339460 0.147914 0.376903
O O4 0.930682 0.684818 0.779965
O O5 0.774973 0.550257 0.975902
O O6 0.076938 0.029597 0.692438
O O7 0.188591 0.075255 0.641651
O O8 0.346249 0.106560 0.890971
O O9 0.500000 0.000000 0.000000
O O10 0.292814 0.787789 0.758037
O O11 0.389340 0.492327 0.579949
O O12 0.000000 0.000000 0.000000
O O13 0.313504 0.961411 0.812136
O O14 0.000000 0.500000 0.000000
#
# Coordination Sequence:
#
# PCOD9098729 Si02
#       6
#     2   2   2   2   2   2
#     4  11  21  36  57  84 123 158 184 233 297 351
#     4   9  18  38  57  85 113 153 198 225 292 352
#     4  10  20  37  56  90 117 152 195 227 296 365
#     4   9  19  38  61  82 113 156 199 238 289 336
#     4   9  20  37  57  90 114 145 206 242 279 348
#     4  12  21  37  59  89 124 148 192 249 288 340
#
# _framework density 17.602674
#
# number of rings (size 3 to 8) (size 9 to 14) (size 15 to 20)
#    1.000    1.000    5.000    0.000    0.000    4.667 
#    0.000    0.833    0.000    5.000    0.000    0.000 
#    0.000    0.000    0.000    0.000    0.000    0.000 
#
# Total GULP energy -66810.449310 kJ/mol
# GULP energy per Si atom -5567.537442 kJ/mol
# Density = 1.756261 g / cm^3
# Si number density = 17.602674 Si / 1000 Ang^3
#
#
#
# Elastic Constant Matrix: (Units=GPa)
#
#
# Indices 1 2 3 4 5 6 
#
# 1 81.7411 17.4281 52.6248 13.7272 10.5377 -8.6694
# 2 17.4281 79.7441 45.3884 18.4248 4.1335 -4.6213
# 3 52.6248 45.3884 135.0458 29.1745 -1.5924 -3.8749
# 4 13.7272 18.4248 29.1745 38.4208 1.2061 0.3642
# 5 10.5377 4.1335 -1.5924 1.2061 33.7182 5.0173
# 6 -8.6694 -4.6213 -3.8749 0.3642 5.0173 14.8150
#
#
#
# Elastic Compliance Matrix: (Units=1/GPa)
#
#
# Indices 1 2 3 4 5 6 
#
# 1 0.019460 0.001612 -0.007438 -0.001934 -0.008476 0.012863
# 2 0.001612 0.016708 -0.005103 -0.004661 -0.003539 0.006134
# 3 -0.007438 -0.005103 0.013011 -0.004874 0.004317 -0.003883
# 4 -0.001934 -0.004661 -0.004874 0.032685 0.000495 -0.004831
# 5 -0.008476 -0.003539 0.004317 0.000495 0.035449 -0.016952
# 6 0.012863 0.006134 -0.003883 -0.004831 -0.016952 0.081783
#
#
# Mechanical properties :
#
#
# Convention : Reuss Voigt Hill
#
# Bulk Modulus (GPa) = 36.60103 58.60153 47.60128
# Shear Modulus (GPa) = 21.73344 29.46345 25.59844
#
# Velocity S-wave (km/s) = 3.51759 4.09566 3.81758
# Velocity P-wave (km/s) = 6.11032 7.46521 6.82149
#
# Compressibility (1/GPa) = 0.02732164
#
# Stress axis : x y z
#
# Youngs Moduli (GPa) = 51.38641 59.85246 76.85934
#
# Poissons Ratio (x) = -0.09649 0.57170
# Poissons Ratio (y) = -0.08284 0.39218
# Poissons Ratio (z) = 0.38223 0.30540
#
# Static dielectric constant tensor:
#      x y z
#    x 1.591760 0.006840 -0.023640 
#    y 0.006840 1.641680 0.013160 
#    z -0.023640 0.013160 1.582320 
# 
# From -- ./inp_files/229277.got.cif
#   From: 2010.05.17/outbox.cif.g08.bks.cpg/sg2_115_cif.got.tgz:229277.got - 2010.06.03 11:33:40.
