data_PCOD9098881
_publ_section_title
;
Structure prediction by ZEFSAII (Michael W. Deem and Ramdas Pophale) SiO2 
 PCOD9098881
Probable space group: P -1
;
_chemical_formula_sum "Si O2"
_cell_formula_units_Z 14
_cell_length_a 17.249412
_cell_length_b 6.647498
_cell_length_c 6.637713
_cell_angle_alpha 69.799829
_cell_angle_beta 74.693150
_cell_angle_gamma 52.202269
_cell_volume 563.017480
_symmetry_space_group_name_H-M "P -1"
_symmetry_group_IT_number 2
_symmetry_cell_setting 'triclinic'
loop_
_space_group_symop_operation_xyz
x,y,z
-x,-y,-z
loop_
_atom_site_type_symbol
_atom_site_label
_atom_site_fract_x
_atom_site_fract_y
_atom_site_fract_z
Si Si1 0.477419 0.696099 0.129109
Si Si2 0.023811 0.982775 0.726318
Si Si3 0.097715 0.209013 0.067209
Si Si4 0.359592 0.707752 0.581448
Si Si5 0.588460 0.948398 0.315942
Si Si6 0.804818 0.586510 0.297545
Si Si7 0.856597 0.824171 0.484773
O O1 0.399786 0.706100 0.331840
O O2 0.572392 0.573308 0.254643
O O3 0.500000 0.500000 0.000000
O O4 0.438947 0.952482 0.931020
O O5 0.121637 0.684958 0.772197
O O6 0.052906 0.184298 0.674040
O O7 0.934020 0.989665 0.885795
O O8 0.000000 0.000000 0.500000
O O9 0.125783 0.190041 0.286687
O O10 0.184316 0.197849 0.894235
O O11 0.000000 0.500000 0.000000
O O12 0.384332 0.874263 0.646340
O O13 0.242787 0.889288 0.587309
O O14 0.500000 0.000000 0.500000
O O15 0.694560 0.669091 0.353640
O O16 0.842581 0.605775 0.485080
#
# Coordination Sequence:
#
# PCOD9098881 Si02
#       7
#     2   2   2   2   2   2   2
#     4   9  18  34  55  78 110 149 193 240 285 338
#     4   9  20  36  57  86 112 144 191 238 286 346
#     4   9  19  36  57  82 111 146 188 235 291 347
#     4   9  19  35  56  81 109 154 198 234 288 346
#     4  10  21  36  55  83 117 154 193 239 291 344
#     4  10  21  38  59  82 114 155 190 235 296 341
#     4  10  20  37  58  82 115 149 190 238 287 349
#
# _framework density 24.866012999999999
#
# number of rings (size 3 to 8) (size 9 to 14) (size 15 to 20)
#    0.000    2.571    0.000    0.857    0.000    9.714 
#    0.000   12.857    0.000    0.000    0.000    0.000 
#    0.000    0.000    0.000    0.000    0.000    0.000 
#
# Total GULP energy -78128.222938 kJ/mol
# GULP energy per Si atom -5580.587353 kJ/mol
# Density = 2.480942 g / cm^3
# Si number density = 24.866013 Si / 1000 Ang^3
#
#
#
# Elastic Constant Matrix: (Units=GPa)
#
#
# Indices 1 2 3 4 5 6 
#
# 1 146.6287 18.0691 33.7537 -2.6478 3.3954 -20.5185
# 2 18.0691 86.6742 24.7443 0.4796 0.8454 -5.6609
# 3 33.7537 24.7443 156.2090 -1.7790 -0.1948 -30.7666
# 4 -2.6478 0.4796 -1.7790 38.6974 -3.0198 -1.1653
# 5 3.3954 0.8454 -0.1948 -3.0198 33.6916 0.5726
# 6 -20.5185 -5.6609 -30.7666 -1.1653 0.5726 30.6484
#
#
#
# Elastic Compliance Matrix: (Units=1/GPa)
#
#
# Indices 1 2 3 4 5 6 
#
# 1 0.007747 -0.001146 -0.000623 0.000587 -0.000777 0.004386
# 2 -0.001146 0.012263 -0.001752 -0.000337 -0.000228 -0.000270
# 3 -0.000623 -0.001752 0.008325 0.000598 0.000079 0.007638
# 4 0.000587 -0.000337 0.000598 0.026147 0.002264 0.001883
# 5 -0.000777 -0.000228 0.000079 0.002264 0.029985 -0.000958
# 6 0.004386 -0.000270 0.007638 0.001883 -0.000958 0.043272
#
#
# Mechanical properties :
#
#
# Convention : Reuss Voigt Hill
#
# Bulk Modulus (GPa) = 46.96450 60.29402 53.62926
# Shear Modulus (GPa) = 35.24146 41.47047 38.35596
#
# Velocity S-wave (km/s) = 3.76873 4.08825 3.93174
# Velocity P-wave (km/s) = 6.15352 6.82534 6.49812
#
# Compressibility (1/GPa) = 0.02129268
#
# Stress axis : x y z
#
# Youngs Moduli (GPa) = 129.08228 81.54534 120.11980
#
# Poissons Ratio (x) = 0.09349 0.07480
# Poissons Ratio (y) = 0.14798 0.21046
# Poissons Ratio (z) = 0.08038 0.14287
#
# Static dielectric constant tensor:
#      x y z
#    x 14.395040 2.955050 1.054870 
#    y 2.955050 2.751230 0.205970 
#    z 1.054870 0.205970 2.117610 
# 
# From -- ./inp_files/46753.got.cif
#   From: 2010.05.17/outbox.cif.g08.bks.cpg/sg2_24_cif.got.tgz:46753.got - 2010.06.03 11:33:40.
