data_PCOD9098184
_publ_section_title
;
Structure prediction by ZEFSAII (Michael W. Deem and Ramdas Pophale) SiO2 
 PCOD9098184
Probable space group: P -1
;
_chemical_formula_sum "Si O2"
_cell_formula_units_Z 14
_cell_length_a 19.310275
_cell_length_b 14.958367
_cell_length_c 7.665592
_cell_angle_alpha 54.341758
_cell_angle_beta 134.024469
_cell_angle_gamma 156.830059
_cell_volume 614.053972
_symmetry_space_group_name_H-M "P -1"
_symmetry_group_IT_number 2
_symmetry_cell_setting 'triclinic'
loop_
_space_group_symop_operation_xyz
x,y,z
-x,-y,-z
loop_
_atom_site_type_symbol
_atom_site_label
_atom_site_fract_x
_atom_site_fract_y
_atom_site_fract_z
Si Si1 0.308079 0.485939 0.202531
Si Si2 0.955966 0.292172 0.282545
Si Si3 0.642682 0.380691 0.508003
Si Si4 0.763380 0.741063 0.382039
Si Si5 0.404601 0.195055 0.986445
Si Si6 0.729760 0.214802 0.220017
Si Si7 0.998610 0.314068 0.713718
O O1 0.413255 0.666203 0.332996
O O2 0.304430 0.361727 0.422977
O O3 0.427342 0.621988 0.078810
O O4 0.073748 0.291306 0.993710
O O5 0.861975 0.309707 0.175274
O O6 0.167354 0.508623 0.306798
O O7 0.004045 0.277887 0.565497
O O8 0.788873 0.059457 0.146248
O O9 0.720747 0.585441 0.381645
O O10 0.485032 0.206249 0.277005
O O11 0.655022 0.742140 0.130940
O O12 0.000000 0.000000 0.500000
O O13 0.826177 0.419278 0.244187
O O14 0.791359 0.177382 0.505348
O O15 0.500000 0.000000 0.000000
#
# Coordination Sequence:
#
# PCOD9098184 Si02
#       7
#     2   2   2   2   2   2   2
#     4  10  22  38  62  88 120 159 203 245 296 349
#     4  10  20  36  64  86 118 162 189 247 304 346
#     4  10  23  39  59  87 125 157 198 250 293 348
#     4  10  22  41  58  88 124 160 200 248 295 348
#     4  12  19  41  61  86 122 158 210 237 294 351
#     4   9  18  34  64  91 115 154 199 240 302 360
#     4   9  19  38  58  91 120 150 197 248 292 360
#
# _framework density 22.799299999999999
#
# number of rings (size 3 to 8) (size 9 to 14) (size 15 to 20)
#    1.714    0.286    2.857    1.714    0.000    0.000 
#    5.143    2.143    0.000    1.714    0.000    0.000 
#    0.000    0.000    0.000    0.000    0.000    0.000 
#
# Total GULP energy -77994.770178 kJ/mol
# GULP energy per Si atom -5571.055013 kJ/mol
# Density = 2.274741 g / cm^3
# Si number density = 22.799300 Si / 1000 Ang^3
#
#
#
# Elastic Constant Matrix: (Units=GPa)
#
#
# Indices 1 2 3 4 5 6 
#
# 1 90.8579 17.2840 18.6422 9.5322 1.6308 8.6451
# 2 17.2840 55.1667 48.0461 11.4557 -5.1062 -1.9494
# 3 18.6422 48.0461 127.5434 34.2351 2.1024 7.3080
# 4 9.5322 11.4557 34.2351 35.6084 -1.2330 -9.7881
# 5 1.6308 -5.1062 2.1024 -1.2330 41.2404 7.7199
# 6 8.6451 -1.9494 7.3080 -9.7881 7.7199 28.9386
#
#
#
# Elastic Compliance Matrix: (Units=1/GPa)
#
#
# Indices 1 2 3 4 5 6 
#
# 1 0.012676 -0.004521 0.001603 -0.005193 -0.000134 -0.006217
# 2 -0.004521 0.029973 -0.012766 0.006093 0.003266 0.007783
# 3 0.001603 -0.012766 0.017360 -0.016040 -0.000970 -0.010889
# 4 -0.005193 0.006093 -0.016040 0.049202 -0.001044 0.022933
# 5 -0.000134 0.003266 -0.000970 -0.001044 0.025943 -0.006769
# 6 -0.006217 0.007783 -0.010889 0.022933 -0.006769 0.049250
#
#
# Mechanical properties :
#
#
# Convention : Reuss Voigt Hill
#
# Bulk Modulus (GPa) = 34.91371 49.05698 41.98535
# Shear Modulus (GPa) = 22.19064 33.79719 27.99391
#
# Velocity S-wave (km/s) = 3.12317 3.85434 3.50786
# Velocity P-wave (km/s) = 5.32469 6.43207 5.90440
#
# Compressibility (1/GPa) = 0.02864204
#
# Stress axis : x y z
#
# Youngs Moduli (GPa) = 78.88807 33.36310 57.60236
#
# Poissons Ratio (x) = 0.15084 -0.09232
# Poissons Ratio (y) = 0.35666 0.73533
# Poissons Ratio (z) = -0.12644 0.42590
#
# Static dielectric constant tensor:
#      x y z
#    x 1.863750 0.034980 -0.002140 
#    y 0.034980 1.852300 -0.035450 
#    z -0.002140 -0.035450 1.886280 
# 
# From -- ./inp_files/354801.got.cif
#   From: 2010.05.17/outbox.cif.g08.bks.cpg/sg2_178_cif.got.tgz:354801.got - 2010.06.03 11:33:40.
