data_PCOD9098165
_publ_section_title
;
Structure prediction by ZEFSAII (Michael W. Deem and Ramdas Pophale) SiO2 
 PCOD9098165
Probable space group: P -1
;
_chemical_formula_sum "Si O2"
_cell_formula_units_Z 13
_cell_length_a 9.822552
_cell_length_b 5.383113
_cell_length_c 11.411836
_cell_angle_alpha 97.638397
_cell_angle_beta 105.958456
_cell_angle_gamma 96.075013
_cell_volume 568.554455
_symmetry_space_group_name_H-M "P -1"
_symmetry_group_IT_number 2
_symmetry_cell_setting 'triclinic'
loop_
_space_group_symop_operation_xyz
x,y,z
-x,-y,-z
loop_
_atom_site_type_symbol
_atom_site_label
_atom_site_fract_x
_atom_site_fract_y
_atom_site_fract_z
Si Si1 0.370580 0.895969 0.783844
Si Si2 0.602572 0.296367 0.990239
Si Si3 0.104252 0.596600 0.360903
Si Si4 0.574192 0.257805 0.466663
Si Si5 0.940174 0.040322 0.278509
Si Si6 0.151300 0.468197 0.098991
Si Si7 0.000000 0.000000 0.000000
O O1 0.318151 0.709957 0.866848
O O2 0.434008 0.787979 0.677238
O O3 0.228012 0.015452 0.732483
O O4 0.499773 0.066586 0.891410
O O5 0.500000 0.500000 0.000000
O O6 0.724283 0.376855 0.931372
O O7 0.255687 0.672388 0.464941
O O8 0.146868 0.556970 0.233748
O O9 0.009965 0.325526 0.353192
O O10 0.016619 0.830863 0.349214
O O11 0.500000 0.500000 0.500000
O O12 0.500000 0.000000 0.500000
O O13 0.963921 0.020342 0.140431
O O14 0.000000 0.500000 0.000000
O O15 0.153408 0.171295 0.068641
#
# Coordination Sequence:
#
# PCOD9098165 Si02
#       7
#     2   2   2   2   2   2   1
#     4  11  28  45  73 108 149 193 251 312 374 450
#     4  11  25  44  72 110 148 196 239 313 389 445
#     4  11  25  43  73 104 141 196 243 300 363 443
#     4  12  29  53  75 104 148 201 257 310 370 447
#     4  11  24  43  70 110 144 187 242 304 372 437
#     4  11  21  39  67 102 143 187 243 300 364 438
#     4  10  20  36  64 104 146 180 230 300 360 438
#
# _framework density 22.865003999999999
#
# number of rings (size 3 to 8) (size 9 to 14) (size 15 to 20)
#    0.000    0.923    1.538    4.615    6.462    2.462 
#    0.000    0.000    0.000    0.000    0.000    0.000 
#    0.000    0.000    0.000    0.000    0.000    0.000 
#
# Total GULP energy -72379.625769 kJ/mol
# GULP energy per Si atom -5567.663521 kJ/mol
# Density = 2.281296 g / cm^3
# Si number density = 22.865004 Si / 1000 Ang^3
#
#
#
# Elastic Constant Matrix: (Units=GPa)
#
#
# Indices 1 2 3 4 5 6 
#
# 1 112.7455 45.4750 34.5562 6.6623 10.9976 -3.9530
# 2 45.4750 103.9754 35.2491 15.2597 -4.9605 -10.0012
# 3 34.5562 35.2491 132.0799 21.6866 0.1036 -5.1265
# 4 6.6623 15.2597 21.6866 19.8160 0.1311 1.8281
# 5 10.9976 -4.9605 0.1036 0.1311 27.8698 -2.5184
# 6 -3.9530 -10.0012 -5.1265 1.8281 -2.5184 41.7216
#
#
#
# Elastic Compliance Matrix: (Units=1/GPa)
#
#
# Indices 1 2 3 4 5 6 
#
# 1 0.012042 -0.005249 -0.002190 0.002505 -0.005766 -0.000844
# 2 -0.005249 0.014003 -0.000850 -0.008437 0.004916 0.003421
# 3 -0.002190 -0.000850 0.010012 -0.009691 0.000838 0.001294
# 4 0.002505 -0.008437 -0.009691 0.067312 -0.003325 -0.006126
# 5 -0.005766 0.004916 0.000838 -0.003325 0.039338 0.003255
# 6 -0.000844 0.003421 0.001294 -0.006126 0.003255 0.025333
#
#
# Mechanical properties :
#
#
# Convention : Reuss Voigt Hill
#
# Bulk Modulus (GPa) = 51.33070 64.37350 57.85210
# Shear Modulus (GPa) = 26.16305 33.44951 29.80628
#
# Velocity S-wave (km/s) = 3.38633 3.82895 3.61442
# Velocity P-wave (km/s) = 6.14718 6.91106 6.54028
#
# Compressibility (1/GPa) = 0.01948152
#
# Stress axis : x y z
#
# Youngs Moduli (GPa) = 83.03987 71.41273 99.88440
#
# Poissons Ratio (x) = 0.37482 0.21870
# Poissons Ratio (y) = 0.43584 0.08487
# Poissons Ratio (z) = 0.18182 0.06068
#
# Static dielectric constant tensor:
#      x y z
#    x 1.974830 0.035920 0.020450 
#    y 0.035920 2.028350 -0.063920 
#    z 0.020450 -0.063920 1.855780 
# 
# From -- ./inp_files/372799.got.cif
#   From: 2010.05.17/outbox.cif.g08.bks.cpg/sg2_187_cif.got.tgz:372799.got - 2010.06.03 11:33:40.
