data_PCOD9098592
_publ_section_title
;
Structure prediction by ZEFSAII (Michael W. Deem and Ramdas Pophale) SiO2 
 PCOD9098592
Probable space group: P -1
;
_chemical_formula_sum "Si O2"
_cell_formula_units_Z 16
_cell_length_a 12.327314
_cell_length_b 14.396176
_cell_length_c 9.359769
_cell_angle_alpha 124.972796
_cell_angle_beta 113.326636
_cell_angle_gamma 29.675104
_cell_volume 652.190171
_symmetry_space_group_name_H-M "P -1"
_symmetry_group_IT_number 2
_symmetry_cell_setting 'triclinic'
loop_
_space_group_symop_operation_xyz
x,y,z
-x,-y,-z
loop_
_atom_site_type_symbol
_atom_site_label
_atom_site_fract_x
_atom_site_fract_y
_atom_site_fract_z
Si Si1 0.212086 0.299530 0.318808
Si Si2 0.679325 0.538104 0.471388
Si Si3 0.797333 0.099359 0.904572
Si Si4 0.314078 0.464278 0.022798
Si Si5 0.793624 0.105504 0.561840
Si Si6 0.988998 0.267433 0.129853
Si Si7 0.990701 0.296172 0.658877
Si Si8 0.619814 0.850248 0.292017
O O1 0.303590 0.346335 0.361489
O O2 0.000000 0.500000 0.500000
O O3 0.097570 0.296480 0.161460
O O4 0.442368 0.045442 0.258612
O O5 0.779267 0.460205 0.296258
O O6 0.868610 0.333372 0.494159
O O7 0.439267 0.676389 0.450529
O O8 0.548988 0.338120 0.038821
O O9 0.786124 0.120508 0.744956
O O10 0.840383 0.941421 0.864368
O O11 0.000000 0.000000 0.000000
O O12 0.129344 0.685343 0.029676
O O13 0.364888 0.298300 0.834580
O O14 0.203643 0.530549 0.174513
O O15 0.824621 0.946058 0.409511
O O16 0.000000 0.000000 0.500000
O O17 0.132382 0.294793 0.708801
O O18 0.500000 0.000000 0.500000
#
# Coordination Sequence:
#
# PCOD9098592 Si02
#       8
#     2   2   2   2   2   2   2   2
#     4  10  20  36  73 108 134 177 229 285 349 423
#     4  11  22  45  73 104 140 185 234 287 360 426
#     4  12  28  49  74 103 137 189 248 295 352 423
#     4  12  27  45  71 111 150 183 233 298 361 425
#     4  12  28  49  74 103 137 189 248 295 352 423
#     4  11  22  45  73 104 140 185 234 287 360 426
#     4  12  27  45  71 111 150 183 233 298 361 425
#     4  12  21  44  76 105 149 190 236 287 350 441
#
# _framework density 24.532722
#
# number of rings (size 3 to 8) (size 9 to 14) (size 15 to 20)
#    0.000    0.500    5.000    4.875    3.500    2.000 
#    0.000    1.250    0.000    0.000    0.000    0.000 
#    0.000    0.000    0.000    0.000    0.000    0.000 
#
# Total GULP energy -89257.588371 kJ/mol
# GULP energy per Si atom -5578.599273 kJ/mol
# Density = 2.447688 g / cm^3
# Si number density = 24.532722 Si / 1000 Ang^3
#
#
#
# Elastic Constant Matrix: (Units=GPa)
#
#
# Indices 1 2 3 4 5 6 
#
# 1 91.1854 29.8377 21.7009 -1.4484 -4.8827 -28.0166
# 2 29.8377 152.4037 20.6637 -23.3146 -12.8244 -40.9646
# 3 21.7009 20.6637 66.8368 -2.4842 -18.3549 -12.0406
# 4 -1.4484 -23.3146 -2.4842 20.9460 4.3650 4.8895
# 5 -4.8827 -12.8244 -18.3549 4.3650 36.3646 8.9203
# 6 -28.0166 -40.9646 -12.0406 4.8895 8.9203 58.9442
#
#
#
# Elastic Compliance Matrix: (Units=1/GPa)
#
#
# Indices 1 2 3 4 5 6 
#
# 1 0.013743 -0.001143 -0.003616 -0.001691 -0.001496 0.005366
# 2 -0.001143 0.009824 -0.001313 0.009437 0.000241 0.005197
# 3 -0.003616 -0.001313 0.018897 -0.001295 0.008742 0.000013
# 4 -0.001691 0.009437 -0.001295 0.058684 -0.004933 0.001369
# 5 -0.001496 0.000241 0.008742 -0.004933 0.033216 -0.003376
# 6 0.005366 0.005197 0.000013 0.001369 -0.003376 0.023527
#
#
# Mechanical properties :
#
#
# Convention : Reuss Voigt Hill
#
# Bulk Modulus (GPa) = 32.98114 50.53670 41.75892
# Shear Modulus (GPa) = 27.75610 39.13253 33.44432
#
# Velocity S-wave (km/s) = 3.36726 3.99822 3.69623
# Velocity P-wave (km/s) = 5.34704 6.47756 5.93926
#
# Compressibility (1/GPa) = 0.03032036
#
# Stress axis : x y z
#
# Youngs Moduli (GPa) = 72.76534 101.79113 52.91914
#
# Poissons Ratio (x) = 0.11630 0.19135
# Poissons Ratio (y) = 0.08314 0.06949
# Poissons Ratio (z) = 0.26311 0.13367
#
# Static dielectric constant tensor:
#      x y z
#    x 2.005560 0.050830 0.037220 
#    y 0.050830 1.998430 0.001800 
#    z 0.037220 0.001800 1.941280 
# 
# From -- ./inp_files/273761.got.cif
#   From: 2010.05.17/outbox.cif.g08.bks.cpg/sg2_137_cif.got.tgz:273761.got - 2010.06.03 11:33:40.
