data_PCOD9098127
_publ_section_title
;
Structure prediction by ZEFSAII (Michael W. Deem and Ramdas Pophale) SiO2 
 PCOD9098127
Probable space group: P -1
;
_chemical_formula_sum "Si O2"
_cell_formula_units_Z 16
_cell_length_a 15.334010
_cell_length_b 11.573503
_cell_length_c 9.684535
_cell_angle_alpha 54.660476
_cell_angle_beta 39.741488
_cell_angle_gamma 76.650191
_cell_volume 817.499293
_symmetry_space_group_name_H-M "P -1"
_symmetry_group_IT_number 2
_symmetry_cell_setting 'triclinic'
loop_
_space_group_symop_operation_xyz
x,y,z
-x,-y,-z
loop_
_atom_site_type_symbol
_atom_site_label
_atom_site_fract_x
_atom_site_fract_y
_atom_site_fract_z
Si Si1 0.391734 0.636581 0.653699
Si Si2 0.554679 0.015011 0.764809
Si Si3 0.157861 0.043500 0.137039
Si Si4 0.869212 0.393456 0.833011
Si Si5 0.355494 0.915906 0.831005
Si Si6 0.314026 0.395387 0.666909
Si Si7 0.145120 0.959697 0.519569
Si Si8 0.974495 0.611364 0.067655
O O1 0.412825 0.811291 0.458240
O O2 0.357647 0.532282 0.630177
O O3 0.539090 0.625833 0.544790
O O4 0.257423 0.559873 0.978067
O O5 0.703427 0.981370 0.616875
O O6 0.429523 0.896906 0.898128
O O7 0.500000 0.000000 0.000000
O O8 0.984254 0.976779 0.349167
O O9 0.176421 0.973012 0.308670
O O10 0.216318 0.226820 0.968729
O O11 0.262655 0.016664 0.914554
O O12 0.000000 0.500000 0.500000
O O13 0.765486 0.235806 0.989012
O O14 0.955088 0.383429 0.873356
O O15 0.500000 0.000000 0.500000
O O16 0.199992 0.422416 0.683540
O O17 0.064370 0.781160 0.780289
O O18 0.000000 0.500000 0.000000
#
# Coordination Sequence:
#
# PCOD9098127 Si02
#       8
#     2   2   2   2   2   2   2   2
#     4  11  21  41  64  99 130 167 216 276 331 372
#     4  12  21  39  68  98 124 170 231 266 316 387
#     4  10  21  36  61 100 129 167 213 270 336 370
#     4  12  27  42  63  98 137 178 210 262 342 396
#     4  12  23  42  64  89 139 170 209 262 331 397
#     4  10  20  37  69  93 128 161 220 284 319 369
#     4  10  20  36  63  96 127 155 228 276 308 375
#     4  11  21  40  65  94 124 168 224 265 318 387
#
# _framework density 19.571881999999999
#
# number of rings (size 3 to 8) (size 9 to 14) (size 15 to 20)
#    0.000    1.000    6.250    0.000    1.750    2.000 
#    0.000    7.500    0.000    0.000    0.000    0.000 
#    0.000    0.000    0.000    0.000    0.000    0.000 
#
# Total GULP energy -89128.412455 kJ/mol
# GULP energy per Si atom -5570.525778 kJ/mol
# Density = 1.952734 g / cm^3
# Si number density = 19.571882 Si / 1000 Ang^3
#
#
#
# Elastic Constant Matrix: (Units=GPa)
#
#
# Indices 1 2 3 4 5 6 
#
# 1 174.0802 58.8931 56.8582 10.4282 -33.7488 4.0495
# 2 58.8931 55.3995 36.5908 10.2258 -5.7668 3.2847
# 3 56.8582 36.5908 125.0633 17.9571 -9.2649 -3.2851
# 4 10.4282 10.2258 17.9571 24.4525 -4.4624 -11.6278
# 5 -33.7488 -5.7668 -9.2649 -4.4624 43.2908 6.2078
# 6 4.0495 3.2847 -3.2851 -11.6278 6.2078 27.1384
#
#
#
# Elastic Compliance Matrix: (Units=1/GPa)
#
#
# Indices 1 2 3 4 5 6 
#
# 1 0.011091 -0.009951 -0.001814 0.001236 0.007320 -0.001815
# 2 -0.009951 0.033274 -0.004199 -0.010499 -0.004367 -0.006551
# 3 -0.001814 -0.004199 0.010829 -0.005581 -0.000194 -0.000257
# 4 0.001236 -0.010499 -0.005581 0.061689 0.000911 0.026634
# 5 0.007320 -0.004367 -0.000194 0.000911 0.029265 -0.006891
# 6 -0.001815 -0.006551 -0.000257 0.026634 -0.006891 0.050869
#
#
# Mechanical properties :
#
#
# Convention : Reuss Voigt Hill
#
# Bulk Modulus (GPa) = 42.97989 73.24748 58.11368
# Shear Modulus (GPa) = 21.12382 32.45640 26.79011
#
# Velocity S-wave (km/s) = 3.28883 4.07666 3.70375
# Velocity P-wave (km/s) = 6.03569 7.72431 6.93161
#
# Compressibility (1/GPa) = 0.02326670
#
# Stress axis : x y z
#
# Youngs Moduli (GPa) = 90.16691 30.05310 92.34143
#
# Poissons Ratio (x) = 0.29905 0.16748
# Poissons Ratio (y) = 0.89722 0.38779
# Poissons Ratio (z) = 0.16354 0.12621
#
# Static dielectric constant tensor:
#      x y z
#    x 1.828710 -0.070780 -0.155910 
#    y -0.070780 1.682050 0.003820 
#    z -0.155910 0.003820 1.758590 
# 
# From -- ./inp_files/306680.got.cif
#   From: 2010.05.17/outbox.cif.g08.bks.cpg/sg2_154_cif.got.tgz:306680.got - 2010.06.03 11:33:40.
