data_PCOD9098387
_publ_section_title
;
Structure prediction by ZEFSAII (Michael W. Deem and Ramdas Pophale) SiO2 
 PCOD9098387
Probable space group: P -1
;
_chemical_formula_sum "Si O2"
_cell_formula_units_Z 16
_cell_length_a 9.051398
_cell_length_b 11.205365
_cell_length_c 11.932093
_cell_angle_alpha 98.334133
_cell_angle_beta 129.988441
_cell_angle_gamma 62.913286
_cell_volume 805.950910
_symmetry_space_group_name_H-M "P -1"
_symmetry_group_IT_number 2
_symmetry_cell_setting 'triclinic'
loop_
_space_group_symop_operation_xyz
x,y,z
-x,-y,-z
loop_
_atom_site_type_symbol
_atom_site_label
_atom_site_fract_x
_atom_site_fract_y
_atom_site_fract_z
Si Si1 0.530553 0.674202 0.263968
Si Si2 0.428679 0.180861 0.890456
Si Si3 0.730737 0.862314 0.972634
Si Si4 0.920906 0.714165 0.444733
Si Si5 0.588686 0.439400 0.412005
Si Si6 0.099419 0.918309 0.151061
Si Si7 0.980350 0.929445 0.639374
Si Si8 0.382295 0.845797 0.665785
O O1 0.506994 0.712941 0.124719
O O2 0.779423 0.642398 0.405728
O O3 0.495959 0.554888 0.285146
O O4 0.358304 0.818189 0.254673
O O5 0.245484 0.181935 0.715789
O O6 0.620106 0.025435 0.967293
O O7 0.325027 0.215062 0.966876
O O8 0.601929 0.855041 0.799788
O O9 0.984476 0.821350 0.092095
O O10 0.958103 0.796821 0.574334
O O11 0.147893 0.624592 0.480111
O O12 0.500000 0.500000 0.500000
O O13 0.549977 0.310736 0.350243
O O14 0.041922 0.025023 0.237935
O O15 0.000000 0.000000 0.000000
O O16 0.216705 0.896962 0.699286
O O17 0.779486 0.056841 0.495945
#
# Coordination Sequence:
#
# PCOD9098387 Si02
#       8
#     2   2   2   2   2   2   2   2
#     4  10  22  39  58  88 124 165 207 239 308 365
#     4   9  19  35  64  87 120 162 197 248 308 373
#     4  11  20  38  62  91 124 160 202 247 320 361
#     4   9  20  40  62  91 118 160 207 257 305 361
#     4  11  23  39  63  88 124 161 210 257 304 362
#     4  12  24  38  60  96 131 159 195 257 310 370
#     4  10  20  36  65  94 122 151 211 259 304 356
#     4  10  21  38  63  94 117 162 210 256 297 367
#
# _framework density 19.852325
#
# number of rings (size 3 to 8) (size 9 to 14) (size 15 to 20)
#    0.750    1.000    2.500    2.625    5.250    0.500 
#    2.250    1.250    0.000    0.000    0.000    0.000 
#    0.000    0.000    0.000    0.000    0.000    0.000 
#
# Total GULP energy -89112.984808 kJ/mol
# GULP energy per Si atom -5569.561550 kJ/mol
# Density = 1.980714 g / cm^3
# Si number density = 19.852325 Si / 1000 Ang^3
#
#
#
# Elastic Constant Matrix: (Units=GPa)
#
#
# Indices 1 2 3 4 5 6 
#
# 1 83.9670 36.9843 29.4679 3.1204 -10.8426 -8.9274
# 2 36.9843 72.0660 14.7342 0.7674 -11.0576 -7.1430
# 3 29.4679 14.7342 67.5431 10.8683 -5.1644 -14.8016
# 4 3.1204 0.7674 10.8683 21.7529 1.8458 -3.2810
# 5 -10.8426 -11.0576 -5.1644 1.8458 39.6312 -5.6487
# 6 -8.9274 -7.1430 -14.8016 -3.2810 -5.6487 33.4471
#
#
#
# Elastic Compliance Matrix: (Units=1/GPa)
#
#
# Indices 1 2 3 4 5 6 
#
# 1 0.017550 -0.007419 -0.005763 0.000591 0.002090 0.000960
# 2 -0.007419 0.018475 -0.000049 0.000532 0.003462 0.002581
# 3 -0.005763 -0.000049 0.020444 -0.008528 0.002480 0.007081
# 4 0.000591 0.000532 -0.008528 0.050527 -0.003020 0.000944
# 5 0.002090 0.003462 0.002480 -0.003020 0.028212 0.006863
# 6 0.000960 0.002581 0.007081 0.000944 0.006863 0.035091
#
#
# Mechanical properties :
#
#
# Convention : Reuss Voigt Hill
#
# Bulk Modulus (GPa) = 33.32584 42.88321 38.10452
# Shear Modulus (GPa) = 24.18242 28.45889 26.32066
#
# Velocity S-wave (km/s) = 3.49394 3.79031 3.64513
# Velocity P-wave (km/s) = 5.75327 6.38774 6.07879
#
# Compressibility (1/GPa) = 0.03000675
#
# Stress axis : x y z
#
# Youngs Moduli (GPa) = 56.98138 54.12814 48.91399
#
# Poissons Ratio (x) = 0.40155 0.28190
# Poissons Ratio (y) = 0.42272 0.00240
# Poissons Ratio (z) = 0.32839 0.00265
#
# Static dielectric constant tensor:
#      x y z
#    x 1.790360 0.032000 0.020910 
#    y 0.032000 1.686410 -0.020020 
#    z 0.020910 -0.020020 1.713390 
# 
# From -- ./inp_files/390518.got.cif
#   From: 2010.05.17/outbox.cif.g08.bks.cpg/sg2_196_cif.got.tgz:390518.got - 2010.06.03 11:33:40.
