data_PCOD9098489
_publ_section_title
;
Structure prediction by ZEFSAII (Michael W. Deem and Ramdas Pophale) SiO2 
 PCOD9098489
Probable space group: P -1
;
_chemical_formula_sum "Si O2"
_cell_formula_units_Z 15
_cell_length_a 22.762100
_cell_length_b 8.813479
_cell_length_c 9.524969
_cell_angle_alpha 112.576202
_cell_angle_beta 153.199200
_cell_angle_gamma 56.468760
_cell_volume 687.250541
_symmetry_space_group_name_H-M "P -1"
_symmetry_group_IT_number 2
_symmetry_cell_setting 'triclinic'
loop_
_space_group_symop_operation_xyz
x,y,z
-x,-y,-z
loop_
_atom_site_type_symbol
_atom_site_label
_atom_site_fract_x
_atom_site_fract_y
_atom_site_fract_z
Si Si1 0.691451 0.313575 0.281429
Si Si2 0.889370 0.656285 0.427707
Si Si3 0.993343 0.938382 0.808924
Si Si4 0.694279 0.514015 0.091843
Si Si5 0.612228 0.571528 0.458108
Si Si6 0.500000 0.500000 0.500000
Si Si7 0.323342 0.126804 0.196285
Si Si8 0.835121 0.096894 0.107005
O O1 0.683926 0.472970 0.215781
O O2 0.691843 0.381810 0.464596
O O3 0.838643 0.118409 0.486180
O O4 0.543097 0.306351 0.919097
O O5 0.974098 0.755948 0.708603
O O6 0.822324 0.563510 0.355079
O O7 0.000000 0.500000 0.500000
O O8 0.755800 0.807960 0.099829
O O9 0.124744 0.904960 0.970706
O O10 0.000000 0.000000 0.000000
O O11 0.728297 0.319141 0.006550
O O12 0.540446 0.646122 0.729468
O O13 0.568752 0.539451 0.509793
O O14 0.699192 0.687868 0.701614
O O15 0.500000 0.000000 0.500000
O O16 0.247319 0.018725 0.070944
O O17 0.000000 0.000000 0.500000
#
# Coordination Sequence:
#
# PCOD9098489 Si02
#       8
#     2   2   2   2   2   1   2   2
#     4  10  23  44  65  96 146 175 225 284 363 400
#     4  12  24  42  69 103 136 178 240 290 329 418
#     4  12  27  44  65 100 142 187 224 285 353 411
#     4  11  21  40  68  95 131 175 226 279 339 405
#     4  10  22  41  69  99 130 181 225 289 343 414
#     4  10  20  36  66  98 120 170 230 272 332 408
#     4  12  24  43  73 104 135 178 245 286 340 417
#     4  12  23  44  67  97 139 187 224 281 350 416
#
# _framework density 21.826103
#
# number of rings (size 3 to 8) (size 9 to 14) (size 15 to 20)
#    0.000    0.800    5.333    2.400    3.733    1.067 
#    0.000    1.333    0.000    4.800    0.000    0.000 
#    0.000    0.000    0.000    0.000    0.000    0.000 
#
# Total GULP energy -83651.935002 kJ/mol
# GULP energy per Si atom -5576.795667 kJ/mol
# Density = 2.177643 g / cm^3
# Si number density = 21.826103 Si / 1000 Ang^3
#
#
#
# Elastic Constant Matrix: (Units=GPa)
#
#
# Indices 1 2 3 4 5 6 
#
# 1 157.0640 53.1741 39.9507 31.4983 4.3856 11.3812
# 2 53.1741 95.6144 33.1700 32.1027 9.5776 0.9162
# 3 39.9507 33.1700 73.5472 20.7999 6.7214 7.9205
# 4 31.4983 32.1027 20.7999 49.0051 1.4107 13.6311
# 5 4.3856 9.5776 6.7214 1.4107 43.2885 9.1755
# 6 11.3812 0.9162 7.9205 13.6311 9.1755 36.3623
#
#
#
# Elastic Compliance Matrix: (Units=1/GPa)
#
#
# Indices 1 2 3 4 5 6 
#
# 1 0.008606 -0.003326 -0.002541 -0.001871 0.000641 -0.001517
# 2 -0.003326 0.016830 -0.003548 -0.008845 -0.003745 0.005651
# 3 -0.002541 -0.003548 0.017738 -0.003122 -0.001296 -0.001482
# 4 -0.001871 -0.008845 -0.003122 0.031796 0.004021 -0.011446
# 5 0.000641 -0.003745 -0.001296 0.004021 0.025585 -0.007787
# 6 -0.001517 0.005651 -0.001482 -0.011446 -0.007787 0.034412
#
#
# Mechanical properties :
#
#
# Convention : Reuss Voigt Hill
#
# Bulk Modulus (GPa) = 41.07876 64.31279 52.69577
# Shear Modulus (GPa) = 30.88058 39.05991 34.97025
#
# Velocity S-wave (km/s) = 3.76553 4.23495 4.00712
# Velocity P-wave (km/s) = 6.14552 7.31048 6.75316
#
# Compressibility (1/GPa) = 0.02434348
#
# Stress axis : x y z
#
# Youngs Moduli (GPa) = 116.19128 59.41625 56.37573
#
# Poissons Ratio (x) = 0.19764 0.14325
# Poissons Ratio (y) = 0.38650 0.20005
# Poissons Ratio (z) = 0.29524 0.21083
#
# Static dielectric constant tensor:
#      x y z
#    x 1.748190 -0.016800 0.052820 
#    y -0.016800 1.773540 0.074220 
#    z 0.052820 0.074220 1.583520 
# 
# From -- ./inp_files/342890.got.cif
#   From: 2010.05.17/outbox.cif.g08.bks.cpg/sg2_172_cif.got.tgz:342890.got - 2010.06.03 11:33:40.
