data_PCOD9098799
_publ_section_title
;
Structure prediction by ZEFSAII (Michael W. Deem and Ramdas Pophale) SiO2 
 PCOD9098799
Probable space group: P -1
;
_chemical_formula_sum "Si O2"
_cell_formula_units_Z 16
_cell_length_a 11.665393
_cell_length_b 13.814430
_cell_length_c 15.185613
_cell_angle_alpha 154.717854
_cell_angle_beta 53.441395
_cell_angle_gamma 133.807340
_cell_volume 750.589796
_symmetry_space_group_name_H-M "P -1"
_symmetry_group_IT_number 2
_symmetry_cell_setting 'triclinic'
loop_
_space_group_symop_operation_xyz
x,y,z
-x,-y,-z
loop_
_atom_site_type_symbol
_atom_site_label
_atom_site_fract_x
_atom_site_fract_y
_atom_site_fract_z
Si Si1 0.660482 0.668918 0.829695
Si Si2 0.330969 0.556016 0.536131
Si Si3 0.653670 0.724491 0.302526
Si Si4 0.606297 0.416639 0.819290
Si Si5 0.808065 0.186399 0.084277
Si Si6 0.870015 0.563755 0.953259
Si Si7 0.650626 0.924812 0.779032
Si Si8 0.865595 0.091850 0.652251
O O1 0.685042 0.488666 0.597585
O O2 0.467445 0.553645 0.832180
O O3 0.706048 0.629871 0.875553
O O4 0.746175 0.948320 0.982343
O O5 0.187084 0.580202 0.670354
O O6 0.487684 0.808847 0.702200
O O7 0.347215 0.316411 0.371199
O O8 0.532334 0.783377 0.344954
O O9 0.724753 0.914144 0.505258
O O10 0.789616 0.698299 0.161816
O O11 0.733567 0.392475 0.804475
O O12 0.500000 0.500000 0.000000
O O13 0.976466 0.243999 0.011924
O O14 0.685904 0.123710 0.005745
O O15 0.917713 0.379055 0.836186
O O16 0.795509 0.041500 0.740427
O O17 0.000000 0.000000 0.500000
#
# Coordination Sequence:
#
# PCOD9098799 Si02
#       8
#     2   2   2   2   2   2   2   2
#     4   9  20  40  64  88 116 153 202 255 295 352
#     4  10  20  37  57  86 119 155 208 244 296 358
#     4   9  21  42  64  89 118 157 209 254 295 358
#     4   8  18  41  66  91 117 154 206 256 296 358
#     4  11  23  36  58  90 123 158 198 245 306 368
#     4  11  24  40  61  92 125 161 203 247 313 358
#     4  10  21  36  55  81 117 166 200 247 290 352
#     4  12  24  38  61  90 128 161 199 255 305 355
#
# _framework density 21.316571
#
# number of rings (size 3 to 8) (size 9 to 14) (size 15 to 20)
#    0.750    1.250    1.250    1.875    1.750    5.000 
#    0.000    1.875    0.000    0.000    0.000    0.000 
#    0.000    0.000    0.000    0.000    0.000    0.000 
#
# Total GULP energy -89205.783147 kJ/mol
# GULP energy per Si atom -5575.361447 kJ/mol
# Density = 2.126805 g / cm^3
# Si number density = 21.316571 Si / 1000 Ang^3
#
#
#
# Elastic Constant Matrix: (Units=GPa)
#
#
# Indices 1 2 3 4 5 6 
#
# 1 58.8614 16.8380 9.0890 -1.7049 4.4826 -10.0052
# 2 16.8380 131.9031 17.9223 -14.8116 -8.0435 -1.4589
# 3 9.0890 17.9223 32.4603 -11.4064 4.7424 -5.5396
# 4 -1.7049 -14.8116 -11.4064 32.8339 -4.2731 7.8736
# 5 4.4826 -8.0435 4.7424 -4.2731 26.6488 -6.1335
# 6 -10.0052 -1.4589 -5.5396 7.8736 -6.1335 34.2629
#
#
#
# Elastic Compliance Matrix: (Units=1/GPa)
#
#
# Indices 1 2 3 4 5 6 
#
# 1 0.019243 -0.002362 -0.003882 -0.002975 -0.002558 0.005117
# 2 -0.002362 0.009034 -0.003914 0.003364 0.004137 -0.000971
# 3 -0.003882 -0.003914 0.038778 0.010416 -0.005388 0.001611
# 4 -0.002975 0.003364 0.010416 0.037640 0.004096 -0.006958
# 5 -0.002558 0.004137 -0.005388 0.004096 0.042002 0.005135
# 6 0.005117 -0.000971 0.001611 -0.006958 0.005135 0.033418
#
#
# Mechanical properties :
#
#
# Convention : Reuss Voigt Hill
#
# Bulk Modulus (GPa) = 21.39665 34.54705 27.97185
# Shear Modulus (GPa) = 23.14710 30.70748 26.92729
#
# Velocity S-wave (km/s) = 3.29883 3.79957 3.55802
# Velocity P-wave (km/s) = 4.95672 5.95742 5.47996
#
# Compressibility (1/GPa) = 0.04673630
#
# Stress axis : x y z
#
# Youngs Moduli (GPa) = 51.96777 110.69241 25.78812
#
# Poissons Ratio (x) = 0.26150 0.10011
# Poissons Ratio (y) = 0.12277 0.10095
# Poissons Ratio (z) = 0.20174 0.43330
#
# Static dielectric constant tensor:
#      x y z
#    x 1.823180 0.003620 0.015200 
#    y 0.003620 1.771820 0.019830 
#    z 0.015200 0.019830 1.771480 
# 
# From -- ./inp_files/519371.got.cif
#   From: 2010.05.17/outbox.cif.g08.bks.cpg/sg2_260_cif.got.tgz:519371.got - 2010.06.03 11:33:40.
