data_PCOD9098277
_publ_section_title
;
Structure prediction by ZEFSAII (Michael W. Deem and Ramdas Pophale) SiO2 
 PCOD9098277
Probable space group: P -1
;
_chemical_formula_sum "Si O2"
_cell_formula_units_Z 12
_cell_length_a 15.255973
_cell_length_b 8.855251
_cell_length_c 12.325271
_cell_angle_alpha 63.486004
_cell_angle_beta 128.693894
_cell_angle_gamma 149.244065
_cell_volume 647.158109
_symmetry_space_group_name_H-M "P -1"
_symmetry_group_IT_number 2
_symmetry_cell_setting 'triclinic'
loop_
_space_group_symop_operation_xyz
x,y,z
-x,-y,-z
loop_
_atom_site_type_symbol
_atom_site_label
_atom_site_fract_x
_atom_site_fract_y
_atom_site_fract_z
Si Si1 0.036964 0.856081 0.536129
Si Si2 0.610214 0.754764 0.154409
Si Si3 0.581885 0.822703 0.873180
Si Si4 0.701324 0.858027 0.562549
Si Si5 0.613409 0.136900 0.429092
Si Si6 0.798648 0.855741 0.877932
O O1 0.830927 0.495664 0.494223
O O2 0.000000 0.000000 0.500000
O O3 0.203628 0.988251 0.704667
O O4 0.132903 0.977185 0.452138
O O5 0.594422 0.538181 0.170944
O O6 0.398558 0.506624 0.134127
O O7 0.616786 0.870601 0.012857
O O8 0.514694 0.912460 0.739143
O O9 0.768425 0.968340 0.906762
O O10 0.500000 0.500000 0.500000
O O11 0.777355 0.908612 0.725608
O O12 0.645283 0.984114 0.470016
O O13 0.500000 0.000000 0.500000
O O14 0.000000 0.000000 0.000000
#
# Coordination Sequence:
#
# PCOD9098277 Si02
#       6
#     2   2   2   2   2   2
#     4  12  23  40  65  96 127 168 211 262 318 378
#     4   9  19  39  59  94 126 167 208 245 323 375
#     4   9  19  39  62  91 127 169 204 253 317 372
#     4  12  24  43  65  96 127 168 217 263 319 375
#     4  12  23  44  64  95 130 164 218 267 310 383
#     4  10  20  36  64  94 128 162 214 252 320 372
#
# _framework density 18.542608999999999
#
# number of rings (size 3 to 8) (size 9 to 14) (size 15 to 20)
#    1.000    0.333    5.000    1.500    4.667    0.000 
#    0.000    3.333    0.000    0.000    0.000    0.000 
#    0.000    0.000    0.000    0.000    0.000    0.000 
#
# Total GULP energy -66950.433603 kJ/mol
# GULP energy per Si atom -5579.202800 kJ/mol
# Density = 1.850040 g / cm^3
# Si number density = 18.542609 Si / 1000 Ang^3
#
#
#
# Elastic Constant Matrix: (Units=GPa)
#
#
# Indices 1 2 3 4 5 6 
#
# 1 126.5792 63.0612 60.0629 -18.0808 11.3034 20.0868
# 2 63.0612 115.8215 45.3351 -5.1063 8.7832 15.4414
# 3 60.0629 45.3351 166.6410 -26.5106 8.7245 22.9122
# 4 -18.0808 -5.1063 -26.5106 32.5883 7.4711 0.6676
# 5 11.3034 8.7832 8.7245 7.4711 39.0638 -11.5176
# 6 20.0868 15.4414 22.9122 0.6676 -11.5176 37.8486
#
#
#
# Elastic Compliance Matrix: (Units=1/GPa)
#
#
# Indices 1 2 3 4 5 6 
#
# 1 0.013671 -0.005414 -0.001152 0.007233 -0.005696 -0.006210
# 2 -0.005414 0.012342 -0.001468 -0.002016 -0.000945 -0.001526
# 3 -0.001152 -0.001468 0.009070 0.007668 -0.004538 -0.005797
# 4 0.007233 -0.002016 0.007668 0.044507 -0.015768 -0.013242
# 5 -0.005696 -0.000945 -0.004538 -0.015768 0.036676 0.017594
# 6 -0.006210 -0.001526 -0.005797 -0.013242 0.017594 0.039436
#
#
# Mechanical properties :
#
#
# Convention : Reuss Voigt Hill
#
# Bulk Modulus (GPa) = 52.58742 82.88446 67.73594
# Shear Modulus (GPa) = 28.07255 37.93898 33.00576
#
# Velocity S-wave (km/s) = 3.89517 4.52823 4.22358
# Velocity P-wave (km/s) = 6.97508 8.49331 7.77136
#
# Compressibility (1/GPa) = 0.01901595
#
# Stress axis : x y z
#
# Youngs Moduli (GPa) = 73.14625 81.02140 110.25299
#
# Poissons Ratio (x) = 0.43864 0.12701
# Poissons Ratio (y) = 0.39601 0.16185
# Poissons Ratio (z) = 0.08427 0.11894
#
# Static dielectric constant tensor:
#      x y z
#    x 1.647560 0.000110 -0.000480 
#    y 0.000110 1.625770 -0.000530 
#    z -0.000480 -0.000530 1.625200 
# 
# From -- ./inp_files/162942.got.cif
#   From: 2010.05.17/outbox.cif.g08.bks.cpg/sg2_82_cif.got.tgz:162942.got - 2010.06.03 11:33:40.
