data_PCOD9098166
_publ_section_title
;
Structure prediction by ZEFSAII (Michael W. Deem and Ramdas Pophale) SiO2 
 PCOD9098166
Probable space group: P -1
;
_chemical_formula_sum "Si O2"
_cell_formula_units_Z 16
_cell_length_a 11.840450
_cell_length_b 10.142831
_cell_length_c 10.594200
_cell_angle_alpha 39.760013
_cell_angle_beta 72.885013
_cell_angle_gamma 51.853061
_cell_volume 597.303619
_symmetry_space_group_name_H-M "P -1"
_symmetry_group_IT_number 2
_symmetry_cell_setting 'triclinic'
loop_
_space_group_symop_operation_xyz
x,y,z
-x,-y,-z
loop_
_atom_site_type_symbol
_atom_site_label
_atom_site_fract_x
_atom_site_fract_y
_atom_site_fract_z
Si Si1 0.806898 0.046364 0.837940
Si Si2 0.101564 0.507026 0.067662
Si Si3 0.870597 0.701495 0.495204
Si Si4 0.635836 0.109958 0.605115
Si Si5 0.609389 0.700456 0.631072
Si Si6 0.309002 0.521098 0.826672
Si Si7 0.924910 0.235659 0.459158
Si Si8 0.634170 0.227100 0.023751
O O1 0.865105 0.179067 0.641946
O O2 0.734032 0.150543 0.920859
O O3 0.675246 0.270080 0.393144
O O4 0.962337 0.741149 0.027082
O O5 0.186909 0.618741 0.905957
O O6 0.320553 0.903966 0.253705
O O7 0.000000 0.500000 0.000000
O O8 0.780224 0.597522 0.644321
O O9 0.000000 0.500000 0.500000
O O10 0.953199 0.735732 0.553934
O O11 0.738878 0.991869 0.262024
O O12 0.749213 0.805947 0.742818
O O13 0.591120 0.513130 0.856954
O O14 0.539410 0.737049 0.487466
O O15 0.500000 0.000000 0.500000
O O16 0.223956 0.497355 0.757076
O O17 0.479553 0.278995 0.995395
O O18 0.000000 0.000000 0.500000
#
# Coordination Sequence:
#
# PCOD9098166 Si02
#       8
#     2   2   2   2   2   2   2   2
#     4  10  22  41  75 104 149 194 250 312 378 449
#     4  10  20  36  64 106 141 183 247 315 359 436
#     4  12  30  50  77 114 160 201 250 317 400 462
#     4   9  22  40  68 106 139 185 254 306 367 438
#     4  11  27  47  75 107 149 203 256 314 381 466
#     4  10  22  44  74 104 143 193 252 312 376 439
#     4  11  24  45  79 112 145 200 262 316 373 451
#     4  11  27  52  72 112 156 206 244 316 398 460
#
# _framework density 26.787049
#
# number of rings (size 3 to 8) (size 9 to 14) (size 15 to 20)
#    0.000    1.500    1.250    1.500    5.250   12.000 
#    0.000    5.000    0.000    0.000    0.000    0.000 
#    0.000    0.000    0.000    0.000    0.000    0.000 
#
# Total GULP energy -89616.999469 kJ/mol
# GULP energy per Si atom -5601.062467 kJ/mol
# Density = 2.672608 g / cm^3
# Si number density = 26.787049 Si / 1000 Ang^3
#
#
#
# Elastic Constant Matrix: (Units=GPa)
#
#
# Indices 1 2 3 4 5 6 
#
# 1 206.1525 17.0260 50.7913 -1.5990 37.0434 -11.7999
# 2 17.0260 74.0076 -0.6451 1.1933 -0.9404 -11.5542
# 3 50.7913 -0.6451 136.4533 -18.5985 23.6027 7.1191
# 4 -1.5990 1.1933 -18.5985 36.9896 -10.3656 2.6346
# 5 37.0434 -0.9404 23.6027 -10.3656 58.6654 1.1468
# 6 -11.7999 -11.5542 7.1191 2.6346 1.1468 34.1433
#
#
#
# Elastic Compliance Matrix: (Units=1/GPa)
#
#
# Indices 1 2 3 4 5 6 
#
# 1 0.006210 -0.001072 -0.002105 -0.001907 -0.003477 0.002486
# 2 -0.001072 0.014489 0.000023 -0.000630 0.000700 0.004553
# 3 -0.002105 0.000023 0.009109 0.004267 -0.001525 -0.002897
# 4 -0.001907 -0.000630 0.004267 0.030829 0.005008 -0.004309
# 5 -0.003477 0.000700 -0.001525 0.005008 0.020785 -0.001732
# 6 0.002486 0.004553 -0.002897 -0.004309 -0.001732 0.032683
#
#
# Mechanical properties :
#
#
# Convention : Reuss Voigt Hill
#
# Bulk Modulus (GPa) = 42.55368 61.21752 51.88560
# Shear Modulus (GPa) = 38.98782 49.25575 44.12179
#
# Velocity S-wave (km/s) = 3.81920 4.29276 4.06289
# Velocity P-wave (km/s) = 5.94717 6.89010 6.43593
#
# Compressibility (1/GPa) = 0.02349973
#
# Stress axis : x y z
#
# Youngs Moduli (GPa) = 161.02382 69.01846 109.78701
#
# Poissons Ratio (x) = 0.07401 0.23108
# Poissons Ratio (y) = 0.17267 -0.00255
# Poissons Ratio (z) = 0.33892 -0.00160
#
# Static dielectric constant tensor:
#      x y z
#    x 2.150240 0.084930 -0.026160 
#    y 0.084930 2.111520 0.020250 
#    z -0.026160 0.020250 2.298650 
# 
# From -- ./inp_files/416556.got.cif
#   From: 2010.05.17/outbox.cif.g08.bks.cpg/sg2_209_cif.got.tgz:416556.got - 2010.06.03 11:33:40.
