data_PCOD9098374
_publ_section_title
;
Structure prediction by ZEFSAII (Michael W. Deem and Ramdas Pophale) SiO2 
 PCOD9098374
Probable space group: P -1
;
_chemical_formula_sum "Si O2"
_cell_formula_units_Z 16
_cell_length_a 11.388655
_cell_length_b 8.129625
_cell_length_c 9.606445
_cell_angle_alpha 92.619068
_cell_angle_beta 118.904003
_cell_angle_gamma 91.625046
_cell_volume 776.514949
_symmetry_space_group_name_H-M "P -1"
_symmetry_group_IT_number 2
_symmetry_cell_setting 'triclinic'
loop_
_space_group_symop_operation_xyz
x,y,z
-x,-y,-z
loop_
_atom_site_type_symbol
_atom_site_label
_atom_site_fract_x
_atom_site_fract_y
_atom_site_fract_z
Si Si1 0.566409 0.762281 0.457385
Si Si2 0.414873 0.553174 0.154058
Si Si3 0.137448 0.188554 0.337867
Si Si4 0.852084 0.509966 0.857389
Si Si5 0.924730 0.321127 0.425409
Si Si6 0.824687 0.181262 0.644538
Si Si7 0.382839 0.705260 0.858735
Si Si8 0.465688 0.894663 0.662689
O O1 0.480194 0.610752 0.339967
O O2 0.720988 0.771798 0.499431
O O3 0.563825 0.786071 0.623527
O O4 0.500980 0.918672 0.354958
O O5 0.265609 0.478331 0.096409
O O6 0.522431 0.433794 0.149910
O O7 0.397817 0.695123 0.033014
O O8 0.141920 0.328772 0.229104
O O9 0.012407 0.219411 0.365922
O O10 0.137938 0.997327 0.283485
O O11 0.824311 0.337117 0.752193
O O12 0.000000 0.500000 0.000000
O O13 0.916319 0.232400 0.566682
O O14 0.772775 0.329779 0.278297
O O15 0.000000 0.500000 0.500000
O O16 0.676799 0.154019 0.493404
O O17 0.443456 0.861864 0.811118
#
# Coordination Sequence:
#
# PCOD9098374 Si02
#       8
#     2   2   2   2   2   2   2   2
#     4  10  20  36  65  93 119 156 208 255 305 370
#     4  11  23  39  60  91 124 161 207 256 313 374
#     4  11  23  39  65  95 123 163 210 260 311 371
#     4  12  25  42  64  90 126 168 208 257 319 371
#     4  11  20  38  65  93 124 168 209 255 310 371
#     4  10  22  40  63  94 124 160 214 260 305 374
#     4  10  23  39  59  87 128 162 204 257 309 373
#     4   9  19  38  61  90 121 158 204 256 307 365
#
# _framework density 20.604882
#
# number of rings (size 3 to 8) (size 9 to 14) (size 15 to 20)
#    0.000    1.500    2.500    2.625    1.750    2.000 
#    0.000    0.000    0.000    0.000    0.000    0.000 
#    0.000    0.000    0.000    0.000    0.000    0.000 
#
# Total GULP energy -89243.832244 kJ/mol
# GULP energy per Si atom -5577.739515 kJ/mol
# Density = 2.055798 g / cm^3
# Si number density = 20.604882 Si / 1000 Ang^3
#
#
#
# Elastic Constant Matrix: (Units=GPa)
#
#
# Indices 1 2 3 4 5 6 
#
# 1 135.8926 20.4161 18.6301 -6.1258 0.0902 -8.9865
# 2 20.4161 105.5815 20.3373 -13.4295 -1.6344 1.8290
# 3 18.6301 20.3373 47.6880 -8.7760 -1.1027 -6.6840
# 4 -6.1258 -13.4295 -8.7760 20.3424 4.9537 1.1876
# 5 0.0902 -1.6344 -1.1027 4.9537 27.4177 -6.9197
# 6 -8.9865 1.8290 -6.6840 1.1876 -6.9197 30.0012
#
#
#
# Elastic Compliance Matrix: (Units=1/GPa)
#
#
# Indices 1 2 3 4 5 6 
#
# 1 0.007987 -0.001066 -0.002283 0.000548 0.000218 0.001978
# 2 -0.001066 0.011142 -0.003599 0.005888 -0.001119 -0.002292
# 3 -0.002283 -0.003599 0.025500 0.007456 0.000758 0.005096
# 4 0.000548 0.005888 0.007456 0.059285 -0.010920 -0.003399
# 5 0.000218 -0.001119 0.000758 -0.010920 0.040980 0.010187
# 6 0.001978 -0.002292 0.005096 -0.003399 0.010187 0.037683
#
#
# Mechanical properties :
#
#
# Convention : Reuss Voigt Hill
#
# Bulk Modulus (GPa) = 32.53649 45.32544 38.93096
# Shear Modulus (GPa) = 24.18768 30.87085 27.52926
#
# Velocity S-wave (km/s) = 3.42991 3.87490 3.65917
# Velocity P-wave (km/s) = 5.61344 6.48575 6.06530
#
# Compressibility (1/GPa) = 0.03073473
#
# Stress axis : x y z
#
# Youngs Moduli (GPa) = 125.20083 89.75039 39.21565
#
# Poissons Ratio (x) = 0.09567 0.08951
# Poissons Ratio (y) = 0.13346 0.14112
# Poissons Ratio (z) = 0.28579 0.32298
#
# Static dielectric constant tensor:
#      x y z
#    x 1.786000 -0.025330 -0.019110 
#    y -0.025330 1.791590 -0.036480 
#    z -0.019110 -0.036480 1.741110 
# 
# From -- ./inp_files/239974.got.cif
#   From: 2010.05.17/outbox.cif.g08.bks.cpg/sg2_120_cif.got.tgz:239974.got - 2010.06.03 11:33:40.
