data_PCOD9098619
_publ_section_title
;
Structure prediction by ZEFSAII (Michael W. Deem and Ramdas Pophale) SiO2 
 PCOD9098619
Probable space group: P -1
;
_chemical_formula_sum "Si O2"
_cell_formula_units_Z 16
_cell_length_a 7.194707
_cell_length_b 18.598877
_cell_length_c 9.207111
_cell_angle_alpha 53.584781
_cell_angle_beta 128.314531
_cell_angle_gamma 94.058663
_cell_volume 686.317864
_symmetry_space_group_name_H-M "P -1"
_symmetry_group_IT_number 2
_symmetry_cell_setting 'triclinic'
loop_
_space_group_symop_operation_xyz
x,y,z
-x,-y,-z
loop_
_atom_site_type_symbol
_atom_site_label
_atom_site_fract_x
_atom_site_fract_y
_atom_site_fract_z
Si Si1 0.397343 0.090123 0.960328
Si Si2 0.855717 0.118447 0.608933
Si Si3 0.795842 0.695242 0.539360
Si Si4 0.895454 0.624263 0.186661
Si Si5 0.655861 0.588548 0.385835
Si Si6 0.259534 0.206130 0.302977
Si Si7 0.337535 0.661100 0.875555
Si Si8 0.734195 0.987489 0.516181
O O1 0.343935 0.195037 0.736203
O O2 0.104779 0.102481 0.846878
O O3 0.500000 0.000000 0.000000
O O4 0.588979 0.062300 0.223633
O O5 0.583884 0.143400 0.531481
O O6 0.779227 0.218917 0.354435
O O7 0.918631 0.023414 0.649683
O O8 0.647998 0.633778 0.484630
O O9 0.796381 0.719054 0.680298
O O10 0.115302 0.636288 0.731293
O O11 0.840432 0.623061 0.333127
O O12 0.178864 0.532271 0.392598
O O13 0.845762 0.730015 0.971813
O O14 0.640608 0.610620 0.020026
O O15 0.390987 0.632764 0.106171
O O16 0.148498 0.125601 0.352994
O O17 0.500000 0.000000 0.500000
#
# Coordination Sequence:
#
# PCOD9098619 Si02
#       8
#     2   2   2   2   2   2   2   2
#     4  11  22  39  56  87 111 144 194 228 263 337
#     4   9  20  38  60  75 116 153 182 223 276 325
#     4  11  21  34  57  83 115 140 182 234 275 320
#     4   8  18  38  60  78 109 144 187 226 271 335
#     4   9  18  37  63  78 104 149 186 221 278 333
#     4  10  20  37  54  84 116 144 183 235 273 324
#     4   8  17  36  56  82 108 141 186 226 265 330
#     4  10  21  37  57  79 111 153 185 222 274 319
#
# _framework density 23.312809999999999
#
# number of rings (size 3 to 8) (size 9 to 14) (size 15 to 20)
#    0.750    1.750    1.250    0.750    1.750    3.500 
#    2.250    1.875    2.750    0.000    0.000    0.000 
#    0.000    0.000    0.000    0.000    0.000    0.000 
#
# Total GULP energy -89269.129061 kJ/mol
# GULP energy per Si atom -5579.320566 kJ/mol
# Density = 2.325975 g / cm^3
# Si number density = 23.312810 Si / 1000 Ang^3
#
#
#
# Elastic Constant Matrix: (Units=GPa)
#
#
# Indices 1 2 3 4 5 6 
#
# 1 32.6593 -0.7265 3.7372 -0.6636 2.8687 0.4471
# 2 -0.7265 54.3056 11.4653 8.5727 7.3347 -4.0444
# 3 3.7372 11.4653 55.3277 1.1302 6.6314 6.9849
# 4 -0.6636 8.5727 1.1302 22.6369 -3.8216 2.3584
# 5 2.8687 7.3347 6.6314 -3.8216 17.3000 0.2644
# 6 0.4471 -4.0444 6.9849 2.3584 0.2644 20.8189
#
#
#
# Elastic Compliance Matrix: (Units=1/GPa)
#
#
# Indices 1 2 3 4 5 6 
#
# 1 0.031318 0.001645 -0.001860 -0.000549 -0.005305 0.000400
# 2 0.001645 0.023122 -0.004277 -0.011112 -0.011002 0.007290
# 3 -0.001860 -0.004277 0.020726 0.000386 -0.005620 -0.007717
# 4 -0.000549 -0.011112 0.000386 0.051966 0.016261 -0.008370
# 5 -0.005305 -0.011002 -0.005620 0.016261 0.069138 -0.002858
# 6 0.000400 0.007290 -0.007717 -0.008370 -0.002858 0.053014
#
#
# Mechanical properties :
#
#
# Convention : Reuss Voigt Hill
#
# Bulk Modulus (GPa) = 15.10995 19.02717 17.06856
# Shear Modulus (GPa) = 17.83616 20.67227 19.25421
#
# Velocity S-wave (km/s) = 2.76901 2.98104 2.87698
# Velocity P-wave (km/s) = 4.08885 4.47529 4.28642
#
# Compressibility (1/GPa) = 0.06618156
#
# Stress axis : x y z
#
# Youngs Moduli (GPa) = 31.93068 43.24809 48.24850
#
# Poissons Ratio (x) = -0.07113 0.08973
# Poissons Ratio (y) = -0.05251 0.20637
# Poissons Ratio (z) = 0.05938 0.18498
#
# Static dielectric constant tensor:
#      x y z
#    x 1.963500 -0.027560 0.001220 
#    y -0.027560 1.863660 -0.029390 
#    z 0.001220 -0.029390 1.831850 
# 
# From -- ./inp_files/214810.got.cif
#   From: 2010.05.17/outbox.cif.g08.bks.cpg/sg2_108_cif.got.tgz:214810.got - 2010.06.03 11:33:40.
