data_PCOD9098701
_publ_section_title
;
Structure prediction by ZEFSAII (Michael W. Deem and Ramdas Pophale) SiO2 
 PCOD9098701
Probable space group: P -1
;
_chemical_formula_sum "Si O2"
_cell_formula_units_Z 16
_cell_length_a 20.419692
_cell_length_b 13.859254
_cell_length_c 18.008719
_cell_angle_alpha 43.218901
_cell_angle_beta 20.985705
_cell_angle_gamma 31.740022
_cell_volume 900.691584
_symmetry_space_group_name_H-M "P -1"
_symmetry_group_IT_number 2
_symmetry_cell_setting 'triclinic'
loop_
_space_group_symop_operation_xyz
x,y,z
-x,-y,-z
loop_
_atom_site_type_symbol
_atom_site_label
_atom_site_fract_x
_atom_site_fract_y
_atom_site_fract_z
Si Si1 0.720203 0.347284 0.026545
Si Si2 0.525752 0.673070 0.574146
Si Si3 0.406387 0.112645 0.322238
Si Si4 0.017054 0.087096 0.714704
Si Si5 0.269222 0.097182 0.631242
Si Si6 0.309176 0.644803 0.684997
Si Si7 0.452432 0.659707 0.015437
Si Si8 0.881237 0.655308 0.105581
O O1 0.576490 0.551201 0.022889
O O2 0.842548 0.193533 0.914361
O O3 0.961478 0.263118 0.870801
O O4 0.513101 0.369739 0.279348
O O5 0.453019 0.591204 0.639405
O O6 0.771558 0.616078 0.309915
O O7 0.322444 0.908563 0.655358
O O8 0.183007 0.139865 0.507290
O O9 0.331803 0.165142 0.458236
O O10 0.437831 0.249736 0.178536
O O11 0.656106 0.878614 0.188931
O O12 0.189011 0.858893 0.670450
O O13 0.848125 0.162006 0.777997
O O14 0.500000 0.000000 0.500000
O O15 0.500000 0.500000 0.500000
O O16 0.091982 0.645677 0.920061
O O17 0.500000 0.500000 0.000000
O O18 0.000000 0.500000 0.000000
#
# Coordination Sequence:
#
# PCOD9098701 Si02
#       8
#     2   2   2   2   2   2   2   2
#     4  10  22  37  53  84 128 154 199 232 291 365
#     4  11  23  36  55  88 122 151 191 245 306 357
#     4  10  20  37  56  84 118 149 207 239 285 351
#     4  10  20  38  58  84 115 160 198 245 290 345
#     4  10  22  33  57  84 121 162 185 244 304 348
#     4  12  21  37  63  87 117 151 197 252 303 352
#     4  10  22  35  57  81 117 168 202 233 284 352
#     4  11  21  37  60  90 113 147 197 250 303 350
#
# _framework density 17.764126000000001
#
# number of rings (size 3 to 8) (size 9 to 14) (size 15 to 20)
#    0.000    1.500    6.250    0.375    7.000    4.500 
#    0.000    0.000    0.000    3.000    0.000    3.500 
#    0.000    0.000    0.000    0.000    0.000    0.000 
#
# Total GULP energy -89083.040004 kJ/mol
# GULP energy per Si atom -5567.690000 kJ/mol
# Density = 1.772369 g / cm^3
# Si number density = 17.764126 Si / 1000 Ang^3
#
#
#
# Elastic Constant Matrix: (Units=GPa)
#
#
# Indices 1 2 3 4 5 6 
#
# 1 65.2507 27.2689 47.0477 -10.4742 -13.8017 -3.0402
# 2 27.2689 79.8338 52.3014 -24.1725 13.7752 -2.7931
# 3 47.0477 52.3014 133.6736 -31.9887 -2.4943 -8.1617
# 4 -10.4742 -24.1725 -31.9887 32.0307 6.0810 0.2463
# 5 -13.8017 13.7752 -2.4943 6.0810 28.7898 -1.3060
# 6 -3.0402 -2.7931 -8.1617 0.2463 -1.3060 27.7709
#
#
#
# Elastic Compliance Matrix: (Units=1/GPa)
#
#
# Indices 1 2 3 4 5 6 
#
# 1 0.028370 -0.011604 -0.007666 -0.011104 0.020869 0.000766
# 2 -0.011604 0.028100 -0.002828 0.019014 -0.023294 -0.000539
# 3 -0.007666 -0.002828 0.013685 0.009583 -0.003039 0.002670
# 4 -0.011104 0.019014 0.009583 0.056317 -0.025403 0.001819
# 5 0.020869 -0.023294 -0.003039 -0.025403 0.061084 0.002146
# 6 0.000766 -0.000539 0.002670 0.001819 0.002146 0.036908
#
#
# Mechanical properties :
#
#
# Convention : Reuss Voigt Hill
#
# Bulk Modulus (GPa) = 38.52251 59.11047 48.81649
# Shear Modulus (GPa) = 18.03028 27.86094 22.94561
#
# Velocity S-wave (km/s) = 3.18934 3.96458 3.59790
# Velocity P-wave (km/s) = 5.94097 7.36917 6.69327
#
# Compressibility (1/GPa) = 0.02595885
#
# Stress axis : x y z
#
# Youngs Moduli (GPa) = 35.24901 35.58763 73.07409
#
# Poissons Ratio (x) = 0.41297 0.56016
# Poissons Ratio (y) = 0.40904 0.20662
# Poissons Ratio (z) = 0.27021 0.10063
#
# Static dielectric constant tensor:
#      x y z
#    x 1.685480 -0.051910 0.016140 
#    y -0.051910 1.664340 -0.069180 
#    z 0.016140 -0.069180 1.768720 
# 
# From -- ./inp_files/431201.got.cif
#   From: 2010.05.17/outbox.cif.g08.bks.cpg/sg2_216_cif.got.tgz:431201.got - 2010.06.03 11:33:40.
