data_PCOD9098747
_publ_section_title
;
Structure prediction by ZEFSAII (Michael W. Deem and Ramdas Pophale) SiO2 
 PCOD9098747
Probable space group: P -1
;
_chemical_formula_sum "Si O2"
_cell_formula_units_Z 14
_cell_length_a 18.781691
_cell_length_b 19.537615
_cell_length_c 9.759760
_cell_angle_alpha 158.660404
_cell_angle_beta 140.781065
_cell_angle_gamma 28.576547
_cell_volume 603.841323
_symmetry_space_group_name_H-M "P -1"
_symmetry_group_IT_number 2
_symmetry_cell_setting 'triclinic'
loop_
_space_group_symop_operation_xyz
x,y,z
-x,-y,-z
loop_
_atom_site_type_symbol
_atom_site_label
_atom_site_fract_x
_atom_site_fract_y
_atom_site_fract_z
Si Si1 0.900335 0.775959 0.249311
Si Si2 0.767643 0.615879 0.273497
Si Si3 0.909374 0.918834 0.255306
Si Si4 0.720893 0.711636 0.699476
Si Si5 0.395680 0.604040 0.405098
Si Si6 0.451783 0.299802 0.382071
Si Si7 0.757675 0.722795 0.160663
O O1 0.863359 0.974331 0.450545
O O2 0.798531 0.863840 0.397440
O O3 0.870127 0.613523 0.818873
O O4 0.082370 0.576183 0.173142
O O5 0.731258 0.704965 0.541055
O O6 0.724452 0.783267 0.385259
O O7 0.678313 0.518424 0.940014
O O8 0.953253 0.386255 0.120302
O O9 0.755330 0.088681 0.252827
O O10 0.000000 0.000000 0.500000
O O11 0.661083 0.587575 0.446260
O O12 0.601701 0.014877 0.122030
O O13 0.500000 0.500000 0.500000
O O14 0.499157 0.560337 0.350982
O O15 0.372148 0.255821 0.065921
#
# Coordination Sequence:
#
# PCOD9098747 Si02
#       7
#     2   2   2   2   2   2   2
#     4   9  17  34  55  80 108 149 182 217 277 329
#     4  10  21  36  57  87 111 142 191 235 264 326
#     4   9  19  34  56  82 109 148 186 224 271 333
#     4  10  21  36  58  84 111 145 189 230 275 329
#     4  11  20  37  58  82 111 152 184 224 286 330
#     4  10  20  37  57  80 114 152 181 223 286 337
#     4   9  18  32  54  83 109 143 182 229 265 328
#
# _framework density 23.184899000000001
#
# number of rings (size 3 to 8) (size 9 to 14) (size 15 to 20)
#    0.000    2.286    2.857    0.000    0.000    3.429 
#    0.000    0.000    0.000    0.857    0.000    0.000 
#    0.000    0.000    0.000    0.000    0.000    0.000 
#
# Total GULP energy -78001.974909 kJ/mol
# GULP energy per Si atom -5571.569636 kJ/mol
# Density = 2.313213 g / cm^3
# Si number density = 23.184899 Si / 1000 Ang^3
#
#
#
# Elastic Constant Matrix: (Units=GPa)
#
#
# Indices 1 2 3 4 5 6 
#
# 1 226.9295 26.7847 25.5415 -6.7265 15.4378 30.5184
# 2 26.7847 129.6615 9.1308 -18.0036 4.9947 6.6217
# 3 25.5415 9.1308 18.5714 -11.9974 -1.2021 3.8394
# 4 -6.7265 -18.0036 -11.9974 15.6810 1.9371 -0.1793
# 5 15.4378 4.9947 -1.2021 1.9371 29.4914 -10.0383
# 6 30.5184 6.6217 3.8394 -0.1793 -10.0383 46.7234
#
#
#
# Elastic Compliance Matrix: (Units=1/GPa)
#
#
# Indices 1 2 3 4 5 6 
#
# 1 0.006682 -0.001179 -0.013318 -0.008142 -0.004718 -0.004148
# 2 -0.001179 0.010007 0.008293 0.017618 -0.002509 -0.001801
# 3 -0.013318 0.008293 0.140568 0.110952 0.003003 -0.002956
# 4 -0.008142 0.017618 0.110952 0.166251 -0.007601 -0.007291
# 5 -0.004718 -0.002509 0.003003 -0.007601 0.041538 0.012086
# 6 -0.004148 -0.001801 -0.002956 -0.007291 0.012086 0.027179
#
#
# Mechanical properties :
#
#
# Convention : Reuss Voigt Hill
#
# Bulk Modulus (GPa) = 6.90377 55.34185 31.12281
# Shear Modulus (GPa) = 11.03958 39.29285 25.16622
#
# Velocity S-wave (km/s) = 2.18446 4.12121 3.29820
# Velocity P-wave (km/s) = 3.05723 6.82404 5.28744
#
# Compressibility (1/GPa) = 0.14484832
#
# Stress axis : x y z
#
# Youngs Moduli (GPa) = 149.64790 99.93131 7.11402
#
# Poissons Ratio (x) = 0.11786 0.09475
# Poissons Ratio (y) = 0.17650 -0.05900
# Poissons Ratio (z) = 1.99302 -0.82876
#
# Static dielectric constant tensor:
#      x y z
#    x 1.961560 0.007800 0.000790 
#    y 0.007800 1.902780 0.025970 
#    z 0.000790 0.025970 1.879330 
# 
# From -- ./inp_files/167920.got.cif
#   From: 2010.05.17/outbox.cif.g08.bks.cpg/sg2_84_cif.got.tgz:167920.got - 2010.06.03 11:33:40.
