data_PCOD9098827
_publ_section_title
;
Structure prediction by ZEFSAII (Michael W. Deem and Ramdas Pophale) SiO2 
 PCOD9098827
Probable space group: P -1
;
_chemical_formula_sum "Si O2"
_cell_formula_units_Z 16
_cell_length_a 16.418984
_cell_length_b 15.317743
_cell_length_c 15.625217
_cell_angle_alpha 41.732104
_cell_angle_beta 161.996963
_cell_angle_gamma 138.006942
_cell_volume 797.683854
_symmetry_space_group_name_H-M "P -1"
_symmetry_group_IT_number 2
_symmetry_cell_setting 'triclinic'
loop_
_space_group_symop_operation_xyz
x,y,z
-x,-y,-z
loop_
_atom_site_type_symbol
_atom_site_label
_atom_site_fract_x
_atom_site_fract_y
_atom_site_fract_z
Si Si1 0.647078 0.543673 0.270536
Si Si2 0.641552 0.733846 0.977439
Si Si3 0.893327 0.630674 0.135242
Si Si4 0.351803 0.955729 0.971512
Si Si5 0.168210 0.094194 0.438810
Si Si6 0.597611 0.024252 0.482833
Si Si7 0.947567 0.126721 0.009854
Si Si8 0.126857 0.172036 0.688536
O O1 0.866825 0.449412 0.544026
O O2 0.551953 0.605340 0.041533
O O3 0.374905 0.465403 0.094917
O O4 0.801922 0.674284 0.378849
O O5 0.417176 0.822687 0.665737
O O6 0.832807 0.819019 0.175859
O O7 0.789453 0.698992 0.065759
O O8 0.999458 0.739892 0.090626
O O9 0.326116 0.087236 0.904427
O O10 0.042025 0.887359 0.709849
O O11 0.529000 0.862103 0.265495
O O12 0.500000 0.000000 0.000000
O O13 0.058702 0.143672 0.205093
O O14 0.139382 0.932058 0.518603
O O15 0.365265 0.934396 0.260929
O O16 0.500000 0.000000 0.500000
O O17 0.873315 0.971479 0.784475
#
# Coordination Sequence:
#
# PCOD9098827 Si02
#       8
#     2   2   2   2   2   2   2   2
#     4  10  24  38  53  76 113 155 205 234 275 310
#     4  10  21  39  55  79 113 152 202 241 286 310
#     4  12  24  37  52  79 113 166 198 235 256 328
#     4  10  20  37  62  93 117 133 173 231 311 365
#     4  10  20  37  57  90 113 145 174 236 292 352
#     4  12  23  36  55  79 108 153 200 247 283 335
#     4  12  23  38  55  81 117 153 197 232 292 332
#     4   8  21  34  60  79 114 142 183 231 287 330
#
# _framework density 20.058073
#
# number of rings (size 3 to 8) (size 9 to 14) (size 15 to 20)
#    1.500    0.000    2.500    3.750    1.750    1.000 
#    2.250    0.000    0.000    0.000    0.000    5.250 
#    0.000    0.000    0.000    0.000    0.000    0.000 
#
# Total GULP energy -89120.025075 kJ/mol
# GULP energy per Si atom -5570.001567 kJ/mol
# Density = 2.001242 g / cm^3
# Si number density = 20.058073 Si / 1000 Ang^3
#
#
#
# Elastic Constant Matrix: (Units=GPa)
#
#
# Indices 1 2 3 4 5 6 
#
# 1 63.8131 6.0661 3.4805 -13.1420 5.3425 12.2892
# 2 6.0661 73.0305 29.8449 -10.6236 5.9668 25.6009
# 3 3.4805 29.8449 61.5786 -19.2117 -1.2272 -2.9861
# 4 -13.1420 -10.6236 -19.2117 27.0191 2.1742 -6.6330
# 5 5.3425 5.9668 -1.2272 2.1742 21.0116 -4.9994
# 6 12.2892 25.6009 -2.9861 -6.6330 -4.9994 11.1541
#
#
#
# Elastic Compliance Matrix: (Units=1/GPa)
#
#
# Indices 1 2 3 4 5 6 
#
# 1 0.015096 -0.010386 0.009884 0.014979 0.002912 0.020064
# 2 -0.010386 -0.012772 0.014503 0.013819 0.020441 0.062018
# 3 0.009884 0.014503 0.008009 0.006275 -0.017828 -0.046292
# 4 0.014979 0.013819 0.006275 0.049436 -0.018537 -0.025451
# 5 0.002912 0.020441 -0.017828 -0.018537 0.029372 -0.052755
# 6 0.020064 0.062018 -0.046292 -0.025451 -0.052755 -0.125969
#
#
# Mechanical properties :
#
#
# Convention : Reuss Voigt Hill
#
# Bulk Modulus (GPa) = 26.08436 30.80056 28.44246
# Shear Modulus (GPa) = -96.05797 22.43902 -36.80948
#
# Velocity S-wave (km/s) = -6.92776 3.34833 -4.28851
# Velocity P-wave (km/s) = 7.13857 5.50794 3.21106
#
# Compressibility (1/GPa) = 0.03833715
#
# Stress axis : x y z
#
# Youngs Moduli (GPa) = 66.24312 -78.29922 124.85347
#
# Poissons Ratio (x) = -0.81320 -1.23411
# Poissons Ratio (y) = 0.68799 -1.81075
# Poissons Ratio (z) = -0.65478 1.13558
#
# Static dielectric constant tensor:
#      x y z
#    x 1.727620 0.003350 -0.032690 
#    y 0.003350 1.784170 0.058730 
#    z -0.032690 0.058730 1.773300 
# 
# From -- ./inp_files/534352.got.cif
#   From: 2010.05.17/outbox.cif.g08.bks.cpg/sg2_268_cif.got.tgz:534352.got - 2010.06.03 11:33:40.
