data_PCOD9098591
_publ_section_title
;
Structure prediction by ZEFSAII (Michael W. Deem and Ramdas Pophale) SiO2 
 PCOD9098591
Probable space group: P -1
;
_chemical_formula_sum "Si O2"
_cell_formula_units_Z 13
_cell_length_a 8.295224
_cell_length_b 10.352760
_cell_length_c 14.121230
_cell_angle_alpha 41.513440
_cell_angle_beta 51.867500
_cell_angle_gamma 73.926227
_cell_volume 590.867073
_symmetry_space_group_name_H-M "P -1"
_symmetry_group_IT_number 2
_symmetry_cell_setting 'triclinic'
loop_
_space_group_symop_operation_xyz
x,y,z
-x,-y,-z
loop_
_atom_site_type_symbol
_atom_site_label
_atom_site_fract_x
_atom_site_fract_y
_atom_site_fract_z
Si Si1 0.348130 0.884687 0.821728
Si Si2 0.777751 0.620613 0.334492
Si Si3 0.438292 0.668890 0.569634
Si Si4 0.000000 0.000000 0.000000
Si Si5 0.757562 0.489934 0.071845
Si Si6 0.163821 0.720730 0.273223
Si Si7 0.612115 0.865002 0.921358
O O1 0.115888 0.895960 0.931488
O O2 0.326498 0.672623 0.893326
O O3 0.502783 0.908718 0.842505
O O4 0.460465 0.084361 0.605375
O O5 0.611495 0.581151 0.503117
O O6 0.759376 0.427389 0.382279
O O7 0.017444 0.755121 0.218326
O O8 0.758177 0.808236 0.176493
O O9 0.377409 0.592259 0.738130
O O10 0.742389 0.712948 0.935533
O O11 0.000000 0.500000 0.000000
O O12 0.000000 0.500000 0.500000
O O13 0.228414 0.918492 0.210067
O O14 0.399428 0.741936 0.132775
#
# Coordination Sequence:
#
# PCOD9098591 Si02
#       7
#     2   2   2   1   2   2   2
#     4  11  23  45  68  96 141 176 233 289 350 414
#     4  10  20  37  68  98 133 165 230 281 346 401
#     4  10  23  40  69 102 132 182 233 288 346 416
#     4  10  20  36  72  92 122 176 220 276 344 400
#     4  12  27  44  67  95 144 188 234 284 354 415
#     4  11  23  41  72 103 140 176 229 297 351 409
#     4  11  26  44  69 105 140 185 237 283 354 422
#
# _framework density 22.001563999999998
#
# number of rings (size 3 to 8) (size 9 to 14) (size 15 to 20)
#    0.000    1.231    1.538    3.692    6.462    2.462 
#    2.769    0.769    0.000    0.000    0.000    0.000 
#    0.000    0.000    0.000    0.000    0.000    0.000 
#
# Total GULP energy -72396.632234 kJ/mol
# GULP energy per Si atom -5568.971710 kJ/mol
# Density = 2.195149 g / cm^3
# Si number density = 22.001564 Si / 1000 Ang^3
#
#
#
# Elastic Constant Matrix: (Units=GPa)
#
#
# Indices 1 2 3 4 5 6 
#
# 1 80.4487 37.2872 7.1901 -9.2231 -11.7767 2.5588
# 2 37.2872 142.1797 23.9233 -19.7962 -16.2888 4.6976
# 3 7.1901 23.9233 107.1311 -13.6477 -1.8265 6.4714
# 4 -9.2231 -19.7962 -13.6477 32.6865 10.0631 -5.6763
# 5 -11.7767 -16.2888 -1.8265 10.0631 29.8592 -5.3235
# 6 2.5588 4.6976 6.4714 -5.6763 -5.3235 39.9209
#
#
#
# Elastic Compliance Matrix: (Units=1/GPa)
#
#
# Indices 1 2 3 4 5 6 
#
# 1 0.014595 -0.003261 -0.000066 0.001007 0.003650 0.000089
# 2 -0.003261 0.008821 -0.001317 0.003157 0.002409 0.000155
# 3 -0.000066 -0.001317 0.010149 0.003705 -0.001581 -0.001170
# 4 0.001007 0.003157 0.003705 0.037908 -0.009888 0.003035
# 5 0.003650 0.002409 -0.001581 -0.009888 0.040137 0.003685
# 6 0.000089 0.000155 -0.001170 0.003035 0.003685 0.026138
#
#
# Mechanical properties :
#
#
# Convention : Reuss Voigt Hill
#
# Bulk Modulus (GPa) = 41.19336 51.84009 46.51672
# Shear Modulus (GPa) = 32.23170 37.91725 35.07448
#
# Velocity S-wave (km/s) = 3.83165 4.15588 3.99705
# Velocity P-wave (km/s) = 6.19185 6.82946 6.51845
#
# Compressibility (1/GPa) = 0.02427576
#
# Stress axis : x y z
#
# Youngs Moduli (GPa) = 68.51886 113.37133 98.53643
#
# Poissons Ratio (x) = 0.36969 0.00652
# Poissons Ratio (y) = 0.22343 0.12976
# Poissons Ratio (z) = 0.00453 0.14930
#
# Static dielectric constant tensor:
#      x y z
#    x 1.702870 0.116260 -0.244210 
#    y 0.116260 1.749820 0.082860 
#    z -0.244210 0.082860 1.667900 
# 
# From -- ./inp_files/491916.got.cif
#   From: 2010.05.17/outbox.cif.g08.bks.cpg/sg2_246_cif.got.tgz:491916.got - 2010.06.03 11:33:40.
