data_PCOD9098202
_publ_section_title
;
Structure prediction by ZEFSAII (Michael W. Deem and Ramdas Pophale) SiO2 
 PCOD9098202
Probable space group: P -1
;
_chemical_formula_sum "Si O2"
_cell_formula_units_Z 12
_cell_length_a 14.674112
_cell_length_b 5.491534
_cell_length_c 10.909790
_cell_angle_alpha 120.498588
_cell_angle_beta 39.730527
_cell_angle_gamma 121.748261
_cell_volume 469.216420
_symmetry_space_group_name_H-M "P -1"
_symmetry_group_IT_number 2
_symmetry_cell_setting 'triclinic'
loop_
_space_group_symop_operation_xyz
x,y,z
-x,-y,-z
loop_
_atom_site_type_symbol
_atom_site_label
_atom_site_fract_x
_atom_site_fract_y
_atom_site_fract_z
Si Si1 0.081338 0.682506 0.789716
Si Si2 0.153182 0.822490 0.035565
Si Si3 0.444865 0.223180 0.772464
Si Si4 0.307851 0.321819 0.413415
Si Si5 0.955852 0.152095 0.463183
Si Si6 0.328350 0.175645 0.617941
O O1 0.180391 0.491921 0.573387
O O2 0.916805 0.481967 0.899173
O O3 0.156124 0.005359 0.748016
O O4 0.128330 0.724679 0.894854
O O5 0.051375 0.035427 0.232449
O O6 0.319673 0.011063 0.928407
O O7 0.551238 0.535703 0.778018
O O8 0.362908 0.281031 0.747193
O O9 0.563907 0.038319 0.570338
O O10 0.353887 0.376628 0.523463
O O11 0.220116 0.986635 0.403771
O O12 0.000000 0.500000 0.500000
O O13 0.000000 0.000000 0.500000
#
# Coordination Sequence:
#
# PCOD9098202 Si02
#       6
#     2   2   2   2   2   2
#     4   8  17  34  58  91 122 157 195 255 319 374
#     4   9  18  39  59  89 122 156 206 262 313 369
#     4   9  18  33  56  94 129 155 191 251 323 384
#     4  10  20  36  64  88 127 161 203 251 316 380
#     4  11  27  48  67  86 119 174 227 264 303 361
#     4   9  17  32  57  92 131 159 188 240 322 397
#
# _framework density 25.574549999999999
#
# number of rings (size 3 to 8) (size 9 to 14) (size 15 to 20)
#    0.000    2.667    0.000    1.500    7.000    0.000 
#    9.000    9.167    0.000    0.000    0.000    0.000 
#    0.000    0.000    0.000    0.000    0.000    0.000 
#
# Total GULP energy -66944.146749 kJ/mol
# GULP energy per Si atom -5578.678896 kJ/mol
# Density = 2.551634 g / cm^3
# Si number density = 25.574550 Si / 1000 Ang^3
#
#
#
# Elastic Constant Matrix: (Units=GPa)
#
#
# Indices 1 2 3 4 5 6 
#
# 1 83.0968 28.6746 29.5978 -8.0239 -8.3137 0.1248
# 2 28.6746 201.5939 70.3080 -44.4068 -35.7421 37.4008
# 3 29.5978 70.3080 71.8399 -40.5940 -30.4621 22.9381
# 4 -8.0239 -44.4068 -40.5940 66.3032 10.3875 -15.1608
# 5 -8.3137 -35.7421 -30.4621 10.3875 32.2596 -15.6648
# 6 0.1248 37.4008 22.9381 -15.1608 -15.6648 37.1977
#
#
#
# Elastic Compliance Matrix: (Units=1/GPa)
#
#
# Indices 1 2 3 4 5 6 
#
# 1 0.015288 -0.000716 -0.010392 -0.003486 -0.003516 0.004175
# 2 -0.000716 0.008081 -0.004979 0.001114 0.001855 -0.003818
# 3 -0.010392 -0.004979 0.046934 0.018740 0.027898 -0.004515
# 4 -0.003486 0.001114 0.018740 0.025722 0.010924 0.002419
# 5 -0.003516 0.001855 0.027898 0.010924 0.060190 0.010743
# 6 0.004175 -0.003818 -0.004515 0.002419 0.010743 0.039002
#
#
# Mechanical properties :
#
#
# Convention : Reuss Voigt Hill
#
# Bulk Modulus (GPa) = 26.22618 68.18794 47.20706
# Shear Modulus (GPa) = 20.82453 42.34879 31.58666
#
# Velocity S-wave (km/s) = 2.85663 4.07368 3.51819
# Velocity P-wave (km/s) = 4.59973 6.98905 5.91626
#
# Compressibility (1/GPa) = 0.03812984
#
# Stress axis : x y z
#
# Youngs Moduli (GPa) = 65.41071 123.74181 21.30642
#
# Poissons Ratio (x) = 0.08865 0.22141
# Poissons Ratio (y) = 0.04686 0.10608
# Poissons Ratio (z) = 0.67973 0.61608
#
# Static dielectric constant tensor:
#      x y z
#    x 2.054370 0.040650 0.016850 
#    y 0.040650 2.106550 -0.020960 
#    z 0.016850 -0.020960 2.035200 
# 
# From -- ./inp_files/362328.got.cif
#   From: 2010.05.17/outbox.cif.g08.bks.cpg/sg2_182_cif.got.tgz:362328.got - 2010.06.03 11:33:40.
