data_PCOD9098475
_publ_section_title
;
Structure prediction by ZEFSAII (Michael W. Deem and Ramdas Pophale) SiO2 
 PCOD9098475
Probable space group: P -1
;
_chemical_formula_sum "Si O2"
_cell_formula_units_Z 11
_cell_length_a 8.270063
_cell_length_b 15.070266
_cell_length_c 16.052472
_cell_angle_alpha 26.361669
_cell_angle_beta 32.849751
_cell_angle_gamma 31.911749
_cell_volume 441.838569
_symmetry_space_group_name_H-M "P -1"
_symmetry_group_IT_number 2
_symmetry_cell_setting 'triclinic'
loop_
_space_group_symop_operation_xyz
x,y,z
-x,-y,-z
loop_
_atom_site_type_symbol
_atom_site_label
_atom_site_fract_x
_atom_site_fract_y
_atom_site_fract_z
Si Si1 0.996799 0.810504 0.244357
Si Si2 0.039928 0.478814 0.361574
Si Si3 0.000000 0.500000 0.000000
Si Si4 0.233951 0.097355 0.359814
Si Si5 0.196516 0.126104 0.969074
Si Si6 0.770224 0.180387 0.261235
O O1 0.102683 0.669208 0.402459
O O2 0.100681 0.632823 0.276611
O O3 0.608998 0.943249 0.305407
O O4 0.177277 0.973102 0.030576
O O5 0.392612 0.334737 0.296759
O O6 0.817507 0.647087 0.249520
O O7 0.134875 0.336074 0.163269
O O8 0.953580 0.300715 0.135512
O O9 0.811442 0.954620 0.479440
O O10 0.000000 0.000000 0.500000
O O11 0.892344 0.159247 0.132035
O O12 0.500000 0.000000 0.000000
#
# Coordination Sequence:
#
# PCOD9098475 Si02
#       6
#     2   2   1   2   2   2
#     4  10  23  44  69  94 132 172 221 273 320 391
#     4  10  23  44  70  91 128 179 221 263 332 387
#     4  10  20  36  66  96 126 166 214 268 320 390
#     4   9  20  38  66  98 126 165 220 270 323 385
#     4  12  27  40  64 100 139 171 217 273 326 384
#     4  10  23  40  63  96 129 173 220 264 326 388
#
# _framework density 24.895970999999999
#
# number of rings (size 3 to 8) (size 9 to 14) (size 15 to 20)
#    0.000    1.818    0.000    2.182    7.636    5.091 
#    0.000    0.000    0.000    0.000    0.000    0.000 
#    0.000    0.000    0.000    0.000    0.000    0.000 
#
# Total GULP energy -61316.919865 kJ/mol
# GULP energy per Si atom -5574.265442 kJ/mol
# Density = 2.483931 g / cm^3
# Si number density = 24.895971 Si / 1000 Ang^3
#
#
#
# Elastic Constant Matrix: (Units=GPa)
#
#
# Indices 1 2 3 4 5 6 
#
# 1 80.1558 20.7672 5.9419 -12.0845 -3.9726 -1.0783
# 2 20.7672 47.5979 48.5205 -6.6412 9.2407 -0.9938
# 3 5.9419 48.5205 188.9477 -45.4151 43.1383 -14.8330
# 4 -12.0845 -6.6412 -45.4151 35.2463 -6.9881 9.7674
# 5 -3.9726 9.2407 43.1383 -6.9881 49.9269 -15.8826
# 6 -1.0783 -0.9938 -14.8330 9.7674 -15.8826 39.6877
#
#
#
# Elastic Compliance Matrix: (Units=1/GPa)
#
#
# Indices 1 2 3 4 5 6 
#
# 1 0.016211 -0.010119 0.004068 0.009117 0.000863 -0.000191
# 2 -0.010119 0.035793 -0.012020 -0.011850 0.001139 -0.000499
# 3 0.004068 -0.012020 0.013622 0.015726 -0.007669 -0.002039
# 4 0.009117 -0.011850 0.015726 0.050810 -0.006510 -0.009281
# 5 0.000863 0.001139 -0.007669 -0.006510 0.028895 0.010352
# 6 -0.000191 -0.000499 -0.002039 -0.009281 0.010352 0.030844
#
#
# Mechanical properties :
#
#
# Convention : Reuss Voigt Hill
#
# Bulk Modulus (GPa) = 33.91851 51.90674 42.91262
# Shear Modulus (GPa) = 22.50782 41.07030 31.78906
#
# Velocity S-wave (km/s) = 3.01005 4.06603 3.57722
# Velocity P-wave (km/s) = 5.07289 6.55272 5.85971
#
# Compressibility (1/GPa) = 0.02948243
#
# Stress axis : x y z
#
# Youngs Moduli (GPa) = 61.68816 27.93847 73.41011
#
# Poissons Ratio (x) = 0.28271 -0.29863
# Poissons Ratio (y) = 0.62423 0.88242
# Poissons Ratio (z) = -0.25095 0.33583
#
# Static dielectric constant tensor:
#      x y z
#    x 2.014130 -0.014460 0.091720 
#    y -0.014460 1.883560 0.135410 
#    z 0.091720 0.135410 1.847780 
# 
# From -- ./inp_files/504855.got.cif
#   From: 2010.05.17/outbox.cif.g08.bks.cpg/sg2_253_cif.got.tgz:504855.got - 2010.06.03 11:33:40.
