data_PCOD9098614
_publ_section_title
;
Structure prediction by ZEFSAII (Michael W. Deem and Ramdas Pophale) SiO2 
 PCOD9098614
Probable space group: P -1
;
_chemical_formula_sum "Si O2"
_cell_formula_units_Z 14
_cell_length_a 11.517302
_cell_length_b 10.997002
_cell_length_c 18.039013
_cell_angle_alpha 34.786007
_cell_angle_beta 154.453113
_cell_angle_gamma 135.506937
_cell_volume 558.560735
_symmetry_space_group_name_H-M "P -1"
_symmetry_group_IT_number 2
_symmetry_cell_setting 'triclinic'
loop_
_space_group_symop_operation_xyz
x,y,z
-x,-y,-z
loop_
_atom_site_type_symbol
_atom_site_label
_atom_site_fract_x
_atom_site_fract_y
_atom_site_fract_z
Si Si1 0.593936 0.033322 0.452377
Si Si2 0.295154 0.696518 0.223910
Si Si3 0.569351 0.788658 0.094885
Si Si4 0.741849 0.957959 0.326950
Si Si5 0.026137 0.627253 0.535611
Si Si6 0.257636 0.686624 0.366839
Si Si7 0.098951 0.724593 0.940207
O O1 0.366317 0.912752 0.338366
O O2 0.887417 0.888115 0.692515
O O3 0.500000 0.000000 0.500000
O O4 0.683218 0.269345 0.360737
O O5 0.532885 0.837133 0.313144
O O6 0.133078 0.681337 0.214115
O O7 0.464274 0.478358 0.400375
O O8 0.149477 0.803041 0.013707
O O9 0.863622 0.679976 0.337608
O O10 0.372056 0.649121 0.091710
O O11 0.500000 0.000000 0.000000
O O12 0.445958 0.843083 0.916814
O O13 0.860741 0.798741 0.410629
O O14 0.000000 0.000000 0.500000
O O15 0.944587 0.414351 0.640704
O O16 0.000000 0.500000 0.000000
#
# Coordination Sequence:
#
# PCOD9098614 Si02
#       7
#     2   2   2   2   2   2   2
#     4  12  24  38  60  87 118 160 202 238 289 356
#     4  10  19  33  58  87 119 145 190 247 304 340
#     4  10  16  31  52  77 109 143 187 238 291 332
#     4  10  17  27  51  83 116 146 181 243 302 346
#     4  10  19  37  56  78 121 152 191 242 289 347
#     4  10  21  37  55  90 118 151 192 245 298 349
#     4  12  20  36  60  85 117 150 199 250 287 347
#
# _framework density 25.064418
#
# number of rings (size 3 to 8) (size 9 to 14) (size 15 to 20)
#    0.000    1.429    8.571    0.857    0.000    1.714 
#    0.000    0.714    0.000    0.857    0.000    0.000 
#    0.000    0.000    0.000    0.000    0.000    0.000 
#
# Total GULP energy -77941.477924 kJ/mol
# GULP energy per Si atom -5567.248423 kJ/mol
# Density = 2.500737 g / cm^3
# Si number density = 25.064418 Si / 1000 Ang^3
#
#
#
# Elastic Constant Matrix: (Units=GPa)
#
#
# Indices 1 2 3 4 5 6 
#
# 1 137.1295 30.1312 3.5979 -14.8397 -11.9719 19.8878
# 2 30.1312 84.2374 65.1439 43.4766 24.7335 114.6043
# 3 3.5979 65.1439 56.3690 -28.9850 -29.1541 -68.5654
# 4 -14.8397 43.4766 -28.9850 -2.6808 -13.3149 -42.5995
# 5 -11.9719 24.7335 -29.1541 -13.3149 15.8793 -44.5351
# 6 19.8878 114.6043 -68.5654 -42.5995 -44.5351 -59.9839
#
#
#
# Elastic Compliance Matrix: (Units=1/GPa)
#
#
# Indices 1 2 3 4 5 6 
#
# 1 0.009143 -0.000959 -0.000503 0.007938 0.001066 -0.004654
# 2 -0.000959 0.004872 0.001278 0.002013 0.004162 0.003009
# 3 -0.000503 0.001278 0.008773 -0.004413 -0.000946 -0.003916
# 4 0.007938 0.002013 -0.004413 0.059478 -0.013474 -0.020714
# 5 0.001066 0.004162 -0.000946 -0.013474 0.031608 -0.004511
# 6 -0.004654 0.003009 -0.003916 -0.020714 -0.004511 0.010070
#
#
# Mechanical properties :
#
#
# Convention : Reuss Voigt Hill
#
# Bulk Modulus (GPa) = 44.60316 52.83130 48.71723
# Shear Modulus (GPa) = 37.94049 2.56712 20.25381
#
# Velocity S-wave (km/s) = 3.89488 1.01313 2.84574
# Velocity P-wave (km/s) = 6.16934 4.74263 5.50242
#
# Compressibility (1/GPa) = 0.02241994
#
# Stress axis : x y z
#
# Youngs Moduli (GPa) = 109.36880 205.27383 113.98394
#
# Poissons Ratio (x) = 0.19688 0.05738
# Poissons Ratio (y) = 0.10490 -0.14572
# Poissons Ratio (z) = 0.05506 -0.26243
#
# Static dielectric constant tensor:
#      x y z
#    x 2.044150 -0.061690 -0.051200 
#    y -0.061690 2.076850 0.011920 
#    z -0.051200 0.011920 2.024310 
# 
# From -- ./inp_files/209245.got.cif
#   From: 2010.05.17/outbox.cif.g08.bks.cpg/sg2_105_cif.got.tgz:209245.got - 2010.06.03 11:33:40.
