data_PCOD9098385
_publ_section_title
;
Structure prediction by ZEFSAII (Michael W. Deem and Ramdas Pophale) SiO2 
 PCOD9098385
Probable space group: P -1
;
_chemical_formula_sum "Si O2"
_cell_formula_units_Z 16
_cell_length_a 10.106036
_cell_length_b 22.216164
_cell_length_c 9.468712
_cell_angle_alpha 72.764035
_cell_angle_beta 118.030986
_cell_angle_gamma 150.550984
_cell_volume 890.804896
_symmetry_space_group_name_H-M "P -1"
_symmetry_group_IT_number 2
_symmetry_cell_setting 'triclinic'
loop_
_space_group_symop_operation_xyz
x,y,z
-x,-y,-z
loop_
_atom_site_type_symbol
_atom_site_label
_atom_site_fract_x
_atom_site_fract_y
_atom_site_fract_z
Si Si1 0.345081 0.489861 0.812921
Si Si2 0.051266 0.945780 0.089071
Si Si3 0.016499 0.288440 0.370103
Si Si4 0.448097 0.532305 0.287615
Si Si5 0.208567 0.785186 0.217395
Si Si6 0.525857 0.933970 0.543871
Si Si7 0.592592 0.098411 0.053047
Si Si8 0.662460 0.687725 0.029317
O O1 0.448870 0.496573 0.714534
O O2 0.990678 0.348425 0.750416
O O3 0.500000 0.500000 0.000000
O O4 0.479514 0.604768 0.852200
O O5 0.767097 0.797137 0.021852
O O6 0.175449 0.978385 0.286440
O O7 0.315387 0.020372 0.062700
O O8 0.000000 0.000000 0.000000
O O9 0.131505 0.397511 0.291104
O O10 0.302227 0.362666 0.541755
O O11 0.755376 0.197805 0.418795
O O12 0.873963 0.197305 0.232833
O O13 0.472080 0.592584 0.134408
O O14 0.475465 0.895670 0.384095
O O15 0.315387 0.822743 0.084290
O O16 0.970814 0.757317 0.134894
O O17 0.500000 0.000000 0.500000
O O18 0.500000 0.000000 0.000000
#
# Coordination Sequence:
#
# PCOD9098385 Si02
#       8
#     2   2   2   2   2   2   2   2
#     4   8  15  25  46  74 105 131 167 227 268 305
#     4  11  24  37  54  80 115 147 178 224 279 325
#     4  10  17  27  46  80 115 130 172 228 278 304
#     4   9  16  26  47  79 112 135 170 233 273 308
#     4  10  16  31  52  82 100 134 183 227 265 309
#     4  11  18  34  55  77 109 149 183 222 266 325
#     4  11  20  31  52  80 106 138 184 226 260 315
#     4  10  16  31  51  76 111 140 178 212 281 319
#
# _framework density 17.961285
#
# number of rings (size 3 to 8) (size 9 to 14) (size 15 to 20)
#    0.000    2.250    5.000    3.000    0.000    0.000 
#    0.000    0.625    0.000    7.500    0.000    0.000 
#    0.000    0.000    0.000    0.000    0.000    0.000 
#
# Total GULP energy -89103.534842 kJ/mol
# GULP energy per Si atom -5568.970928 kJ/mol
# Density = 1.792040 g / cm^3
# Si number density = 17.961285 Si / 1000 Ang^3
#
#
#
# Elastic Constant Matrix: (Units=GPa)
#
#
# Indices 1 2 3 4 5 6 
#
# 1 25.6926 22.2728 20.6709 4.7560 -3.3627 -13.4488
# 2 22.2728 107.7957 19.7547 6.3800 -4.8986 -17.8325
# 3 20.6709 19.7547 92.9006 20.3817 -22.3328 -16.8210
# 4 4.7560 6.3800 20.3817 38.0364 -2.6001 -14.5279
# 5 -3.3627 -4.8986 -22.3328 -2.6001 21.9412 -6.7540
# 6 -13.4488 -17.8325 -16.8210 -14.5279 -6.7540 26.6718
#
#
#
# Elastic Compliance Matrix: (Units=1/GPa)
#
#
# Indices 1 2 3 4 5 6 
#
# 1 0.068517 -0.007129 -0.006000 0.010406 0.014948 0.035451
# 2 -0.007129 0.011867 0.001383 0.001307 0.005361 0.007281
# 3 -0.006000 0.001383 0.021842 -0.002987 0.026419 0.016738
# 4 0.010406 0.001307 -0.002987 0.037823 0.011903 0.027853
# 5 0.014948 0.005361 0.026419 0.011903 0.095346 0.058410
# 6 0.035451 0.007281 0.016738 0.027853 0.058410 0.100755
#
#
# Mechanical properties :
#
#
# Convention : Reuss Voigt Hill
#
# Bulk Modulus (GPa) = 12.70109 39.08731 25.89420
# Shear Modulus (GPa) = 12.95718 28.24256 20.59987
#
# Velocity S-wave (km/s) = 2.68879 3.96967 3.39027
# Velocity P-wave (km/s) = 4.08977 6.54372 5.45648
#
# Compressibility (1/GPa) = 0.07873339
#
# Stress axis : x y z
#
# Youngs Moduli (GPa) = 14.59500 84.26595 45.78318
#
# Poissons Ratio (x) = 0.60077 0.27470
# Poissons Ratio (y) = 0.10405 -0.06333
# Poissons Ratio (z) = 0.08757 -0.11655
#
# Static dielectric constant tensor:
#      x y z
#    x 1.610810 0.003530 -0.017600 
#    y 0.003530 1.701790 0.005200 
#    z -0.017600 0.005200 1.660370 
# 
# From -- ./inp_files/284232.got.cif
#   From: 2010.05.17/outbox.cif.g08.bks.cpg/sg2_143_cif.got.tgz:284232.got - 2010.06.03 11:33:40.
