data_PCOD9098919
_publ_section_title
;
Structure prediction by ZEFSAII (Michael W. Deem and Ramdas Pophale) SiO2 
 PCOD9098919
Probable space group: P -1
;
_chemical_formula_sum "Si O2"
_cell_formula_units_Z 16
_cell_length_a 12.862978
_cell_length_b 12.443991
_cell_length_c 11.659195
_cell_angle_alpha 91.448559
_cell_angle_beta 123.342579
_cell_angle_gamma 137.515477
_cell_volume 680.380920
_symmetry_space_group_name_H-M "P -1"
_symmetry_group_IT_number 2
_symmetry_cell_setting 'triclinic'
loop_
_space_group_symop_operation_xyz
x,y,z
-x,-y,-z
loop_
_atom_site_type_symbol
_atom_site_label
_atom_site_fract_x
_atom_site_fract_y
_atom_site_fract_z
Si Si1 0.435415 0.887424 0.266836
Si Si2 0.688593 0.693823 0.517153
Si Si3 0.918514 0.811332 0.442987
Si Si4 0.816483 0.031091 0.062353
Si Si5 0.037816 0.282823 0.755988
Si Si6 0.322377 0.044299 0.264356
Si Si7 0.497589 0.172852 0.913545
Si Si8 0.294561 0.575778 0.306274
O O1 0.343542 0.933786 0.249785
O O2 0.413844 0.856517 0.115375
O O3 0.258784 0.650389 0.206188
O O4 0.751721 0.114134 0.521442
O O5 0.500000 0.500000 0.500000
O O6 0.557839 0.709728 0.418390
O O7 0.680116 0.620268 0.392456
O O8 0.009458 0.927528 0.765734
O O9 0.845138 0.704382 0.272776
O O10 0.202264 0.975556 0.667206
O O11 0.000000 0.000000 0.500000
O O12 0.042501 0.298359 0.170107
O O13 0.586942 0.902419 0.006617
O O14 0.698834 0.907364 0.864559
O O15 0.934967 0.143806 0.805924
O O16 0.266037 0.550082 0.936726
O O17 0.602309 0.298705 0.506960
#
# Coordination Sequence:
#
# PCOD9098919 Si02
#       8
#     2   2   2   2   2   2   2   2
#     4  10  22  40  62  85 113 151 201 248 286 335
#     4   9  19  37  60  83 115 154 186 230 288 343
#     4  10  20  37  58  85 117 151 195 242 285 337
#     4  10  23  38  57  88 121 152 190 237 293 353
#     4  10  21  38  60  84 114 152 196 241 288 342
#     4  11  23  38  61  88 112 153 200 241 290 344
#     4  10  22  38  56  85 120 153 189 237 294 348
#     4  10  20  40  63  83 114 154 197 241 284 340
#
# _framework density 23.51624
#
# number of rings (size 3 to 8) (size 9 to 14) (size 15 to 20)
#    0.000    2.000    0.000    4.500    0.000    9.500 
#    0.000    5.000    0.000    0.000    0.000    0.000 
#    0.000    0.000    0.000    0.000    0.000    0.000 
#
# Total GULP energy -89390.295658 kJ/mol
# GULP energy per Si atom -5586.893479 kJ/mol
# Density = 2.346272 g / cm^3
# Si number density = 23.516240 Si / 1000 Ang^3
#
#
#
# Elastic Constant Matrix: (Units=GPa)
#
#
# Indices 1 2 3 4 5 6 
#
# 1 124.6253 16.3066 31.0828 -14.2924 -33.0861 15.0327
# 2 16.3066 33.3946 13.8854 -8.5920 -0.6236 13.9467
# 3 31.0828 13.8854 63.6741 -12.5900 -20.8312 4.9520
# 4 -14.2924 -8.5920 -12.5900 39.3285 2.5152 -10.2498
# 5 -33.0861 -0.6236 -20.8312 2.5152 30.5923 -12.0149
# 6 15.0327 13.9467 4.9520 -10.2498 -12.0149 47.1416
#
#
#
# Elastic Compliance Matrix: (Units=1/GPa)
#
#
# Indices 1 2 3 4 5 6 
#
# 1 0.012643 -0.006099 0.000257 0.002960 0.014278 0.002028
# 2 -0.006099 0.043673 -0.011524 0.001105 -0.019319 -0.014448
# 3 0.000257 -0.011524 0.025113 0.006193 0.019372 0.006974
# 4 0.002960 0.001105 0.006193 0.029941 0.007536 0.006509
# 5 0.014278 -0.019319 0.019372 0.007536 0.067350 0.017931
# 6 0.002028 -0.014448 0.006974 0.006509 0.017931 0.030093
#
#
# Mechanical properties :
#
#
# Convention : Reuss Voigt Hill
#
# Bulk Modulus (GPa) = 21.41565 38.24928 29.83246
# Shear Modulus (GPa) = 19.29665 34.10710 26.70187
#
# Velocity S-wave (km/s) = 2.86766 3.81250 3.37332
# Velocity P-wave (km/s) = 4.48232 5.97332 5.28070
#
# Compressibility (1/GPa) = 0.04669483
#
# Stress axis : x y z
#
# Youngs Moduli (GPa) = 79.09242 22.89754 39.82047
#
# Poissons Ratio (x) = 0.13966 -0.01022
# Poissons Ratio (y) = 0.48242 0.45890
# Poissons Ratio (z) = -0.02030 0.26388
#
# Static dielectric constant tensor:
#      x y z
#    x 1.935620 0.046970 0.024590 
#    y 0.046970 1.936590 -0.014430 
#    z 0.024590 -0.014430 1.938870 
# 
# From -- ./inp_files/428436.got.cif
#   From: 2010.05.17/outbox.cif.g08.bks.cpg/sg2_215_cif.got.tgz:428436.got - 2010.06.03 11:33:40.
