data_PCOD9098937
_publ_section_title
;
Structure prediction by ZEFSAII (Michael W. Deem and Ramdas Pophale) SiO2 
 PCOD9098937
Probable space group: P -1
;
_chemical_formula_sum "Si O2"
_cell_formula_units_Z 16
_cell_length_a 16.133351
_cell_length_b 12.119104
_cell_length_c 6.567359
_cell_angle_alpha 64.309992
_cell_angle_beta 107.004466
_cell_angle_gamma 56.192840
_cell_volume 674.462072
_symmetry_space_group_name_H-M "P -1"
_symmetry_group_IT_number 2
_symmetry_cell_setting 'triclinic'
loop_
_space_group_symop_operation_xyz
x,y,z
-x,-y,-z
loop_
_atom_site_type_symbol
_atom_site_label
_atom_site_fract_x
_atom_site_fract_y
_atom_site_fract_z
Si Si1 0.170233 0.913065 0.765987
Si Si2 0.907633 0.149608 0.620345
Si Si3 0.739623 0.424053 0.629665
Si Si4 0.889019 0.486769 0.876194
Si Si5 0.109042 0.370635 0.864873
Si Si6 0.595899 0.917051 0.327317
Si Si7 0.420842 0.920076 0.441248
Si Si8 0.558955 0.294664 0.699355
O O1 0.149625 0.893494 0.534355
O O2 0.221750 0.736710 0.074318
O O3 0.292290 0.873499 0.937801
O O4 0.014420 0.109959 0.590893
O O5 0.780108 0.359465 0.475268
O O6 0.000000 0.000000 0.000000
O O7 0.834497 0.422635 0.796717
O O8 0.572682 0.632850 0.362613
O O9 0.760160 0.723973 0.536953
O O10 0.037396 0.355564 0.984787
O O11 0.891549 0.503405 0.106734
O O12 0.000000 0.500000 0.500000
O O13 0.267327 0.153439 0.091665
O O14 0.549613 0.856371 0.491574
O O15 0.570770 0.066448 0.322827
O O16 0.500000 0.000000 0.000000
O O17 0.420989 0.786129 0.446399
O O18 0.500000 0.500000 0.500000
#
# Coordination Sequence:
#
# PCOD9098937 Si02
#       8
#     2   2   2   2   2   2   2   2
#     4   9  20  38  61  84 118 157 206 245 301 355
#     4   9  19  38  59  82 114 155 199 249 292 350
#     4  10  20  37  58  86 119 155 198 250 302 356
#     4  10  21  38  58  88 120 148 200 252 299 372
#     4  10  22  39  60  88 121 155 199 252 312 360
#     4  10  20  39  64  88 118 155 205 249 310 368
#     4  10  21  39  62  88 122 160 199 253 305 360
#     4  10  21  40  60  89 127 161 205 252 297 364
#
# _framework density 23.722608000000001
#
# number of rings (size 3 to 8) (size 9 to 14) (size 15 to 20)
#    0.000    2.250    1.250    0.750    1.750    1.500 
#    9.000    3.750    0.000    0.000    0.000    0.000 
#    0.000    0.000    0.000    0.000    0.000    0.000 
#
# Total GULP energy -89317.785994 kJ/mol
# GULP energy per Si atom -5582.361625 kJ/mol
# Density = 2.366861 g / cm^3
# Si number density = 23.722608 Si / 1000 Ang^3
#
#
#
# Elastic Constant Matrix: (Units=GPa)
#
#
# Indices 1 2 3 4 5 6 
#
# 1 68.9896 35.8898 17.9144 1.1716 30.8155 0.2200
# 2 35.8898 137.8977 43.8082 36.2221 12.8533 3.0106
# 3 17.9144 43.8082 129.3473 33.4571 28.7631 2.7537
# 4 1.1716 36.2221 33.4571 41.4472 3.4755 11.5161
# 5 30.8155 12.8533 28.7631 3.4755 40.7193 -5.0363
# 6 0.2200 3.0106 2.7537 11.5161 -5.0363 34.6711
#
#
#
# Elastic Compliance Matrix: (Units=1/GPa)
#
#
# Indices 1 2 3 4 5 6 
#
# 1 0.027038 -0.007529 0.001433 0.007812 -0.020406 -0.005191
# 2 -0.007529 0.011888 -0.001290 -0.010360 0.004131 0.003159
# 3 0.001433 -0.001290 0.011862 -0.007958 -0.008303 0.000598
# 4 0.007812 -0.010360 -0.007958 0.043256 -0.002349 -0.013227
# 5 -0.020406 0.004131 -0.008303 -0.002349 0.045734 0.007854
# 6 -0.005191 0.003159 0.000598 -0.013227 0.007854 0.034088
#
#
# Mechanical properties :
#
#
# Convention : Reuss Voigt Hill
#
# Bulk Modulus (GPa) = 27.76568 59.05102 43.40835
# Shear Modulus (GPa) = 24.91984 39.27569 32.09777
#
# Velocity S-wave (km/s) = 3.24461 4.07335 3.68237
# Velocity P-wave (km/s) = 5.07606 6.86070 6.03472
#
# Compressibility (1/GPa) = 0.03601569
#
# Stress axis : x y z
#
# Youngs Moduli (GPa) = 36.98436 84.11679 84.30623
#
# Poissons Ratio (x) = 0.63332 -0.12079
# Poissons Ratio (y) = 0.27846 0.10875
# Poissons Ratio (z) = -0.05299 0.10851
#
# Static dielectric constant tensor:
#      x y z
#    x 1.926380 0.017950 -0.005550 
#    y 0.017950 1.937780 -0.035380 
#    z -0.005550 -0.035380 1.920520 
# 
# From -- ./inp_files/109741.got.cif
#   From: 2010.05.17/outbox.cif.g08.bks.cpg/sg2_55_cif.got.tgz:109741.got - 2010.06.03 11:33:40.
