data_PCOD9098152
_publ_section_title
;
Structure prediction by ZEFSAII (Michael W. Deem and Ramdas Pophale) SiO2 
 PCOD9098152
Probable space group: P -1
;
_chemical_formula_sum "Si O2"
_cell_formula_units_Z 13
_cell_length_a 8.680081
_cell_length_b 9.775572
_cell_length_c 10.938436
_cell_angle_alpha 52.236300
_cell_angle_beta 39.850236
_cell_angle_gamma 56.001147
_cell_volume 462.856559
_symmetry_space_group_name_H-M "P -1"
_symmetry_group_IT_number 2
_symmetry_cell_setting 'triclinic'
loop_
_space_group_symop_operation_xyz
x,y,z
-x,-y,-z
loop_
_atom_site_type_symbol
_atom_site_label
_atom_site_fract_x
_atom_site_fract_y
_atom_site_fract_z
Si Si1 0.500521 0.852684 0.889694
Si Si2 0.290403 0.155428 0.685415
Si Si3 0.861660 0.477324 0.300812
Si Si4 0.843253 0.080481 0.291205
Si Si5 0.463589 0.634394 0.259389
Si Si6 0.000000 0.000000 0.500000
Si Si7 0.331993 0.598650 0.929923
O O1 0.429331 0.695797 0.931951
O O2 0.317553 0.026959 0.856770
O O3 0.472888 0.801623 0.076741
O O4 0.757790 0.907511 0.669030
O O5 0.206035 0.353810 0.664399
O O6 0.559386 0.126586 0.479832
O O7 0.124368 0.092460 0.716557
O O8 0.700827 0.538682 0.244830
O O9 0.747806 0.327701 0.527460
O O10 0.150913 0.455231 0.126898
O O11 0.852530 0.246318 0.109378
O O12 0.001407 0.070357 0.319256
O O13 0.448967 0.487829 0.244548
#
# Coordination Sequence:
#
# PCOD9098152 Si02
#       7
#     2   2   2   2   2   1   2
#     4  10  23  41  68  99 132 173 224 271 332 385
#     4   9  19  40  65  95 127 174 215 267 328 391
#     4  11  24  40  70  97 133 178 218 268 330 390
#     4   9  18  36  65  92 129 167 218 268 324 386
#     4  11  24  44  66  99 137 174 219 272 322 400
#     4  10  20  36  64 100 122 172 220 266 328 378
#     4  11  22  43  71  96 133 180 216 266 335 397
#
# _framework density 28.086454
#
# number of rings (size 3 to 8) (size 9 to 14) (size 15 to 20)
#    0.000    1.846    1.538    2.769    0.000    3.692 
#    2.769    3.077    3.385    0.000    0.000    0.000 
#    0.000    0.000    0.000    0.000    0.000    0.000 
#
# Total GULP energy -72591.401723 kJ/mol
# GULP energy per Si atom -5583.953979 kJ/mol
# Density = 2.802253 g / cm^3
# Si number density = 28.086454 Si / 1000 Ang^3
#
#
#
# Elastic Constant Matrix: (Units=GPa)
#
#
# Indices 1 2 3 4 5 6 
#
# 1 163.0274 0.5944 54.6172 -1.7801 17.0802 -4.9885
# 2 0.5944 38.3559 5.3042 13.0367 3.6377 22.5453
# 3 54.6172 5.3042 179.6946 -5.2713 6.4431 -10.6641
# 4 -1.7801 13.0367 -5.2713 34.1541 -9.3847 -5.3196
# 5 17.0802 3.6377 6.4431 -9.3847 51.3775 -6.8586
# 6 -4.9885 22.5453 -10.6641 -5.3196 -6.8586 36.0319
#
#
#
# Elastic Compliance Matrix: (Units=1/GPa)
#
#
# Indices 1 2 3 4 5 6 
#
# 1 0.007115 0.002302 -0.002302 -0.001956 -0.002860 -0.001970
# 2 0.002302 0.088740 -0.008135 -0.052820 -0.025045 -0.070180
# 3 -0.002302 -0.008135 0.007079 0.006101 0.002673 0.008276
# 4 -0.001956 -0.052820 0.006101 0.063736 0.021691 0.048124
# 5 -0.002860 -0.025045 0.002673 0.021691 0.029127 0.024813
# 6 -0.001970 -0.070180 0.008276 0.048124 0.024813 0.085670
#
#
# Mechanical properties :
#
#
# Convention : Reuss Voigt Hill
#
# Bulk Modulus (GPa) = 11.53901 55.78997 33.66449
# Shear Modulus (GPa) = 15.30802 45.68351 30.49576
#
# Velocity S-wave (km/s) = 2.33712 4.03740 3.29870
# Velocity P-wave (km/s) = 3.37642 6.45298 5.14981
#
# Compressibility (1/GPa) = 0.08666253
#
# Stress axis : x y z
#
# Youngs Moduli (GPa) = 140.55213 11.26884 141.25929
#
# Poissons Ratio (x) = -0.02594 0.32520
# Poissons Ratio (y) = -0.32351 1.14920
# Poissons Ratio (z) = 0.32357 0.09168
#
# Static dielectric constant tensor:
#      x y z
#    x 2.192490 0.072370 0.022330 
#    y 0.072370 2.504520 -0.097650 
#    z 0.022330 -0.097650 2.280750 
# 
# From -- ./inp_files/263990.got.cif
#   From: 2010.05.17/outbox.cif.g08.bks.cpg/sg2_132_cif.got.tgz:263990.got - 2010.06.03 11:33:40.
