data_PCOD9098520
_publ_section_title
;
Structure prediction by ZEFSAII (Michael W. Deem and Ramdas Pophale) SiO2 
 PCOD9098520
Probable space group: P -1
;
_chemical_formula_sum "Si O2"
_cell_formula_units_Z 14
_cell_length_a 10.042197
_cell_length_b 12.677196
_cell_length_c 10.631923
_cell_angle_alpha 33.658785
_cell_angle_beta 46.214486
_cell_angle_gamma 62.386854
_cell_volume 519.752837
_symmetry_space_group_name_H-M "P -1"
_symmetry_group_IT_number 2
_symmetry_cell_setting 'triclinic'
loop_
_space_group_symop_operation_xyz
x,y,z
-x,-y,-z
loop_
_atom_site_type_symbol
_atom_site_label
_atom_site_fract_x
_atom_site_fract_y
_atom_site_fract_z
Si Si1 0.875440 0.868287 0.873944
Si Si2 0.636321 0.270278 0.959082
Si Si3 0.214826 0.484031 0.889401
Si Si4 0.351247 0.274578 0.331218
Si Si5 0.604467 0.694315 0.453742
Si Si6 0.904432 0.234754 0.611737
Si Si7 0.875401 0.357566 0.969369
O O1 0.783059 0.726442 0.960429
O O2 0.765615 0.797377 0.147206
O O3 0.079026 0.825457 0.809786
O O4 0.881701 0.096835 0.640660
O O5 0.624889 0.478908 0.698266
O O6 0.729100 0.170834 0.886998
O O7 0.790070 0.308978 0.935605
O O8 0.435993 0.177542 0.255640
O O9 0.402543 0.648327 0.556031
O O10 0.240710 0.533474 0.971475
O O11 0.000000 0.500000 0.000000
O O12 0.385842 0.198291 0.523705
O O13 0.119535 0.241263 0.515663
O O14 0.500000 0.500000 0.000000
O O15 0.927467 0.464914 0.342814
#
# Coordination Sequence:
#
# PCOD9098520 Si02
#       7
#     2   2   2   2   2   2   2
#     4  11  26  40  65 101 132 176 218 264 327 400
#     4  11  21  40  70  99 127 176 215 271 342 380
#     4  10  23  43  69  91 130 183 220 269 324 386
#     4  10  20  36  67  99 127 170 217 261 332 395
#     4  11  19  41  69  94 130 171 224 270 325 399
#     4  12  23  42  66 104 138 166 214 276 337 384
#     4  11  20  44  68  90 135 173 217 270 331 382
#
# _framework density 26.935877999999999
#
# number of rings (size 3 to 8) (size 9 to 14) (size 15 to 20)
#    0.000    1.143    5.714    2.571    0.000    2.857 
#    5.143    2.143    0.000    0.000    0.000    0.000 
#    0.000    0.000    0.000    0.000    0.000    0.000 
#
# Total GULP energy -78080.283574 kJ/mol
# GULP energy per Si atom -5577.163112 kJ/mol
# Density = 2.687457 g / cm^3
# Si number density = 26.935878 Si / 1000 Ang^3
#
#
#
# Elastic Constant Matrix: (Units=GPa)
#
#
# Indices 1 2 3 4 5 6 
#
# 1 67.9804 8.4744 -0.7165 3.7900 -0.2899 -5.9769
# 2 8.4744 187.8534 30.2614 15.6978 -1.0355 1.9475
# 3 -0.7165 30.2614 79.5575 24.5528 2.8492 -4.1616
# 4 3.7900 15.6978 24.5528 48.9793 -1.9504 0.8443
# 5 -0.2899 -1.0355 2.8492 -1.9504 25.0096 5.2959
# 6 -5.9769 1.9475 -4.1616 0.8443 5.2959 30.2936
#
#
#
# Elastic Compliance Matrix: (Units=1/GPa)
#
#
# Indices 1 2 3 4 5 6 
#
# 1 0.015202 -0.000775 0.001128 -0.001585 -0.000826 0.003393
# 2 -0.000775 0.005760 -0.002042 -0.000723 0.000594 -0.000887
# 3 0.001128 -0.002042 0.016002 -0.007639 -0.003194 0.003323
# 4 -0.001585 -0.000723 -0.007639 0.024777 0.003301 -0.002583
# 5 -0.000826 0.000594 -0.003194 0.003301 0.042343 -0.008134
# 6 0.003393 -0.000887 0.003323 -0.002583 -0.008134 0.035687
#
#
# Mechanical properties :
#
#
# Convention : Reuss Voigt Hill
#
# Bulk Modulus (GPa) = 29.77494 45.71444 37.74469
# Shear Modulus (GPa) = 32.39487 40.68129 36.53808
#
# Velocity S-wave (km/s) = 3.47171 3.89048 3.68704
# Velocity P-wave (km/s) = 5.21041 6.09832 5.67177
#
# Compressibility (1/GPa) = 0.03358529
#
# Stress axis : x y z
#
# Youngs Moduli (GPa) = 65.78210 173.60543 62.49101
#
# Poissons Ratio (x) = 0.13450 -0.07047
# Poissons Ratio (y) = 0.05096 0.12763
# Poissons Ratio (z) = -0.07418 0.35457
#
# Static dielectric constant tensor:
#      x y z
#    x 2.143750 -0.023950 0.069960 
#    y -0.023950 2.210450 -0.025310 
#    z 0.069960 -0.025310 2.253500 
# 
# From -- ./inp_files/424853.got.cif
#   From: 2010.05.17/outbox.cif.g08.bks.cpg/sg2_213_cif.got.tgz:424853.got - 2010.06.03 11:33:40.
