data_PCOD9098218
_publ_section_title
;
Structure prediction by ZEFSAII (Michael W. Deem and Ramdas Pophale) SiO2 
 PCOD9098218
Probable space group: P -1
;
_chemical_formula_sum "Si O2"
_cell_formula_units_Z 14
_cell_length_a 8.747356
_cell_length_b 11.764105
_cell_length_c 9.745680
_cell_angle_alpha 92.427536
_cell_angle_beta 100.637970
_cell_angle_gamma 37.098750
_cell_volume 585.150841
_symmetry_space_group_name_H-M "P -1"
_symmetry_group_IT_number 2
_symmetry_cell_setting 'triclinic'
loop_
_space_group_symop_operation_xyz
x,y,z
-x,-y,-z
loop_
_atom_site_type_symbol
_atom_site_label
_atom_site_fract_x
_atom_site_fract_y
_atom_site_fract_z
Si Si1 0.836766 0.474194 0.828167
Si Si2 0.785686 0.992348 0.445509
Si Si3 0.665821 0.842527 0.285718
Si Si4 0.616975 0.326925 0.426589
Si Si5 0.556550 0.119605 0.126707
Si Si6 0.737071 0.089555 0.852334
Si Si7 0.217391 0.699848 0.018872
O O1 0.575460 0.569844 0.728108
O O2 0.723546 0.657392 0.878300
O O3 0.920549 0.331046 0.944942
O O4 0.055499 0.358819 0.741724
O O5 0.701210 0.909911 0.420688
O O6 0.074905 0.830438 0.544726
O O7 0.616446 0.198355 0.481794
O O8 0.765374 0.030070 0.278015
O O9 0.470305 0.853776 0.272304
O O10 0.540758 0.996176 0.153735
O O11 0.500000 0.500000 0.500000
O O12 0.645989 0.112308 0.995032
O O13 0.746293 0.220204 0.859725
O O14 0.025418 0.866364 0.881483
O O15 0.500000 0.500000 0.000000
#
# Coordination Sequence:
#
# PCOD9098218 Si02
#       7
#     2   2   2   2   2   2   2
#     4  11  20  32  57  80 107 134 184 214 262 307
#     4   8  18  28  48  78 109 127 167 212 275 304
#     4  10  20  34  52  82 108 136 173 223 264 310
#     4  10  16  31  50  80 106 133 163 227 265 307
#     4   9  18  32  50  80 104 136 169 216 257 312
#     4  11  22  36  54  72 114 144 175 212 266 309
#     4  11  23  38  51  76 106 150 178 210 254 325
#
# _framework density 23.925454999999999
#
# number of rings (size 3 to 8) (size 9 to 14) (size 15 to 20)
#    0.857    1.143    4.286    0.429    0.000    1.714 
#    0.000    0.000    0.000    0.857    0.000    2.000 
#    0.000    0.000    0.000    0.000    0.000    0.000 
#
# Total GULP energy -78076.454255 kJ/mol
# GULP energy per Si atom -5576.889590 kJ/mol
# Density = 2.387100 g / cm^3
# Si number density = 23.925455 Si / 1000 Ang^3
#
#
#
# Elastic Constant Matrix: (Units=GPa)
#
#
# Indices 1 2 3 4 5 6 
#
# 1 82.3614 30.8543 40.5557 2.8304 14.9976 -7.5659
# 2 30.8543 165.8056 15.4455 -3.3433 7.0076 -7.3085
# 3 40.5557 15.4455 56.0982 -6.0707 15.1599 -3.0994
# 4 2.8304 -3.3433 -6.0707 24.6601 -3.7094 4.5019
# 5 14.9976 7.0076 15.1599 -3.7094 44.0845 -4.3266
# 6 -7.5659 -7.3085 -3.0994 4.5019 -4.3266 13.2025
#
#
#
# Elastic Compliance Matrix: (Units=1/GPa)
#
#
# Indices 1 2 3 4 5 6 
#
# 1 0.022055 -0.002342 -0.015240 -0.008707 -0.001621 0.010202
# 2 -0.002342 0.006565 0.000088 0.000808 -0.000009 0.002034
# 3 -0.015240 0.000088 0.030947 0.009768 -0.005286 -0.006483
# 4 -0.008707 0.000808 0.009768 0.047594 0.001721 -0.017914
# 5 -0.001621 -0.000009 -0.005286 0.001721 0.025757 0.005679
# 6 0.010202 0.002034 -0.006483 -0.017914 0.005679 0.089164
#
#
# Mechanical properties :
#
#
# Convention : Reuss Voigt Hill
#
# Bulk Modulus (GPa) = 40.68593 53.10848 46.89720
# Shear Modulus (GPa) = 18.84930 30.88341 24.86635
#
# Velocity S-wave (km/s) = 2.80988 3.59669 3.22736
# Velocity P-wave (km/s) = 5.25066 6.28442 5.79066
#
# Compressibility (1/GPa) = 0.02457852
#
# Stress axis : x y z
#
# Youngs Moduli (GPa) = 45.34130 152.32014 32.31372
#
# Poissons Ratio (x) = 0.35670 0.49246
# Poissons Ratio (y) = 0.10618 -0.00284
# Poissons Ratio (z) = 0.69100 -0.01337
#
# Static dielectric constant tensor:
#      x y z
#    x 2.010870 0.040740 -0.132980 
#    y 0.040740 1.931310 0.008980 
#    z -0.132980 0.008980 2.306230 
# 
# From -- ./inp_files/498052.got.cif
#   From: 2010.05.17/outbox.cif.g08.bks.cpg/sg2_250_cif.got.tgz:498052.got - 2010.06.03 11:33:40.
