data_PCOD9098312
_publ_section_title
;
Structure prediction by ZEFSAII (Michael W. Deem and Ramdas Pophale) SiO2 
 PCOD9098312
Probable space group: P -1
;
_chemical_formula_sum "Si O2"
_cell_formula_units_Z 16
_cell_length_a 15.411208
_cell_length_b 10.406261
_cell_length_c 8.307970
_cell_angle_alpha 84.093598
_cell_angle_beta 118.662466
_cell_angle_gamma 51.305183
_cell_volume 737.988473
_symmetry_space_group_name_H-M "P -1"
_symmetry_group_IT_number 2
_symmetry_cell_setting 'triclinic'
loop_
_space_group_symop_operation_xyz
x,y,z
-x,-y,-z
loop_
_atom_site_type_symbol
_atom_site_label
_atom_site_fract_x
_atom_site_fract_y
_atom_site_fract_z
Si Si1 0.847204 0.713447 0.916653
Si Si2 0.826589 0.217303 0.856152
Si Si3 0.628704 0.825768 0.305246
Si Si4 0.698943 0.217853 0.068726
Si Si5 0.379869 0.906415 0.531400
Si Si6 0.651559 0.345778 0.344219
Si Si7 0.303548 0.385470 0.310596
Si Si8 0.273077 0.106044 0.879798
O O1 0.726030 0.716697 0.797567
O O2 0.840646 0.759217 0.088772
O O3 0.779295 0.900913 0.728706
O O4 0.000000 0.500000 0.000000
O O5 0.731343 0.300676 0.591466
O O6 0.808515 0.385848 0.865053
O O7 0.765368 0.199951 0.958920
O O8 0.000000 0.000000 0.000000
O O9 0.714927 0.637306 0.519124
O O10 0.593948 0.994180 0.348586
O O11 0.460132 0.935864 0.101346
O O12 0.743469 0.760773 0.278031
O O13 0.737492 0.264669 0.256876
O O14 0.511692 0.416089 0.853640
O O15 0.747963 0.021067 0.171671
O O16 0.381939 0.773156 0.648394
O O17 0.518980 0.754592 0.546672
#
# Coordination Sequence:
#
# PCOD9098312 Si02
#       8
#     2   2   2   2   2   2   2   2
#     4  11  24  38  64  95 129 171 214 273 339 398
#     4  12  28  45  68  96 137 186 222 275 342 404
#     4  10  20  36  64  97 125 164 214 271 329 388
#     4  11  24  43  72 103 133 173 231 281 334 395
#     4  11  19  42  64  91 129 167 220 275 328 393
#     4  11  24  43  70 102 131 175 229 284 330 398
#     4  11  22  43  62  94 127 173 224 266 330 403
#     4  11  20  37  64  99 130 163 212 277 332 394
#
# _framework density 21.680554000000001
#
# number of rings (size 3 to 8) (size 9 to 14) (size 15 to 20)
#    0.000    1.000    5.000    2.625    3.500    0.500 
#    2.250    3.750    0.000    0.000    0.000    0.000 
#    0.000    0.000    0.000    0.000    0.000    0.000 
#
# Total GULP energy -89284.667553 kJ/mol
# GULP energy per Si atom -5580.291722 kJ/mol
# Density = 2.163121 g / cm^3
# Si number density = 21.680554 Si / 1000 Ang^3
#
#
#
# Elastic Constant Matrix: (Units=GPa)
#
#
# Indices 1 2 3 4 5 6 
#
# 1 36.1155 19.3815 12.4784 1.4689 -19.1769 -4.4025
# 2 19.3815 76.0326 6.3543 0.1633 -10.6182 -24.4286
# 3 12.4784 6.3543 37.5502 8.3631 -16.6249 -17.4333
# 4 1.4689 0.1633 8.3631 45.0710 -1.1881 -7.0664
# 5 -19.1769 -10.6182 -16.6249 -1.1881 21.8396 -0.3194
# 6 -4.4025 -24.4286 -17.4333 -7.0664 -0.3194 39.9018
#
#
#
# Elastic Compliance Matrix: (Units=1/GPa)
#
#
# Indices 1 2 3 4 5 6 
#
# 1 0.057723 -0.005101 0.010689 -0.001077 0.056403 0.008176
# 2 -0.005101 0.022036 0.014817 0.000897 0.017850 0.019703
# 3 0.010689 0.014817 0.073597 -0.005550 0.072926 0.042007
# 4 -0.001077 0.000897 -0.005550 0.023494 -0.003425 0.002139
# 5 0.056403 0.017850 0.072926 -0.003425 0.160046 0.049688
# 6 0.008176 0.019703 0.042007 0.002139 0.049688 0.057156
#
#
# Mechanical properties :
#
#
# Convention : Reuss Voigt Hill
#
# Bulk Modulus (GPa) = 5.15027 25.12519 15.13773
# Shear Modulus (GPa) = 11.96273 28.79476 20.37875
#
# Velocity S-wave (km/s) = 2.35153 3.64832 3.06919
# Velocity P-wave (km/s) = 3.12308 5.41857 4.42236
#
# Compressibility (1/GPa) = 0.19416470
#
# Stress axis : x y z
#
# Youngs Moduli (GPa) = 17.32402 45.38091 13.58751
#
# Poissons Ratio (x) = 0.23151 -0.14523
# Poissons Ratio (y) = 0.08838 -0.20133
# Poissons Ratio (z) = -0.18517 -0.67242
#
# Static dielectric constant tensor:
#      x y z
#    x 1.803390 -0.013700 -0.014830 
#    y -0.013700 1.783950 0.081770 
#    z -0.014830 0.081770 1.878670 
# 
# From -- ./inp_files/330972.got.cif
#   From: 2010.05.17/outbox.cif.g08.bks.cpg/sg2_166_cif.got.tgz:330972.got - 2010.06.03 11:33:40.
