data_PCOD9098182
_publ_section_title
;
Structure prediction by ZEFSAII (Michael W. Deem and Ramdas Pophale) SiO2 
 PCOD9098182
Probable space group: P -1
;
_chemical_formula_sum "Si O2"
_cell_formula_units_Z 14
_cell_length_a 14.369090
_cell_length_b 15.087272
_cell_length_c 15.415501
_cell_angle_alpha 19.375969
_cell_angle_beta 38.014910
_cell_angle_gamma 37.652186
_cell_volume 663.314333
_symmetry_space_group_name_H-M "P -1"
_symmetry_group_IT_number 2
_symmetry_cell_setting 'triclinic'
loop_
_space_group_symop_operation_xyz
x,y,z
-x,-y,-z
loop_
_atom_site_type_symbol
_atom_site_label
_atom_site_fract_x
_atom_site_fract_y
_atom_site_fract_z
Si Si1 0.892882 0.206167 0.068448
Si Si2 0.500046 0.171009 0.088216
Si Si3 0.022559 0.859567 0.736709
Si Si4 0.191933 0.236534 0.156205
Si Si5 0.664450 0.532889 0.718527
Si Si6 0.810078 0.929022 0.141583
Si Si7 0.677881 0.795404 0.637476
O O1 0.977670 0.151857 0.149612
O O2 0.769096 0.019077 0.334972
O O3 0.802439 0.522968 0.831047
O O4 0.025373 0.121364 0.977415
O O5 0.371178 0.164846 0.118065
O O6 0.669541 0.973387 0.132903
O O7 0.436449 0.105352 0.290050
O O8 0.536046 0.470241 0.804138
O O9 0.859661 0.873843 0.794660
O O10 0.097924 0.100094 0.422631
O O11 0.131899 0.565956 0.898139
O O12 0.600074 0.693431 0.704312
O O13 0.783383 0.687130 0.444919
O O14 0.760850 0.222868 0.954652
#
# Coordination Sequence:
#
# PCOD9098182 Si02
#       7
#     2   2   2   2   2   2   2
#     4  12  23  40  60  92 117 156 195 250 284 351
#     4  10  23  40  60  89 116 159 190 250 287 355
#     4  10  20  37  59  93 113 142 197 245 287 345
#     4  10  20  36  64  86 115 148 189 246 295 337
#     4  10  24  40  58  87 119 160 200 239 284 356
#     4  10  25  39  59  81 132 153 194 237 303 339
#     4  12  24  37  67  83 117 157 211 237 288 332
#
# _framework density 21.106131999999999
#
# number of rings (size 3 to 8) (size 9 to 14) (size 15 to 20)
#    0.857    0.571    2.857    2.143    4.000    4.000 
#    0.000    0.714    0.000    0.857    0.000    0.000 
#    0.000    0.000    0.000    0.000    0.000    0.000 
#
# Total GULP energy -78205.428070 kJ/mol
# GULP energy per Si atom -5586.102005 kJ/mol
# Density = 2.105809 g / cm^3
# Si number density = 21.106132 Si / 1000 Ang^3
#
#
#
# Elastic Constant Matrix: (Units=GPa)
#
#
# Indices 1 2 3 4 5 6 
#
# 1 126.3720 8.8238 8.2299 -1.5484 -8.6751 -11.3414
# 2 8.8238 52.1598 27.1349 7.9297 -11.2117 -19.2246
# 3 8.2299 27.1349 137.7230 -0.4852 -9.7357 -6.5045
# 4 -1.5484 7.9297 -0.4852 19.9332 -3.6179 -2.0623
# 5 -8.6751 -11.2117 -9.7357 -3.6179 27.8593 0.8044
# 6 -11.3414 -19.2246 -6.5045 -2.0623 0.8044 26.8439
#
#
#
# Elastic Compliance Matrix: (Units=1/GPa)
#
#
# Indices 1 2 3 4 5 6 
#
# 1 0.008453 0.000530 -0.000220 0.001360 0.002832 0.003917
# 2 0.000530 0.033208 -0.004869 -0.009215 0.010001 0.021818
# 3 -0.000220 -0.004869 0.008256 0.002186 0.001183 -0.001447
# 4 0.001360 -0.009215 0.002186 0.054683 0.004621 -0.001433
# 5 0.002832 0.010001 0.001183 0.004621 0.041591 0.007754
# 6 0.003917 0.021818 -0.001447 -0.001433 0.007754 0.053840
#
#
# Mechanical properties :
#
#
# Convention : Reuss Voigt Hill
#
# Bulk Modulus (GPa) = 24.51014 44.95911 34.73462
# Shear Modulus (GPa) = 22.44686 33.06504 27.75595
#
# Velocity S-wave (km/s) = 3.26471 3.96233 3.63032
# Velocity P-wave (km/s) = 5.08420 6.50240 5.83653
#
# Compressibility (1/GPa) = 0.04079945
#
# Stress axis : x y z
#
# Youngs Moduli (GPa) = 118.29996 30.11358 121.11719
#
# Poissons Ratio (x) = -0.01597 0.02659
# Poissons Ratio (y) = -0.06272 0.58978
# Poissons Ratio (z) = 0.02597 0.14664
#
# Static dielectric constant tensor:
#      x y z
#    x 1.835970 -0.002600 0.010530 
#    y -0.002600 1.704140 -0.028680 
#    z 0.010530 -0.028680 1.766800 
# 
# From -- ./inp_files/115693.got.cif
#   From: 2010.05.17/outbox.cif.g08.bks.cpg/sg2_58_cif.got.tgz:115693.got - 2010.06.03 11:33:40.
