data_PCOD9098328
_publ_section_title
;
Structure prediction by ZEFSAII (Michael W. Deem and Ramdas Pophale) SiO2 
 PCOD9098328
Probable space group: P -1
;
_chemical_formula_sum "Si O2"
_cell_formula_units_Z 16
_cell_length_a 13.810664
_cell_length_b 8.308196
_cell_length_c 9.102942
_cell_angle_alpha 53.386869
_cell_angle_beta 70.721858
_cell_angle_gamma 102.106861
_cell_volume 667.744070
_symmetry_space_group_name_H-M "P -1"
_symmetry_group_IT_number 2
_symmetry_cell_setting 'triclinic'
loop_
_space_group_symop_operation_xyz
x,y,z
-x,-y,-z
loop_
_atom_site_type_symbol
_atom_site_label
_atom_site_fract_x
_atom_site_fract_y
_atom_site_fract_z
Si Si1 0.898524 0.454681 0.277702
Si Si2 0.230030 0.300163 0.868081
Si Si3 0.350504 0.767987 0.993530
Si Si4 0.838995 0.188864 0.138283
Si Si5 0.414051 0.216368 0.685756
Si Si6 0.712978 0.699425 0.637978
Si Si7 0.110455 0.000514 0.362142
Si Si8 0.470129 0.661495 0.733037
O O1 0.808928 0.549339 0.290246
O O2 0.863521 0.339292 0.194507
O O3 0.898911 0.251863 0.485513
O O4 0.032931 0.688043 0.074948
O O5 0.285240 0.181259 0.807676
O O6 0.342033 0.475972 0.823473
O O7 0.126309 0.106151 0.133807
O O8 0.248873 0.768413 0.941817
O O9 0.440155 0.745873 0.850214
O O10 0.419341 0.028906 0.890004
O O11 0.283253 0.535203 0.254499
O O12 0.786959 0.924847 0.371780
O O13 0.500000 0.500000 0.500000
O O14 0.454950 0.165790 0.535728
O O15 0.770167 0.814541 0.704069
O O16 0.570046 0.598529 0.754021
O O17 0.000000 0.000000 0.500000
#
# Coordination Sequence:
#
# PCOD9098328 Si02
#       8
#     2   2   2   2   2   2   2   2
#     4  10  20  37  66  93 125 170 204 263 330 360
#     4  11  22  44  60  95 137 166 208 265 320 386
#     4  12  21  40  65  91 127 167 213 269 316 367
#     4  10  20  36  64  99 120 157 217 265 312 375
#     4  10  25  42  62  88 134 177 207 259 323 384
#     4  11  22  35  65 100 121 158 218 267 314 369
#     4  11  22  39  67 100 128 162 220 268 311 378
#     4  11  22  42  66  97 125 166 219 267 312 384
#
# _framework density 23.961276999999999
#
# number of rings (size 3 to 8) (size 9 to 14) (size 15 to 20)
#    0.000    1.250    3.750    3.750    0.000    1.000 
#    2.250    1.875    0.000    3.750    0.000    0.000 
#    0.000    0.000    0.000    0.000    0.000    0.000 
#
# Total GULP energy -89180.259668 kJ/mol
# GULP energy per Si atom -5573.766229 kJ/mol
# Density = 2.390674 g / cm^3
# Si number density = 23.961277 Si / 1000 Ang^3
#
#
#
# Elastic Constant Matrix: (Units=GPa)
#
#
# Indices 1 2 3 4 5 6 
#
# 1 98.6657 11.8947 60.3182 -16.9476 9.8733 -23.7695
# 2 11.8947 58.3106 52.7830 -14.2086 6.2145 -25.0208
# 3 60.3182 52.7830 168.7559 -35.6264 14.3405 -32.5297
# 4 -16.9476 -14.2086 -35.6264 46.5406 -14.1498 7.5761
# 5 9.8733 6.2145 14.3405 -14.1498 33.7873 -4.9217
# 6 -23.7695 -25.0208 -32.5297 7.5761 -4.9217 26.1769
#
#
#
# Elastic Compliance Matrix: (Units=1/GPa)
#
#
# Indices 1 2 3 4 5 6 
#
# 1 0.016522 0.008774 -0.004995 0.001846 -0.001156 0.016431
# 2 0.008774 0.037391 -0.007754 0.003300 0.000057 0.033127
# 3 -0.004995 -0.007754 0.011168 0.004258 0.000031 0.000706
# 4 0.001846 0.003300 0.004258 0.028763 0.009617 0.003605
# 5 -0.001156 0.000057 0.000031 0.009617 0.034334 0.002716
# 6 0.016431 0.033127 0.000706 0.003605 0.002716 0.085130
#
#
# Mechanical properties :
#
#
# Convention : Reuss Voigt Hill
#
# Bulk Modulus (GPa) = 17.50306 63.96931 40.73619
# Shear Modulus (GPa) = 20.80726 34.68340 27.74533
#
# Velocity S-wave (km/s) = 2.95001 3.80870 3.40652
# Velocity P-wave (km/s) = 4.35017 6.78944 5.70178
#
# Compressibility (1/GPa) = 0.05713286
#
# Stress axis : x y z
#
# Youngs Moduli (GPa) = 60.52559 26.74433 89.53766
#
# Poissons Ratio (x) = -0.23466 0.44721
# Poissons Ratio (y) = -0.53107 0.69426
# Poissons Ratio (z) = 0.30231 0.20737
#
# Static dielectric constant tensor:
#      x y z
#    x 1.992550 0.091970 -0.015040 
#    y 0.091970 1.999710 -0.048700 
#    z -0.015040 -0.048700 1.991930 
# 
# From -- ./inp_files/446622.got.cif
#   From: 2010.05.17/outbox.cif.g08.bks.cpg/sg2_224_cif.got.tgz:446622.got - 2010.06.03 11:33:40.
