data_PCOD9098117
_publ_section_title
;
Structure prediction by ZEFSAII (Michael W. Deem and Ramdas Pophale) SiO2 
 PCOD9098117
Probable space group: P -1
;
_chemical_formula_sum "Si O2"
_cell_formula_units_Z 14
_cell_length_a 16.963869
_cell_length_b 10.460936
_cell_length_c 7.695717
_cell_angle_alpha 45.853453
_cell_angle_beta 44.459906
_cell_angle_gamma 41.968853
_cell_volume 598.225512
_symmetry_space_group_name_H-M "P -1"
_symmetry_group_IT_number 2
_symmetry_cell_setting 'triclinic'
loop_
_space_group_symop_operation_xyz
x,y,z
-x,-y,-z
loop_
_atom_site_type_symbol
_atom_site_label
_atom_site_fract_x
_atom_site_fract_y
_atom_site_fract_z
Si Si1 0.794004 0.868961 0.297035
Si Si2 0.869432 0.440010 0.446881
Si Si3 0.641493 0.487434 0.583880
Si Si4 0.151147 0.166483 0.339612
Si Si5 0.559262 0.195074 0.142594
Si Si6 0.583176 0.878395 0.146058
Si Si7 0.975075 0.019313 0.817490
O O1 0.796246 0.665486 0.424012
O O2 0.818597 0.848107 0.486425
O O3 0.668866 0.071355 0.233002
O O4 0.913051 0.879730 0.005191
O O5 0.790649 0.432209 0.412785
O O6 0.870246 0.257761 0.731017
O O7 0.021693 0.367731 0.287302
O O8 0.566493 0.621414 0.745822
O O9 0.583613 0.664345 0.362788
O O10 0.613821 0.299510 0.818993
O O11 0.102293 0.000137 0.542849
O O12 0.272840 0.154522 0.066751
O O13 0.530385 0.032848 0.244660
O O14 0.500000 0.000000 0.000000
O O15 0.000000 0.000000 0.000000
#
# Coordination Sequence:
#
# PCOD9098117 Si02
#       7
#     2   2   2   2   2   2   2
#     4  11  18  39  67  93 120 166 211 249 303 361
#     4  10  20  36  63  96 120 159 209 250 303 364
#     4  11  24  43  67  92 122 160 220 254 304 375
#     4   9  22  39  60  95 131 156 201 255 307 372
#     4  11  24  43  67  91 119 169 211 261 302 367
#     4  12  26  45  61  90 130 165 204 256 324 368
#     4   8  18  35  56  94 127 154 202 249 297 367
#
# _framework density 23.402546999999998
#
# number of rings (size 3 to 8) (size 9 to 14) (size 15 to 20)
#    0.857    0.857    2.857    1.714    2.000    1.143 
#    2.571    1.429    0.000    0.000    0.000    0.000 
#    0.000    0.000    0.000    0.000    0.000    0.000 
#
# Total GULP energy -78022.715373 kJ/mol
# GULP energy per Si atom -5573.051098 kJ/mol
# Density = 2.334928 g / cm^3
# Si number density = 23.402547 Si / 1000 Ang^3
#
#
#
# Elastic Constant Matrix: (Units=GPa)
#
#
# Indices 1 2 3 4 5 6 
#
# 1 71.0560 23.8624 17.2749 -13.2521 -3.1350 -21.0629
# 2 23.8624 72.3722 31.0406 -18.8232 -2.2162 -11.8396
# 3 17.2749 31.0406 119.7859 -17.0287 -9.3175 -8.5551
# 4 -13.2521 -18.8232 -17.0287 47.2734 -10.4093 0.8607
# 5 -3.1350 -2.2162 -9.3175 -10.4093 33.3400 -8.3776
# 6 -21.0629 -11.8396 -8.5551 0.8607 -8.3776 35.0554
#
#
#
# Elastic Compliance Matrix: (Units=1/GPa)
#
#
# Indices 1 2 3 4 5 6 
#
# 1 0.020131 -0.002914 0.000090 0.005758 0.006686 0.012590
# 2 -0.002914 0.018424 -0.002938 0.006068 0.003117 0.004350
# 3 0.000090 -0.002938 0.010092 0.003395 0.004315 0.002472
# 4 0.005758 0.006068 0.003395 0.029154 0.013202 0.008777
# 5 0.006686 0.003117 0.004315 0.013202 0.040018 0.015362
# 6 0.012590 0.004350 0.002472 0.008777 0.015362 0.041619
#
#
# Mechanical properties :
#
#
# Convention : Reuss Voigt Hill
#
# Bulk Modulus (GPa) = 26.93869 45.28555 36.11212
# Shear Modulus (GPa) = 27.27231 35.86952 31.57091
#
# Velocity S-wave (km/s) = 3.41743 3.91924 3.67691
# Velocity P-wave (km/s) = 5.20652 6.31453 5.78710
#
# Compressibility (1/GPa) = 0.03712133
#
# Stress axis : x y z
#
# Youngs Moduli (GPa) = 49.67443 54.27765 99.09280
#
# Poissons Ratio (x) = 0.15817 -0.00889
# Poissons Ratio (y) = 0.14475 0.29116
# Poissons Ratio (z) = -0.00446 0.15948
#
# Static dielectric constant tensor:
#      x y z
#    x 1.991230 -0.131430 -0.032590 
#    y -0.131430 1.986850 0.066640 
#    z -0.032590 0.066640 1.957780 
# 
# From -- ./inp_files/331522.got.cif
#   From: 2010.05.17/outbox.cif.g08.bks.cpg/sg2_166_cif.got.tgz:331522.got - 2010.06.03 11:33:40.
