data_PCOD9098041
_publ_section_title
;
Structure prediction by ZEFSAII (Michael W. Deem and Ramdas Pophale) SiO2 
 PCOD9098041
Probable space group: P -1
;
_chemical_formula_sum "Si O2"
_cell_formula_units_Z 14
_cell_length_a 14.542682
_cell_length_b 13.008843
_cell_length_c 8.762698
_cell_angle_alpha 113.408058
_cell_angle_beta 93.130838
_cell_angle_gamma 30.295486
_cell_volume 600.320745
_symmetry_space_group_name_H-M "P -1"
_symmetry_group_IT_number 2
_symmetry_cell_setting 'triclinic'
loop_
_space_group_symop_operation_xyz
x,y,z
-x,-y,-z
loop_
_atom_site_type_symbol
_atom_site_label
_atom_site_fract_x
_atom_site_fract_y
_atom_site_fract_z
Si Si1 0.956231 0.271652 0.879648
Si Si2 0.152063 0.403239 0.759566
Si Si3 0.213952 0.091048 0.522949
Si Si4 0.395830 0.993251 0.957599
Si Si5 0.897615 0.994091 0.952861
Si Si6 0.506315 0.305888 0.960329
Si Si7 0.808131 0.508832 0.496071
O O1 0.125477 0.114887 0.667166
O O2 0.803289 0.552044 0.082551
O O3 0.771526 0.384029 0.879725
O O4 0.091948 0.083654 0.931901
O O5 0.273597 0.147570 0.623592
O O6 0.202117 0.397303 0.593542
O O7 0.874179 0.694821 0.924814
O O8 0.991556 0.352474 0.543444
O O9 0.410700 0.814368 0.274673
O O10 0.413415 0.889006 0.041009
O O11 0.500000 0.000000 0.000000
O O12 0.565507 0.756918 0.702688
O O13 0.073888 0.734641 0.701649
O O14 0.644187 0.258444 0.011308
O O15 0.000000 0.000000 0.000000
#
# Coordination Sequence:
#
# PCOD9098041 Si02
#       7
#     2   2   2   2   2   2   2
#     4  11  23  39  63  92 125 160 208 264 307 373
#     4  11  21  36  57  94 135 171 205 246 299 379
#     4  11  20  35  61  92 132 169 205 247 306 374
#     4  12  19  33  64  94 125 172 201 234 305 376
#     4  10  24  48  68  87 121 162 214 273 317 361
#     4  11  23  41  63  91 129 163 206 259 310 370
#     4  10  20  36  63  89 127 167 210 251 309 365
#
# _framework density 23.320865999999999
#
# number of rings (size 3 to 8) (size 9 to 14) (size 15 to 20)
#    0.000    1.143    7.143    1.714    0.000    3.429 
#    0.000    3.571    0.000    0.000    0.000    0.000 
#    0.000    0.000    0.000    0.000    0.000    0.000 
#
# Total GULP energy -78410.194015 kJ/mol
# GULP energy per Si atom -5600.728144 kJ/mol
# Density = 2.326779 g / cm^3
# Si number density = 23.320866 Si / 1000 Ang^3
#
#
#
# Elastic Constant Matrix: (Units=GPa)
#
#
# Indices 1 2 3 4 5 6 
#
# 1 112.1581 18.6348 42.9329 -12.6157 -2.6489 -29.2658
# 2 18.6348 65.4656 14.1369 -5.6205 -2.9743 -24.4931
# 3 42.9329 14.1369 106.2413 -18.9224 -29.2652 1.9746
# 4 -12.6157 -5.6205 -18.9224 24.9753 0.1385 -8.6669
# 5 -2.6489 -2.9743 -29.2652 0.1385 26.4013 -5.5404
# 6 -29.2658 -24.4931 1.9746 -8.6669 -5.5404 33.6334
#
#
#
# Elastic Compliance Matrix: (Units=1/GPa)
#
#
# Indices 1 2 3 4 5 6 
#
# 1 0.018404 0.007023 -0.005592 0.015570 0.001764 0.025760
# 2 0.007023 0.028409 -0.000681 0.021156 0.010167 0.033967
# 3 -0.005592 -0.000681 0.019688 0.011825 0.021126 0.000010
# 4 0.015570 0.021156 0.011825 0.080025 0.027855 0.053470
# 5 0.001764 0.010167 0.021126 0.027855 0.067942 0.026068
# 6 0.025760 0.033967 0.000010 0.053470 0.026068 0.094955
#
#
# Mechanical properties :
#
#
# Convention : Reuss Voigt Hill
#
# Bulk Modulus (GPa) = 14.70527 48.36382 31.53455
# Shear Modulus (GPa) = 15.12447 30.87936 23.00191
#
# Velocity S-wave (km/s) = 2.54940 3.64278 3.14399
# Velocity P-wave (km/s) = 3.87108 6.20295 5.17019
#
# Compressibility (1/GPa) = 0.06800283
#
# Stress axis : x y z
#
# Youngs Moduli (GPa) = 54.33589 35.19958 50.79185
#
# Poissons Ratio (x) = -0.24722 0.28401
# Poissons Ratio (y) = -0.38162 0.03460
# Poissons Ratio (z) = 0.30382 0.02398
#
# Static dielectric constant tensor:
#      x y z
#    x 1.915620 -0.001080 0.034570 
#    y -0.001080 1.890140 -0.004280 
#    z 0.034570 -0.004280 1.848400 
# 
# From -- ./inp_files/197742.got.cif
#   From: 2010.05.17/outbox.cif.g08.bks.cpg/sg2_99_cif.got.tgz:197742.got - 2010.06.03 11:33:40.
