data_PCOD9098381
_publ_section_title
;
Structure prediction by ZEFSAII (Michael W. Deem and Ramdas Pophale) SiO2 
 PCOD9098381
Probable space group: P -1
;
_chemical_formula_sum "Si O2"
_cell_formula_units_Z 12
_cell_length_a 7.859863
_cell_length_b 7.950726
_cell_length_c 15.080260
_cell_angle_alpha 139.922932
_cell_angle_beta 70.642271
_cell_angle_gamma 104.698918
_cell_volume 572.427170
_symmetry_space_group_name_H-M "P -1"
_symmetry_group_IT_number 2
_symmetry_cell_setting 'triclinic'
loop_
_space_group_symop_operation_xyz
x,y,z
-x,-y,-z
loop_
_atom_site_type_symbol
_atom_site_label
_atom_site_fract_x
_atom_site_fract_y
_atom_site_fract_z
Si Si1 0.734478 0.420122 0.063341
Si Si2 0.910984 0.649017 0.955957
Si Si3 0.863373 0.124335 0.645748
Si Si4 0.549271 0.789252 0.639092
Si Si5 0.568338 0.939502 0.063035
Si Si6 0.504854 0.824764 0.342871
O O1 0.578037 0.284193 0.978782
O O2 0.637972 0.585559 0.222944
O O3 0.888067 0.249000 0.015524
O O4 0.828060 0.602761 0.048677
O O5 0.934491 0.360383 0.790155
O O6 0.767792 0.825288 0.998790
O O7 0.699170 0.260120 0.675457
O O8 0.755566 0.894619 0.626794
O O9 0.000000 0.000000 0.500000
O O10 0.500000 0.500000 0.500000
O O11 0.444167 0.990190 0.674029
O O12 0.481047 0.833288 0.767965
O O13 0.500000 0.000000 0.000000
O O14 0.500000 0.000000 0.500000
#
# Coordination Sequence:
#
# PCOD9098381 Si02
#       6
#     2   2   2   2   2   2
#     4  11  21  40  69  93 124 164 225 275 314 387
#     4  11  21  40  68  94 121 166 223 272 320 381
#     4  10  20  37  65  94 130 161 226 267 318 394
#     4  10  23  40  62  96 138 170 211 271 337 388
#     4  12  24  42  66  94 135 173 212 268 333 392
#     4  10  20  36  65  93 127 167 218 265 332 379
#
# _framework density 20.963366000000001
#
# number of rings (size 3 to 8) (size 9 to 14) (size 15 to 20)
#    1.000    0.333    5.000    1.500    2.333    0.667 
#    0.000    0.000    0.000    4.000    0.000    0.000 
#    0.000    0.000    0.000    0.000    0.000    0.000 
#
# Total GULP energy -66801.984936 kJ/mol
# GULP energy per Si atom -5566.832078 kJ/mol
# Density = 2.091565 g / cm^3
# Si number density = 20.963366 Si / 1000 Ang^3
#
#
#
# Elastic Constant Matrix: (Units=GPa)
#
#
# Indices 1 2 3 4 5 6 
#
# 1 113.0340 23.3614 30.1954 1.2138 -17.1688 -25.7718
# 2 23.3614 74.5222 25.4958 -12.2331 -10.6548 -10.0158
# 3 30.1954 25.4958 165.0338 -17.0400 -5.0531 -0.7624
# 4 1.2138 -12.2331 -17.0400 25.4081 -1.2129 11.2015
# 5 -17.1688 -10.6548 -5.0531 -1.2129 38.7638 -0.7715
# 6 -25.7718 -10.0158 -0.7624 11.2015 -0.7715 22.5600
#
#
#
# Elastic Compliance Matrix: (Units=1/GPa)
#
#
# Indices 1 2 3 4 5 6 
#
# 1 0.018163 -0.002191 -0.004401 -0.017029 0.006899 0.028318
# 2 -0.002191 0.016365 -0.001332 0.006565 0.003591 0.001581
# 3 -0.004401 -0.001332 0.007942 0.009237 -0.001190 -0.009977
# 4 -0.017029 0.006565 0.009237 0.072426 -0.003309 -0.052301
# 5 0.006899 0.003591 -0.001190 -0.003309 0.029822 0.012098
# 6 0.028318 0.001581 -0.009977 -0.052301 0.012098 0.103423
#
#
# Mechanical properties :
#
#
# Convention : Reuss Voigt Hill
#
# Bulk Modulus (GPa) = 37.56440 56.74393 47.15416
# Shear Modulus (GPa) = 18.32426 35.58220 26.95323
#
# Velocity S-wave (km/s) = 2.95974 4.12436 3.58960
# Velocity P-wave (km/s) = 5.44408 7.05743 6.30260
#
# Compressibility (1/GPa) = 0.02662095
#
# Stress axis : x y z
#
# Youngs Moduli (GPa) = 55.05780 61.10606 125.91969
#
# Poissons Ratio (x) = 0.13389 0.55416
# Poissons Ratio (y) = 0.12064 0.16775
# Poissons Ratio (z) = 0.24230 0.08141
#
# Static dielectric constant tensor:
#      x y z
#    x 1.870480 0.067780 0.021690 
#    y 0.067780 1.848580 0.031040 
#    z 0.021690 0.031040 1.796010 
# 
# From -- ./inp_files/177887.got.cif
#   From: 2010.05.17/outbox.cif.g08.bks.cpg/sg2_89_cif.got.tgz:177887.got - 2010.06.03 11:33:40.
