data_PCOD9098759
_publ_section_title
;
Structure prediction by ZEFSAII (Michael W. Deem and Ramdas Pophale) SiO2 
 PCOD9098759
Probable space group: P -1
;
_chemical_formula_sum "Si O2"
_cell_formula_units_Z 16
_cell_length_a 14.492324
_cell_length_b 7.136862
_cell_length_c 7.771090
_cell_angle_alpha 115.552469
_cell_angle_beta 58.704546
_cell_angle_gamma 107.012745
_cell_volume 617.184750
_symmetry_space_group_name_H-M "P -1"
_symmetry_group_IT_number 2
_symmetry_cell_setting 'triclinic'
loop_
_space_group_symop_operation_xyz
x,y,z
-x,-y,-z
loop_
_atom_site_type_symbol
_atom_site_label
_atom_site_fract_x
_atom_site_fract_y
_atom_site_fract_z
Si Si1 0.593299 0.053301 0.072531
Si Si2 0.349593 0.656390 0.423726
Si Si3 0.808047 0.711727 0.502775
Si Si4 0.923290 0.666131 0.720498
Si Si5 0.679354 0.892093 0.246345
Si Si6 0.243227 0.688817 0.205949
Si Si7 0.411158 0.309174 0.435094
Si Si8 0.114799 0.980148 0.709893
O O1 0.631514 0.880890 0.097864
O O2 0.521008 0.206098 0.306450
O O3 0.700062 0.187310 0.955868
O O4 0.500000 0.000000 0.000000
O O5 0.234249 0.535718 0.558151
O O6 0.366182 0.899690 0.543237
O O7 0.338336 0.629944 0.220062
O O8 0.430637 0.513708 0.380938
O O9 0.861968 0.756906 0.652292
O O10 0.690748 0.803596 0.622034
O O11 0.887658 0.807983 0.316187
O O12 0.832975 0.517707 0.849762
O O13 0.000000 0.500000 0.500000
O O14 0.003990 0.842042 0.799593
O O15 0.806436 0.959316 0.181830
O O16 0.645696 0.699789 0.327434
O O17 0.175098 0.834642 0.454218
#
# Coordination Sequence:
#
# PCOD9098759 Si02
#       8
#     2   2   2   2   2   2   2   2
#     4  12  23  36  56  81 116 158 185 227 294 333
#     4   8  17  35  56  77 113 137 193 231 263 324
#     4   8  15  29  51  86 107 131 188 233 262 329
#     4   9  16  29  54  84 109 143 181 232 280 324
#     4  10  20  37  57  82 113 148 196 235 265 337
#     4   9  19  34  52  84 119 140 185 229 277 340
#     4   9  20  36  59  81 109 153 191 227 275 320
#     4   9  16  32  59  80 106 150 185 235 274 315
#
# _framework density 25.924166
#
# number of rings (size 3 to 8) (size 9 to 14) (size 15 to 20)
#    0.750    2.000    0.000    3.750    0.000    1.000 
#    0.000    1.875    0.000    0.000    0.000   11.375 
#    0.000    0.000    0.000    0.000    0.000    0.000 
#
# Total GULP energy -89238.075796 kJ/mol
# GULP energy per Si atom -5577.379737 kJ/mol
# Density = 2.586516 g / cm^3
# Si number density = 25.924166 Si / 1000 Ang^3
#
#
#
# Elastic Constant Matrix: (Units=GPa)
#
#
# Indices 1 2 3 4 5 6 
#
# 1 125.2282 9.1792 23.3802 -7.1704 4.2418 10.2330
# 2 9.1792 70.8690 -0.8619 -11.9416 -1.1448 11.9590
# 3 23.3802 -0.8619 48.0714 -8.9946 -13.5870 -3.8927
# 4 -7.1704 -11.9416 -8.9946 33.7130 0.9238 8.3116
# 5 4.2418 -1.1448 -13.5870 0.9238 37.4458 -4.5675
# 6 10.2330 11.9590 -3.8927 8.3116 -4.5675 55.3236
#
#
#
# Elastic Compliance Matrix: (Units=1/GPa)
#
#
# Indices 1 2 3 4 5 6 
#
# 1 0.009456 -0.000789 -0.005609 0.000920 -0.003445 -0.002396
# 2 -0.000789 0.016148 0.001807 0.007063 0.000548 -0.004233
# 3 -0.005609 0.001807 0.028009 0.005969 0.011027 0.002631
# 4 0.000920 0.007063 0.005969 0.035555 0.000599 -0.006569
# 5 -0.003445 0.000548 0.011027 0.000599 0.031564 0.003811
# 6 -0.002396 -0.004233 0.002631 -0.006569 0.003811 0.020920
#
#
# Mechanical properties :
#
#
# Convention : Reuss Voigt Hill
#
# Bulk Modulus (GPa) = 22.50666 34.17373 28.34020
# Shear Modulus (GPa) = 30.18520 39.46120 34.82320
#
# Velocity S-wave (km/s) = 3.41598 3.90574 3.66904
# Velocity P-wave (km/s) = 4.92536 5.79229 5.37632
#
# Compressibility (1/GPa) = 0.04443129
#
# Stress axis : x y z
#
# Youngs Moduli (GPa) = 105.75803 61.92699 35.70242
#
# Poissons Ratio (x) = 0.04888 0.20024
# Poissons Ratio (y) = 0.08347 -0.06451
# Poissons Ratio (z) = 0.59315 -0.11190
#
# Static dielectric constant tensor:
#      x y z
#    x 2.048350 0.037240 0.004150 
#    y 0.037240 2.173830 0.149430 
#    z 0.004150 0.149430 2.159480 
# 
# From -- ./inp_files/197922.got.cif
#   From: 2010.05.17/outbox.cif.g08.bks.cpg/sg2_99_cif.got.tgz:197922.got - 2010.06.03 11:33:40.
