data_PCOD9098025
_publ_section_title
;
Structure prediction by ZEFSAII (Michael W. Deem and Ramdas Pophale) SiO2 
 PCOD9098025
Probable space group: P -1
;
_chemical_formula_sum "Si O2"
_cell_formula_units_Z 12
_cell_length_a 8.119548
_cell_length_b 12.522316
_cell_length_c 12.077137
_cell_angle_alpha 31.633112
_cell_angle_beta 71.274412
_cell_angle_gamma 77.639088
_cell_volume 605.584365
_symmetry_space_group_name_H-M "P -1"
_symmetry_group_IT_number 2
_symmetry_cell_setting 'triclinic'
loop_
_space_group_symop_operation_xyz
x,y,z
-x,-y,-z
loop_
_atom_site_type_symbol
_atom_site_label
_atom_site_fract_x
_atom_site_fract_y
_atom_site_fract_z
Si Si1 0.506433 0.498780 0.664891
Si Si2 0.787093 0.869567 0.887566
Si Si3 0.639792 0.593689 0.796191
Si Si4 0.373295 0.806058 0.247075
Si Si5 0.787902 0.989400 0.539806
Si Si6 0.104452 0.654282 0.928616
O O1 0.568636 0.571318 0.708142
O O2 0.459071 0.687222 0.433577
O O3 0.646713 0.371002 0.685383
O O4 0.336853 0.326998 0.865552
O O5 0.714415 0.927653 0.731010
O O6 0.974324 0.794647 0.891110
O O7 0.784573 0.076021 0.777554
O O8 0.711666 0.820902 0.618078
O O9 0.500000 0.500000 0.000000
O O10 0.802239 0.464953 0.894371
O O11 0.500000 0.000000 0.000000
O O12 0.759923 0.205958 0.302505
O O13 0.000000 0.000000 0.500000
O O14 0.000000 0.500000 0.000000
#
# Coordination Sequence:
#
# PCOD9098025 Si02
#       6
#     2   2   2   2   2   2
#     4  10  21  40  63  91 124 160 206 261 302 366
#     4  10  20  36  63  88 118 167 209 243 304 371
#     4  12  23  38  60  98 129 157 206 258 312 362
#     4   9  21  39  63  87 119 165 214 249 309 361
#     4  10  21  36  58  89 124 166 198 243 306 371
#     4  11  22  38  58  89 130 167 202 242 312 378
#
# _framework density 19.815570999999998
#
# number of rings (size 3 to 8) (size 9 to 14) (size 15 to 20)
#    0.000    1.667    5.000    0.000    4.667    3.333 
#    0.000    0.833    0.000   17.000    0.000    0.000 
#    0.000    0.000    0.000    0.000    0.000    0.000 
#
# Total GULP energy -66910.643561 kJ/mol
# GULP energy per Si atom -5575.886963 kJ/mol
# Density = 1.977047 g / cm^3
# Si number density = 19.815571 Si / 1000 Ang^3
#
#
#
# Elastic Constant Matrix: (Units=GPa)
#
#
# Indices 1 2 3 4 5 6 
#
# 1 42.3987 42.6198 20.4133 -6.1508 1.4773 1.5519
# 2 42.6198 136.2245 36.3039 -7.2195 4.6769 -1.7001
# 3 20.4133 36.3039 140.3500 -5.2237 14.1035 11.7101
# 4 -6.1508 -7.2195 -5.2237 31.6958 5.1675 7.4140
# 5 1.4773 4.6769 14.1035 5.1675 18.4261 -4.7544
# 6 1.5519 -1.7001 11.7101 7.4140 -4.7544 37.2480
#
#
#
# Elastic Compliance Matrix: (Units=1/GPa)
#
#
# Indices 1 2 3 4 5 6 
#
# 1 0.035881 -0.010420 -0.002080 0.004904 -0.000628 -0.002373
# 2 -0.010420 0.011007 -0.001378 0.000053 -0.000588 0.001284
# 3 -0.002080 -0.001378 0.009153 0.003268 -0.008593 -0.004601
# 4 0.004904 0.000053 0.003268 0.038301 -0.016477 -0.010956
# 5 -0.000628 -0.000588 -0.008593 -0.016477 0.069500 0.014852
# 6 -0.002373 0.001284 -0.004601 -0.010956 0.014852 0.032527
#
#
# Mechanical properties :
#
#
# Convention : Reuss Voigt Hill
#
# Bulk Modulus (GPa) = 35.35271 57.51634 46.43453
# Shear Modulus (GPa) = 21.40827 32.11640 26.76233
#
# Velocity S-wave (km/s) = 3.29047 4.03024 3.67900
# Velocity P-wave (km/s) = 5.68471 7.12362 6.44445
#
# Compressibility (1/GPa) = 0.02828637
#
# Stress axis : x y z
#
# Youngs Moduli (GPa) = 27.86955 90.85104 109.25413
#
# Poissons Ratio (x) = 0.94666 0.22724
# Poissons Ratio (y) = 0.29040 0.15052
# Poissons Ratio (z) = 0.05797 0.12517
#
# Static dielectric constant tensor:
#      x y z
#    x 1.740310 -0.028300 -0.035660 
#    y -0.028300 1.780700 -0.043370 
#    z -0.035660 -0.043370 1.840890 
# 
# From -- ./inp_files/24232.got.cif
#   From: 2010.05.17/outbox.cif.g08.bks.cpg/sg2_13_cif.got.tgz:24232.got - 2010.06.03 11:33:40.
