data_PCOD9098360
_publ_section_title
;
Structure prediction by ZEFSAII (Michael W. Deem and Ramdas Pophale) SiO2 
 PCOD9098360
Probable space group: P -1
;
_chemical_formula_sum "Si O2"
_cell_formula_units_Z 16
_cell_length_a 17.376867
_cell_length_b 7.457406
_cell_length_c 9.470265
_cell_angle_alpha 69.325343
_cell_angle_beta 48.080227
_cell_angle_gamma 46.303999
_cell_volume 646.660168
_symmetry_space_group_name_H-M "P -1"
_symmetry_group_IT_number 2
_symmetry_cell_setting 'triclinic'
loop_
_space_group_symop_operation_xyz
x,y,z
-x,-y,-z
loop_
_atom_site_type_symbol
_atom_site_label
_atom_site_fract_x
_atom_site_fract_y
_atom_site_fract_z
Si Si1 0.704457 0.653564 0.827390
Si Si2 0.362411 0.033201 0.759177
Si Si3 0.531851 0.705404 0.390112
Si Si4 0.869466 0.925214 0.853998
Si Si5 0.422346 0.786242 0.216237
Si Si6 0.785214 0.261156 0.612107
Si Si7 0.122001 0.589757 0.784788
Si Si8 0.173373 0.684308 0.977313
O O1 0.768080 0.474819 0.663853
O O2 0.670387 0.914201 0.773405
O O3 0.570814 0.681588 0.013834
O O4 0.797202 0.518532 0.889439
O O5 0.451593 0.084120 0.715884
O O6 0.251784 0.291234 0.730976
O O7 0.461097 0.793025 0.604245
O O8 0.272573 0.013627 0.976051
O O9 0.436303 0.733752 0.380797
O O10 0.683959 0.446949 0.244198
O O11 0.877656 0.010141 0.666585
O O12 0.860265 0.100652 0.937772
O O13 0.998753 0.649220 0.828053
O O14 0.355331 0.684883 0.253379
O O15 0.839346 0.268915 0.394114
O O16 0.081692 0.712408 0.956522
#
# Coordination Sequence:
#
# PCOD9098360 Si02
#       8
#     2   2   2   2   2   2   2   2
#     4   9  20  39  59  93 130 161 206 262 310 380
#     4  10  22  40  66  92 126 162 207 259 322 368
#     4   9  20  40  60  97 126 157 195 270 314 376
#     4  11  24  41  65  89 123 171 214 252 309 373
#     4  10  20  36  65  90 131 166 204 251 324 383
#     4  11  24  39  62  94 126 166 212 256 320 365
#     4  11  23  43  62  89 128 165 212 263 302 369
#     4   9  21  40  62  89 123 160 204 263 309 364
#
# _framework density 24.742515999999998
#
# number of rings (size 3 to 8) (size 9 to 14) (size 15 to 20)
#    0.000    2.000    0.000    2.250    8.750    0.500 
#   18.000    0.000    0.000    3.000    0.000    0.000 
#    0.000    0.000    0.000    0.000    0.000    0.000 
#
# Total GULP energy -89466.541231 kJ/mol
# GULP energy per Si atom -5591.658827 kJ/mol
# Density = 2.468620 g / cm^3
# Si number density = 24.742516 Si / 1000 Ang^3
#
#
#
# Elastic Constant Matrix: (Units=GPa)
#
#
# Indices 1 2 3 4 5 6 
#
# 1 89.8209 9.7070 23.6395 -11.4258 23.4362 -5.8067
# 2 9.7070 59.5929 3.7548 -4.6939 12.8193 -1.3128
# 3 23.6395 3.7548 58.6023 -6.2049 -3.5613 7.2895
# 4 -11.4258 -4.6939 -6.2049 24.5272 4.5618 2.8891
# 5 23.4362 12.8193 -3.5613 4.5618 36.2901 -4.1942
# 6 -5.8067 -1.3128 7.2895 2.8891 -4.1942 32.1998
#
#
#
# Elastic Compliance Matrix: (Units=1/GPa)
#
#
# Indices 1 2 3 4 5 6 
#
# 1 0.017741 0.001220 -0.007412 0.008844 -0.013452 0.002381
# 2 0.001220 0.018889 -0.001616 0.005345 -0.008315 -0.000207
# 3 -0.007412 -0.001616 0.021353 0.001038 0.006692 -0.005458
# 4 0.008844 0.005345 0.001038 0.049382 -0.014250 -0.004709
# 5 -0.013452 -0.008315 0.006692 -0.014250 0.041912 0.002458
# 6 0.002381 -0.000207 -0.005458 -0.004709 0.002458 0.033455
#
#
# Mechanical properties :
#
#
# Convention : Reuss Voigt Hill
#
# Bulk Modulus (GPa) = 23.60332 31.35765 27.48049
# Shear Modulus (GPa) = 23.53269 29.99774 26.76522
#
# Velocity S-wave (km/s) = 3.08734 3.48573 3.29256
# Velocity P-wave (km/s) = 4.71902 5.37601 5.05820
#
# Compressibility (1/GPa) = 0.04236692
#
# Stress axis : x y z
#
# Youngs Moduli (GPa) = 56.36640 52.94178 46.83155
#
# Poissons Ratio (x) = -0.06459 0.34711
# Poissons Ratio (y) = -0.06877 0.07568
# Poissons Ratio (z) = 0.41779 0.08556
#
# Static dielectric constant tensor:
#      x y z
#    x 1.959890 -0.035070 -0.031040 
#    y -0.035070 2.034840 0.008340 
#    z -0.031040 0.008340 1.953560 
# 
# From -- ./inp_files/327403.got.cif
#   From: 2010.05.17/outbox.cif.g08.bks.cpg/sg2_164_cif.got.tgz:327403.got - 2010.06.03 11:33:40.
