data_PCOD9098556
_publ_section_title
;
Structure prediction by ZEFSAII (Michael W. Deem and Ramdas Pophale) SiO2 
 PCOD9098556
Probable space group: P -1
;
_chemical_formula_sum "Si O2"
_cell_formula_units_Z 16
_cell_length_a 9.838422
_cell_length_b 18.432521
_cell_length_c 9.314129
_cell_angle_alpha 141.295871
_cell_angle_beta 44.611194
_cell_angle_gamma 115.672970
_cell_volume 712.398031
_symmetry_space_group_name_H-M "P -1"
_symmetry_group_IT_number 2
_symmetry_cell_setting 'triclinic'
loop_
_space_group_symop_operation_xyz
x,y,z
-x,-y,-z
loop_
_atom_site_type_symbol
_atom_site_label
_atom_site_fract_x
_atom_site_fract_y
_atom_site_fract_z
Si Si1 0.058247 0.256932 0.449577
Si Si2 0.616544 0.221114 0.804040
Si Si3 0.319485 0.724405 0.846600
Si Si4 0.586252 0.521094 0.753811
Si Si5 0.766180 0.001284 0.170075
Si Si6 0.531278 0.113225 0.239012
Si Si7 0.164073 0.523814 0.227612
Si Si8 0.114596 0.279439 0.773733
O O1 0.839201 0.236583 0.620954
O O2 0.999985 0.362170 0.538588
O O3 0.136619 0.283101 0.588651
O O4 0.211788 0.140119 0.083180
O O5 0.639990 0.086491 0.520854
O O6 0.588607 0.238394 0.020921
O O7 0.457880 0.337909 0.034915
O O8 0.382774 0.579934 0.549678
O O9 0.378587 0.796575 0.782537
O O10 0.080618 0.762404 0.108144
O O11 0.773820 0.478881 0.656858
O O12 0.378696 0.514622 0.975370
O O13 0.670737 0.066056 0.196075
O O14 0.000000 0.000000 0.000000
O O15 0.308105 0.191159 0.565114
O O16 0.500000 0.000000 0.000000
O O17 0.095719 0.409567 0.052809
#
# Coordination Sequence:
#
# PCOD9098556 Si02
#       8
#     2   2   2   2   2   2   2   2
#     4   9  19  36  62  98 132 181 223 275 336 402
#     4   9  20  39  64  99 137 173 227 280 336 402
#     4  11  25  42  70 102 135 179 222 289 344 400
#     4  10  20  38  66  99 133 180 225 282 345 397
#     4  10  21  41  70  97 137 184 227 277 339 405
#     4  12  25  46  73  99 136 181 228 278 343 409
#     4  10  20  36  68  98 134 177 231 277 337 410
#     4  11  22  43  66 104 134 176 233 279 340 408
#
# _framework density 22.459354999999999
#
# number of rings (size 3 to 8) (size 9 to 14) (size 15 to 20)
#    0.000    1.750    2.500    1.500    5.250    1.000 
#    2.250    0.625    2.750    0.000    0.000    0.000 
#    0.000    0.000    0.000    0.000    0.000    0.000 
#
# Total GULP energy -89445.518307 kJ/mol
# GULP energy per Si atom -5590.344894 kJ/mol
# Density = 2.240824 g / cm^3
# Si number density = 22.459355 Si / 1000 Ang^3
#
#
#
# Elastic Constant Matrix: (Units=GPa)
#
#
# Indices 1 2 3 4 5 6 
#
# 1 109.2744 12.0074 42.4295 0.7483 -1.1395 -7.0653
# 2 12.0074 -4.8316 35.2921 9.1363 -17.3962 15.7302
# 3 42.4295 35.2921 156.0714 11.8796 11.5672 -14.8183
# 4 0.7483 9.1363 11.8796 31.1620 1.3545 -3.5223
# 5 -1.1395 -17.3962 11.5672 1.3545 45.4157 4.3789
# 6 -7.0653 15.7302 -14.8183 -3.5223 4.3789 31.5915
#
#
#
# Elastic Compliance Matrix: (Units=1/GPa)
#
#
# Indices 1 2 3 4 5 6 
#
# 1 0.010297 0.000791 -0.003092 0.000684 0.001294 0.000355
# 2 0.000791 -0.025001 0.007697 0.007103 -0.013552 0.018907
# 3 -0.003092 0.007697 0.005462 -0.004657 0.001883 -0.002743
# 4 0.000684 0.007103 -0.004657 0.031341 0.003232 -0.002522
# 5 0.001294 -0.013552 0.001883 0.003232 0.015696 0.006105
# 6 0.000355 0.018907 -0.002743 -0.002522 0.006105 0.019906
#
#
# Mechanical properties :
#
#
# Convention : Reuss Voigt Hill
#
# Bulk Modulus (GPa) = 645.49442 48.88578 347.19010
# Shear Modulus (GPa) = 105.43097 33.01953 69.22525
#
# Velocity S-wave (km/s) = 6.85893 3.83847 5.55782
# Velocity P-wave (km/s) = 18.72848 6.43884 14.00383
#
# Compressibility (1/GPa) = 0.00154920
#
# Stress axis : x y z
#
# Youngs Moduli (GPa) = 97.11683 -39.99771 183.08578
#
# Poissons Ratio (x) = 0.03164 0.56617
# Poissons Ratio (y) = -0.07681 -1.40928
# Poissons Ratio (z) = 0.30032 0.30788
#
# Static dielectric constant tensor:
#      x y z
#    x 1.881340 0.010770 -0.132730 
#    y 0.010770 1.845310 -0.009150 
#    z -0.132730 -0.009150 2.121470 
# 
# From -- ./inp_files/218801.got.cif
#   From: 2010.05.17/outbox.cif.g08.bks.cpg/sg2_110_cif.got.tgz:218801.got - 2010.06.03 11:33:40.
