data_PCOD9098994
_publ_section_title
;
Structure prediction by ZEFSAII (Michael W. Deem and Ramdas Pophale) SiO2 
 PCOD9098994
Probable space group: P -1
;
_chemical_formula_sum "Si O2"
_cell_formula_units_Z 12
_cell_length_a 15.982605
_cell_length_b 5.380580
_cell_length_c 16.218647
_cell_angle_alpha 63.859638
_cell_angle_beta 24.126702
_cell_angle_gamma 57.688573
_cell_volume 477.298568
_symmetry_space_group_name_H-M "P -1"
_symmetry_group_IT_number 2
_symmetry_cell_setting 'triclinic'
loop_
_space_group_symop_operation_xyz
x,y,z
-x,-y,-z
loop_
_atom_site_type_symbol
_atom_site_label
_atom_site_fract_x
_atom_site_fract_y
_atom_site_fract_z
Si Si1 0.566801 0.178280 0.028866
Si Si2 0.240853 0.599263 0.746026
Si Si3 0.254754 0.434770 0.466962
Si Si4 0.977343 0.032009 0.271021
Si Si5 0.743108 0.079613 0.713693
Si Si6 0.357602 0.957758 0.711621
O O1 0.688243 0.987482 0.866319
O O2 0.500000 0.500000 0.000000
O O3 0.760484 0.087007 0.934201
O O4 0.356769 0.082955 0.239250
O O5 0.500000 0.500000 0.500000
O O6 0.105157 0.820252 0.764931
O O7 0.232492 0.753385 0.818992
O O8 0.207981 0.286734 0.824060
O O9 0.138086 0.706010 0.596478
O O10 0.333979 0.579261 0.296864
O O11 0.468722 0.208443 0.351531
O O12 0.100618 0.249743 0.610708
O O13 0.000000 0.000000 0.500000
O O14 0.500000 0.000000 0.500000
#
# Coordination Sequence:
#
# PCOD9098994 Si02
#       6
#     2   2   2   2   2   2
#     4  11  27  46  66  97 135 174 221 282 335 396
#     4  10  16  31  54  94 128 166 212 262 317 387
#     4  12  22  36  67 100 126 176 222 266 328 394
#     4  12  22  37  67  98 131 173 221 268 329 391
#     4  11  25  46  68  95 131 174 224 278 336 395
#     4  10  16  31  53  94 130 160 218 262 311 390
#
# _framework density 25.141497999999999
#
# number of rings (size 3 to 8) (size 9 to 14) (size 15 to 20)
#    0.000    1.000    8.333    1.000    4.667    1.333 
#    0.000    0.000    0.000    2.000    0.000    0.000 
#    0.000    0.000    0.000    0.000    0.000    0.000 
#
# Total GULP energy -67122.227331 kJ/mol
# GULP energy per Si atom -5593.518944 kJ/mol
# Density = 2.508427 g / cm^3
# Si number density = 25.141498 Si / 1000 Ang^3
#
#
#
# Elastic Constant Matrix: (Units=GPa)
#
#
# Indices 1 2 3 4 5 6 
#
# 1 92.8102 40.3684 52.5354 -3.3071 -38.5664 -14.1363
# 2 40.3684 160.4764 41.8020 -12.5750 -40.0450 6.3279
# 3 52.5354 41.8020 112.6354 -8.7197 -44.7508 -4.5094
# 4 -3.3071 -12.5750 -8.7197 49.9510 -0.9451 -16.6823
# 5 -38.5664 -40.0450 -44.7508 -0.9451 66.2265 1.1826
# 6 -14.1363 6.3279 -4.5094 -16.6823 1.1826 73.5670
#
#
#
# Elastic Compliance Matrix: (Units=1/GPa)
#
#
# Indices 1 2 3 4 5 6 
#
# 1 0.017171 -0.001681 -0.004949 0.001054 0.005595 0.003290
# 2 -0.001681 0.007814 -0.000716 0.001546 0.003297 -0.000742
# 3 -0.004949 -0.000716 0.014121 0.002201 0.006252 0.000375
# 4 0.001054 0.001546 0.002201 0.022694 0.003265 0.005298
# 5 0.005595 0.003297 0.006252 0.003265 0.024596 0.001520
# 6 0.003290 -0.000742 0.000375 0.005298 0.001520 0.015489
#
#
# Mechanical properties :
#
#
# Convention : Reuss Voigt Hill
#
# Bulk Modulus (GPa) = 40.95822 70.59261 55.77542
# Shear Modulus (GPa) = 40.09154 53.36333 46.72744
#
# Velocity S-wave (km/s) = 3.99762 4.61208 4.31580
# Velocity P-wave (km/s) = 6.13469 7.51670 6.86058
#
# Compressibility (1/GPa) = 0.02441512
#
# Stress axis : x y z
#
# Youngs Moduli (GPa) = 58.23869 127.97523 70.81446
#
# Poissons Ratio (x) = 0.21516 0.35043
# Poissons Ratio (y) = 0.09791 0.05069
# Poissons Ratio (z) = 0.28819 0.09160
#
# Static dielectric constant tensor:
#      x y z
#    x 2.091540 0.227450 0.083280 
#    y 0.227450 2.084540 -0.013180 
#    z 0.083280 -0.013180 2.027770 
# 
# From -- ./inp_files/36930.got.cif
#   From: 2010.05.17/outbox.cif.g08.bks.cpg/sg2_19_cif.got.tgz:36930.got - 2010.06.03 11:33:40.
