data_PCOD9098707
_publ_section_title
;
Structure prediction by ZEFSAII (Michael W. Deem and Ramdas Pophale) SiO2 
 PCOD9098707
Probable space group: P -1
;
_chemical_formula_sum "Si O2"
_cell_formula_units_Z 14
_cell_length_a 8.476010
_cell_length_b 6.696727
_cell_length_c 14.655642
_cell_angle_alpha 117.500364
_cell_angle_beta 67.525629
_cell_angle_gamma 123.032883
_cell_volume 608.999633
_symmetry_space_group_name_H-M "P -1"
_symmetry_group_IT_number 2
_symmetry_cell_setting 'triclinic'
loop_
_space_group_symop_operation_xyz
x,y,z
-x,-y,-z
loop_
_atom_site_type_symbol
_atom_site_label
_atom_site_fract_x
_atom_site_fract_y
_atom_site_fract_z
Si Si1 0.111145 0.668555 0.896345
Si Si2 0.317103 0.662979 0.511764
Si Si3 0.639004 0.775914 0.606975
Si Si4 0.489085 0.620136 0.804132
Si Si5 0.308260 0.694986 0.307981
Si Si6 0.130321 0.879875 0.127142
Si Si7 0.919292 0.189439 0.266743
O O1 0.288166 0.610033 0.870519
O O2 0.152845 0.803517 0.818009
O O3 0.922777 0.397683 0.880615
O O4 0.096403 0.836507 0.016945
O O5 0.514302 0.733438 0.535115
O O6 0.220959 0.354066 0.466092
O O7 0.334456 0.741375 0.420470
O O8 0.214458 0.786980 0.621658
O O9 0.510354 0.627914 0.690885
O O10 0.709904 0.066576 0.677605
O O11 0.529329 0.386558 0.777828
O O12 0.660992 0.887270 0.855064
O O13 0.114794 0.444993 0.284533
O O14 0.979500 0.968324 0.219964
#
# Coordination Sequence:
#
# PCOD9098707 Si02
#       7
#     2   2   2   2   2   2   2
#     4  11  22  40  63  84 115 156 189 238 297 334
#     4  10  21  35  56  84 117 150 190 235 281 341
#     4  10  20  37  56  85 117 147 193 233 278 348
#     4  10  21  39  61  87 117 151 191 236 287 343
#     4  10  22  36  58  86 117 151 189 235 283 342
#     4  10  24  40  59  89 116 146 198 242 282 347
#     4  11  22  39  58  85 116 150 193 238 286 339
#
# _framework density 22.988519
#
# number of rings (size 3 to 8) (size 9 to 14) (size 15 to 20)
#    0.000    1.714    1.429    2.571    2.000    1.714 
#    0.000    0.000    0.000    9.429    0.000    0.000 
#    0.000    0.000    0.000    0.000    0.000    0.000 
#
# Total GULP energy -78187.678900 kJ/mol
# GULP energy per Si atom -5584.834207 kJ/mol
# Density = 2.293620 g / cm^3
# Si number density = 22.988519 Si / 1000 Ang^3
#
#
#
# Elastic Constant Matrix: (Units=GPa)
#
#
# Indices 1 2 3 4 5 6 
#
# 1 36.2517 4.4377 15.9963 7.4196 1.7280 6.8420
# 2 4.4377 70.2853 7.6985 21.9400 5.0688 -7.2653
# 3 15.9963 7.6985 98.2502 16.1925 -5.2369 -2.6290
# 4 7.4196 21.9400 16.1925 27.3727 2.4442 2.1825
# 5 1.7280 5.0688 -5.2369 2.4442 29.2146 2.1141
# 6 6.8420 -7.2653 -2.6290 2.1825 2.1141 16.6328
#
#
#
# Elastic Compliance Matrix: (Units=1/GPa)
#
#
# Indices 1 2 3 4 5 6 
#
# 1 0.033692 -0.002065 -0.005292 -0.003037 -0.001241 -0.015042
# 2 -0.002065 0.021555 0.001943 -0.018694 -0.002672 0.013365
# 3 -0.005292 0.001943 0.012529 -0.008217 0.002492 0.005768
# 4 -0.003037 -0.018694 -0.008217 0.058613 -0.001819 -0.015675
# 5 -0.001241 -0.002672 0.002492 -0.001819 0.035695 -0.004561
# 6 -0.015042 0.013365 0.005768 -0.015675 -0.004561 0.075696
#
#
# Mechanical properties :
#
#
# Convention : Reuss Voigt Hill
#
# Bulk Modulus (GPa) = 17.55966 29.00581 23.28274
# Shear Modulus (GPa) = 18.68533 26.42099 22.55316
#
# Velocity S-wave (km/s) = 2.85408 3.39383 3.13559
# Velocity P-wave (km/s) = 4.30303 5.29172 4.82278
#
# Compressibility (1/GPa) = 0.05694871
#
# Stress axis : x y z
#
# Youngs Moduli (GPa) = 29.68033 46.39350 79.81613
#
# Poissons Ratio (x) = 0.09581 0.42237
# Poissons Ratio (y) = 0.06129 -0.15511
# Poissons Ratio (z) = 0.15706 -0.09016
#
# Static dielectric constant tensor:
#      x y z
#    x 1.886910 -0.000770 0.002900 
#    y -0.000770 1.920050 0.076440 
#    z 0.002900 0.076440 1.862790 
# 
# From -- ./inp_files/31416.got.cif
#   From: 2010.05.17/outbox.cif.g08.bks.cpg/sg2_16_cif.got.tgz:31416.got - 2010.06.03 11:33:40.
