data_PCOD9098096
_publ_section_title
;
Structure prediction by ZEFSAII (Michael W. Deem and Ramdas Pophale) SiO2 
 PCOD9098096
Probable space group: P -1
;
_chemical_formula_sum "Si O2"
_cell_formula_units_Z 16
_cell_length_a 14.870591
_cell_length_b 22.679721
_cell_length_c 8.826119
_cell_angle_alpha 128.487272
_cell_angle_beta 127.077149
_cell_angle_gamma 19.013408
_cell_volume 757.862346
_symmetry_space_group_name_H-M "P -1"
_symmetry_group_IT_number 2
_symmetry_cell_setting 'triclinic'
loop_
_space_group_symop_operation_xyz
x,y,z
-x,-y,-z
loop_
_atom_site_type_symbol
_atom_site_label
_atom_site_fract_x
_atom_site_fract_y
_atom_site_fract_z
Si Si1 0.295957 0.287361 0.516950
Si Si2 0.557783 0.544621 0.703911
Si Si3 0.016479 0.372770 0.884874
Si Si4 0.408849 0.234084 0.900773
Si Si5 0.604489 0.229337 0.585136
Si Si6 0.222048 0.190655 0.109636
Si Si7 0.221067 0.883387 0.762506
Si Si8 0.329936 0.535092 0.955052
O O1 0.367467 0.254082 0.711886
O O2 0.515695 0.201736 0.508645
O O3 0.296955 0.199040 0.336501
O O4 0.000000 0.500000 0.500000
O O5 0.500000 0.500000 0.500000
O O6 0.330736 0.744584 0.744752
O O7 0.857955 0.393245 0.712978
O O8 0.568720 0.533988 0.879409
O O9 0.296098 0.227345 0.854324
O O10 0.064433 0.337138 0.056230
O O11 0.795543 0.573098 0.947925
O O12 0.698637 0.089440 0.023184
O O13 0.628971 0.211698 0.400924
O O14 0.394846 0.420132 0.740776
O O15 0.899176 0.072621 0.702974
O O16 0.005304 0.257807 0.042091
O O17 0.500000 0.000000 0.000000
O O18 0.500000 0.500000 0.000000
#
# Coordination Sequence:
#
# PCOD9098096 Si02
#       8
#     2   2   2   2   2   2   2   2
#     4  12  22  38  66  94 122 161 216 260 310 374
#     4  10  21  37  59  87 127 170 208 257 318 383
#     4   9  19  36  60  87 122 162 208 257 314 372
#     4  10  20  36  63  94 119 159 210 264 313 368
#     4  11  23  41  65  94 126 165 217 266 318 382
#     4  11  24  42  62  91 130 169 210 261 321 382
#     4  10  23  39  63  95 126 162 210 268 317 376
#     4  11  24  41  63  90 128 172 215 262 325 381
#
# _framework density 21.112013999999999
#
# number of rings (size 3 to 8) (size 9 to 14) (size 15 to 20)
#    0.000    1.500    2.500    3.000    3.500    8.000 
#    0.000    0.625    0.000    0.000    0.000    0.000 
#    0.000    0.000    0.000    0.000    0.000    0.000 
#
# Total GULP energy -89348.052553 kJ/mol
# GULP energy per Si atom -5584.253285 kJ/mol
# Density = 2.106396 g / cm^3
# Si number density = 21.112014 Si / 1000 Ang^3
#
#
#
# Elastic Constant Matrix: (Units=GPa)
#
#
# Indices 1 2 3 4 5 6 
#
# 1 135.8529 31.3783 41.1453 -19.6368 6.5333 -24.5166
# 2 31.3783 60.8087 43.6807 -16.0637 -3.6407 -21.8828
# 3 41.1453 43.6807 120.6617 -28.8511 7.6263 -15.4475
# 4 -19.6368 -16.0637 -28.8511 31.5326 0.5423 1.1461
# 5 6.5333 -3.6407 7.6263 0.5423 29.3140 -4.0585
# 6 -24.5166 -21.8828 -15.4475 1.1461 -4.0585 25.4268
#
#
#
# Elastic Compliance Matrix: (Units=1/GPa)
#
#
# Indices 1 2 3 4 5 6 
#
# 1 0.009999 -0.000060 -0.001054 0.004935 -0.000864 0.008589
# 2 -0.000060 0.034231 -0.007362 0.009554 0.009607 0.026033
# 3 -0.001054 -0.007362 0.013473 0.008004 -0.004364 -0.000224
# 4 0.004935 0.009554 0.008004 0.046420 -0.000689 0.015641
# 5 -0.000864 0.009607 -0.004364 -0.000689 0.038157 0.010906
# 6 0.008589 0.026033 -0.000224 0.015641 0.010906 0.070914
#
#
# Mechanical properties :
#
#
# Convention : Reuss Voigt Hill
#
# Bulk Modulus (GPa) = 24.53848 61.08132 42.80990
# Shear Modulus (GPa) = 20.51466 30.66263 25.58865
#
# Velocity S-wave (km/s) = 3.12060 3.81514 3.48522
# Velocity P-wave (km/s) = 4.96311 6.95715 6.04294
#
# Compressibility (1/GPa) = 0.04075233
#
# Stress axis : x y z
#
# Youngs Moduli (GPa) = 100.01341 29.21306 74.22332
#
# Poissons Ratio (x) = 0.00175 0.07821
# Poissons Ratio (y) = 0.00600 0.54640
# Poissons Ratio (z) = 0.10539 0.21505
#
# Static dielectric constant tensor:
#      x y z
#    x 1.775200 -0.021390 0.020940 
#    y -0.021390 1.824900 -0.014740 
#    z 0.020940 -0.014740 1.736280 
# 
# From -- ./inp_files/320180.got.cif
#   From: 2010.05.17/outbox.cif.g08.bks.cpg/sg2_161_cif.got.tgz:320180.got - 2010.06.03 11:33:40.
