data_PCOD9098393
_publ_section_title
;
Structure prediction by ZEFSAII (Michael W. Deem and Ramdas Pophale) SiO2 
 PCOD9098393
Probable space group: P -1
;
_chemical_formula_sum "Si O2"
_cell_formula_units_Z 16
_cell_length_a 8.659716
_cell_length_b 9.070657
_cell_length_c 16.975128
_cell_angle_alpha 41.000539
_cell_angle_beta 93.267840
_cell_angle_gamma 108.172849
_cell_volume 796.396133
_symmetry_space_group_name_H-M "P -1"
_symmetry_group_IT_number 2
_symmetry_cell_setting 'triclinic'
loop_
_space_group_symop_operation_xyz
x,y,z
-x,-y,-z
loop_
_atom_site_type_symbol
_atom_site_label
_atom_site_fract_x
_atom_site_fract_y
_atom_site_fract_z
Si Si1 0.594341 0.758607 0.855621
Si Si2 0.108083 0.939967 0.682767
Si Si3 0.427224 0.637420 0.250592
Si Si4 0.245311 0.494304 0.145358
Si Si5 0.348322 0.071879 0.490138
Si Si6 0.176935 0.747190 0.311747
Si Si7 0.307106 0.897844 0.851922
Si Si8 0.900956 0.254491 0.516252
O O1 0.663818 0.682526 0.809786
O O2 0.453667 0.870502 0.811992
O O3 0.759185 0.962605 0.821869
O O4 0.500000 0.500000 0.000000
O O5 0.169091 0.916573 0.781628
O O6 0.943762 0.687703 0.760955
O O7 0.260006 0.992005 0.604724
O O8 0.044135 0.159003 0.585111
O O9 0.356859 0.656873 0.154282
O O10 0.418570 0.365236 0.366216
O O11 0.294048 0.654468 0.302583
O O12 0.602739 0.857859 0.191077
O O13 0.241973 0.666026 0.003170
O O14 0.500000 0.000000 0.500000
O O15 0.200934 0.925394 0.482808
O O16 0.204232 0.754860 0.404049
O O17 0.989359 0.539253 0.377595
#
# Coordination Sequence:
#
# PCOD9098393 Si02
#       8
#     2   2   2   2   2   2   2   2
#     4   9  19  38  63  89 124 167 213 255 308 373
#     4  12  23  40  69  90 132 167 213 265 321 385
#     4  11  22  40  67  92 132 165 214 261 324 375
#     4  11  21  43  68  89 130 175 216 260 318 386
#     4  12  27  42  65  96 129 168 214 264 326 389
#     4  10  20  36  65  95 122 163 213 256 314 383
#     4  10  25  39  64 101 124 168 220 268 314 371
#     4  11  22  41  64  91 128 169 209 259 328 384
#
# _framework density 20.090503999999999
#
# number of rings (size 3 to 8) (size 9 to 14) (size 15 to 20)
#    0.000    1.250    3.750    1.875    5.250    2.500 
#    0.000    0.000    0.000    1.500    0.000    0.000 
#    0.000    0.000    0.000    0.000    0.000    0.000 
#
# Total GULP energy -89241.968132 kJ/mol
# GULP energy per Si atom -5577.623008 kJ/mol
# Density = 2.004478 g / cm^3
# Si number density = 20.090504 Si / 1000 Ang^3
#
#
#
# Elastic Constant Matrix: (Units=GPa)
#
#
# Indices 1 2 3 4 5 6 
#
# 1 65.0401 27.7376 33.8373 3.5644 -2.5682 -8.9845
# 2 27.7376 115.6187 42.4110 -18.4621 17.4513 -0.7072
# 3 33.8373 42.4110 94.4923 -7.5409 -5.9564 4.8883
# 4 3.5644 -18.4621 -7.5409 37.0012 8.6474 -7.6071
# 5 -2.5682 17.4513 -5.9564 8.6474 24.2112 5.6610
# 6 -8.9845 -0.7072 4.8883 -7.6071 5.6610 37.1810
#
#
#
# Elastic Compliance Matrix: (Units=1/GPa)
#
#
# Indices 1 2 3 4 5 6 
#
# 1 0.021598 -0.004863 -0.005886 -0.006271 0.005712 0.003748
# 2 -0.004863 0.017971 -0.006875 0.014433 -0.021799 0.006342
# 3 -0.005886 -0.006875 0.016519 -0.003318 0.011001 -0.006079
# 4 -0.006271 0.014433 -0.003318 0.043943 -0.030582 0.012842
# 5 0.005712 -0.021799 0.011001 -0.030582 0.075515 -0.018235
# 6 0.003748 0.006342 -0.006079 0.012842 -0.018235 0.034125
#
#
# Mechanical properties :
#
#
# Convention : Reuss Voigt Hill
#
# Bulk Modulus (GPa) = 47.98200 53.68032 50.83116
# Shear Modulus (GPa) = 19.85178 31.08968 25.47073
#
# Velocity S-wave (km/s) = 3.14684 3.93807 3.56448
# Velocity P-wave (km/s) = 6.09412 6.88877 6.50359
#
# Compressibility (1/GPa) = 0.02084115
#
# Stress axis : x y z
#
# Youngs Moduli (GPa) = 46.30045 55.64397 60.53461
#
# Poissons Ratio (x) = 0.27060 0.35629
# Poissons Ratio (y) = 0.22516 0.41618
# Poissons Ratio (z) = 0.27251 0.38256
#
# Static dielectric constant tensor:
#      x y z
#    x 1.729440 0.009150 -0.020030 
#    y 0.009150 1.712250 -0.021510 
#    z -0.020030 -0.021510 1.744800 
# 
# From -- ./inp_files/494307.got.cif
#   From: 2010.05.17/outbox.cif.g08.bks.cpg/sg2_248_cif.got.tgz:494307.got - 2010.06.03 11:33:40.
