data_PCOD9098691
_publ_section_title
;
Structure prediction by ZEFSAII (Michael W. Deem and Ramdas Pophale) SiO2 
 PCOD9098691
Probable space group: P -1
;
_chemical_formula_sum "Si O2"
_cell_formula_units_Z 16
_cell_length_a 10.143483
_cell_length_b 13.804095
_cell_length_c 8.202578
_cell_angle_alpha 145.694004
_cell_angle_beta 100.195143
_cell_angle_gamma 95.628444
_cell_volume 572.002911
_symmetry_space_group_name_H-M "P -1"
_symmetry_group_IT_number 2
_symmetry_cell_setting 'triclinic'
loop_
_space_group_symop_operation_xyz
x,y,z
-x,-y,-z
loop_
_atom_site_type_symbol
_atom_site_label
_atom_site_fract_x
_atom_site_fract_y
_atom_site_fract_z
Si Si1 0.671510 0.822903 0.644699
Si Si2 0.671365 0.248983 0.824937
Si Si3 0.351747 0.968548 0.787324
Si Si4 0.196441 0.354380 0.785132
Si Si5 0.066041 0.024454 0.729457
Si Si6 0.897443 0.224880 0.108644
Si Si7 0.182205 0.574973 0.392101
Si Si8 0.611460 0.471967 0.363287
O O1 0.673138 0.711716 0.320113
O O2 0.686415 0.664493 0.542099
O O3 0.572283 0.886639 0.839017
O O4 0.798938 0.031340 0.920490
O O5 0.588077 0.088910 0.445540
O O6 0.766050 0.450725 0.032730
O O7 0.787700 0.212709 0.915926
O O8 0.561182 0.298974 0.982962
O O9 0.253952 0.762315 0.557687
O O10 0.230939 0.040414 0.793201
O O11 0.172381 0.408467 0.038906
O O12 0.041947 0.167149 0.459797
O O13 0.000000 0.000000 0.500000
O O14 0.036683 0.196498 0.034360
O O15 0.941993 0.398584 0.489410
O O16 0.289853 0.582515 0.570239
O O17 0.500000 0.500000 0.500000
#
# Coordination Sequence:
#
# PCOD9098691 Si02
#       8
#     2   2   2   2   2   2   2   2
#     4   9  20  35  59  81 111 150 179 232 288 323
#     4   9  18  37  57  79 115 147 177 233 285 321
#     4  10  20  37  56  82 118 152 186 224 274 325
#     4   9  20  36  54  82 116 154 188 224 273 323
#     4  11  21  33  55  85 116 154 197 222 253 327
#     4   9  18  36  54  81 114 151 184 226 272 321
#     4   9  20  36  58  78 113 151 177 232 287 321
#     4  10  21  40  62  85 106 139 190 234 283 351
#
# _framework density 27.971886999999999
#
# number of rings (size 3 to 8) (size 9 to 14) (size 15 to 20)
#    0.000    2.500    1.250    0.000    1.750    6.500 
#    0.000   13.750    0.000    0.000    0.000    0.000 
#    0.000    0.000    0.000    0.000    0.000    0.000 
#
# Total GULP energy -89234.278357 kJ/mol
# GULP energy per Si atom -5577.142397 kJ/mol
# Density = 2.790822 g / cm^3
# Si number density = 27.971887 Si / 1000 Ang^3
#
#
#
# Elastic Constant Matrix: (Units=GPa)
#
#
# Indices 1 2 3 4 5 6 
#
# 1 69.3554 32.6800 64.8687 -28.8997 -30.6726 8.7394
# 2 32.6800 138.7547 58.8449 -7.2521 -3.8692 11.4214
# 3 64.8687 58.8449 200.8148 -49.0074 -71.3974 6.2334
# 4 -28.8997 -7.2521 -49.0074 38.6127 19.3124 -8.9662
# 5 -30.6726 -3.8692 -71.3974 19.3124 62.2808 -13.6097
# 6 8.7394 11.4214 6.2334 -8.9662 -13.6097 32.9420
#
#
#
# Elastic Compliance Matrix: (Units=1/GPa)
#
#
# Indices 1 2 3 4 5 6 
#
# 1 0.027017 -0.005152 -0.000928 0.014628 0.007825 0.002009
# 2 -0.005152 0.010759 -0.005617 -0.006601 -0.007627 -0.006248
# 3 -0.000928 -0.005617 0.014477 0.011551 0.014044 0.008400
# 4 0.014628 -0.006601 0.011551 0.049494 0.007483 0.012785
# 5 0.007825 -0.007627 0.014044 0.007483 0.036499 0.015027
# 6 0.002009 -0.006248 0.008400 0.012785 0.015027 0.040088
#
#
# Mechanical properties :
#
#
# Convention : Reuss Voigt Hill
#
# Bulk Modulus (GPa) = 34.65177 80.19024 57.42101
# Shear Modulus (GPa) = 23.65763 43.60251 33.63007
#
# Velocity S-wave (km/s) = 2.91136 3.95244 3.47115
# Velocity P-wave (km/s) = 4.86994 7.03985 6.05292
#
# Compressibility (1/GPa) = 0.02885855
#
# Stress axis : x y z
#
# Youngs Moduli (GPa) = 37.01385 92.94330 69.07647
#
# Poissons Ratio (x) = 0.47887 0.06409
# Poissons Ratio (y) = 0.19070 0.38801
# Poissons Ratio (z) = 0.03434 0.52207
#
# Static dielectric constant tensor:
#      x y z
#    x 2.306490 0.011790 -0.087630 
#    y 0.011790 2.153100 -0.055440 
#    z -0.087630 -0.055440 2.336270 
# 
# From -- ./inp_files/242463.got.cif
#   From: 2010.05.17/outbox.cif.g08.bks.cpg/sg2_122_cif.got.tgz:242463.got - 2010.06.03 11:33:40.
