data_PCOD9098807
_publ_section_title
;
Structure prediction by ZEFSAII (Michael W. Deem and Ramdas Pophale) SiO2 
 PCOD9098807
Probable space group: P -1
;
_chemical_formula_sum "Si O2"
_cell_formula_units_Z 16
_cell_length_a 7.548244
_cell_length_b 21.685158
_cell_length_c 8.116525
_cell_angle_alpha 42.200812
_cell_angle_beta 109.946641
_cell_angle_gamma 123.627895
_cell_volume 737.389779
_symmetry_space_group_name_H-M "P -1"
_symmetry_group_IT_number 2
_symmetry_cell_setting 'triclinic'
loop_
_space_group_symop_operation_xyz
x,y,z
-x,-y,-z
loop_
_atom_site_type_symbol
_atom_site_label
_atom_site_fract_x
_atom_site_fract_y
_atom_site_fract_z
Si Si1 0.649190 0.155950 0.666738
Si Si2 0.172352 0.328269 0.973570
Si Si3 0.464070 0.959256 0.799331
Si Si4 0.036778 0.655781 0.432602
Si Si5 0.207848 0.142607 0.454896
Si Si6 0.372449 0.506770 0.196692
Si Si7 0.224689 0.043099 0.328946
Si Si8 0.709866 0.460098 0.258170
O O1 0.633431 0.078593 0.668765
O O2 0.432507 0.165839 0.559411
O O3 0.856802 0.266677 0.534026
O O4 0.633713 0.098270 0.948543
O O5 0.019724 0.291821 0.840729
O O6 0.422085 0.391602 0.868905
O O7 0.146192 0.419771 0.876390
O O8 0.154553 0.236912 0.265910
O O9 0.295202 0.970244 0.605202
O O10 0.594179 0.910776 0.842898
O O11 0.819626 0.555448 0.618789
O O12 0.200765 0.615459 0.506519
O O13 0.224209 0.124512 0.299311
O O14 0.010961 0.032396 0.665945
O O15 0.478498 0.435958 0.304389
O O16 0.299385 0.541223 0.939737
#
# Coordination Sequence:
#
# PCOD9098807 Si02
#       8
#     2   2   2   2   2   2   2   2
#     4  10  22  35  59  84 119 148 192 240 281 356
#     4  10  21  38  56  83 119 150 192 244 277 344
#     4   9  19  41  56  85 114 149 191 236 294 336
#     4  12  21  38  60  86 115 158 192 236 292 335
#     4  10  20  37  57  87 115 150 192 234 294 335
#     4   9  21  39  59  82 116 154 189 246 280 340
#     4   9  19  37  64  80 114 151 189 240 284 352
#     4   9  21  39  59  82 115 154 191 242 281 343
#
# _framework density 21.698159
#
# number of rings (size 3 to 8) (size 9 to 14) (size 15 to 20)
#    0.750    1.500    0.000    2.625    0.000    2.500 
#    2.250    3.750    0.000    0.000    0.000    0.000 
#    0.000    0.000    0.000    0.000    0.000    0.000 
#
# Total GULP energy -89245.319519 kJ/mol
# GULP energy per Si atom -5577.832470 kJ/mol
# Density = 2.164877 g / cm^3
# Si number density = 21.698159 Si / 1000 Ang^3
#
#
#
# Elastic Constant Matrix: (Units=GPa)
#
#
# Indices 1 2 3 4 5 6 
#
# 1 24.7293 -6.6595 2.0090 4.8550 2.7022 -5.9643
# 2 -6.6595 82.6960 3.2658 1.7327 11.3989 18.7443
# 3 2.0090 3.2658 31.9400 7.1333 14.5809 11.2333
# 4 4.8550 1.7327 7.1333 27.8262 1.4830 6.7476
# 5 2.7022 11.3989 14.5809 1.4830 16.0246 3.2167
# 6 -5.9643 18.7443 11.2333 6.7476 3.2167 21.6399
#
#
#
# Elastic Compliance Matrix: (Units=1/GPa)
#
#
# Indices 1 2 3 4 5 6 
#
# 1 0.048976 0.001214 -0.003173 -0.011976 -0.008973 0.019163
# 2 0.001214 0.020214 0.017527 0.000927 -0.026063 -0.022688
# 3 -0.003173 0.017527 0.082319 -0.006549 -0.077141 -0.045280
# 4 -0.011976 0.000927 -0.006549 0.042957 0.006364 -0.015044
# 5 -0.008973 -0.026063 -0.077141 0.006364 0.144702 0.036653
# 6 0.019163 -0.022688 -0.045280 -0.015044 0.036653 0.093892
#
#
# Mechanical properties :
#
#
# Convention : Reuss Voigt Hill
#
# Bulk Modulus (GPa) = 5.47513 15.17733 10.32623
# Shear Modulus (GPa) = 10.80367 22.48148 16.64257
#
# Velocity S-wave (km/s) = 2.23380 3.22234 2.77249
# Velocity P-wave (km/s) = 3.03018 4.56668 3.87534
#
# Compressibility (1/GPa) = 0.18264397
#
# Stress axis : x y z
#
# Youngs Moduli (GPa) = 20.41820 49.47129 12.14782
#
# Poissons Ratio (x) = -0.06004 0.03855
# Poissons Ratio (y) = -0.02478 -0.21292
# Poissons Ratio (z) = 0.06480 -0.86710
#
# Static dielectric constant tensor:
#      x y z
#    x 1.776420 0.010890 0.000950 
#    y 0.010890 1.807650 -0.008910 
#    z 0.000950 -0.008910 1.786610 
# 
# From -- ./inp_files/224818.got.cif
#   From: 2010.05.17/outbox.cif.g08.bks.cpg/sg2_113_cif.got.tgz:224818.got - 2010.06.03 11:33:40.
