data_PCOD9098698
_publ_section_title
;
Structure prediction by ZEFSAII (Michael W. Deem and Ramdas Pophale) SiO2 
 PCOD9098698
Probable space group: P -1
;
_chemical_formula_sum "Si O2"
_cell_formula_units_Z 14
_cell_length_a 6.531032
_cell_length_b 26.325715
_cell_length_c 15.795410
_cell_angle_alpha 161.107902
_cell_angle_beta 115.833705
_cell_angle_gamma 65.091992
_cell_volume 791.085419
_symmetry_space_group_name_H-M "P -1"
_symmetry_group_IT_number 2
_symmetry_cell_setting 'triclinic'
loop_
_space_group_symop_operation_xyz
x,y,z
-x,-y,-z
loop_
_atom_site_type_symbol
_atom_site_label
_atom_site_fract_x
_atom_site_fract_y
_atom_site_fract_z
Si Si1 0.954132 0.672521 0.302054
Si Si2 0.829513 0.178882 0.691706
Si Si3 0.757371 0.043524 0.636006
Si Si4 0.644728 0.959244 0.657989
Si Si5 0.734388 0.031311 0.980266
Si Si6 0.428238 0.763487 0.583063
Si Si7 0.323984 0.482244 0.861687
O O1 0.188072 0.762311 0.488825
O O2 0.768325 0.785684 0.402226
O O3 0.860312 0.635598 0.320488
O O4 0.000000 0.500000 0.000000
O O5 0.820631 0.175448 0.787262
O O6 0.621512 0.072171 0.454187
O O7 0.786605 0.350719 0.917614
O O8 0.064820 0.098550 0.577162
O O9 0.500000 0.000000 0.500000
O O10 0.749323 0.064088 0.767858
O O11 0.694501 0.025945 0.864519
O O12 0.589128 0.892838 0.776733
O O13 0.363714 0.812622 0.744107
O O14 0.000000 0.000000 0.000000
O O15 0.546899 0.596586 0.318872
O O16 0.500000 0.500000 0.000000
#
# Coordination Sequence:
#
# PCOD9098698 Si02
#       7
#     2   2   2   2   2   2   2
#     4  12  21  31  53  86 118 149 182 231 291 349
#     4  10  20  37  56  83 118 148 190 240 288 345
#     4   9  21  36  55  81 110 152 196 239 285 333
#     4  11  20  33  55  82 113 150 196 230 286 341
#     4  11  22  37  54  79 122 159 197 235 277 348
#     4  11  22  35  51  82 120 154 190 229 286 344
#     4  12  20  33  54  86 117 149 182 231 302 352
#
# _framework density 17.697203999999999
#
# number of rings (size 3 to 8) (size 9 to 14) (size 15 to 20)
#    0.000    1.143    5.714    0.857    2.000    1.143 
#    0.000    0.000    0.000    0.857    0.000   13.000 
#    0.000    0.000    0.000    0.000    0.000    0.000 
#
# Total GULP energy -78069.247576 kJ/mol
# GULP energy per Si atom -5576.374827 kJ/mol
# Density = 1.765692 g / cm^3
# Si number density = 17.697204 Si / 1000 Ang^3
#
#
#
# Elastic Constant Matrix: (Units=GPa)
#
#
# Indices 1 2 3 4 5 6 
#
# 1 121.8006 50.6222 28.6255 -7.0008 -3.8308 -6.2217
# 2 50.6222 102.3437 30.9179 3.0022 -7.8596 14.1751
# 3 28.6255 30.9179 52.3740 -5.0439 -9.8961 -4.5707
# 4 -7.0008 3.0022 -5.0439 31.0451 4.4665 -6.0492
# 5 -3.8308 -7.8596 -9.8961 4.4665 38.2081 -3.7500
# 6 -6.2217 14.1751 -4.5707 -6.0492 -3.7500 41.8429
#
#
#
# Elastic Compliance Matrix: (Units=1/GPa)
#
#
# Indices 1 2 3 4 5 6 
#
# 1 0.011503 -0.005652 -0.002399 0.003593 -0.000675 0.003822
# 2 -0.005652 0.016167 -0.007564 -0.005707 0.000691 -0.007907
# 3 -0.002399 -0.007564 0.026892 0.005047 0.005201 0.006339
# 4 0.003593 -0.005707 0.005047 0.036382 -0.002973 0.008012
# 5 -0.000675 0.000691 0.005201 -0.002973 0.028170 0.002328
# 6 0.003822 -0.007907 0.006339 0.008012 0.002328 0.029205
#
#
# Mechanical properties :
#
#
# Convention : Reuss Voigt Hill
#
# Bulk Modulus (GPa) = 42.85797 55.20550 49.03174
# Shear Modulus (GPa) = 26.69131 33.30940 30.00036
#
# Velocity S-wave (km/s) = 3.88780 4.34312 4.12175
# Velocity P-wave (km/s) = 6.66508 7.51082 7.10055
#
# Compressibility (1/GPa) = 0.02333288
#
# Stress axis : x y z
#
# Youngs Moduli (GPa) = 86.93071 61.85352 37.18611
#
# Poissons Ratio (x) = 0.34959 0.08921
# Poissons Ratio (y) = 0.49132 0.28128
# Poissons Ratio (z) = 0.20854 0.46786
#
# Static dielectric constant tensor:
#      x y z
#    x 1.673130 0.019640 -0.013060 
#    y 0.019640 1.615190 -0.014150 
#    z -0.013060 -0.014150 1.607540 
# 
# From -- ./inp_files/551425.got.cif
#   From: 2010.05.17/outbox.cif.g08.bks.cpg/sg2_276_cif.got.tgz:551425.got - 2010.06.03 11:33:40.
