data_PCOD9098854
_publ_section_title
;
Structure prediction by ZEFSAII (Michael W. Deem and Ramdas Pophale) SiO2 
 PCOD9098854
Probable space group: P -1
;
_chemical_formula_sum "Si O2"
_cell_formula_units_Z 16
_cell_length_a 22.844214
_cell_length_b 5.418349
_cell_length_c 5.768726
_cell_angle_alpha 90.061839
_cell_angle_beta 115.455829
_cell_angle_gamma 98.649676
_cell_volume 635.656997
_symmetry_space_group_name_H-M "P -1"
_symmetry_group_IT_number 2
_symmetry_cell_setting 'triclinic'
loop_
_space_group_symop_operation_xyz
x,y,z
-x,-y,-z
loop_
_atom_site_type_symbol
_atom_site_label
_atom_site_fract_x
_atom_site_fract_y
_atom_site_fract_z
Si Si1 0.345475 0.215705 0.271118
Si Si2 0.907186 0.742437 0.905530
Si Si3 0.778846 0.882646 0.689360
Si Si4 0.469734 0.297373 0.255849
Si Si5 0.968163 0.152737 0.635753
Si Si6 0.593600 0.383170 0.236511
Si Si7 0.282701 0.529063 0.782894
Si Si8 0.842524 0.311342 0.448778
O O1 0.282140 0.043723 0.272716
O O2 0.408464 0.116493 0.268767
O O3 0.375855 0.420474 0.513987
O O4 0.313037 0.360125 0.016223
O O5 0.843435 0.815017 0.929231
O O6 0.878137 0.527861 0.677966
O O7 0.937305 0.978814 0.796691
O O8 0.967691 0.669343 0.153183
O O9 0.748356 0.641256 0.484853
O O10 0.807118 0.092322 0.554116
O O11 0.500000 0.500000 0.500000
O O12 0.532009 0.200746 0.245195
O O13 0.437739 0.453651 0.007139
O O14 0.905023 0.246637 0.420054
O O15 0.000000 0.000000 0.500000
O O16 0.654864 0.284289 0.218753
O O17 0.220127 0.621183 0.790610
#
# Coordination Sequence:
#
# PCOD9098854 Si02
#       8
#     2   2   2   2   2   2   2   2
#     4   9  16  29  49  74 107 142 178 221 266 316
#     4   9  20  38  57  80 108 139 178 223 273 327
#     4   9  19  34  52  75 106 142 180 223 268 320
#     4   8  13  23  46  78 105 136 179 222 266 314
#     4  10  21  38  58  81 108 137 176 227 275 324
#     4   8  14  26  46  75 106 138 179 222 266 317
#     4   9  18  33  50  75 108 141 181 225 268 320
#     4  10  20  37  58  79 109 146 181 222 274 327
#
# _framework density 25.170808999999998
#
# number of rings (size 3 to 8) (size 9 to 14) (size 15 to 20)
#    0.000    3.000    0.000    0.375    0.000    3.500 
#    0.000   16.250    0.000    0.750    0.000   78.750 
#    0.000    0.000    0.000    0.000    0.000    0.250 
#
# Total GULP energy -89250.649879 kJ/mol
# GULP energy per Si atom -5578.165617 kJ/mol
# Density = 2.511352 g / cm^3
# Si number density = 25.170809 Si / 1000 Ang^3
#
#
#
# Elastic Constant Matrix: (Units=GPa)
#
#
# Indices 1 2 3 4 5 6 
#
# 1 98.7004 58.7819 112.6365 -30.2664 59.4170 69.7437
# 2 58.7819 22.8633 -6.1245 7.8025 9.1908 -0.3809
# 3 112.6365 -6.1245 64.5445 19.8212 19.5906 -22.1392
# 4 -30.2664 7.8025 19.8212 35.2786 2.9745 6.3430
# 5 59.4170 9.1908 19.5906 2.9745 28.1290 -10.0346
# 6 69.7437 -0.3809 -22.1392 6.3430 -10.0346 3.8745
#
#
#
# Elastic Compliance Matrix: (Units=1/GPa)
#
#
# Indices 1 2 3 4 5 6 
#
# 1 0.000582 0.000039 0.002485 -0.002405 0.000219 0.008237
# 2 0.000039 0.063246 0.007526 -0.008378 -0.038172 -0.036632
# 3 0.002485 0.007526 0.014569 -0.003056 -0.022944 -0.015169
# 4 -0.002405 -0.008378 -0.003056 0.025942 0.012818 0.015739
# 5 0.000219 -0.038172 -0.022944 0.012818 0.068066 0.016491
# 6 0.008237 -0.036632 -0.015169 0.015739 0.016491 0.036498
#
#
# Mechanical properties :
#
#
# Convention : Reuss Voigt Hill
#
# Bulk Modulus (GPa) = 10.15231 57.41069 33.78150
# Shear Modulus (GPa) = 22.55967 14.84403 18.70185
#
# Velocity S-wave (km/s) = 2.99701 2.43107 2.72876
# Velocity P-wave (km/s) = 4.00228 5.54420 4.83510
#
# Compressibility (1/GPa) = 0.09849979
#
# Stress axis : x y z
#
# Youngs Moduli (GPa) = 1718.36101 15.81116 68.63732
#
# Poissons Ratio (x) = -0.00062 -0.17059
# Poissons Ratio (y) = -0.06773 -0.51658
# Poissons Ratio (z) = -4.27087 -0.11900
#
# Static dielectric constant tensor:
#      x y z
#    x 2.149220 -0.030820 0.028140 
#    y -0.030820 2.062010 -0.045040 
#    z 0.028140 -0.045040 1.970470 
# 
# From -- ./inp_files/13729.got.cif
#   From: 2010.05.17/outbox.cif.g08.bks.cpg/sg2_7_cif.got.tgz:13729.got - 2010.06.03 11:33:40.
