data_PCOD9098722
_publ_section_title
;
Structure prediction by ZEFSAII (Michael W. Deem and Ramdas Pophale) SiO2 
 PCOD9098722
Probable space group: P -1
;
_chemical_formula_sum "Si O2"
_cell_formula_units_Z 16
_cell_length_a 14.449775
_cell_length_b 9.225275
_cell_length_c 21.697349
_cell_angle_alpha 133.608693
_cell_angle_beta 161.111671
_cell_angle_gamma 45.141570
_cell_volume 660.553158
_symmetry_space_group_name_H-M "P -1"
_symmetry_group_IT_number 2
_symmetry_cell_setting 'triclinic'
loop_
_space_group_symop_operation_xyz
x,y,z
-x,-y,-z
loop_
_atom_site_type_symbol
_atom_site_label
_atom_site_fract_x
_atom_site_fract_y
_atom_site_fract_z
Si Si1 0.292062 0.796434 0.200924
Si Si2 0.074230 0.460220 0.763836
Si Si3 0.887683 0.820472 0.184351
Si Si4 0.394617 0.144729 0.212109
Si Si5 0.696656 0.276429 0.230800
Si Si6 0.505565 0.683072 0.164751
Si Si7 0.258177 0.598609 0.577159
Si Si8 0.542759 0.777431 0.580780
O O1 0.317670 0.756785 0.131458
O O2 0.524230 0.613242 0.326286
O O3 0.390541 0.008639 0.337625
O O4 0.952658 0.817238 0.010072
O O5 0.003487 0.431610 0.640481
O O6 0.780106 0.593321 0.648300
O O7 0.143419 0.250179 0.785106
O O8 0.314505 0.589213 0.967700
O O9 0.219955 0.751904 0.352468
O O10 0.809254 0.066090 0.204020
O O11 0.645828 0.721572 0.969983
O O12 0.554757 0.274872 0.307432
O O13 0.433427 0.210037 0.326509
O O14 0.540868 0.902390 0.227175
O O15 0.718878 0.476931 0.265991
O O16 0.851980 0.276752 0.393736
#
# Coordination Sequence:
#
# PCOD9098722 Si02
#       8
#     2   2   2   2   2   2   2   2
#     4  10  20  37  56  88 125 154 189 242 297 349
#     4  11  20  36  61  93 120 147 195 244 298 345
#     4  10  21  39  67  83 113 159 208 237 280 354
#     4  11  19  37  59  91 120 160 190 236 300 352
#     4   9  22  43  60  84 116 160 201 243 284 342
#     4   9  18  38  64  78 117 162 198 230 287 358
#     4  11  24  35  58  92 123 153 190 245 303 335
#     4  11  20  36  63  93 113 155 202 237 290 357
#
# _framework density 24.222124000000001
#
# number of rings (size 3 to 8) (size 9 to 14) (size 15 to 20)
#    0.000    1.750    3.750    1.500    0.000    2.000 
#    2.250    5.625    0.000    2.250    0.000    0.000 
#    0.000    0.000    0.000    0.000    0.000    0.000 
#
# Total GULP energy -89606.446336 kJ/mol
# GULP energy per Si atom -5600.402896 kJ/mol
# Density = 2.416699 g / cm^3
# Si number density = 24.222124 Si / 1000 Ang^3
#
#
#
# Elastic Constant Matrix: (Units=GPa)
#
#
# Indices 1 2 3 4 5 6 
#
# 1 47.6389 18.0777 12.3592 10.1732 -8.4715 13.7852
# 2 18.0777 116.0511 8.2058 6.9148 0.6134 10.1000
# 3 12.3592 8.2058 108.3751 1.9167 -14.5009 9.1833
# 4 10.1732 6.9148 1.9167 36.6409 0.0617 6.0880
# 5 -8.4715 0.6134 -14.5009 0.0617 36.2280 1.6848
# 6 13.7852 10.1000 9.1833 6.0880 1.6848 27.3981
#
#
#
# Elastic Compliance Matrix: (Units=1/GPa)
#
#
# Indices 1 2 3 4 5 6 
#
# 1 0.028185 -0.003002 -0.000964 -0.005224 0.006823 -0.012010
# 2 -0.003002 0.009291 -0.000337 -0.000634 -0.000918 -0.001604
# 3 -0.000964 -0.000337 0.010154 0.000310 0.003989 -0.003108
# 4 -0.005224 -0.000634 0.000310 0.029467 -0.000964 -0.003730
# 5 0.006823 -0.000918 0.003989 -0.000964 0.031097 -0.006130
# 6 -0.012010 -0.001604 -0.003108 -0.003730 -0.006130 0.045381
#
#
# Mechanical properties :
#
#
# Convention : Reuss Voigt Hill
#
# Bulk Modulus (GPa) = 25.62494 38.81672 32.22083
# Shear Modulus (GPa) = 28.54076 35.61491 32.07783
#
# Velocity S-wave (km/s) = 3.43635 3.83867 3.64307
# Velocity P-wave (km/s) = 5.13291 5.97556 5.57019
#
# Compressibility (1/GPa) = 0.03902448
#
# Stress axis : x y z
#
# Youngs Moduli (GPa) = 35.48016 107.63603 98.48072
#
# Poissons Ratio (x) = 0.32310 0.09492
# Poissons Ratio (y) = 0.10651 0.03317
# Poissons Ratio (z) = 0.03420 0.03626
#
# Static dielectric constant tensor:
#      x y z
#    x 1.949960 -0.017800 0.042310 
#    y -0.017800 1.878710 -0.044420 
#    z 0.042310 -0.044420 1.971320 
# 
# From -- ./inp_files/187400.got.cif
#   From: 2010.05.17/outbox.cif.g08.bks.cpg/sg2_94_cif.got.tgz:187400.got - 2010.06.03 11:33:40.
