data_PCOD9098929
_publ_section_title
;
Structure prediction by ZEFSAII (Michael W. Deem and Ramdas Pophale) SiO2 
 PCOD9098929
Probable space group: P -1
;
_chemical_formula_sum "Si O2"
_cell_formula_units_Z 15
_cell_length_a 7.261119
_cell_length_b 8.288843
_cell_length_c 17.860624
_cell_angle_alpha 92.071126
_cell_angle_beta 78.391946
_cell_angle_gamma 38.450155
_cell_volume 620.779723
_symmetry_space_group_name_H-M "P -1"
_symmetry_group_IT_number 2
_symmetry_cell_setting 'triclinic'
loop_
_space_group_symop_operation_xyz
x,y,z
-x,-y,-z
loop_
_atom_site_type_symbol
_atom_site_label
_atom_site_fract_x
_atom_site_fract_y
_atom_site_fract_z
Si Si1 0.698345 0.222481 0.438467
Si Si2 0.642681 0.088135 0.640692
Si Si3 0.500000 0.000000 0.500000
Si Si4 0.930714 0.426253 0.073053
Si Si5 0.776174 0.532771 0.847899
Si Si6 0.340220 0.820983 0.034502
Si Si7 0.848779 0.025987 0.170311
Si Si8 0.144000 0.708628 0.712617
O O1 0.500000 0.500000 0.500000
O O2 0.572739 0.136566 0.470427
O O3 0.673446 0.283561 0.353544
O O4 0.074379 0.992919 0.416604
O O5 0.563503 0.010603 0.583858
O O6 0.347816 0.406384 0.688374
O O7 0.813262 0.907953 0.699436
O O8 0.568279 0.633592 0.085715
O O9 0.992135 0.486831 0.143533
O O10 0.187107 0.105172 0.046968
O O11 0.000000 0.500000 0.000000
O O12 0.516804 0.759310 0.811702
O O13 0.558330 0.644859 0.941085
O O14 0.977652 0.236600 0.804044
O O15 0.044731 0.906376 0.074304
O O16 0.882908 0.179496 0.205774
#
# Coordination Sequence:
#
# PCOD9098929 Si02
#       8
#     2   2   1   2   2   2   2   2
#     4  10  23  42  69 100 134 163 219 272 324 385
#     4  10  23  42  64  98 134 165 217 270 321 394
#     4  12  20  40  76 102 120 176 216 270 326 390
#     4  10  20  37  58  85 125 154 200 284 335 355
#     4  11  21  37  62  91 117 165 227 263 311 392
#     4  11  21  37  61  92 118 162 221 271 316 379
#     4  12  23  39  63  86 128 175 204 266 329 372
#     4  10  24  44  59  87 140 171 198 271 338 376
#
# _framework density 24.163163000000001
#
# number of rings (size 3 to 8) (size 9 to 14) (size 15 to 20)
#    0.800    0.533    1.333    6.800    0.000    2.133 
#    0.000    4.000    0.000    0.000    0.000    0.000 
#    0.000    0.000    0.000    0.000    0.000    0.000 
#
# Total GULP energy -83583.444393 kJ/mol
# GULP energy per Si atom -5572.229626 kJ/mol
# Density = 2.410817 g / cm^3
# Si number density = 24.163163 Si / 1000 Ang^3
#
#
#
# Elastic Constant Matrix: (Units=GPa)
#
#
# Indices 1 2 3 4 5 6 
#
# 1 123.8255 66.6775 31.8713 10.9499 34.0320 9.5662
# 2 66.6775 188.3317 30.1102 25.8783 24.7813 -13.6138
# 3 31.8713 30.1102 81.1571 0.7153 20.3541 -1.3149
# 4 10.9499 25.8783 0.7153 23.6976 11.8838 8.8880
# 5 34.0320 24.7813 20.3541 11.8838 41.7366 -10.7981
# 6 9.5662 -13.6138 -1.3149 8.8880 -10.7981 45.6234
#
#
#
# Elastic Compliance Matrix: (Units=1/GPa)
#
#
# Indices 1 2 3 4 5 6 
#
# 1 0.014897 -0.005408 -0.000571 0.009828 -0.014041 -0.009991
# 2 -0.005408 0.009275 -0.002593 -0.013563 0.006075 0.007907
# 3 -0.000571 -0.002593 0.015669 0.008762 -0.009188 -0.004084
# 4 0.009828 -0.013563 0.008762 0.081001 -0.035040 -0.029929
# 5 -0.014041 0.006075 -0.009188 -0.035040 0.052396 0.023719
# 6 -0.009991 0.007907 -0.004084 -0.029929 0.023719 0.037700
#
#
# Mechanical properties :
#
#
# Convention : Reuss Voigt Hill
#
# Bulk Modulus (GPa) = 44.05972 72.29248 58.17610
# Shear Modulus (GPa) = 21.21823 39.85522 30.53673
#
# Velocity S-wave (km/s) = 2.96653 4.06571 3.55881
# Velocity P-wave (km/s) = 5.47792 7.21273 6.40433
#
# Compressibility (1/GPa) = 0.02269647
#
# Stress axis : x y z
#
# Youngs Moduli (GPa) = 67.12954 107.81723 63.82067
#
# Poissons Ratio (x) = 0.58307 0.03643
# Poissons Ratio (y) = 0.36303 0.16550
# Poissons Ratio (z) = 0.03832 0.27960
#
# Static dielectric constant tensor:
#      x y z
#    x 1.952410 -0.033450 -0.045770 
#    y -0.033450 1.959340 -0.062620 
#    z -0.045770 -0.062620 2.023010 
# 
# From -- ./inp_files/586764.got.cif
#   From: 2010.05.17/outbox.cif.g08.bks.cpg/sg2_294_cif.got.tgz:586764.got - 2010.06.03 11:33:40.
