data_PCOD9098249
_publ_section_title
;
Structure prediction by ZEFSAII (Michael W. Deem and Ramdas Pophale) SiO2 
 PCOD9098249
Probable space group: P -1
;
_chemical_formula_sum "Si O2"
_cell_formula_units_Z 14
_cell_length_a 9.599558
_cell_length_b 21.135273
_cell_length_c 8.316291
_cell_angle_alpha 47.787182
_cell_angle_beta 129.989434
_cell_angle_gamma 152.482389
_cell_volume 571.967471
_symmetry_space_group_name_H-M "P -1"
_symmetry_group_IT_number 2
_symmetry_cell_setting 'triclinic'
loop_
_space_group_symop_operation_xyz
x,y,z
-x,-y,-z
loop_
_atom_site_type_symbol
_atom_site_label
_atom_site_fract_x
_atom_site_fract_y
_atom_site_fract_z
Si Si1 0.598149 0.766876 0.130392
Si Si2 0.867205 0.219647 0.788462
Si Si3 0.298691 0.155815 0.277362
Si Si4 0.180492 0.504025 0.507743
Si Si5 0.255072 0.288048 0.229906
Si Si6 0.363299 0.051058 0.967011
Si Si7 0.220466 0.943319 0.472378
O O1 0.344375 0.618789 0.291832
O O2 0.572003 0.857576 0.999672
O O3 0.934984 0.863729 0.278368
O O4 0.570550 0.750110 0.947101
O O5 0.629444 0.156863 0.855700
O O6 0.978993 0.347826 0.565257
O O7 0.150518 0.290119 0.983141
O O8 0.722959 0.080298 0.840476
O O9 0.359510 0.231303 0.353908
O O10 0.354709 0.077127 0.433770
O O11 0.935871 0.026021 0.209829
O O12 0.458009 0.569214 0.706202
O O13 0.000000 0.500000 0.500000
O O14 0.964716 0.178052 0.320706
O O15 0.500000 0.000000 0.500000
#
# Coordination Sequence:
#
# PCOD9098249 Si02
#       7
#     2   2   2   2   2   2   2
#     4  10  21  39  64  90 129 166 210 253 319 374
#     4  10  20  36  64  92 125 158 217 253 315 366
#     4  10  21  40  60  93 131 163 204 262 318 374
#     4  11  22  41  63  90 123 175 211 256 312 380
#     4  10  23  39  60  93 129 165 209 259 312 378
#     4   9  18  35  62  93 115 162 207 259 304 363
#     4  10  21  35  61  97 128 160 212 267 313 363
#
# _framework density 24.476917
#
# number of rings (size 3 to 8) (size 9 to 14) (size 15 to 20)
#    0.000    2.000    1.429    2.571    4.000    1.143 
#    0.000    3.571    0.000    3.429    0.000    4.000 
#    0.000    0.000    0.000    0.000    0.000    0.000 
#
# Total GULP energy -78294.480535 kJ/mol
# GULP energy per Si atom -5592.462895 kJ/mol
# Density = 2.442121 g / cm^3
# Si number density = 24.476917 Si / 1000 Ang^3
#
#
#
# Elastic Constant Matrix: (Units=GPa)
#
#
# Indices 1 2 3 4 5 6 
#
# 1 166.7080 44.0225 43.2378 -28.0943 8.5782 17.8729
# 2 44.0225 109.9922 40.7147 -37.2536 1.7120 5.3411
# 3 43.2378 40.7147 111.5985 -34.3509 9.7057 5.9197
# 4 -28.0943 -37.2536 -34.3509 46.4949 -3.3563 3.3031
# 5 8.5782 1.7120 9.7057 -3.3563 38.8056 -0.6493
# 6 17.8729 5.3411 5.9197 3.3031 -0.6493 29.7700
#
#
#
# Elastic Compliance Matrix: (Units=1/GPa)
#
#
# Indices 1 2 3 4 5 6 
#
# 1 0.007717 -0.001433 -0.001263 0.002815 -0.001158 -0.004462
# 2 -0.001433 0.013343 -0.001525 0.008916 0.000844 -0.002201
# 3 -0.001263 -0.001525 0.012571 0.007309 -0.002205 -0.002327
# 4 0.002815 0.008916 0.007309 0.036387 0.000157 -0.008777
# 5 -0.001158 0.000844 -0.002205 0.000157 0.026579 0.001544
# 6 -0.004462 -0.002201 -0.002327 -0.008777 0.001544 0.038135
#
#
# Mechanical properties :
#
#
# Convention : Reuss Voigt Hill
#
# Bulk Modulus (GPa) = 39.69997 71.58318 55.64157
# Shear Modulus (GPa) = 32.98792 40.36904 36.67848
#
# Velocity S-wave (km/s) = 3.67511 4.06553 3.87524
# Velocity P-wave (km/s) = 5.85347 7.16566 6.54254
#
# Compressibility (1/GPa) = 0.02518893
#
# Stress axis : x y z
#
# Youngs Moduli (GPa) = 129.58584 74.94572 79.54589
#
# Poissons Ratio (x) = 0.10738 0.10048
# Poissons Ratio (y) = 0.18568 0.12132
# Poissons Ratio (z) = 0.16369 0.11430
#
# Static dielectric constant tensor:
#      x y z
#    x 1.963650 -0.001230 0.055590 
#    y -0.001230 1.950740 0.052860 
#    z 0.055590 0.052860 2.026950 
# 
# From -- ./inp_files/223279.got.cif
#   From: 2010.05.17/outbox.cif.g08.bks.cpg/sg2_112_cif.got.tgz:223279.got - 2010.06.03 11:33:40.
