data_PCOD9098824
_publ_section_title
;
Structure prediction by ZEFSAII (Michael W. Deem and Ramdas Pophale) SiO2 
 PCOD9098824
Probable space group: P -1
;
_chemical_formula_sum "Si O2"
_cell_formula_units_Z 14
_cell_length_a 8.544292
_cell_length_b 7.654354
_cell_length_c 11.655674
_cell_angle_alpha 89.300306
_cell_angle_beta 74.843343
_cell_angle_gamma 54.268802
_cell_volume 587.600291
_symmetry_space_group_name_H-M "P -1"
_symmetry_group_IT_number 2
_symmetry_cell_setting 'triclinic'
loop_
_space_group_symop_operation_xyz
x,y,z
-x,-y,-z
loop_
_atom_site_type_symbol
_atom_site_label
_atom_site_fract_x
_atom_site_fract_y
_atom_site_fract_z
Si Si1 0.218679 0.697700 0.197025
Si Si2 0.213511 0.884889 0.743507
Si Si3 0.661879 0.043395 0.705189
Si Si4 0.925763 0.394021 0.315581
Si Si5 0.856317 0.535362 0.925926
Si Si6 0.492237 0.195331 0.151726
Si Si7 0.522343 0.694312 0.494450
O O1 0.350322 0.450608 0.223871
O O2 0.186629 0.644026 0.074812
O O3 0.331838 0.800026 0.207807
O O4 0.986036 0.891364 0.270024
O O5 0.175589 0.701666 0.735734
O O6 0.281642 0.888984 0.859775
O O7 0.399780 0.827755 0.628757
O O8 0.528965 0.974953 0.781161
O O9 0.886859 0.817138 0.654351
O O10 0.585511 0.160623 0.598095
O O11 0.018019 0.473884 0.208956
O O12 0.759645 0.578392 0.432450
O O13 0.627277 0.754574 0.946841
O O14 0.000000 0.500000 0.000000
O O15 0.500000 0.500000 0.500000
#
# Coordination Sequence:
#
# PCOD9098824 Si02
#       7
#     2   2   2   2   2   2   2
#     4   9  20  37  60  79 118 154 189 247 285 336
#     4  10  20  37  57  89 120 156 193 233 290 349
#     4  10  20  37  58  84 119 162 193 228 291 340
#     4   9  20  38  60  84 121 157 191 245 285 339
#     4   9  20  42  63  82 115 153 194 250 299 339
#     4   9  21  37  59  85 121 147 198 244 284 342
#     4  10  21  34  61  87 124 157 195 229 285 348
#
# _framework density 23.825718999999999
#
# number of rings (size 3 to 8) (size 9 to 14) (size 15 to 20)
#    0.857    1.714    0.000    1.714    2.000    6.857 
#    0.000   10.000    0.000    0.000    0.000    0.000 
#    0.000    0.000    0.000    0.000    0.000    0.000 
#
# Total GULP energy -77940.292868 kJ/mol
# GULP energy per Si atom -5567.163776 kJ/mol
# Density = 2.377149 g / cm^3
# Si number density = 23.825719 Si / 1000 Ang^3
#
#
#
# Elastic Constant Matrix: (Units=GPa)
#
#
# Indices 1 2 3 4 5 6 
#
# 1 86.9373 31.2435 14.4219 -6.2397 10.6670 24.8410
# 2 31.2435 82.9331 31.2921 -17.0621 -6.8989 14.5228
# 3 14.4219 31.2921 44.0135 -15.7147 -7.5515 8.4150
# 4 -6.2397 -17.0621 -15.7147 25.1383 -2.4525 2.1229
# 5 10.6670 -6.8989 -7.5515 -2.4525 30.6730 8.0444
# 6 24.8410 14.5228 8.4150 2.1229 8.0444 27.5021
#
#
#
# Elastic Compliance Matrix: (Units=1/GPa)
#
#
# Indices 1 2 3 4 5 6 
#
# 1 0.017115 -0.004068 -0.000220 0.002052 -0.003511 -0.012375
# 2 -0.004068 0.020080 -0.006813 0.009693 0.007035 -0.007651
# 3 -0.000220 -0.006813 0.041623 0.024047 0.014671 -0.015087
# 4 0.002052 0.009693 0.024047 0.065890 0.019221 -0.025038
# 5 -0.003511 0.007035 0.014671 0.019221 0.045775 -0.019905
# 6 -0.012375 -0.007651 -0.015087 -0.025038 -0.019905 0.063950
#
#
# Mechanical properties :
#
#
# Convention : Reuss Voigt Hill
#
# Bulk Modulus (GPa) = 17.66218 40.86655 29.26436
# Shear Modulus (GPa) = 16.92011 25.79111 21.35561
#
# Velocity S-wave (km/s) = 2.66778 3.29369 2.99712
# Velocity P-wave (km/s) = 4.11322 5.62619 4.92811
#
# Compressibility (1/GPa) = 0.05661816
#
# Stress axis : x y z
#
# Youngs Moduli (GPa) = 58.42852 49.80057 24.02492
#
# Poissons Ratio (x) = 0.20257 0.00528
# Poissons Ratio (y) = 0.23766 0.16368
# Poissons Ratio (z) = 0.01284 0.33928
#
# Static dielectric constant tensor:
#      x y z
#    x 1.924040 -0.010330 0.034430 
#    y -0.010330 1.939890 0.053790 
#    z 0.034430 0.053790 2.000300 
# 
# From -- ./inp_files/378674.got.cif
#   From: 2010.05.17/outbox.cif.g08.bks.cpg/sg2_190_cif.got.tgz:378674.got - 2010.06.03 11:33:40.
