data_PCOD9098977
_publ_section_title
;
Structure prediction by ZEFSAII (Michael W. Deem and Ramdas Pophale) SiO2 
 PCOD9098977
Probable space group: P -1
;
_chemical_formula_sum "Si O2"
_cell_formula_units_Z 14
_cell_length_a 10.656913
_cell_length_b 20.318001
_cell_length_c 10.883877
_cell_angle_alpha 27.118662
_cell_angle_beta 34.000594
_cell_angle_gamma 34.955188
_cell_volume 569.021127
_symmetry_space_group_name_H-M "P -1"
_symmetry_group_IT_number 2
_symmetry_cell_setting 'triclinic'
loop_
_space_group_symop_operation_xyz
x,y,z
-x,-y,-z
loop_
_atom_site_type_symbol
_atom_site_label
_atom_site_fract_x
_atom_site_fract_y
_atom_site_fract_z
Si Si1 0.517435 0.596767 0.124148
Si Si2 0.559713 0.979548 0.131687
Si Si3 0.988488 0.723934 0.298950
Si Si4 0.236965 0.525327 0.120477
Si Si5 0.801594 0.161221 0.376635
Si Si6 0.082503 0.323029 0.275593
Si Si7 0.350810 0.732532 0.401332
O O1 0.267345 0.684761 0.123033
O O2 0.499250 0.442822 0.458982
O O3 0.707649 0.518110 0.994991
O O4 0.634655 0.707597 0.914026
O O5 0.397378 0.879395 0.474442
O O6 0.827242 0.881323 0.110506
O O7 0.500000 0.000000 0.000000
O O8 0.524442 0.144466 0.944129
O O9 0.895015 0.591902 0.539159
O O10 0.959924 0.715993 0.483611
O O11 0.500000 0.500000 0.000000
O O12 0.100196 0.701993 0.966305
O O13 0.680640 0.230310 0.489533
O O14 0.000000 0.000000 0.500000
O O15 0.914361 0.245894 0.467913
O O16 0.000000 0.500000 0.000000
#
# Coordination Sequence:
#
# PCOD9098977 Si02
#       7
#     2   2   2   2   2   2   2
#     4   9  21  38  63  94 119 157 207 256 304 369
#     4  10  22  40  57  87 127 159 202 250 305 371
#     4  11  22  39  65  93 123 161 207 256 309 365
#     4  10  20  37  58  89 123 155 201 251 302 361
#     4  10  21  38  58  86 121 160 199 251 307 363
#     4   9  20  42  64  89 126 154 207 263 304 365
#     4   9  20  40  59  85 124 158 199 254 305 365
#
# _framework density 24.603656000000001
#
# number of rings (size 3 to 8) (size 9 to 14) (size 15 to 20)
#    0.000    2.286    1.429    0.857    2.000    5.714 
#    2.571    0.714    0.000    0.000    0.000    0.000 
#    0.000    0.000    0.000    0.000    0.000    0.000 
#
# Total GULP energy -78046.630458 kJ/mol
# GULP energy per Si atom -5574.759318 kJ/mol
# Density = 2.454766 g / cm^3
# Si number density = 24.603656 Si / 1000 Ang^3
#
#
#
# Elastic Constant Matrix: (Units=GPa)
#
#
# Indices 1 2 3 4 5 6 
#
# 1 112.1511 21.2778 50.5674 0.6836 -13.8284 -13.8819
# 2 21.2778 67.8523 6.4579 -7.7488 7.4810 -23.9162
# 3 50.5674 6.4579 123.7486 -3.5829 -21.6892 -4.3287
# 4 0.6836 -7.7488 -3.5829 23.7932 -9.8231 -3.8223
# 5 -13.8284 7.4810 -21.6892 -9.8231 50.1911 12.2399
# 6 -13.8819 -23.9162 -4.3287 -3.8223 12.2399 46.1214
#
#
#
# Elastic Compliance Matrix: (Units=1/GPa)
#
#
# Indices 1 2 3 4 5 6 
#
# 1 0.011825 -0.003230 -0.004438 -0.001357 0.001310 0.001007
# 2 -0.003230 0.021496 -0.000213 0.006602 -0.005885 0.012264
# 3 -0.004438 -0.000213 0.010727 0.003280 0.004413 -0.001339
# 4 -0.001357 0.006602 0.003280 0.049005 0.008393 0.005157
# 5 0.001310 -0.005885 0.004413 0.008393 0.026825 -0.008666
# 6 0.001007 0.012264 -0.001339 0.005157 -0.008666 0.030946
#
#
# Mechanical properties :
#
#
# Convention : Reuss Voigt Hill
#
# Bulk Modulus (GPa) = 35.35295 51.15090 43.25193
# Shear Modulus (GPa) = 28.40651 39.05106 33.72879
#
# Velocity S-wave (km/s) = 3.40157 3.98830 3.70656
# Velocity P-wave (km/s) = 5.46148 6.48412 5.99465
#
# Compressibility (1/GPa) = 0.02828618
#
# Stress axis : x y z
#
# Youngs Moduli (GPa) = 84.56746 46.51921 93.22218
#
# Poissons Ratio (x) = 0.15027 0.41370
# Poissons Ratio (y) = 0.27317 0.01987
# Poissons Ratio (z) = 0.37529 0.00991
#
# Static dielectric constant tensor:
#      x y z
#    x 2.044220 0.023860 0.089250 
#    y 0.023860 1.976020 0.061310 
#    z 0.089250 0.061310 2.194710 
# 
# From -- ./inp_files/451039.got.cif
#   From: 2010.05.17/outbox.cif.g08.bks.cpg/sg2_226_cif.got.tgz:451039.got - 2010.06.03 11:33:40.
