data_PCOD9098335
_publ_section_title
;
Structure prediction by ZEFSAII (Michael W. Deem and Ramdas Pophale) SiO2 
 PCOD9098335
Probable space group: P -1
;
_chemical_formula_sum "Si O2"
_cell_formula_units_Z 14
_cell_length_a 12.277482
_cell_length_b 6.717659
_cell_length_c 17.733729
_cell_angle_alpha 51.989560
_cell_angle_beta 34.664368
_cell_angle_gamma 45.807553
_cell_volume 593.219959
_symmetry_space_group_name_H-M "P -1"
_symmetry_group_IT_number 2
_symmetry_cell_setting 'triclinic'
loop_
_space_group_symop_operation_xyz
x,y,z
-x,-y,-z
loop_
_atom_site_type_symbol
_atom_site_label
_atom_site_fract_x
_atom_site_fract_y
_atom_site_fract_z
Si Si1 0.112471 0.885674 0.556276
Si Si2 0.752955 0.763030 0.992294
Si Si3 0.177655 0.291473 0.864692
Si Si4 0.252947 0.332384 0.536538
Si Si5 0.291622 0.772184 0.645534
Si Si6 0.687831 0.231615 0.797503
Si Si7 0.595243 0.827216 0.684965
O O1 0.268733 0.008130 0.404813
O O2 0.902673 0.354021 0.429581
O O3 0.885067 0.116789 0.655179
O O4 0.222093 0.752815 0.604741
O O5 0.809529 0.814605 0.032683
O O6 0.525535 0.757939 0.120429
O O7 0.937174 0.460291 0.934544
O O8 0.745055 0.006821 0.884504
O O9 0.252911 0.542515 0.767496
O O10 0.349107 0.043426 0.776458
O O11 0.464636 0.286758 0.472162
O O12 0.323267 0.271561 0.423535
O O13 0.174512 0.098048 0.658654
O O14 0.641442 0.548270 0.770353
#
# Coordination Sequence:
#
# PCOD9098335 Si02
#       7
#     2   2   2   2   2   2   2
#     4  11  22  42  67 104 143 176 213 286 345 415
#     4  10  25  46  72  93 135 191 228 284 328 392
#     4  11  22  46  72  99 134 177 239 283 325 401
#     4  10  22  36  65 109 138 173 218 273 354 403
#     4  10  20  36  65 102 136 172 223 277 331 403
#     4  11  24  46  67 103 141 176 232 274 344 410
#     4  11  25  41  72 106 134 178 224 283 348 406
#
# _framework density 23.600014999999999
#
# number of rings (size 3 to 8) (size 9 to 14) (size 15 to 20)
#    0.000    1.429    2.857    1.714    4.000    1.714 
#    5.143    5.714    0.000    0.000    0.000    0.000 
#    0.000    0.000    0.000    0.000    0.000    0.000 
#
# Total GULP energy -78324.958906 kJ/mol
# GULP energy per Si atom -5594.639922 kJ/mol
# Density = 2.354630 g / cm^3
# Si number density = 23.600015 Si / 1000 Ang^3
#
#
#
# Elastic Constant Matrix: (Units=GPa)
#
#
# Indices 1 2 3 4 5 6 
#
# 1 54.3472 36.7423 10.5864 0.8380 4.1046 -6.6049
# 2 36.7423 146.8349 37.3757 8.5264 8.9556 -2.9089
# 3 10.5864 37.3757 54.6753 7.2601 -2.9401 -7.9310
# 4 0.8380 8.5264 7.2601 38.3085 -7.8429 3.2544
# 5 4.1046 8.9556 -2.9401 -7.8429 20.5395 1.4398
# 6 -6.6049 -2.9089 -7.9310 3.2544 1.4398 44.5893
#
#
#
# Elastic Compliance Matrix: (Units=1/GPa)
#
#
# Indices 1 2 3 4 5 6 
#
# 1 0.022652 -0.005351 -0.000426 0.000017 -0.002459 0.003009
# 2 -0.005351 0.010059 -0.005979 -0.001902 -0.004835 -0.000905
# 3 -0.000426 -0.005979 0.023593 -0.002455 0.004868 0.003765
# 4 0.000017 -0.001902 -0.002455 0.029722 0.012042 -0.003116
# 5 -0.002459 -0.004835 0.004868 0.012042 0.056758 -0.002525
# 6 0.003009 -0.000905 0.003765 -0.003116 -0.002525 0.023792
#
#
# Mechanical properties :
#
#
# Convention : Reuss Voigt Hill
#
# Bulk Modulus (GPa) = 30.49516 47.25181 38.87348
# Shear Modulus (GPa) = 24.87330 32.09763 28.48547
#
# Velocity S-wave (km/s) = 3.24999 3.69191 3.47797
# Velocity P-wave (km/s) = 5.19932 6.18377 5.71279
#
# Compressibility (1/GPa) = 0.03279209
#
# Stress axis : x y z
#
# Youngs Moduli (GPa) = 44.14611 99.41760 42.38529
#
# Poissons Ratio (x) = 0.53200 0.01806
# Poissons Ratio (y) = 0.23623 0.25341
# Poissons Ratio (z) = 0.01881 0.59438
#
# Static dielectric constant tensor:
#      x y z
#    x 1.884200 -0.025040 0.009200 
#    y -0.025040 1.949100 -0.001520 
#    z 0.009200 -0.001520 1.900930 
# 
# From -- ./inp_files/297673.got.cif
#   From: 2010.05.17/outbox.cif.g08.bks.cpg/sg2_149_cif.got.tgz:297673.got - 2010.06.03 11:33:40.
