data_PCOD9098997
_publ_section_title
;
Structure prediction by ZEFSAII (Michael W. Deem and Ramdas Pophale) SiO2 
 PCOD9098997
Probable space group: P -1
;
_chemical_formula_sum "Si O2"
_cell_formula_units_Z 16
_cell_length_a 10.042185
_cell_length_b 15.903070
_cell_length_c 7.238352
_cell_angle_alpha 108.816479
_cell_angle_beta 64.431233
_cell_angle_gamma 54.687598
_cell_volume 535.556597
_symmetry_space_group_name_H-M "P -1"
_symmetry_group_IT_number 2
_symmetry_cell_setting 'triclinic'
loop_
_space_group_symop_operation_xyz
x,y,z
-x,-y,-z
loop_
_atom_site_type_symbol
_atom_site_label
_atom_site_fract_x
_atom_site_fract_y
_atom_site_fract_z
Si Si1 0.417850 0.599097 0.835777
Si Si2 0.050355 0.575755 0.777859
Si Si3 0.712034 0.853192 0.632333
Si Si4 0.353797 0.803171 0.220957
Si Si5 0.572612 0.056450 0.597777
Si Si6 0.746698 0.264493 0.351007
Si Si7 0.100009 0.534686 0.163243
Si Si8 0.686614 0.100094 0.102293
O O1 0.700260 0.504400 0.530473
O O2 0.280144 0.739804 0.156077
O O3 0.529963 0.442722 0.705276
O O4 0.232036 0.693689 0.828039
O O5 0.082055 0.454607 0.645675
O O6 0.064375 0.572436 0.992781
O O7 0.743026 0.757653 0.031168
O O8 0.544410 0.852120 0.654160
O O9 0.986554 0.678921 0.429789
O O10 0.772246 0.905452 0.509934
O O11 0.500000 0.000000 0.000000
O O12 0.615804 0.640697 0.062895
O O13 0.338041 0.863153 0.075424
O O14 0.273750 0.925327 0.496487
O O15 0.500000 0.000000 0.500000
O O16 0.659614 0.209034 0.297183
O O17 0.030055 0.096620 0.164523
#
# Coordination Sequence:
#
# PCOD9098997 Si02
#       8
#     2   2   2   2   2   2   2   2
#     4  10  20  37  64  90 109 157 210 248 299 341
#     4  10  21  37  57  83 124 162 191 238 299 368
#     4  12  23  35  61  96 119 156 195 245 302 363
#     4  10  22  36  57  87 120 159 194 249 286 357
#     4  11  22  38  53  88 129 161 188 232 303 372
#     4   9  20  37  60  90 115 152 203 267 288 339
#     4  10  22  36  53  87 127 159 188 235 305 366
#     4  10  20  37  58  91 121 150 201 254 299 337
#
# _framework density 29.875461999999999
#
# number of rings (size 3 to 8) (size 9 to 14) (size 15 to 20)
#    0.000    1.750    2.500    2.250    3.500    1.500 
#    0.000    0.000    0.000    7.500    3.250    0.000 
#    0.000    0.000    0.000    0.000    0.000    0.000 
#
# Total GULP energy -89190.323584 kJ/mol
# GULP energy per Si atom -5574.395224 kJ/mol
# Density = 2.980746 g / cm^3
# Si number density = 29.875462 Si / 1000 Ang^3
#
#
#
# Elastic Constant Matrix: (Units=GPa)
#
#
# Indices 1 2 3 4 5 6 
#
# 1 135.4165 59.2981 66.2713 14.1524 30.9098 21.5785
# 2 59.2981 215.4995 70.9404 56.1244 -0.3655 9.2473
# 3 66.2713 70.9404 161.4649 53.8439 26.9333 12.8767
# 4 14.1524 56.1244 53.8439 76.5691 13.9013 8.3802
# 5 30.9098 -0.3655 26.9333 13.9013 55.9297 10.7202
# 6 21.5785 9.2473 12.8767 8.3802 10.7202 47.7459
#
#
#
# Elastic Compliance Matrix: (Units=1/GPa)
#
#
# Indices 1 2 3 4 5 6 
#
# 1 0.011739 -0.002866 -0.003735 0.003830 -0.005030 -0.003286
# 2 -0.002866 0.006885 -0.000897 -0.004484 0.003119 0.000290
# 3 -0.003735 -0.000897 0.010211 -0.005599 -0.001551 0.000439
# 4 0.003830 -0.004484 -0.005599 0.020555 -0.004171 -0.002024
# 5 -0.005030 0.003119 -0.001551 -0.004171 0.022909 -0.002324
# 6 -0.003286 0.000290 0.000439 -0.002024 -0.002324 0.023132
#
#
# Mechanical properties :
#
#
# Convention : Reuss Voigt Hill
#
# Bulk Modulus (GPa) = 72.25597 100.60008 86.42802
# Shear Modulus (GPa) = 43.46328 57.10701 50.28515
#
# Velocity S-wave (km/s) = 3.81834 4.37682 4.10708
# Velocity P-wave (km/s) = 6.60892 7.69989 7.17517
#
# Compressibility (1/GPa) = 0.01383969
#
# Stress axis : x y z
#
# Youngs Moduli (GPa) = 85.18754 145.24642 97.92943
#
# Poissons Ratio (x) = 0.41621 0.36579
# Poissons Ratio (y) = 0.24411 0.08783
# Poissons Ratio (z) = 0.31820 0.13027
#
# Static dielectric constant tensor:
#      x y z
#    x 2.421020 -0.148150 0.032910 
#    y -0.148150 2.385510 -0.133280 
#    z 0.032910 -0.133280 2.361350 
# 
# From -- ./inp_files/257912.got.cif
#   From: 2010.05.17/outbox.cif.g08.bks.cpg/sg2_129_cif.got.tgz:257912.got - 2010.06.03 11:33:40.
