data_PCOD9098183
_publ_section_title
;
Structure prediction by ZEFSAII (Michael W. Deem and Ramdas Pophale) SiO2 
 PCOD9098183
Probable space group: P -1
;
_chemical_formula_sum "Si O2"
_cell_formula_units_Z 15
_cell_length_a 11.767948
_cell_length_b 11.686416
_cell_length_c 12.579932
_cell_angle_alpha 102.029303
_cell_angle_beta 50.542966
_cell_angle_gamma 60.526451
_cell_volume 734.586617
_symmetry_space_group_name_H-M "P -1"
_symmetry_group_IT_number 2
_symmetry_cell_setting 'triclinic'
loop_
_space_group_symop_operation_xyz
x,y,z
-x,-y,-z
loop_
_atom_site_type_symbol
_atom_site_label
_atom_site_fract_x
_atom_site_fract_y
_atom_site_fract_z
Si Si1 0.241530 0.142214 0.832379
Si Si2 0.370965 0.678906 0.187707
Si Si3 0.799913 0.657940 0.741759
Si Si4 0.771004 0.922096 0.928369
Si Si5 0.661316 0.038426 0.476794
Si Si6 0.901694 0.441618 0.840936
Si Si7 0.000000 0.500000 0.000000
Si Si8 0.068777 0.900523 0.607250
O O1 0.348378 0.985026 0.648055
O O2 0.960294 0.379188 0.016743
O O3 0.390691 0.171301 0.720315
O O4 0.257435 0.084672 0.929989
O O5 0.214557 0.734812 0.393897
O O6 0.500000 0.500000 0.000000
O O7 0.611847 0.593127 0.074751
O O8 0.178514 0.882083 0.267724
O O9 0.836360 0.758128 0.798176
O O10 0.851056 0.525474 0.771559
O O11 0.000000 0.500000 0.500000
O O12 0.508778 0.851634 0.905301
O O13 0.977114 0.882648 0.756904
O O14 0.887501 0.801425 0.337038
O O15 0.754332 0.106630 0.460805
O O16 0.008880 0.471777 0.859298
#
# Coordination Sequence:
#
# PCOD9098183 Si02
#       8
#     2   2   2   2   2   2   1   2
#     4  10  21  41  64  91 124 163 221 258 317 375
#     4  11  23  39  61  90 128 169 210 253 312 390
#     4  11  24  38  62  91 130 167 207 258 320 381
#     4  11  24  40  61  95 129 167 201 267 326 374
#     4  10  22  39  67  94 118 171 215 263 310 379
#     4  11  20  39  64  90 121 165 216 263 302 373
#     4  10  20  36  64  86 116 160 214 266 296 364
#     4  11  24  38  63  94 131 164 207 261 324 375
#
# _framework density 20.419647999999999
#
# number of rings (size 3 to 8) (size 9 to 14) (size 15 to 20)
#    0.000    1.333    4.000    1.600    1.867    1.600 
#    0.000    0.000    0.000    4.000    0.000    0.000 
#    0.000    0.000    0.000    0.000    0.000    0.000 
#
# Total GULP energy -83518.258543 kJ/mol
# GULP energy per Si atom -5567.883903 kJ/mol
# Density = 2.037317 g / cm^3
# Si number density = 20.419648 Si / 1000 Ang^3
#
#
#
# Elastic Constant Matrix: (Units=GPa)
#
#
# Indices 1 2 3 4 5 6 
#
# 1 98.2987 38.3577 55.7896 -17.4147 6.7678 -3.2553
# 2 38.3577 95.7911 56.7145 -40.3316 14.2991 -21.2941
# 3 55.7896 56.7145 124.2065 -22.5037 23.6759 2.5959
# 4 -17.4147 -40.3316 -22.5037 29.0214 1.8797 6.5904
# 5 6.7678 14.2991 23.6759 1.8797 38.6303 -2.8670
# 6 -3.2553 -21.2941 2.5959 6.5904 -2.8670 31.1068
#
#
#
# Elastic Compliance Matrix: (Units=1/GPa)
#
#
# Indices 1 2 3 4 5 6 
#
# 1 0.014247 -0.002081 -0.005572 0.001127 0.001668 0.000446
# 2 -0.002081 0.040792 -0.007557 0.046323 -0.011058 0.017504
# 3 -0.005572 -0.007557 0.015399 0.000241 -0.006245 -0.007668
# 4 0.001127 0.046323 0.000241 0.099097 -0.021659 0.008817
# 5 0.001668 -0.011058 -0.006245 -0.021659 0.034636 0.000907
# 6 0.000446 0.017504 -0.007668 0.008817 0.000907 0.043032
#
#
# Mechanical properties :
#
#
# Convention : Reuss Voigt Hill
#
# Bulk Modulus (GPa) = 24.98880 68.89110 46.93995
# Shear Modulus (GPa) = 17.18436 30.91399 24.04917
#
# Velocity S-wave (km/s) = 2.90411 3.89515 3.43555
# Velocity P-wave (km/s) = 4.84864 7.35122 6.22695
#
# Compressibility (1/GPa) = 0.04001793
#
# Stress axis : x y z
#
# Youngs Moduli (GPa) = 70.18878 24.51454 64.94050
#
# Poissons Ratio (x) = 0.05103 0.36186
# Poissons Ratio (y) = 0.14610 0.49072
# Poissons Ratio (z) = 0.39110 0.18524
#
# Static dielectric constant tensor:
#      x y z
#    x 2.002940 0.047210 -0.159980 
#    y 0.047210 1.591870 -0.178510 
#    z -0.159980 -0.178510 1.742480 
# 
# From -- ./inp_files/428334.got.cif
#   From: 2010.05.17/outbox.cif.g08.bks.cpg/sg2_215_cif.got.tgz:428334.got - 2010.06.03 11:33:40.
