data_PCOD9098621
_publ_section_title
;
Structure prediction by ZEFSAII (Michael W. Deem and Ramdas Pophale) SiO2 
 PCOD9098621
Probable space group: P -1
;
_chemical_formula_sum "Si O2"
_cell_formula_units_Z 16
_cell_length_a 24.398984
_cell_length_b 5.228077
_cell_length_c 13.525824
_cell_angle_alpha 60.820715
_cell_angle_beta 154.948622
_cell_angle_gamma 118.232008
_cell_volume 635.557204
_symmetry_space_group_name_H-M "P -1"
_symmetry_group_IT_number 2
_symmetry_cell_setting 'triclinic'
loop_
_space_group_symop_operation_xyz
x,y,z
-x,-y,-z
loop_
_atom_site_type_symbol
_atom_site_label
_atom_site_fract_x
_atom_site_fract_y
_atom_site_fract_z
Si Si1 0.926177 0.060165 0.737189
Si Si2 0.300416 0.724863 0.026472
Si Si3 0.433960 0.095071 0.607137
Si Si4 0.609748 0.568079 0.325644
Si Si5 0.830365 0.175303 0.777307
Si Si6 0.062830 0.341485 0.423829
Si Si7 0.134063 0.179966 0.782735
Si Si8 0.290534 0.098585 0.745125
O O1 0.998709 0.381941 0.774363
O O2 0.865943 0.070332 0.745827
O O3 0.810039 0.037579 0.474791
O O4 0.033218 0.827180 0.945091
O O5 0.215975 0.416728 0.938094
O O6 0.228680 0.952119 0.932718
O O7 0.311154 0.857755 0.906852
O O8 0.451800 0.732421 0.299694
O O9 0.420024 0.249000 0.661304
O O10 0.288333 0.046868 0.333925
O O11 0.467987 0.753946 0.739942
O O12 0.597972 0.743335 0.171511
O O13 0.758989 0.473953 0.595354
O O14 0.072594 0.342591 0.558285
O O15 0.208707 0.334602 0.622442
O O16 0.982968 0.033461 0.324433
#
# Coordination Sequence:
#
# PCOD9098621 Si02
#       8
#     2   2   2   2   2   2   2   2
#     4  11  19  38  57  87 121 152 189 238 287 350
#     4  11  23  38  60  84 116 155 193 241 285 339
#     4  10  21  39  56  81 116 161 191 229 283 339
#     4  10  20  37  54  86 114 150 195 224 280 346
#     4   9  22  35  58  86 118 158 190 231 282 349
#     4  10  21  36  59  86 121 147 190 241 299 343
#     4  10  23  38  60  88 115 151 195 241 293 339
#     4  11  21  33  58  87 121 146 192 233 299 344
#
# _framework density 25.174761
#
# number of rings (size 3 to 8) (size 9 to 14) (size 15 to 20)
#    0.750    1.000    3.750    0.750    1.750    4.000 
#    0.000    0.000    0.000    1.500    0.000    0.000 
#    0.000    0.000    0.000    0.000    0.000    0.000 
#
# Total GULP energy -89457.250882 kJ/mol
# GULP energy per Si atom -5591.078180 kJ/mol
# Density = 2.511746 g / cm^3
# Si number density = 25.174761 Si / 1000 Ang^3
#
#
#
# Elastic Constant Matrix: (Units=GPa)
#
#
# Indices 1 2 3 4 5 6 
#
# 1 52.3079 8.3011 14.6254 -3.3934 8.5879 -8.7268
# 2 8.3011 121.9436 23.4232 14.9638 3.0046 -10.4334
# 3 14.6254 23.4232 79.8514 4.5494 19.5174 7.5061
# 4 -3.3934 14.9638 4.5494 35.8908 4.9682 3.8566
# 5 8.5879 3.0046 19.5174 4.9682 32.8233 -2.6009
# 6 -8.7268 -10.4334 7.5061 3.8566 -2.6009 31.2831
#
#
#
# Elastic Compliance Matrix: (Units=1/GPa)
#
#
# Indices 1 2 3 4 5 6 
#
# 1 0.022025 -0.000453 -0.003826 0.002538 -0.003329 0.006322
# 2 -0.000453 0.009823 -0.003578 -0.004531 0.002410 0.004767
# 3 -0.003826 -0.003578 0.017270 0.001070 -0.009684 -0.007341
# 4 0.002538 -0.004531 0.001070 0.031275 -0.006049 -0.005418
# 5 -0.003329 0.002410 -0.009684 -0.006049 0.038276 0.006127
# 6 0.006322 0.004767 -0.007341 -0.005418 0.006127 0.038258
#
#
# Mechanical properties :
#
#
# Convention : Reuss Voigt Hill
#
# Bulk Modulus (GPa) = 29.93629 38.53358 34.23493
# Shear Modulus (GPa) = 27.20715 33.84965 30.52840
#
# Velocity S-wave (km/s) = 3.29101 3.67084 3.48610
# Velocity P-wave (km/s) = 5.13403 5.77117 5.46190
#
# Compressibility (1/GPa) = 0.03340427
#
# Stress axis : x y z
#
# Youngs Moduli (GPa) = 45.40265 101.80222 57.90534
#
# Poissons Ratio (x) = 0.04610 0.22156
# Poissons Ratio (y) = 0.02056 0.20716
# Poissons Ratio (z) = 0.17372 0.36420
#
# Static dielectric constant tensor:
#      x y z
#    x 1.952660 0.027980 -0.008880 
#    y 0.027980 2.031880 0.027970 
#    z -0.008880 0.027970 2.046960 
# 
# From -- ./inp_files/580037.got.cif
#   From: 2010.05.17/outbox.cif.g08.bks.cpg/sg2_291_cif.got.tgz:580037.got - 2010.06.03 11:33:40.
