data_PCOD9098615
_publ_section_title
;
Structure prediction by ZEFSAII (Michael W. Deem and Ramdas Pophale) SiO2 
 PCOD9098615
Probable space group: P -1
;
_chemical_formula_sum "Si O2"
_cell_formula_units_Z 12
_cell_length_a 9.975247
_cell_length_b 22.477833
_cell_length_c 16.266675
_cell_angle_alpha 162.188859
_cell_angle_beta 136.166409
_cell_angle_gamma 34.973852
_cell_volume 602.479820
_symmetry_space_group_name_H-M "P -1"
_symmetry_group_IT_number 2
_symmetry_cell_setting 'triclinic'
loop_
_space_group_symop_operation_xyz
x,y,z
-x,-y,-z
loop_
_atom_site_type_symbol
_atom_site_label
_atom_site_fract_x
_atom_site_fract_y
_atom_site_fract_z
Si Si1 0.902656 0.453871 0.286313
Si Si2 0.913261 0.097605 0.329952
Si Si3 0.668303 0.584972 0.179469
Si Si4 0.406531 0.971987 0.335016
Si Si5 0.602218 0.720412 0.660155
Si Si6 0.811087 0.452887 0.881138
O O1 0.837732 0.487407 0.206287
O O2 0.672707 0.651661 0.504522
O O3 0.131498 0.455510 0.408518
O O4 0.985806 0.184600 0.994517
O O5 0.627171 0.270236 0.401755
O O6 0.902385 0.192651 0.542365
O O7 0.115218 0.102112 0.378103
O O8 0.541943 0.879875 0.507556
O O9 0.500000 0.500000 0.000000
O O10 0.788497 0.479604 0.004020
O O11 0.500000 0.000000 0.500000
O O12 0.560501 0.675088 0.013969
O O13 0.500000 0.000000 0.000000
O O14 0.000000 0.500000 0.000000
#
# Coordination Sequence:
#
# PCOD9098615 Si02
#       6
#     2   2   2   2   2   2
#     4  10  21  39  61  92 123 151 204 259 295 349
#     4  11  19  37  64  86 118 169 200 235 301 363
#     4  11  22  37  59  92 126 155 197 256 299 342
#     4  10  20  37  54  81 123 161 194 240 291 358
#     4   9  20  39  63  87 117 160 203 245 310 357
#     4  11  22  39  60  87 124 169 198 228 304 373
#
# _framework density 19.917679
#
# number of rings (size 3 to 8) (size 9 to 14) (size 15 to 20)
#    0.000    1.667    3.333    4.000    0.000    0.667 
#    6.000    0.833    0.000   10.000    0.000    0.000 
#    0.000    0.000    0.000    0.000    0.000    0.000 
#
# Total GULP energy -66809.127731 kJ/mol
# GULP energy per Si atom -5567.427311 kJ/mol
# Density = 1.987235 g / cm^3
# Si number density = 19.917679 Si / 1000 Ang^3
#
#
#
# Elastic Constant Matrix: (Units=GPa)
#
#
# Indices 1 2 3 4 5 6 
#
# 1 121.1636 57.6529 21.3991 -5.4602 0.7613 -19.8512
# 2 57.6529 83.0435 -1.0777 -10.8370 6.5549 -20.4303
# 3 21.3991 -1.0777 99.0963 -8.2493 -13.3945 0.8050
# 4 -5.4602 -10.8370 -8.2493 23.9961 -2.8046 -0.4533
# 5 0.7613 6.5549 -13.3945 -2.8046 28.7160 -1.3881
# 6 -19.8512 -20.4303 0.8050 -0.4533 -1.3881 39.1537
#
#
#
# Elastic Compliance Matrix: (Units=1/GPa)
#
#
# Indices 1 2 3 4 5 6 
#
# 1 0.013394 -0.009113 -0.003163 -0.002099 0.000145 0.002081
# 2 -0.009113 0.021239 0.002519 0.008235 -0.002317 0.006424
# 3 -0.003163 0.002519 0.011992 0.005189 0.005596 -0.000278
# 4 -0.002099 0.008235 0.005189 0.047404 0.005413 0.003867
# 5 0.000145 -0.002317 0.005596 0.005413 0.038496 0.000177
# 6 0.002081 0.006424 -0.000278 0.003867 0.000177 0.030004
#
#
# Mechanical properties :
#
#
# Convention : Reuss Voigt Hill
#
# Bulk Modulus (GPa) = 36.88610 51.02799 43.95705
# Shear Modulus (GPa) = 26.16683 33.39508 29.78096
#
# Velocity S-wave (km/s) = 3.62850 4.09914 3.87098
# Velocity P-wave (km/s) = 6.00951 6.93390 6.48819
#
# Compressibility (1/GPa) = 0.02711048
#
# Stress axis : x y z
#
# Youngs Moduli (GPa) = 74.66206 47.08312 83.38659
#
# Poissons Ratio (x) = 0.42906 0.26378
# Poissons Ratio (y) = 0.68039 -0.21005
# Poissons Ratio (z) = 0.23619 -0.11860
#
# Static dielectric constant tensor:
#      x y z
#    x 1.734110 0.000380 0.013500 
#    y 0.000380 2.014640 0.163810 
#    z 0.013500 0.163810 1.851000 
# 
# From -- ./inp_files/40392.got.cif
#   From: 2010.05.17/outbox.cif.g08.bks.cpg/sg2_21_cif.got.tgz:40392.got - 2010.06.03 11:33:40.
