data_PCOD9098586
_publ_section_title
;
Structure prediction by ZEFSAII (Michael W. Deem and Ramdas Pophale) SiO2 
 PCOD9098586
Probable space group: P -1
;
_chemical_formula_sum "Si O2"
_cell_formula_units_Z 16
_cell_length_a 11.670286
_cell_length_b 14.801276
_cell_length_c 9.146331
_cell_angle_alpha 97.186920
_cell_angle_beta 72.011674
_cell_angle_gamma 148.666260
_cell_volume 750.077159
_symmetry_space_group_name_H-M "P -1"
_symmetry_group_IT_number 2
_symmetry_cell_setting 'triclinic'
loop_
_space_group_symop_operation_xyz
x,y,z
-x,-y,-z
loop_
_atom_site_type_symbol
_atom_site_label
_atom_site_fract_x
_atom_site_fract_y
_atom_site_fract_z
Si Si1 0.281316 0.883719 0.394798
Si Si2 0.764668 0.208523 0.918980
Si Si3 0.530268 0.747218 0.344879
Si Si4 0.279117 0.732510 0.605067
Si Si5 0.003022 0.160153 0.299850
Si Si6 0.261942 0.611515 0.138402
Si Si7 0.152656 0.362076 0.988023
Si Si8 0.484288 0.502024 0.332968
O O1 0.161429 0.777238 0.269607
O O2 0.322376 0.819861 0.459470
O O3 0.125311 0.847448 0.550864
O O4 0.535324 0.101478 0.320376
O O5 0.750686 0.308529 0.942524
O O6 0.934434 0.272202 0.980730
O O7 0.500000 0.000000 0.000000
O O8 0.363975 0.686790 0.521272
O O9 0.453499 0.741669 0.219525
O O10 0.478184 0.606450 0.327670
O O11 0.805254 0.952250 0.313956
O O12 0.004562 0.564817 0.721823
O O13 0.248418 0.300455 0.316668
O O14 0.069632 0.247173 0.134621
O O15 0.310327 0.548641 0.024910
O O16 0.292532 0.394410 0.820807
O O17 0.500000 0.500000 0.500000
#
# Coordination Sequence:
#
# PCOD9098586 Si02
#       8
#     2   2   2   2   2   2   2   2
#     4  10  20  39  67  97 141 177 223 289 340 407
#     4  12  26  42  64 107 147 181 227 284 350 409
#     4  11  24  42  75 104 134 187 231 278 348 412
#     4  10  20  36  71 101 134 176 233 276 344 411
#     4  11  24  47  72 103 136 180 241 284 340 411
#     4  12  23  41  70 102 140 185 227 284 346 416
#     4  12  26  45  69 102 141 182 230 289 341 412
#     4  12  28  50  72  97 140 183 234 289 346 409
#
# _framework density 21.331137999999999
#
# number of rings (size 3 to 8) (size 9 to 14) (size 15 to 20)
#    0.000    0.750    3.750    3.375    5.250    1.000 
#    4.500    0.000    0.000    0.000    0.000    0.000 
#    0.000    0.000    0.000    0.000    0.000    0.000 
#
# Total GULP energy -89500.195563 kJ/mol
# GULP energy per Si atom -5593.762223 kJ/mol
# Density = 2.128259 g / cm^3
# Si number density = 21.331138 Si / 1000 Ang^3
#
#
#
# Elastic Constant Matrix: (Units=GPa)
#
#
# Indices 1 2 3 4 5 6 
#
# 1 56.8967 12.8009 16.1590 -4.4530 -1.7698 8.0952
# 2 12.8009 84.7826 14.0519 -3.7143 3.8354 7.5941
# 3 16.1590 14.0519 92.5247 4.1779 -0.7715 -1.4225
# 4 -4.4530 -3.7143 4.1779 29.0861 4.3375 1.5962
# 5 -1.7698 3.8354 -0.7715 4.3375 36.6455 18.0520
# 6 8.0952 7.5941 -1.4225 1.5962 18.0520 30.7106
#
#
#
# Elastic Compliance Matrix: (Units=1/GPa)
#
#
# Indices 1 2 3 4 5 6 
#
# 1 0.020536 -0.001870 -0.003529 0.003152 0.004702 -0.008042
# 2 -0.001870 0.012691 -0.001724 0.001782 -0.000391 -0.002588
# 3 -0.003529 -0.001724 0.011831 -0.002498 -0.000630 0.002405
# 4 0.003152 0.001782 -0.002498 0.036081 -0.003871 -0.000987
# 5 0.004702 -0.000391 -0.000630 -0.003871 0.040087 -0.024534
# 6 -0.008042 -0.002588 0.002405 -0.000987 -0.024534 0.049906
#
#
# Mechanical properties :
#
#
# Convention : Reuss Voigt Hill
#
# Bulk Modulus (GPa) = 32.45687 35.58083 34.01885
# Shear Modulus (GPa) = 25.55602 32.03458 28.79530
#
# Velocity S-wave (km/s) = 3.46506 3.87948 3.67811
# Velocity P-wave (km/s) = 5.59085 6.06495 5.83272
#
# Compressibility (1/GPa) = 0.03081011
#
# Stress axis : x y z
#
# Youngs Moduli (GPa) = 48.69524 78.79879 84.52601
#
# Poissons Ratio (x) = 0.14735 0.29832
# Poissons Ratio (y) = 0.09106 0.14575
# Poissons Ratio (z) = 0.17186 0.13587
#
# Static dielectric constant tensor:
#      x y z
#    x 1.815090 0.042000 0.161140 
#    y 0.042000 1.815490 0.088080 
#    z 0.161140 0.088080 2.172640 
# 
# From -- ./inp_files/273362.got.cif
#   From: 2010.05.17/outbox.cif.g08.bks.cpg/sg2_137_cif.got.tgz:273362.got - 2010.06.03 11:33:40.
