data_PCOD9098791
_publ_section_title
;
Structure prediction by ZEFSAII (Michael W. Deem and Ramdas Pophale) SiO2 
 PCOD9098791
Probable space group: P -1
;
_chemical_formula_sum "Si O2"
_cell_formula_units_Z 16
_cell_length_a 16.371844
_cell_length_b 7.414359
_cell_length_c 8.057922
_cell_angle_alpha 91.590121
_cell_angle_beta 66.392307
_cell_angle_gamma 48.310207
_cell_volume 604.316047
_symmetry_space_group_name_H-M "P -1"
_symmetry_group_IT_number 2
_symmetry_cell_setting 'triclinic'
loop_
_space_group_symop_operation_xyz
x,y,z
-x,-y,-z
loop_
_atom_site_type_symbol
_atom_site_label
_atom_site_fract_x
_atom_site_fract_y
_atom_site_fract_z
Si Si1 0.294947 0.836193 0.595497
Si Si2 0.290959 0.380962 0.126081
Si Si3 0.466864 0.652057 0.778735
Si Si4 0.793475 0.656943 0.342688
Si Si5 0.035233 0.734863 0.491836
Si Si6 0.465165 0.031554 0.263950
Si Si7 0.153324 0.754459 0.897068
Si Si8 0.237485 0.838951 0.169376
O O1 0.380568 0.745515 0.687303
O O2 0.401041 0.665512 0.356537
O O3 0.227539 0.746309 0.686649
O O4 0.189043 0.154593 0.676738
O O5 0.140939 0.532456 0.254730
O O6 0.377952 0.129663 0.171704
O O7 0.278035 0.597096 0.226903
O O8 0.390619 0.268522 0.888480
O O9 0.504898 0.802742 0.742785
O O10 0.366343 0.755999 0.010779
O O11 0.882369 0.440210 0.413414
O O12 0.635479 0.876203 0.510599
O O13 0.819286 0.498990 0.155667
O O14 0.000000 0.000000 0.500000
O O15 0.887063 0.876505 0.637060
O O16 0.183472 0.820534 0.042886
O O17 0.000000 0.000000 0.000000
#
# Coordination Sequence:
#
# PCOD9098791 Si02
#       8
#     2   2   2   2   2   2   2   2
#     4  10  23  39  58  94 127 155 203 248 296 371
#     4   9  20  36  60  84 112 158 212 243 293 366
#     4  10  21  38  56  87 129 156 196 254 302 352
#     4  11  21  38  66  89 118 162 200 248 306 361
#     4   9  19  39  62  80 118 159 200 253 302 347
#     4  10  20  37  60  87 116 160 201 246 305 349
#     4  11  22  39  61  91 123 159 197 246 311 360
#     4  10  20  37  57  85 120 157 200 249 300 356
#
# _framework density 26.476212
#
# number of rings (size 3 to 8) (size 9 to 14) (size 15 to 20)
#    0.000    2.000    2.500    0.750    1.750    1.500 
#    0.000    0.625    0.000    0.000    0.000    0.000 
#    0.000    0.000    0.000    0.000    0.000    0.000 
#
# Total GULP energy -89402.761091 kJ/mol
# GULP energy per Si atom -5587.672568 kJ/mol
# Density = 2.641595 g / cm^3
# Si number density = 26.476212 Si / 1000 Ang^3
#
#
#
# Elastic Constant Matrix: (Units=GPa)
#
#
# Indices 1 2 3 4 5 6 
#
# 1 67.8666 24.6320 20.6021 6.7141 3.6299 -2.0462
# 2 24.6320 94.2201 14.2110 14.5255 -2.4447 -3.3926
# 3 20.6021 14.2110 174.0179 26.2820 -20.8221 -10.0648
# 4 6.7141 14.5255 26.2820 47.5189 -6.7960 -2.6019
# 5 3.6299 -2.4447 -20.8221 -6.7960 37.4036 -0.5904
# 6 -2.0462 -3.3926 -10.0648 -2.6019 -0.5904 37.8533
#
#
#
# Elastic Compliance Matrix: (Units=1/GPa)
#
#
# Indices 1 2 3 4 5 6 
#
# 1 0.017064 -0.004170 -0.001983 -0.000490 -0.003122 -0.000061
# 2 -0.004170 0.012204 0.000082 -0.003048 0.000705 0.000692
# 3 -0.001983 0.000082 0.006943 -0.002990 0.003545 0.001596
# 4 -0.000490 -0.003048 -0.002990 0.024100 0.002572 0.000602
# 5 -0.003122 0.000705 0.003545 0.002572 0.029548 0.001475
# 6 -0.000061 0.000692 0.001596 0.000602 0.001475 0.026965
#
#
# Mechanical properties :
#
#
# Convention : Reuss Voigt Hill
#
# Bulk Modulus (GPa) = 41.54712 50.55497 46.05104
# Shear Modulus (GPa) = 36.49944 42.99913 39.74928
#
# Velocity S-wave (km/s) = 3.71694 4.03434 3.87889
# Velocity P-wave (km/s) = 5.84356 6.39040 6.12309
#
# Compressibility (1/GPa) = 0.02406906
#
# Stress axis : x y z
#
# Youngs Moduli (GPa) = 58.60402 81.93854 144.03667
#
# Poissons Ratio (x) = 0.34165 0.28560
# Poissons Ratio (y) = 0.24436 -0.01176
# Poissons Ratio (z) = 0.11620 -0.00669
#
# Static dielectric constant tensor:
#      x y z
#    x 2.069720 -0.033300 0.020000 
#    y -0.033300 2.107080 -0.065220 
#    z 0.020000 -0.065220 2.164490 
# 
# From -- ./inp_files/81611.got.cif
#   From: 2010.05.17/outbox.cif.g08.bks.cpg/sg2_41_cif.got.tgz:81611.got - 2010.06.03 11:33:40.
