data_PCOD9098839
_publ_section_title
;
Structure prediction by ZEFSAII (Michael W. Deem and Ramdas Pophale) SiO2 
 PCOD9098839
Probable space group: P -1
;
_chemical_formula_sum "Si O2"
_cell_formula_units_Z 16
_cell_length_a 9.427332
_cell_length_b 10.003758
_cell_length_c 10.939833
_cell_angle_alpha 57.719579
_cell_angle_beta 76.204246
_cell_angle_gamma 63.170027
_cell_volume 778.359642
_symmetry_space_group_name_H-M "P -1"
_symmetry_group_IT_number 2
_symmetry_cell_setting 'triclinic'
loop_
_space_group_symop_operation_xyz
x,y,z
-x,-y,-z
loop_
_atom_site_type_symbol
_atom_site_label
_atom_site_fract_x
_atom_site_fract_y
_atom_site_fract_z
Si Si1 0.738005 0.838839 0.941383
Si Si2 0.533436 0.218084 0.882946
Si Si3 0.359204 0.545723 0.408903
Si Si4 0.314352 0.192856 0.556687
Si Si5 0.975150 0.330369 0.636222
Si Si6 0.950688 0.194824 0.969330
Si Si7 0.392798 0.701310 0.913349
Si Si8 0.597846 0.863170 0.703078
O O1 0.715697 0.795394 0.826764
O O2 0.635143 0.043154 0.878606
O O3 0.650849 0.750189 0.092089
O O4 0.910128 0.800996 0.975177
O O5 0.576492 0.371762 0.752540
O O6 0.580510 0.195731 0.025799
O O7 0.500000 0.500000 0.500000
O O8 0.330902 0.374361 0.471602
O O9 0.174558 0.678670 0.403357
O O10 0.312388 0.149949 0.435355
O O11 0.154457 0.190794 0.649994
O O12 0.473455 0.058113 0.650667
O O13 0.931670 0.316199 0.794302
O O14 0.000000 0.500000 0.500000
O O15 0.791999 0.257219 0.054151
O O16 0.000000 0.000000 0.000000
O O17 0.500000 0.500000 0.000000
O O18 0.476572 0.766558 0.758446
#
# Coordination Sequence:
#
# PCOD9098839 Si02
#       8
#     2   2   2   2   2   2   2   2
#     4  10  22  36  64  92 121 159 215 261 310 373
#     4  10  20  37  57  92 122 158 205 264 309 370
#     4  11  21  36  60  89 120 159 208 260 306 373
#     4  10  22  40  63  87 127 170 205 251 321 380
#     4  10  23  37  61  90 124 161 207 257 311 374
#     4  12  22  40  67  97 123 164 214 267 314 371
#     4  11  22  38  63  89 129 163 203 260 323 372
#     4  10  22  41  62  89 127 169 204 255 317 385
#
# _framework density 20.556052000000001
#
# number of rings (size 3 to 8) (size 9 to 14) (size 15 to 20)
#    0.000    1.500    2.500    2.250    8.750    0.000 
#    0.000    5.000    0.000    6.000    0.000    0.000 
#    0.000    0.000    0.000    0.000    0.000    0.000 
#
# Total GULP energy -89153.480435 kJ/mol
# GULP energy per Si atom -5572.092527 kJ/mol
# Density = 2.050927 g / cm^3
# Si number density = 20.556052 Si / 1000 Ang^3
#
#
#
# Elastic Constant Matrix: (Units=GPa)
#
#
# Indices 1 2 3 4 5 6 
#
# 1 180.9824 25.9358 31.1291 15.0084 -1.7782 -25.6461
# 2 25.9358 40.8634 -0.1671 -0.5411 -5.6240 -7.0874
# 3 31.1291 -0.1671 79.1141 -1.9049 -9.2677 0.7521
# 4 15.0084 -0.5411 -1.9049 26.7589 7.9074 -7.7041
# 5 -1.7782 -5.6240 -9.2677 7.9074 31.9165 0.0749
# 6 -25.6461 -7.0874 0.7521 -7.7041 0.0749 18.4613
#
#
#
# Elastic Compliance Matrix: (Units=1/GPa)
#
#
# Indices 1 2 3 4 5 6 
#
# 1 0.008095 -0.003694 -0.003412 -0.002020 -0.000711 0.009127
# 2 -0.003694 0.028764 0.002065 0.003550 0.004566 0.007290
# 3 -0.003412 0.002065 0.014542 0.000467 0.004291 -0.004362
# 4 -0.002020 0.003550 0.000467 0.047136 -0.011072 0.018253
# 5 -0.000711 0.004566 0.004291 -0.011072 0.036096 -0.004177
# 6 0.009127 0.007290 -0.004362 0.018253 -0.004177 0.077456
#
#
# Mechanical properties :
#
#
# Convention : Reuss Voigt Hill
#
# Bulk Modulus (GPa) = 24.20068 46.08392 35.14230
# Shear Modulus (GPa) = 21.19139 31.69815 26.44477
#
# Velocity S-wave (km/s) = 3.21426 3.93114 3.59063
# Velocity P-wave (km/s) = 5.05706 6.56296 5.85860
#
# Compressibility (1/GPa) = 0.04132115
#
# Stress axis : x y z
#
# Youngs Moduli (GPa) = 123.52646 34.76509 68.76548
#
# Poissons Ratio (x) = 0.12842 0.23462
# Poissons Ratio (y) = 0.45628 -0.14201
# Poissons Ratio (z) = 0.42146 -0.07180
#
# Static dielectric constant tensor:
#      x y z
#    x 1.772550 -0.051150 -0.029830 
#    y -0.051150 1.845680 -0.059950 
#    z -0.029830 -0.059950 1.880100 
# 
# From -- ./inp_files/259630.got.cif
#   From: 2010.05.17/outbox.cif.g08.bks.cpg/sg2_130_cif.got.tgz:259630.got - 2010.06.03 11:33:40.
