data_PCOD9098651
_publ_section_title
;
Structure prediction by ZEFSAII (Michael W. Deem and Ramdas Pophale) SiO2 
 PCOD9098651
Probable space group: P -1
;
_chemical_formula_sum "Si O2"
_cell_formula_units_Z 12
_cell_length_a 10.964555
_cell_length_b 10.787868
_cell_length_c 6.547269
_cell_angle_alpha 104.625907
_cell_angle_beta 93.613700
_cell_angle_gamma 66.464252
_cell_volume 686.381662
_symmetry_space_group_name_H-M "P -1"
_symmetry_group_IT_number 2
_symmetry_cell_setting 'triclinic'
loop_
_space_group_symop_operation_xyz
x,y,z
-x,-y,-z
loop_
_atom_site_type_symbol
_atom_site_label
_atom_site_fract_x
_atom_site_fract_y
_atom_site_fract_z
Si Si1 0.402562 0.544591 0.813590
Si Si2 0.707040 0.061410 0.578062
Si Si3 0.527466 0.700819 0.585476
Si Si4 0.862682 0.936578 0.155809
Si Si5 0.364204 0.100254 0.139226
Si Si6 0.836636 0.193859 0.973925
O O1 0.459789 0.630720 0.706136
O O2 0.406873 0.410758 0.632826
O O3 0.500000 0.500000 0.000000
O O4 0.255848 0.650184 0.906551
O O5 0.587454 0.164325 0.470721
O O6 0.763986 0.150888 0.762513
O O7 0.821740 0.964406 0.398524
O O8 0.655021 0.973727 0.687435
O O9 0.623520 0.756769 0.739686
O O10 0.014162 0.834298 0.087917
O O11 0.758796 0.886194 0.012181
O O12 0.845065 0.084400 0.110457
O O13 0.500000 0.000000 0.000000
#
# Coordination Sequence:
#
# PCOD9098651 Si02
#       6
#     2   2   2   2   2   2
#     4  11  22  37  58  81 115 151 183 228 271 334
#     4  11  19  35  60  86 111 142 185 240 280 319
#     4  11  22  35  56  89 109 144 192 225 278 332
#     4  10  21  35  58  83 116 143 183 238 277 324
#     4  11  22  35  57  86 115 144 183 235 283 328
#     4  10  20  37  55  85 113 147 188 226 278 327
#
# _framework density 17.482983999999998
#
# number of rings (size 3 to 8) (size 9 to 14) (size 15 to 20)
#    0.000    1.333    5.000    2.000    0.000    0.000 
#    0.000    0.833    0.000    2.000    0.000    0.000 
#    0.000    0.000    0.000    0.000    0.000    0.000 
#
# Total GULP energy -67024.308041 kJ/mol
# GULP energy per Si atom -5585.359003 kJ/mol
# Density = 1.744319 g / cm^3
# Si number density = 17.482984 Si / 1000 Ang^3
#
#
#
# Elastic Constant Matrix: (Units=GPa)
#
#
# Indices 1 2 3 4 5 6 
#
# 1 94.5905 22.0640 31.9975 28.6226 -15.3214 -9.4276
# 2 22.0640 45.6823 23.4401 27.0612 -10.0111 -15.0923
# 3 31.9975 23.4401 91.9619 23.1405 -26.0716 1.3217
# 4 28.6226 27.0612 23.1405 37.1714 1.1517 -2.6076
# 5 -15.3214 -10.0111 -26.0716 1.1517 27.0168 10.4673
# 6 -9.4276 -15.0923 1.3217 -2.6076 10.4673 29.5722
#
#
#
# Elastic Compliance Matrix: (Units=1/GPa)
#
#
# Indices 1 2 3 4 5 6 
#
# 1 0.016396 0.005031 0.000435 -0.016754 0.011422 0.002255
# 2 0.005031 0.055776 -0.000579 -0.043221 0.016945 0.020286
# 3 0.000435 -0.000579 0.022835 -0.015845 0.027514 -0.012313
# 4 -0.016754 -0.043221 -0.015845 0.082146 -0.042619 -0.004362
# 5 0.011422 0.016945 0.027514 -0.042619 0.087279 -0.023592
# 6 0.002255 0.020286 -0.012313 -0.004362 -0.023592 0.053404
#
#
# Mechanical properties :
#
#
# Convention : Reuss Voigt Hill
#
# Bulk Modulus (GPa) = 9.54391 43.02641 26.28516
# Shear Modulus (GPa) = 14.57768 29.06764 21.82266
#
# Velocity S-wave (km/s) = 2.89073 4.08195 3.53685
# Velocity P-wave (km/s) = 4.07585 6.84692 5.63440
#
# Compressibility (1/GPa) = 0.10477891
#
# Stress axis : x y z
#
# Youngs Moduli (GPa) = 60.99073 17.92879 43.79282
#
# Poissons Ratio (x) = -0.09019 -0.01903
# Poissons Ratio (y) = -0.30682 0.02536
# Poissons Ratio (z) = -0.02650 0.01038
#
# Static dielectric constant tensor:
#      x y z
#    x 1.578020 0.000660 -0.004210 
#    y 0.000660 1.578660 -0.000190 
#    z -0.004210 -0.000190 1.603150 
# 
# From -- ./inp_files/61973.got.cif
#   From: 2010.05.17/outbox.cif.g08.bks.cpg/sg2_31_cif.got.tgz:61973.got - 2010.06.03 11:33:40.
