data_PCOD9098551
_publ_section_title
;
Structure prediction by ZEFSAII (Michael W. Deem and Ramdas Pophale) SiO2 
 PCOD9098551
Probable space group: P -1
;
_chemical_formula_sum "Si O2"
_cell_formula_units_Z 16
_cell_length_a 12.819556
_cell_length_b 9.345328
_cell_length_c 6.985362
_cell_angle_alpha 84.603451
_cell_angle_beta 86.708433
_cell_angle_gamma 90.681818
_cell_volume 831.657229
_symmetry_space_group_name_H-M "P -1"
_symmetry_group_IT_number 2
_symmetry_cell_setting 'triclinic'
loop_
_space_group_symop_operation_xyz
x,y,z
-x,-y,-z
loop_
_atom_site_type_symbol
_atom_site_label
_atom_site_fract_x
_atom_site_fract_y
_atom_site_fract_z
Si Si1 0.031416 0.484666 0.273741
Si Si2 0.858021 0.100979 0.639164
Si Si3 0.649380 0.554802 0.951323
Si Si4 0.909884 0.796644 0.524632
Si Si5 0.211223 0.699333 0.083044
Si Si6 0.484450 0.586603 0.685391
Si Si7 0.184592 0.400606 0.762600
Si Si8 0.271673 0.698228 0.644694
O O1 0.067862 0.320847 0.296940
O O2 0.120562 0.596495 0.190818
O O3 0.000000 0.500000 0.500000
O O4 0.926343 0.532213 0.173350
O O5 0.813370 0.146849 0.843271
O O6 0.782519 0.193875 0.502714
O O7 0.977470 0.155994 0.582880
O O8 0.857586 0.935235 0.603563
O O9 0.687191 0.400688 0.881011
O O10 0.591093 0.634507 0.775844
O O11 0.569995 0.518638 0.138096
O O12 0.780841 0.280915 0.146246
O O13 0.841845 0.725543 0.368360
O O14 0.253555 0.375270 0.948638
O O15 0.500000 0.500000 0.500000
O O16 0.396849 0.706053 0.643990
O O17 0.242474 0.531089 0.624356
#
# Coordination Sequence:
#
# PCOD9098551 Si02
#       8
#     2   2   2   2   2   2   2   2
#     4  10  16  31  52  74 105 146 183 216 260 307
#     4  11  19  36  50  73 112 148 182 219 261 315
#     4   9  20  31  53  84 107 132 173 225 275 318
#     4  10  20  31  53  75 108 151 187 216 257 318
#     4  10  19  33  54  77 108 142 178 221 264 313
#     4   9  17  33  54  83 108 129 168 226 279 321
#     4   9  16  33  49  77 107 136 178 221 256 310
#     4  10  21  33  57  81 104 137 180 221 276 319
#
# _framework density 19.238693999999999
#
# number of rings (size 3 to 8) (size 9 to 14) (size 15 to 20)
#    0.000    2.500    3.750    1.500    0.000    4.000 
#    0.000    5.000    0.000    0.750    0.000   35.875 
#    0.000    4.000    0.000    0.000    0.000    0.000 
#
# Total GULP energy -89082.129344 kJ/mol
# GULP energy per Si atom -5567.633084 kJ/mol
# Density = 1.919491 g / cm^3
# Si number density = 19.238694 Si / 1000 Ang^3
#
#
#
# Elastic Constant Matrix: (Units=GPa)
#
#
# Indices 1 2 3 4 5 6 
#
# 1 90.1958 32.7068 47.8122 7.4068 24.6806 -18.9452
# 2 32.7068 93.3597 36.5091 34.4615 17.4714 -2.6554
# 3 47.8122 36.5091 93.3671 25.8952 7.7665 -11.8910
# 4 7.4068 34.4615 25.8952 29.9923 -4.2574 -1.2858
# 5 24.6806 17.4714 7.7665 -4.2574 38.2632 -0.8496
# 6 -18.9452 -2.6554 -11.8910 -1.2858 -0.8496 14.3874
#
#
#
# Elastic Compliance Matrix: (Units=1/GPa)
#
#
# Indices 1 2 3 4 5 6 
#
# 1 0.025258 -0.005221 -0.008681 0.006794 -0.010833 0.025089
# 2 -0.005221 0.025797 0.001981 -0.032006 -0.012465 -0.004073
# 3 -0.008681 0.001981 0.019687 -0.017136 -0.001128 0.003608
# 4 0.006794 -0.032006 -0.017136 0.086453 0.023284 -0.002022
# 5 -0.010833 -0.012465 -0.001128 0.023284 0.041346 -0.012975
# 6 0.025089 -0.004073 0.003608 -0.002022 -0.012975 0.103825
#
#
# Mechanical properties :
#
#
# Convention : Reuss Voigt Hill
#
# Bulk Modulus (GPa) = 21.32155 56.77543 39.04849
# Shear Modulus (GPa) = 14.62676 27.18822 20.90749
#
# Velocity S-wave (km/s) = 2.76031 3.76334 3.30015
# Velocity P-wave (km/s) = 4.61148 6.96123 5.90443
#
# Compressibility (1/GPa) = 0.04690090
#
# Stress axis : x y z
#
# Youngs Moduli (GPa) = 39.59152 38.76480 50.79536
#
# Poissons Ratio (x) = 0.20239 0.44094
# Poissons Ratio (y) = 0.20671 -0.10065
# Poissons Ratio (z) = 0.34368 -0.07681
#
# Static dielectric constant tensor:
#      x y z
#    x 1.779740 -0.024600 0.033640 
#    y -0.024600 1.686960 0.006660 
#    z 0.033640 0.006660 1.747050 
# 
# From -- ./inp_files/290620.got.cif
#   From: 2010.05.17/outbox.cif.g08.bks.cpg/sg2_146_cif.got.tgz:290620.got - 2010.06.03 11:33:40.
