data_PCOD9098964
_publ_section_title
;
Structure prediction by ZEFSAII (Michael W. Deem and Ramdas Pophale) SiO2 
 PCOD9098964
Probable space group: P -1
;
_chemical_formula_sum "Si O2"
_cell_formula_units_Z 16
_cell_length_a 8.641303
_cell_length_b 16.643395
_cell_length_c 16.429624
_cell_angle_alpha 34.304438
_cell_angle_beta 118.811685
_cell_angle_gamma 93.010213
_cell_volume 833.507871
_symmetry_space_group_name_H-M "P -1"
_symmetry_group_IT_number 2
_symmetry_cell_setting 'triclinic'
loop_
_space_group_symop_operation_xyz
x,y,z
-x,-y,-z
loop_
_atom_site_type_symbol
_atom_site_label
_atom_site_fract_x
_atom_site_fract_y
_atom_site_fract_z
Si Si1 0.752879 0.726858 0.258983
Si Si2 0.713253 0.977127 0.535405
Si Si3 0.636704 0.353455 0.234105
Si Si4 0.788756 0.944181 0.389129
Si Si5 0.256605 0.773062 0.257986
Si Si6 0.449791 0.618048 0.262790
Si Si7 0.255162 0.699189 0.969566
Si Si8 0.531463 0.904140 0.222195
O O1 0.535310 0.733740 0.184096
O O2 0.722302 0.800909 0.281045
O O3 0.000000 0.500000 0.500000
O O4 0.706358 0.878142 0.056398
O O5 0.648870 0.177011 0.373140
O O6 0.500000 0.000000 0.500000
O O7 0.735018 0.951486 0.464718
O O8 0.986646 0.794384 0.794359
O O9 0.920841 0.243470 0.398594
O O10 0.500000 0.500000 0.000000
O O11 0.476505 0.490615 0.156056
O O12 0.632341 0.928172 0.305745
O O13 0.733785 0.140900 0.189148
O O14 0.299006 0.686566 0.250802
O O15 0.310296 0.618437 0.465739
O O16 0.460502 0.780430 0.321148
O O17 0.000000 0.000000 0.000000
O O18 0.297441 0.667616 0.102933
#
# Coordination Sequence:
#
# PCOD9098964 Si02
#       8
#     2   2   2   2   2   2   2   2
#     4  10  20  37  58  88 119 154 201 247 293 356
#     4  11  25  43  63  94 131 159 203 268 312 366
#     4  11  21  42  67  89 120 173 205 251 317 368
#     4  11  22  40  65  92 130 159 211 262 307 369
#     4  10  22  41  59  85 131 162 194 253 309 361
#     4  10  22  38  60  90 119 161 204 243 302 365
#     4  11  22  42  66  94 125 164 214 253 306 383
#     4  10  22  36  59  90 118 155 204 249 298 359
#
# _framework density 19.195981
#
# number of rings (size 3 to 8) (size 9 to 14) (size 15 to 20)
#    0.000    1.500    3.750    1.500    1.750    4.500 
#    2.250    0.000    0.000    0.000    0.000    0.000 
#    0.000    0.000    0.000    0.000    0.000    0.000 
#
# Total GULP energy -89353.820257 kJ/mol
# GULP energy per Si atom -5584.613766 kJ/mol
# Density = 1.915229 g / cm^3
# Si number density = 19.195981 Si / 1000 Ang^3
#
#
#
# Elastic Constant Matrix: (Units=GPa)
#
#
# Indices 1 2 3 4 5 6 
#
# 1 77.4481 44.5482 28.5569 10.5785 0.5871 -0.4576
# 2 44.5482 146.5625 59.7324 20.1916 12.7143 -11.1646
# 3 28.5569 59.7324 101.7526 -4.6447 4.8865 -18.5250
# 4 10.5785 20.1916 -4.6447 39.9062 -5.1053 -1.6321
# 5 0.5871 12.7143 4.8865 -5.1053 27.7779 -6.2813
# 6 -0.4576 -11.1646 -18.5250 -1.6321 -6.2813 22.6066
#
#
#
# Elastic Compliance Matrix: (Units=1/GPa)
#
#
# Indices 1 2 3 4 5 6 
#
# 1 0.016674 -0.003536 -0.003582 -0.003194 0.000293 -0.004493
# 2 -0.003536 0.011679 -0.006137 -0.006471 -0.005693 -0.001382
# 3 -0.003582 -0.006137 0.016800 0.007024 0.003998 0.012281
# 4 -0.003194 -0.006471 0.007024 0.031479 0.009238 0.007335
# 5 0.000293 -0.005693 0.003998 0.009238 0.042523 0.012952
# 6 -0.004493 -0.001382 0.012281 0.007335 0.012952 0.057654
#
#
# Mechanical properties :
#
#
# Convention : Reuss Voigt Hill
#
# Bulk Modulus (GPa) = 53.63779 65.71536 59.67657
# Shear Modulus (GPa) = 23.86249 30.91986 27.39117
#
# Velocity S-wave (km/s) = 3.52958 4.01776 3.78156
# Velocity P-wave (km/s) = 6.67933 7.47205 7.08678
#
# Compressibility (1/GPa) = 0.01864357
#
# Stress axis : x y z
#
# Youngs Moduli (GPa) = 59.97385 85.62166 59.52244
#
# Poissons Ratio (x) = 0.30276 0.21319
# Poissons Ratio (y) = 0.21207 0.36531
# Poissons Ratio (z) = 0.21480 0.52549
#
# Static dielectric constant tensor:
#      x y z
#    x 1.679180 -0.007450 0.013410 
#    y -0.007450 1.650790 -0.016860 
#    z 0.013410 -0.016860 1.676450 
# 
# From -- ./inp_files/82436.got.cif
#   From: 2010.05.17/outbox.cif.g08.bks.cpg/sg2_42_cif.got.tgz:82436.got - 2010.06.03 11:33:40.
