data_PCOD9098945
_publ_section_title
;
Structure prediction by ZEFSAII (Michael W. Deem and Ramdas Pophale) SiO2 
 PCOD9098945
Probable space group: P -1
;
_chemical_formula_sum "Si O2"
_cell_formula_units_Z 16
_cell_length_a 14.929017
_cell_length_b 8.054969
_cell_length_c 9.736917
_cell_angle_alpha 93.684635
_cell_angle_beta 70.482163
_cell_angle_gamma 44.070038
_cell_volume 679.889462
_symmetry_space_group_name_H-M "P -1"
_symmetry_group_IT_number 2
_symmetry_cell_setting 'triclinic'
loop_
_space_group_symop_operation_xyz
x,y,z
-x,-y,-z
loop_
_atom_site_type_symbol
_atom_site_label
_atom_site_fract_x
_atom_site_fract_y
_atom_site_fract_z
Si Si1 0.756250 0.331789 0.225098
Si Si2 0.701328 0.714285 0.670567
Si Si3 0.655878 0.897140 0.420336
Si Si4 0.880459 0.339378 0.785915
Si Si5 0.135598 0.199126 0.343654
Si Si6 0.227077 0.916311 0.552504
Si Si7 0.925902 0.931663 0.887862
Si Si8 0.646691 0.780592 0.146808
O O1 0.637012 0.609763 0.215736
O O2 0.716209 0.318775 0.397152
O O3 0.813224 0.101604 0.086423
O O4 0.903730 0.252613 0.157651
O O5 0.741463 0.686132 0.489226
O O6 0.819724 0.429032 0.666757
O O7 0.726711 0.858141 0.735618
O O8 0.522249 0.919990 0.786751
O O9 0.664822 0.077091 0.465832
O O10 0.716176 0.801427 0.230380
O O11 0.500000 0.000000 0.500000
O O12 0.883542 0.149848 0.829165
O O13 0.050123 0.180127 0.707971
O O14 0.757235 0.606888 0.953730
O O15 0.195021 0.974789 0.407892
O O16 0.000000 0.500000 0.500000
O O17 0.091172 0.195832 0.215779
#
# Coordination Sequence:
#
# PCOD9098945 Si02
#       8
#     2   2   2   2   2   2   2   2
#     4   9  20  38  58  86 120 154 195 241 292 354
#     4  10  21  38  55  85 117 154 201 237 292 349
#     4   9  21  38  55  82 117 154 193 235 292 346
#     4  10  20  37  58  87 115 150 198 246 289 347
#     4  11  22  38  58  87 118 151 199 253 291 341
#     4  10  21  37  57  91 113 149 202 240 295 345
#     4   9  21  38  58  86 120 155 193 245 299 340
#     4  10  21  37  59  82 120 160 192 239 295 345
#
# _framework density 23.533239999999999
#
# number of rings (size 3 to 8) (size 9 to 14) (size 15 to 20)
#    0.000    2.250    1.250    1.125    3.500    4.500 
#    0.000   10.625    0.000    0.000    0.000    0.000 
#    0.000    0.000    0.000    0.000    0.000    0.000 
#
# Total GULP energy -89205.422309 kJ/mol
# GULP energy per Si atom -5575.338894 kJ/mol
# Density = 2.347968 g / cm^3
# Si number density = 23.533240 Si / 1000 Ang^3
#
#
#
# Elastic Constant Matrix: (Units=GPa)
#
#
# Indices 1 2 3 4 5 6 
#
# 1 61.5125 15.2720 25.5963 -1.6676 19.7257 -9.1134
# 2 15.2720 70.9997 0.6410 -28.6650 -5.1128 -10.1035
# 3 25.5963 0.6410 55.0355 -7.9448 22.5780 -2.8899
# 4 -1.6676 -28.6650 -7.9448 41.3201 6.4922 -2.0828
# 5 19.7257 -5.1128 22.5780 6.4922 41.5655 -8.7214
# 6 -9.1134 -10.1035 -2.8899 -2.0828 -8.7214 26.6330
#
#
#
# Elastic Compliance Matrix: (Units=1/GPa)
#
#
# Indices 1 2 3 4 5 6 
#
# 1 0.023957 -0.007067 -0.009102 -0.004615 -0.006119 0.002164
# 2 -0.007067 0.024183 0.004782 0.017420 0.003030 0.009629
# 3 -0.009102 0.004782 0.029039 0.010471 -0.012823 -0.001529
# 4 -0.004615 0.017420 0.010471 0.039421 -0.005983 0.007289
# 5 -0.006119 0.003030 -0.012823 -0.005983 0.037203 0.009379
# 6 0.002164 0.009629 -0.001529 0.007289 0.009379 0.045416
#
#
# Mechanical properties :
#
#
# Convention : Reuss Voigt Hill
#
# Bulk Modulus (GPa) = 18.38022 30.06292 24.22157
# Shear Modulus (GPa) = 20.82232 31.63960 26.23096
#
# Velocity S-wave (km/s) = 2.97779 3.67067 3.34224
# Velocity P-wave (km/s) = 4.43286 5.54685 5.02085
#
# Compressibility (1/GPa) = 0.05440631
#
# Stress axis : x y z
#
# Youngs Moduli (GPa) = 41.74211 41.35129 34.43617
#
# Poissons Ratio (x) = 0.29222 0.31343
# Poissons Ratio (y) = 0.29498 -0.16468
# Poissons Ratio (z) = 0.37993 -0.19775
#
# Static dielectric constant tensor:
#      x y z
#    x 1.904240 -0.008410 0.000720 
#    y -0.008410 1.954330 0.002800 
#    z 0.000720 0.002800 1.961030 
# 
# From -- ./inp_files/298827.got.cif
#   From: 2010.05.17/outbox.cif.g08.bks.cpg/sg2_150_cif.got.tgz:298827.got - 2010.06.03 11:33:40.
