data_PCOD9098369
_publ_section_title
;
Structure prediction by ZEFSAII (Michael W. Deem and Ramdas Pophale) SiO2 
 PCOD9098369
Probable space group: P -1
;
_chemical_formula_sum "Si O2"
_cell_formula_units_Z 16
_cell_length_a 7.504184
_cell_length_b 8.087856
_cell_length_c 16.155454
_cell_angle_alpha 78.111506
_cell_angle_beta 86.377263
_cell_angle_gamma 139.075752
_cell_volume 590.759440
_symmetry_space_group_name_H-M "P -1"
_symmetry_group_IT_number 2
_symmetry_cell_setting 'triclinic'
loop_
_space_group_symop_operation_xyz
x,y,z
-x,-y,-z
loop_
_atom_site_type_symbol
_atom_site_label
_atom_site_fract_x
_atom_site_fract_y
_atom_site_fract_z
Si Si1 0.539065 0.779930 0.720887
Si Si2 0.821764 0.392924 0.391812
Si Si3 0.360490 0.826678 0.227605
Si Si4 0.260888 0.412546 0.198348
Si Si5 0.280326 0.965005 0.057667
Si Si6 0.179402 0.963773 0.602365
Si Si7 0.164356 0.440132 0.012517
Si Si8 0.878985 0.729085 0.459043
O O1 0.314536 0.584136 0.674429
O O2 0.572497 0.638314 0.788977
O O3 0.457512 0.884720 0.766932
O O4 0.836935 0.034605 0.634171
O O5 0.665867 0.098520 0.412950
O O6 0.797441 0.476614 0.467420
O O7 0.149076 0.612895 0.329438
O O8 0.447252 0.714102 0.193991
O O9 0.199169 0.805685 0.159807
O O10 0.146959 0.365293 0.114971
O O11 0.988332 0.188052 0.291423
O O12 0.493650 0.277589 0.040115
O O13 0.500000 0.000000 0.000000
O O14 0.009611 0.799230 0.024325
O O15 0.967307 0.810996 0.543716
O O16 0.308355 0.248439 0.567270
O O17 0.000000 0.500000 0.000000
#
# Coordination Sequence:
#
# PCOD9098369 Si02
#       8
#     2   2   2   2   2   2   2   2
#     4  10  23  38  59  90 126 155 209 259 309 384
#     4  10  21  36  59  87 121 161 200 258 310 377
#     4  10  21  39  61  86 118 164 205 253 317 378
#     4  10  20  41  61  88 120 164 208 258 320 375
#     4  10  20  36  65  92 124 166 214 271 321 388
#     4   9  19  36  64  84 119 164 201 254 311 382
#     4  10  20  38  63  94 124 168 213 269 323 385
#     4   9  19  40  57  87 124 155 204 255 309 373
#
# _framework density 27.083784000000001
#
# number of rings (size 3 to 8) (size 9 to 14) (size 15 to 20)
#    0.000    2.250    2.500    0.375    1.750    2.500 
#    6.750    6.875    0.000    0.000    0.000    0.000 
#    0.000    0.000    0.000    0.000    0.000    0.000 
#
# Total GULP energy -89428.198710 kJ/mol
# GULP energy per Si atom -5589.262419 kJ/mol
# Density = 2.702214 g / cm^3
# Si number density = 27.083784 Si / 1000 Ang^3
#
#
#
# Elastic Constant Matrix: (Units=GPa)
#
#
# Indices 1 2 3 4 5 6 
#
# 1 92.8480 40.0133 48.7738 1.0987 22.1391 -24.2731
# 2 40.0133 144.7351 43.2170 2.5677 15.0145 -21.8568
# 3 48.7738 43.2170 165.7083 -0.9688 29.5150 -16.4101
# 4 1.0987 2.5677 -0.9688 42.2925 4.1116 6.9041
# 5 22.1391 15.0145 29.5150 4.1116 50.4253 -4.5540
# 6 -24.2731 -21.8568 -16.4101 6.9041 -4.5540 37.1094
#
#
#
# Elastic Compliance Matrix: (Units=1/GPa)
#
#
# Indices 1 2 3 4 5 6 
#
# 1 0.016111 -0.002006 -0.002720 -0.001251 -0.004070 0.007887
# 2 -0.002006 0.008376 -0.001183 -0.000953 -0.000553 0.003207
# 3 -0.002720 -0.001183 0.007724 0.000531 -0.002975 0.000476
# 4 -0.001251 -0.000953 0.000531 0.024933 -0.002056 -0.006036
# 5 -0.004070 -0.000553 -0.002975 -0.002056 0.023599 -0.001025
# 6 0.007887 0.003207 0.000476 -0.006036 -0.001025 0.035202
#
#
# Mechanical properties :
#
#
# Convention : Reuss Voigt Hill
#
# Bulk Modulus (GPa) = 49.04163 74.14438 61.59301
# Shear Modulus (GPa) = 37.15776 44.05127 40.60452
#
# Velocity S-wave (km/s) = 3.70801 4.03734 3.87618
# Velocity P-wave (km/s) = 6.03980 7.01205 6.54401
#
# Compressibility (1/GPa) = 0.02039084
#
# Stress axis : x y z
#
# Youngs Moduli (GPa) = 62.06983 119.39182 129.46662
#
# Poissons Ratio (x) = 0.23955 0.35217
# Poissons Ratio (y) = 0.12454 0.15320
# Poissons Ratio (z) = 0.16884 0.14128
#
# Static dielectric constant tensor:
#      x y z
#    x 2.134870 -0.011080 0.002170 
#    y -0.011080 2.303080 -0.132480 
#    z 0.002170 -0.132480 2.115960 
# 
# From -- ./inp_files/557129.got.cif
#   From: 2010.05.17/outbox.cif.g08.bks.cpg/sg2_279_cif.got.tgz:557129.got - 2010.06.03 11:33:40.
