data_PCOD9098793
_publ_section_title
;
Structure prediction by ZEFSAII (Michael W. Deem and Ramdas Pophale) SiO2 
 PCOD9098793
Probable space group: P -1
;
_chemical_formula_sum "Si O2"
_cell_formula_units_Z 16
_cell_length_a 18.122598
_cell_length_b 5.272135
_cell_length_c 9.073980
_cell_angle_alpha 103.482362
_cell_angle_beta 130.988208
_cell_angle_gamma 83.211540
_cell_volume 635.681610
_symmetry_space_group_name_H-M "P -1"
_symmetry_group_IT_number 2
_symmetry_cell_setting 'triclinic'
loop_
_space_group_symop_operation_xyz
x,y,z
-x,-y,-z
loop_
_atom_site_type_symbol
_atom_site_label
_atom_site_fract_x
_atom_site_fract_y
_atom_site_fract_z
Si Si1 0.571495 0.859935 0.764570
Si Si2 0.228176 0.876477 0.830988
Si Si3 0.981027 0.121652 0.333364
Si Si4 0.067100 0.738638 0.169670
Si Si5 0.813803 0.685945 0.412290
Si Si6 0.727661 0.429082 0.615952
Si Si7 0.787752 0.944522 0.735340
Si Si8 0.528544 0.645929 0.346665
O O1 0.548456 0.754470 0.554359
O O2 0.553197 0.591020 0.794933
O O3 0.498653 0.093262 0.738305
O O4 0.676309 0.005218 0.945438
O O5 0.133736 0.829154 0.808202
O O6 0.238913 0.590130 0.735365
O O7 0.207183 0.094559 0.708614
O O8 0.066927 0.342921 0.440424
O O9 0.000000 0.000000 0.500000
O O10 0.013027 0.892578 0.239809
O O11 0.174012 0.651378 0.350271
O O12 0.104814 0.918612 0.106933
O O13 0.000000 0.500000 0.000000
O O14 0.783983 0.811130 0.547475
O O15 0.765907 0.700766 0.778114
O O16 0.627985 0.502106 0.419577
O O17 0.714074 0.179639 0.671746
#
# Coordination Sequence:
#
# PCOD9098793 Si02
#       8
#     2   2   2   2   2   2   2   2
#     4  10  22  38  61  89 114 152 196 259 293 357
#     4  11  21  35  61  87 117 153 199 250 289 352
#     4   9  20  37  58  91 120 167 197 238 298 366
#     4   9  21  37  57  92 124 152 201 253 290 359
#     4  10  20  37  57  85 122 154 195 239 293 350
#     4  10  20  37  62  82 112 162 188 239 297 371
#     4   9  20  35  59  82 115 160 189 229 300 352
#     4  10  21  40  62  83 119 151 199 243 317 354
#
# _framework density 25.169830999999999
#
# number of rings (size 3 to 8) (size 9 to 14) (size 15 to 20)
#    0.750    1.500    0.000    2.625    3.500    0.500 
#    2.250    2.500    0.000   15.000    0.000    0.000 
#    0.000    0.000    0.000    0.000    0.000    0.000 
#
# Total GULP energy -89280.107650 kJ/mol
# GULP energy per Si atom -5580.006728 kJ/mol
# Density = 2.511254 g / cm^3
# Si number density = 25.169831 Si / 1000 Ang^3
#
#
#
# Elastic Constant Matrix: (Units=GPa)
#
#
# Indices 1 2 3 4 5 6 
#
# 1 62.7018 37.0578 35.5386 5.0648 8.5403 -9.5814
# 2 37.0578 188.6242 57.4846 26.5974 7.5521 3.7992
# 3 35.5386 57.4846 115.0872 30.8293 31.4654 -5.0549
# 4 5.0648 26.5974 30.8293 50.6589 10.2618 15.0202
# 5 8.5403 7.5521 31.4654 10.2618 40.9592 3.1594
# 6 -9.5814 3.7992 -5.0549 15.0202 3.1594 34.8921
#
#
#
# Elastic Compliance Matrix: (Units=1/GPa)
#
#
# Indices 1 2 3 4 5 6 
#
# 1 0.021263 -0.002879 -0.005001 0.001085 -0.000720 0.005026
# 2 -0.002879 0.006870 -0.002682 -0.001666 0.001917 -0.001384
# 3 -0.005001 -0.002682 0.016564 -0.007873 -0.009646 0.005581
# 4 0.001085 -0.001666 -0.007873 0.029260 -0.000180 -0.013241
# 5 -0.000720 0.001917 -0.009646 -0.000180 0.032023 -0.004626
# 6 0.005026 -0.001384 0.005581 -0.013241 -0.004626 0.037118
#
#
# Mechanical properties :
#
#
# Convention : Reuss Voigt Hill
#
# Bulk Modulus (GPa) = 42.41783 69.61947 56.01865
# Shear Modulus (GPa) = 29.05657 41.05752 35.05704
#
# Velocity S-wave (km/s) = 3.40136 4.04322 3.73610
# Velocity P-wave (km/s) = 5.68462 7.03681 6.39655
#
# Compressibility (1/GPa) = 0.02357499
#
# Stress axis : x y z
#
# Youngs Moduli (GPa) = 47.03051 145.55470 60.37146
#
# Poissons Ratio (x) = 0.41900 0.30191
# Poissons Ratio (y) = 0.13538 0.16189
# Poissons Ratio (z) = 0.23519 0.39031
#
# Static dielectric constant tensor:
#      x y z
#    x 2.133830 0.064540 -0.019480 
#    y 0.064540 2.115630 -0.030500 
#    z -0.019480 -0.030500 2.103290 
# 
# From -- ./inp_files/468481.got.cif
#   From: 2010.05.17/outbox.cif.g08.bks.cpg/sg2_235_cif.got.tgz:468481.got - 2010.06.03 11:33:40.
