data_PCOD9098340
_publ_section_title
;
Structure prediction by ZEFSAII (Michael W. Deem and Ramdas Pophale) SiO2 
 PCOD9098340
Probable space group: P -1
;
_chemical_formula_sum "Si O2"
_cell_formula_units_Z 16
_cell_length_a 13.311908
_cell_length_b 12.432136
_cell_length_c 21.826139
_cell_angle_alpha 29.486417
_cell_angle_beta 22.260204
_cell_angle_gamma 31.672376
_cell_volume 653.182490
_symmetry_space_group_name_H-M "P -1"
_symmetry_group_IT_number 2
_symmetry_cell_setting 'triclinic'
loop_
_space_group_symop_operation_xyz
x,y,z
-x,-y,-z
loop_
_atom_site_type_symbol
_atom_site_label
_atom_site_fract_x
_atom_site_fract_y
_atom_site_fract_z
Si Si1 0.448949 0.586328 0.861880
Si Si2 0.294068 0.193554 0.486024
Si Si3 0.061575 0.487136 0.308991
Si Si4 0.755466 0.315838 0.669909
Si Si5 0.892954 0.706005 0.177690
Si Si6 0.953576 0.221455 0.328550
Si Si7 0.805830 0.656972 0.982661
Si Si8 0.615803 0.933067 0.736541
O O1 0.570730 0.781567 0.667888
O O2 0.727547 0.421960 0.812104
O O3 0.309026 0.477791 0.940138
O O4 0.207851 0.689220 0.992916
O O5 0.282800 0.426110 0.412622
O O6 0.988072 0.179208 0.652104
O O7 0.500000 0.000000 0.500000
O O8 0.278141 0.310519 0.232884
O O9 0.879916 0.345135 0.518420
O O10 0.876955 0.664766 0.279765
O O11 0.474301 0.241412 0.872017
O O12 0.843660 0.482876 0.282058
O O13 0.696978 0.933813 0.151131
O O14 0.019191 0.212297 0.223666
O O15 0.238195 0.110060 0.258442
O O16 0.747514 0.093105 0.539237
O O17 0.000000 0.500000 0.000000
#
# Coordination Sequence:
#
# PCOD9098340 Si02
#       8
#     2   2   2   2   2   2   2   2
#     4   9  20  39  56  89 122 146 204 249 294 359
#     4   9  18  36  62  82 115 157 194 243 299 358
#     4  10  21  37  59  91 125 154 193 250 301 365
#     4   9  20  37  56  87 118 153 198 242 298 353
#     4  10  20  36  65  86 114 164 195 246 306 351
#     4   9  21  41  59  86 125 153 202 257 287 351
#     4  10  21  40  64  86 118 165 206 247 298 360
#     4  10  21  38  61  92 119 158 202 243 301 362
#
# _framework density 24.495452
#
# number of rings (size 3 to 8) (size 9 to 14) (size 15 to 20)
#    0.000    2.500    0.000    1.500    1.750    3.500 
#    9.000    3.125    0.000    0.000    0.000    0.000 
#    0.000    0.000    0.000    0.000    0.000    0.000 
#
# Total GULP energy -89339.189321 kJ/mol
# GULP energy per Si atom -5583.699333 kJ/mol
# Density = 2.443970 g / cm^3
# Si number density = 24.495452 Si / 1000 Ang^3
#
#
#
# Elastic Constant Matrix: (Units=GPa)
#
#
# Indices 1 2 3 4 5 6 
#
# 1 81.7246 43.1897 5.7898 -3.0459 14.8853 -13.5489
# 2 43.1897 107.4146 15.1309 5.7341 -0.4845 -25.4293
# 3 5.7898 15.1309 71.9080 16.2138 19.8229 -2.3762
# 4 -3.0459 5.7341 16.2138 24.3345 3.7871 -4.3315
# 5 14.8853 -0.4845 19.8229 3.7871 35.6064 -5.7721
# 6 -13.5489 -25.4293 -2.3762 -4.3315 -5.7721 38.8511
#
#
#
# Elastic Compliance Matrix: (Units=1/GPa)
#
#
# Indices 1 2 3 4 5 6 
#
# 1 0.018039 -0.007626 0.001628 0.004462 -0.008934 0.000569
# 2 -0.007626 0.014845 -0.003795 -0.001636 0.006921 0.007671
# 3 0.001628 -0.003795 0.020093 -0.011172 -0.011316 -0.003614
# 4 0.004462 -0.001636 -0.011172 0.050469 -0.000160 0.005405
# 5 -0.008934 0.006921 -0.011316 -0.000160 0.039291 0.006542
# 6 0.000569 0.007671 -0.003614 0.005405 0.006542 0.032312
#
#
# Mechanical properties :
#
#
# Convention : Reuss Voigt Hill
#
# Bulk Modulus (GPa) = 29.94901 43.25199 36.60050
# Shear Modulus (GPa) = 24.29931 32.88750 28.59340
#
# Velocity S-wave (km/s) = 3.15301 3.66812 3.42028
# Velocity P-wave (km/s) = 5.05056 5.96956 5.52919
#
# Compressibility (1/GPa) = 0.03339009
#
# Stress axis : x y z
#
# Youngs Moduli (GPa) = 55.43538 67.36169 49.76764
#
# Poissons Ratio (x) = 0.51372 -0.08101
# Poissons Ratio (y) = 0.42276 0.18888
# Poissons Ratio (z) = -0.09023 0.25565
#
# Static dielectric constant tensor:
#      x y z
#    x 2.037530 0.057180 0.032620 
#    y 0.057180 1.920800 -0.040360 
#    z 0.032620 -0.040360 2.016530 
# 
# From -- ./inp_files/531137.got.cif
#   From: 2010.05.17/outbox.cif.g08.bks.cpg/sg2_266_cif.got.tgz:531137.got - 2010.06.03 11:33:40.
