data_PCOD9098375
_publ_section_title
;
Structure prediction by ZEFSAII (Michael W. Deem and Ramdas Pophale) SiO2 
 PCOD9098375
Probable space group: P -1
;
_chemical_formula_sum "Si O2"
_cell_formula_units_Z 16
_cell_length_a 8.824375
_cell_length_b 14.394061
_cell_length_c 8.128105
_cell_angle_alpha 85.674356
_cell_angle_beta 98.347568
_cell_angle_gamma 138.574848
_cell_volume 674.972898
_symmetry_space_group_name_H-M "P -1"
_symmetry_group_IT_number 2
_symmetry_cell_setting 'triclinic'
loop_
_space_group_symop_operation_xyz
x,y,z
-x,-y,-z
loop_
_atom_site_type_symbol
_atom_site_label
_atom_site_fract_x
_atom_site_fract_y
_atom_site_fract_z
Si Si1 0.349149 0.508049 0.743962
Si Si2 0.142758 0.247842 0.570509
Si Si3 0.456284 0.225342 0.170868
Si Si4 0.991051 0.114512 0.199502
Si Si5 0.765111 0.411391 0.882618
Si Si6 0.596110 0.822928 0.328360
Si Si7 0.175651 0.366619 0.073956
Si Si8 0.639313 0.979853 0.612892
O O1 0.264538 0.402059 0.600831
O O2 0.391393 0.636541 0.704038
O O3 0.595035 0.586304 0.847247
O O4 0.185507 0.411978 0.886465
O O5 0.074229 0.192302 0.380092
O O6 0.310431 0.240034 0.650354
O O7 0.904353 0.132343 0.650845
O O8 0.189105 0.135546 0.159757
O O9 0.469431 0.122229 0.232907
O O10 0.563050 0.303692 0.001672
O O11 0.973855 0.200283 0.079703
O O12 0.753908 0.953291 0.210247
O O13 0.674098 0.304323 0.738826
O O14 0.804453 0.535448 0.818412
O O15 0.000000 0.500000 0.000000
O O16 0.644667 0.895576 0.497410
O O17 0.500000 0.000000 0.500000
#
# Coordination Sequence:
#
# PCOD9098375 Si02
#       8
#     2   2   2   2   2   2   2   2
#     4   9  19  34  60  88 122 156 202 259 299 352
#     4  11  20  38  64  97 123 161 209 257 305 364
#     4  10  21  41  62  92 125 159 210 253 308 372
#     4  10  20  36  65  93 121 154 211 259 301 359
#     4  11  25  41  61  87 130 166 203 255 314 370
#     4  11  22  42  64  92 125 164 210 258 304 362
#     4   9  19  36  55  89 123 156 203 250 305 357
#     4  11  24  42  63  93 130 164 201 256 317 374
#
# _framework density 23.704653
#
# number of rings (size 3 to 8) (size 9 to 14) (size 15 to 20)
#    0.000    1.750    3.750    1.500    0.000    8.500 
#    0.000    2.500    0.000    0.000    0.000    0.000 
#    0.000    0.000    0.000    0.000    0.000    0.000 
#
# Total GULP energy -89305.151393 kJ/mol
# GULP energy per Si atom -5581.571962 kJ/mol
# Density = 2.365070 g / cm^3
# Si number density = 23.704653 Si / 1000 Ang^3
#
#
#
# Elastic Constant Matrix: (Units=GPa)
#
#
# Indices 1 2 3 4 5 6 
#
# 1 29.7997 16.5141 6.8446 -0.7094 9.5103 -12.0973
# 2 16.5141 100.0081 28.4964 0.3998 7.4027 -15.7474
# 3 6.8446 28.4964 36.6841 2.4334 4.0930 -1.7676
# 4 -0.7094 0.3998 2.4334 48.2208 -9.8022 8.5141
# 5 9.5103 7.4027 4.0930 -9.8022 23.6874 -3.6842
# 6 -12.0973 -15.7474 -1.7676 8.5141 -3.6842 27.1523
#
#
#
# Elastic Compliance Matrix: (Units=1/GPa)
#
#
# Indices 1 2 3 4 5 6 
#
# 1 0.049477 -0.002610 -0.003847 -0.006183 -0.017864 0.019794
# 2 -0.002610 0.014505 -0.010262 -0.001058 -0.001098 0.006764
# 3 -0.003847 -0.010262 0.036117 -0.001458 -0.002910 -0.005252
# 4 -0.006183 -0.001058 -0.001458 0.024840 0.011844 -0.009645
# 5 -0.017864 -0.001098 -0.002910 0.011844 0.054339 -0.005126
# 6 0.019794 0.006764 -0.005252 -0.009645 -0.005126 0.051558
#
#
# Mechanical properties :
#
#
# Convention : Reuss Voigt Hill
#
# Bulk Modulus (GPa) = 15.00118 30.02245 22.51181
# Shear Modulus (GPa) = 17.45238 27.45455 22.45346
#
# Velocity S-wave (km/s) = 2.71632 3.40691 3.08103
# Velocity P-wave (km/s) = 4.02244 5.30743 4.70897
#
# Compressibility (1/GPa) = 0.06666143
#
# Stress axis : x y z
#
# Youngs Moduli (GPa) = 20.21144 68.94287 27.68761
#
# Poissons Ratio (x) = 0.17994 0.10652
# Poissons Ratio (y) = 0.05275 0.28412
# Poissons Ratio (z) = 0.07775 0.70748
#
# Static dielectric constant tensor:
#      x y z
#    x 1.997520 -0.026200 -0.032230 
#    y -0.026200 1.931720 -0.057540 
#    z -0.032230 -0.057540 2.001540 
# 
# From -- ./inp_files/207085.got.cif
#   From: 2010.05.17/outbox.cif.g08.bks.cpg/sg2_104_cif.got.tgz:207085.got - 2010.06.03 11:33:40.
