data_PCOD9098448
_publ_section_title
;
Structure prediction by ZEFSAII (Michael W. Deem and Ramdas Pophale) SiO2 
 PCOD9098448
Probable space group: P -1
;
_chemical_formula_sum "Si O2"
_cell_formula_units_Z 16
_cell_length_a 8.243600
_cell_length_b 14.853716
_cell_length_c 12.560666
_cell_angle_alpha 32.788620
_cell_angle_beta 62.815313
_cell_angle_gamma 78.655841
_cell_volume 682.560922
_symmetry_space_group_name_H-M "P -1"
_symmetry_group_IT_number 2
_symmetry_cell_setting 'triclinic'
loop_
_space_group_symop_operation_xyz
x,y,z
-x,-y,-z
loop_
_atom_site_type_symbol
_atom_site_label
_atom_site_fract_x
_atom_site_fract_y
_atom_site_fract_z
Si Si1 0.650605 0.804709 0.449092
Si Si2 0.369137 0.018383 0.922801
Si Si3 0.436375 0.697986 0.101674
Si Si4 0.155227 0.771892 0.964565
Si Si5 0.169200 0.016858 0.347668
Si Si6 0.953040 0.189195 0.633632
Si Si7 0.651404 0.164954 0.361012
Si Si8 0.844772 0.491326 0.460930
O O1 0.587070 0.815923 0.335244
O O2 0.468420 0.722615 0.666785
O O3 0.815679 0.724779 0.494536
O O4 0.764551 0.015342 0.243156
O O5 0.500000 0.000000 0.000000
O O6 0.385735 0.860992 0.003133
O O7 0.152488 0.958807 0.096727
O O8 0.355790 0.555845 0.364203
O O9 0.303533 0.677519 0.056186
O O10 0.669903 0.781292 0.925720
O O11 0.162779 0.749399 0.857631
O O12 0.945255 0.672222 0.183619
O O13 0.087522 0.909183 0.370134
O O14 0.293569 0.920288 0.467422
O O15 0.000000 0.000000 0.500000
O O16 0.853204 0.334489 0.535731
O O17 0.500000 0.000000 0.500000
O O18 0.000000 0.500000 0.500000
#
# Coordination Sequence:
#
# PCOD9098448 Si02
#       8
#     2   2   2   2   2   2   2   2
#     4  10  19  32  55  88 115 140 193 250 287 333
#     4  10  16  31  51  79 113 141 181 241 289 330
#     4   9  17  32  54  81 109 147 192 230 290 334
#     4   9  17  34  58  81 111 157 191 231 291 352
#     4  12  21  33  57  90 120 147 192 249 289 341
#     4  11  22  33  56  92 114 146 198 240 291 343
#     4  10  17  33  55  80 114 152 191 236 288 339
#     4   9  20  37  59  82 115 157 194 234 291 357
#
# _framework density 23.441132
#
# number of rings (size 3 to 8) (size 9 to 14) (size 15 to 20)
#    0.000    2.000    5.000    2.625    0.000    0.000 
#    0.000    1.250    0.000    3.000    9.750    2.625 
#    0.000    0.000    0.000    0.000    0.000    0.000 
#
# Total GULP energy -89158.069400 kJ/mol
# GULP energy per Si atom -5572.379337 kJ/mol
# Density = 2.338778 g / cm^3
# Si number density = 23.441132 Si / 1000 Ang^3
#
#
#
# Elastic Constant Matrix: (Units=GPa)
#
#
# Indices 1 2 3 4 5 6 
#
# 1 69.2138 17.1348 8.0236 11.2642 0.6783 5.1527
# 2 17.1348 80.3599 39.4042 20.6650 3.4519 -1.9218
# 3 8.0236 39.4042 125.1388 32.3205 -13.8382 -8.1265
# 4 11.2642 20.6650 32.3205 42.2592 -5.3119 1.7149
# 5 0.6783 3.4519 -13.8382 -5.3119 29.3344 17.3051
# 6 5.1527 -1.9218 -8.1265 1.7149 17.3051 29.7853
#
#
#
# Elastic Compliance Matrix: (Units=1/GPa)
#
#
# Indices 1 2 3 4 5 6 
#
# 1 0.015873 -0.003186 0.000686 -0.002782 0.002075 -0.003810
# 2 -0.003186 0.017150 -0.004329 -0.005496 -0.008291 0.005610
# 3 0.000686 -0.004329 0.011461 -0.006290 0.004470 0.000494
# 4 -0.002782 -0.005496 -0.006290 0.033377 0.008914 -0.008690
# 5 0.002075 -0.008291 0.004470 0.008914 0.059110 -0.034530
# 6 -0.003810 0.005610 0.000494 -0.008690 -0.034530 0.055292
#
#
# Mechanical properties :
#
#
# Convention : Reuss Voigt Hill
#
# Bulk Modulus (GPa) = 32.43914 44.87086 38.65500
# Shear Modulus (GPa) = 23.12722 34.28578 28.70650
#
# Velocity S-wave (km/s) = 3.14444 3.82859 3.50326
# Velocity P-wave (km/s) = 5.20115 6.22315 5.73496
#
# Compressibility (1/GPa) = 0.03082695
#
# Stress axis : x y z
#
# Youngs Moduli (GPa) = 62.99909 58.31021 87.25131
#
# Poissons Ratio (x) = 0.18576 -0.05986
# Poissons Ratio (y) = 0.20070 0.37770
# Poissons Ratio (z) = -0.04322 0.25242
#
# Static dielectric constant tensor:
#      x y z
#    x 1.991850 -0.037680 -0.082940 
#    y -0.037680 1.908530 -0.052450 
#    z -0.082940 -0.052450 1.976010 
# 
# From -- ./inp_files/398384.got.cif
#   From: 2010.05.17/outbox.cif.g08.bks.cpg/sg2_200_cif.got.tgz:398384.got - 2010.06.03 11:33:40.
