data_PCOD9098951
_publ_section_title
;
Structure prediction by ZEFSAII (Michael W. Deem and Ramdas Pophale) SiO2 
 PCOD9098951
Probable space group: P -1
;
_chemical_formula_sum "Si O2"
_cell_formula_units_Z 16
_cell_length_a 16.051399
_cell_length_b 14.744868
_cell_length_c 12.155657
_cell_angle_alpha 117.858629
_cell_angle_beta 154.059158
_cell_angle_gamma 43.614012
_cell_volume 688.554772
_symmetry_space_group_name_H-M "P -1"
_symmetry_group_IT_number 2
_symmetry_cell_setting 'triclinic'
loop_
_space_group_symop_operation_xyz
x,y,z
-x,-y,-z
loop_
_atom_site_type_symbol
_atom_site_label
_atom_site_fract_x
_atom_site_fract_y
_atom_site_fract_z
Si Si1 0.362203 0.465510 0.534884
Si Si2 0.567981 0.223168 0.457083
Si Si3 0.511369 0.362424 0.246258
Si Si4 0.873702 0.284469 0.222805
Si Si5 0.759817 0.005638 0.843122
Si Si6 0.836507 0.616743 0.601347
Si Si7 0.451328 0.361130 0.928900
Si Si8 0.471660 0.982822 0.644494
O O1 0.416778 0.375127 0.439740
O O2 0.302960 0.609532 0.520110
O O3 0.124296 0.505482 0.353300
O O4 0.664220 0.340006 0.901219
O O5 0.579316 0.257569 0.365961
O O6 0.421598 0.174160 0.277510
O O7 0.927089 0.064097 0.827167
O O8 0.521358 0.305653 0.106254
O O9 0.151110 0.544801 0.939440
O O10 0.750361 0.449199 0.200384
O O11 0.230994 0.128233 0.529398
O O12 0.763046 0.256667 0.173701
O O13 0.454903 0.203930 0.590738
O O14 0.729759 0.950542 0.887225
O O15 0.729200 0.949225 0.666975
O O16 0.738520 0.635911 0.370745
#
# Coordination Sequence:
#
# PCOD9098951 Si02
#       8
#     2   2   2   2   2   2   2   2
#     4  10  20  37  58  87 122 156 196 244 305 350
#     4  12  23  39  59  89 131 162 188 246 310 365
#     4  11  25  38  59  91 126 160 202 243 301 359
#     4   9  17  36  64  89 115 152 207 257 288 342
#     4  11  23  38  65  91 120 156 205 247 298 363
#     4  11  22  40  66  90 115 160 208 255 289 352
#     4   9  19  37  63  87 116 160 208 250 290 344
#     4  11  22  38  61  90 123 157 203 245 298 363
#
# _framework density 23.237078
#
# number of rings (size 3 to 8) (size 9 to 14) (size 15 to 20)
#    0.000    1.500    2.500    4.875    1.750    1.500 
#    0.000    2.500    0.000    2.250    0.000    0.000 
#    0.000    0.000    0.000    0.000    0.000    0.000 
#
# Total GULP energy -89478.308795 kJ/mol
# GULP energy per Si atom -5592.394300 kJ/mol
# Density = 2.318419 g / cm^3
# Si number density = 23.237078 Si / 1000 Ang^3
#
#
#
# Elastic Constant Matrix: (Units=GPa)
#
#
# Indices 1 2 3 4 5 6 
#
# 1 146.9901 16.3939 15.9106 0.4501 -10.1193 19.8219
# 2 16.3939 52.4368 2.6810 4.9882 0.4747 2.7158
# 3 15.9106 2.6810 39.9750 0.9613 10.4243 3.4393
# 4 0.4501 4.9882 0.9613 14.8657 8.2814 9.0605
# 5 -10.1193 0.4747 10.4243 8.2814 36.7832 4.3738
# 6 19.8219 2.7158 3.4393 9.0605 4.3738 47.7131
#
#
#
# Elastic Compliance Matrix: (Units=1/GPa)
#
#
# Indices 1 2 3 4 5 6 
#
# 1 0.008179 -0.002304 -0.003748 0.000921 0.003550 -0.003497
# 2 -0.002304 0.020517 -0.000621 -0.008082 0.000945 0.001282
# 3 -0.003748 -0.000621 0.029143 0.004376 -0.010220 -0.000402
# 4 0.000921 -0.008082 0.004376 0.089876 -0.019269 -0.015539
# 5 0.003550 0.000945 -0.010220 -0.019269 0.035431 -0.000381
# 6 -0.003497 0.001282 -0.000402 -0.015539 -0.000381 0.025353
#
#
# Mechanical properties :
#
#
# Convention : Reuss Voigt Hill
#
# Bulk Modulus (GPa) = 22.47573 34.37478 28.42526
# Shear Modulus (GPa) = 21.12595 33.50016 27.31306
#
# Velocity S-wave (km/s) = 3.01848 3.80105 3.43214
# Velocity P-wave (km/s) = 4.67351 5.83859 5.28823
#
# Compressibility (1/GPa) = 0.04449243
#
# Stress axis : x y z
#
# Youngs Moduli (GPa) = 122.26393 48.74105 34.31311
#
# Poissons Ratio (x) = 0.11231 0.12860
# Poissons Ratio (y) = 0.28172 0.02131
# Poissons Ratio (z) = 0.45824 0.03028
#
# Static dielectric constant tensor:
#      x y z
#    x 1.909070 0.034400 0.007360 
#    y 0.034400 1.902560 -0.006120 
#    z 0.007360 -0.006120 1.874650 
# 
# From -- ./inp_files/455760.got.cif
#   From: 2010.05.17/outbox.cif.g08.bks.cpg/sg2_228_cif.got.tgz:455760.got - 2010.06.03 11:33:40.
