data_PCOD9098289
_publ_section_title
;
Structure prediction by ZEFSAII (Michael W. Deem and Ramdas Pophale) SiO2 
 PCOD9098289
Probable space group: P -1
;
_chemical_formula_sum "Si O2"
_cell_formula_units_Z 16
_cell_length_a 14.574031
_cell_length_b 8.567177
_cell_length_c 12.089697
_cell_angle_alpha 78.247954
_cell_angle_beta 147.605243
_cell_angle_gamma 86.931813
_cell_volume 714.853015
_symmetry_space_group_name_H-M "P -1"
_symmetry_group_IT_number 2
_symmetry_cell_setting 'triclinic'
loop_
_space_group_symop_operation_xyz
x,y,z
-x,-y,-z
loop_
_atom_site_type_symbol
_atom_site_label
_atom_site_fract_x
_atom_site_fract_y
_atom_site_fract_z
Si Si1 0.227861 0.551895 0.313407
Si Si2 0.190521 0.408851 0.070121
Si Si3 0.786758 0.080600 0.809894
Si Si4 0.450124 0.898627 0.630424
Si Si5 0.706670 0.010644 0.985095
Si Si6 0.369835 0.594129 0.679022
Si Si7 0.776395 0.325800 0.109134
Si Si8 0.979029 0.322163 0.526463
O O1 0.264654 0.420526 0.267130
O O2 0.274098 0.710396 0.292324
O O3 0.341534 0.502871 0.550620
O O4 0.007902 0.605192 0.115182
O O5 0.348857 0.249759 0.187397
O O6 0.166879 0.582772 0.950094
O O7 0.671687 0.018354 0.614729
O O8 0.775607 0.025451 0.930050
O O9 0.000000 0.000000 0.000000
O O10 0.348775 0.789083 0.599736
O O11 0.499690 0.017676 0.749301
O O12 0.842065 0.828300 0.208612
O O13 0.722157 0.169667 0.042077
O O14 0.205221 0.621811 0.592028
O O15 0.587150 0.477963 0.949432
O O16 0.938753 0.258923 0.376063
O O17 0.000000 0.500000 0.500000
#
# Coordination Sequence:
#
# PCOD9098289 Si02
#       8
#     2   2   2   2   2   2   2   2
#     4  10  20  36  64  95 129 167 213 259 314 389
#     4  10  20  39  64  96 128 171 215 254 317 390
#     4  11  22  38  61  95 134 173 206 266 326 383
#     4  10  22  39  66  91 132 169 211 251 331 391
#     4  12  24  42  62  98 130 169 217 269 324 376
#     4  10  22  42  67  92 123 167 220 261 321 388
#     4  11  24  41  66  98 131 169 218 274 318 365
#     4  12  25  47  71  88 126 174 223 264 324 388
#
# _framework density 22.382223
#
# number of rings (size 3 to 8) (size 9 to 14) (size 15 to 20)
#    0.000    1.250    1.250    6.375    1.750    1.500 
#    2.250    3.750    0.000    0.000    0.000    0.000 
#    0.000    0.000    0.000    0.000    0.000    0.000 
#
# Total GULP energy -89495.317222 kJ/mol
# GULP energy per Si atom -5593.457326 kJ/mol
# Density = 2.233128 g / cm^3
# Si number density = 22.382223 Si / 1000 Ang^3
#
#
#
# Elastic Constant Matrix: (Units=GPa)
#
#
# Indices 1 2 3 4 5 6 
#
# 1 84.3172 24.5384 4.9120 8.8061 -0.6657 22.4261
# 2 24.5384 99.8607 30.3185 26.0456 -16.7134 20.6333
# 3 4.9120 30.3185 107.4333 25.6058 -23.7023 1.2086
# 4 8.8061 26.0456 25.6058 41.1445 -1.8842 -2.6890
# 5 -0.6657 -16.7134 -23.7023 -1.8842 36.6858 9.5332
# 6 22.4261 20.6333 1.2086 -2.6890 9.5332 27.5200
#
#
#
# Elastic Compliance Matrix: (Units=1/GPa)
#
#
# Indices 1 2 3 4 5 6 
#
# 1 0.016864 0.002096 0.002109 -0.007138 0.007079 -0.018557
# 2 0.002096 0.020794 0.001530 -0.015426 0.016058 -0.024436
# 3 0.002109 0.001530 0.013745 -0.010004 0.011272 -0.008352
# 4 -0.007138 -0.015426 -0.010004 0.042825 -0.018835 0.028531
# 5 0.007079 0.016058 0.011272 -0.018835 0.050828 -0.037751
# 6 -0.018557 -0.024436 -0.008352 0.028531 -0.037751 0.086012
#
#
# Mechanical properties :
#
#
# Convention : Reuss Voigt Hill
#
# Bulk Modulus (GPa) = 15.90466 45.68323 30.79394
# Shear Modulus (GPa) = 20.78520 36.52622 28.65571
#
# Velocity S-wave (km/s) = 3.05068 4.04410 3.58199
# Velocity P-wave (km/s) = 4.41930 6.50085 5.55839
#
# Compressibility (1/GPa) = 0.06287467
#
# Stress axis : x y z
#
# Youngs Moduli (GPa) = 59.29810 48.09042 72.75321
#
# Poissons Ratio (x) = -0.10082 -0.15345
# Poissons Ratio (y) = -0.12432 -0.11132
# Poissons Ratio (z) = -0.12507 -0.07358
#
# Static dielectric constant tensor:
#      x y z
#    x 1.793000 0.016030 -0.012300 
#    y 0.016030 1.909590 0.025090 
#    z -0.012300 0.025090 1.858270 
# 
# From -- ./inp_files/400003.got.cif
#   From: 2010.05.17/outbox.cif.g08.bks.cpg/sg2_201_cif.got.tgz:400003.got - 2010.06.03 11:33:40.
