data_PCOD9098840
_publ_section_title
;
Structure prediction by ZEFSAII (Michael W. Deem and Ramdas Pophale) SiO2 
 PCOD9098840
Probable space group: P -1
;
_chemical_formula_sum "Si O2"
_cell_formula_units_Z 16
_cell_length_a 8.785398
_cell_length_b 12.923818
_cell_length_c 11.027030
_cell_angle_alpha 143.998560
_cell_angle_beta 103.846124
_cell_angle_gamma 97.169115
_cell_volume 593.020161
_symmetry_space_group_name_H-M "P -1"
_symmetry_group_IT_number 2
_symmetry_cell_setting 'triclinic'
loop_
_space_group_symop_operation_xyz
x,y,z
-x,-y,-z
loop_
_atom_site_type_symbol
_atom_site_label
_atom_site_fract_x
_atom_site_fract_y
_atom_site_fract_z
Si Si1 0.512842 0.329535 0.158861
Si Si2 0.971983 0.187778 0.135256
Si Si3 0.821516 0.328564 0.670884
Si Si4 0.785050 0.945778 0.656821
Si Si5 0.380379 0.254925 0.787929
Si Si6 0.372192 0.606722 0.503609
Si Si7 0.905096 0.621666 0.426009
Si Si8 0.031724 0.233653 0.780119
O O1 0.468672 0.508397 0.351665
O O2 0.499116 0.255327 0.226329
O O3 0.726609 0.414203 0.248849
O O4 0.421979 0.236379 0.920051
O O5 0.168704 0.394331 0.311710
O O6 0.943136 0.266565 0.332081
O O7 0.796970 0.065900 0.894631
O O8 0.000000 0.000000 0.000000
O O9 0.666718 0.264363 0.478736
O O10 0.011225 0.417648 0.711647
O O11 0.842942 0.178476 0.622158
O O12 0.843877 0.515163 0.932432
O O13 0.618558 0.861714 0.446608
O O14 0.823007 0.764584 0.519425
O O15 0.976436 0.131005 0.803282
O O16 0.164381 0.187306 0.688815
O O17 0.500000 0.500000 0.000000
#
# Coordination Sequence:
#
# PCOD9098840 Si02
#       8
#     2   2   2   2   2   2   2   2
#     4  10  20  37  57  93 117 163 201 240 300 375
#     4   9  19  35  56  92 119 146 205 261 290 340
#     4  11  21  38  60  97 122 157 199 262 312 343
#     4  11  20  38  60  95 117 163 206 258 295 355
#     4  12  21  36  62  92 122 158 205 251 299 368
#     4  10  20  37  63  86 121 162 198 253 302 363
#     4  10  21  36  64  94 120 154 208 257 296 362
#     4  11  23  37  62  94 127 155 206 256 305 366
#
# _framework density 26.980533000000001
#
# number of rings (size 3 to 8) (size 9 to 14) (size 15 to 20)
#    0.000    1.500    5.000    0.375    0.000    2.000 
#    0.000    0.000    0.000   12.750    0.000    0.000 
#    0.000    0.000    0.000    0.000    0.000    0.000 
#
# Total GULP energy -89253.238993 kJ/mol
# GULP energy per Si atom -5578.327437 kJ/mol
# Density = 2.691912 g / cm^3
# Si number density = 26.980533 Si / 1000 Ang^3
#
#
#
# Elastic Constant Matrix: (Units=GPa)
#
#
# Indices 1 2 3 4 5 6 
#
# 1 36.5432 22.5561 10.8965 -1.4161 -8.8659 -0.7791
# 2 22.5561 124.5857 48.6328 -33.6700 0.8083 -19.3860
# 3 10.8965 48.6328 185.8203 -73.3206 -4.2875 0.1154
# 4 -1.4161 -33.6700 -73.3206 68.8849 1.2198 1.9701
# 5 -8.8659 0.8083 -4.2875 1.2198 35.3156 -3.3260
# 6 -0.7791 -19.3860 0.1154 1.9701 -3.3260 43.5904
#
#
#
# Elastic Compliance Matrix: (Units=1/GPa)
#
#
# Indices 1 2 3 4 5 6 
#
# 1 0.034130 -0.007075 -0.001863 -0.004843 0.008515 -0.001663
# 2 -0.007075 0.011611 -0.000910 0.004460 -0.001864 0.004696
# 3 -0.001863 -0.000910 0.009575 0.009728 0.000297 -0.000880
# 4 -0.004843 0.004460 0.009728 0.026953 -0.001014 0.000576
# 5 0.008515 -0.001864 0.000297 -0.001014 0.030729 0.001713
# 6 -0.001663 0.004696 -0.000880 0.000576 0.001713 0.025107
#
#
# Mechanical properties :
#
#
# Convention : Reuss Voigt Hill
#
# Bulk Modulus (GPa) = 28.07424 56.79110 42.43267
# Shear Modulus (GPa) = 29.46839 47.21578 38.34208
#
# Velocity S-wave (km/s) = 3.30844 4.18783 3.77384
# Velocity P-wave (km/s) = 5.00224 6.66922 5.89495
#
# Compressibility (1/GPa) = 0.03561985
#
# Stress axis : x y z
#
# Youngs Moduli (GPa) = 29.29981 86.12689 104.43908
#
# Poissons Ratio (x) = 0.60932 0.19458
# Poissons Ratio (y) = 0.20729 0.09505
# Poissons Ratio (z) = 0.05459 0.07839
#
# Static dielectric constant tensor:
#      x y z
#    x 2.013520 -0.067850 0.033280 
#    y -0.067850 2.181920 0.015060 
#    z 0.033280 0.015060 2.206870 
# 
# From -- ./inp_files/399838.got.cif
#   From: 2010.05.17/outbox.cif.g08.bks.cpg/sg2_200_cif.got.tgz:399838.got - 2010.06.03 11:33:40.
