data_PCOD9098778
_publ_section_title
;
Structure prediction by ZEFSAII (Michael W. Deem and Ramdas Pophale) SiO2 
 PCOD9098778
Probable space group: P -1
;
_chemical_formula_sum "Si O2"
_cell_formula_units_Z 14
_cell_length_a 12.571954
_cell_length_b 8.825033
_cell_length_c 10.326106
_cell_angle_alpha 69.231711
_cell_angle_beta 120.600218
_cell_angle_gamma 63.894838
_cell_volume 587.169606
_symmetry_space_group_name_H-M "P -1"
_symmetry_group_IT_number 2
_symmetry_cell_setting 'triclinic'
loop_
_space_group_symop_operation_xyz
x,y,z
-x,-y,-z
loop_
_atom_site_type_symbol
_atom_site_label
_atom_site_fract_x
_atom_site_fract_y
_atom_site_fract_z
Si Si1 0.249564 0.116223 0.487303
Si Si2 0.801028 0.292164 0.247342
Si Si3 0.309494 0.818040 0.996980
Si Si4 0.006095 0.683982 0.478730
Si Si5 0.852853 0.528711 0.004483
Si Si6 0.553527 0.083663 0.755143
Si Si7 0.560213 0.630727 0.652778
O O1 0.134295 0.173202 0.524678
O O2 0.379126 0.133542 0.613200
O O3 0.082872 0.321156 0.214530
O O4 0.395026 0.841597 0.593308
O O5 0.825292 0.393536 0.114500
O O6 0.793957 0.427608 0.321463
O O7 0.664433 0.295224 0.092881
O O8 0.000000 0.000000 0.500000
O O9 0.426433 0.853045 0.112827
O O10 0.351162 0.633185 0.180930
O O11 0.092699 0.110415 0.758175
O O12 0.000000 0.500000 0.500000
O O13 0.726358 0.599388 0.783223
O O14 0.745282 0.785501 0.930326
O O15 0.527106 0.246819 0.578879
#
# Coordination Sequence:
#
# PCOD9098778 Si02
#       7
#     2   2   2   2   2   2   2
#     4  10  21  38  61  90 116 149 200 244 292 350
#     4   8  16  32  56  81 109 148 186 228 289 342
#     4  10  20  37  57  83 124 158 186 241 298 341
#     4  10  20  38  65  90 114 150 198 246 293 352
#     4   9  18  36  59  81 112 152 194 243 287 328
#     4  11  22  37  59  88 119 157 200 238 284 349
#     4  10  22  38  59  86 119 158 198 239 288 346
#
# _framework density 23.843195999999999
#
# number of rings (size 3 to 8) (size 9 to 14) (size 15 to 20)
#    0.000    2.286    0.000    3.857    0.000    3.429 
#    0.000   14.286    0.000   12.857    0.000    0.000 
#    0.000    0.000    0.000    0.000    0.000    0.000 
#
# Total GULP energy -77934.564774 kJ/mol
# GULP energy per Si atom -5566.754627 kJ/mol
# Density = 2.378893 g / cm^3
# Si number density = 23.843196 Si / 1000 Ang^3
#
#
#
# Elastic Constant Matrix: (Units=GPa)
#
#
# Indices 1 2 3 4 5 6 
#
# 1 14.5401 46.4670 22.3897 -15.6593 -4.1043 0.2056
# 2 46.4670 136.2058 69.0117 31.4065 14.7051 48.0221
# 3 22.3897 69.0117 115.8110 11.4471 0.7154 15.5391
# 4 -15.6593 31.4065 11.4471 37.9480 14.2865 1.2082
# 5 -4.1043 14.7051 0.7154 14.2865 29.4932 1.7009
# 6 0.2056 48.0221 15.5391 1.2082 1.7009 30.3653
#
#
#
# Elastic Compliance Matrix: (Units=1/GPa)
#
#
# Indices 1 2 3 4 5 6 
#
# 1 -0.010440 0.020660 -0.004468 -0.018805 -0.000834 -0.029521
# 2 0.020660 -0.000376 -0.005246 0.011239 -0.002417 0.002827
# 3 -0.004468 -0.005246 0.012600 -0.002394 0.002743 0.001820
# 4 -0.018805 0.011239 -0.002394 0.016205 -0.015077 -0.016222
# 5 -0.000834 -0.002417 0.002743 -0.015077 0.042194 0.000662
# 6 -0.029521 0.002827 0.001820 -0.016222 0.000662 0.028339
#
#
# Mechanical properties :
#
#
# Convention : Reuss Voigt Hill
#
# Bulk Modulus (GPa) = 42.23520 60.25486 51.24503
# Shear Modulus (GPa) = 67.09616 28.14051 47.61834
#
# Velocity S-wave (km/s) = 5.31053 3.43918 4.47379
# Velocity P-wave (km/s) = 7.44006 6.41068 6.94446
#
# Compressibility (1/GPa) = 0.02367693
#
# Stress axis : x y z
#
# Youngs Moduli (GPa) = -95.78287 -2660.85648 79.36627
#
# Poissons Ratio (x) = 54.97319 0.35460
# Poissons Ratio (y) = 1.97887 0.41632
# Poissons Ratio (z) = -0.42794 -13.95756
#
# Static dielectric constant tensor:
#      x y z
#    x 1.962920 0.011620 0.007510 
#    y 0.011620 2.019860 0.038280 
#    z 0.007510 0.038280 1.980340 
# 
# From -- ./inp_files/250976.got.cif
#   From: 2010.05.17/outbox.cif.g08.bks.cpg/sg2_126_cif.got.tgz:250976.got - 2010.06.03 11:33:40.
