data_PCOD9098109
_publ_section_title
;
Structure prediction by ZEFSAII (Michael W. Deem and Ramdas Pophale) SiO2 
 PCOD9098109
Probable space group: P -1
;
_chemical_formula_sum "Si O2"
_cell_formula_units_Z 14
_cell_length_a 10.008797
_cell_length_b 9.239281
_cell_length_c 15.303957
_cell_angle_alpha 112.607708
_cell_angle_beta 138.918658
_cell_angle_gamma 44.228133
_cell_volume 610.099988
_symmetry_space_group_name_H-M "P -1"
_symmetry_group_IT_number 2
_symmetry_cell_setting 'triclinic'
loop_
_space_group_symop_operation_xyz
x,y,z
-x,-y,-z
loop_
_atom_site_type_symbol
_atom_site_label
_atom_site_fract_x
_atom_site_fract_y
_atom_site_fract_z
Si Si1 0.901019 0.924658 0.003363
Si Si2 0.559414 0.323601 0.055156
Si Si3 0.667855 0.806289 0.305199
Si Si4 0.999614 0.447909 0.765394
Si Si5 0.457296 0.474269 0.745575
Si Si6 0.429256 0.924403 0.527642
Si Si7 0.350979 0.630552 0.367350
O O1 0.776392 0.086623 0.061692
O O2 0.635273 0.982576 0.840655
O O3 0.199030 0.682782 0.114411
O O4 0.000000 0.000000 0.000000
O O5 0.254676 0.402452 0.927031
O O6 0.500000 0.500000 0.000000
O O7 0.666331 0.338220 0.201824
O O8 0.881013 0.673113 0.298293
O O9 0.623267 0.657719 0.292615
O O10 0.736231 0.890231 0.435619
O O11 0.726571 0.703671 0.666864
O O12 0.908283 0.350938 0.757327
O O13 0.426844 0.506902 0.634839
O O14 0.282957 0.849802 0.397979
O O15 0.500000 0.000000 0.500000
O O16 0.500000 0.500000 0.500000
#
# Coordination Sequence:
#
# PCOD9098109 Si02
#       7
#     2   2   2   2   2   2   2
#     4   9  18  32  58  93 123 144 191 256 304 353
#     4  11  19  34  62  98 119 155 197 248 313 368
#     4  10  20  36  63  95 115 156 206 255 302 358
#     4  10  23  41  61  88 132 152 196 262 306 357
#     4  11  20  37  63  89 125 158 200 251 300 363
#     4  11  22  39  64  87 114 166 218 246 295 355
#     4  10  24  45  58  85 129 167 204 252 302 355
#
# _framework density 22.947057999999998
#
# number of rings (size 3 to 8) (size 9 to 14) (size 15 to 20)
#    0.000    1.714    5.714    0.857    2.000    1.714 
#    0.000    5.714    0.000    0.000    0.000    0.000 
#    0.000    0.000    0.000    0.000    0.000    0.000 
#
# Total GULP energy -78228.276203 kJ/mol
# GULP energy per Si atom -5587.734014 kJ/mol
# Density = 2.289483 g / cm^3
# Si number density = 22.947058 Si / 1000 Ang^3
#
#
#
# Elastic Constant Matrix: (Units=GPa)
#
#
# Indices 1 2 3 4 5 6 
#
# 1 122.4257 43.2805 21.4912 21.3183 -10.6107 5.2381
# 2 43.2805 90.5486 28.2220 26.2707 -2.3806 -9.8451
# 3 21.4912 28.2220 70.9083 24.5424 -7.7184 2.3842
# 4 21.3183 26.2707 24.5424 44.4027 -4.9287 -1.2186
# 5 -10.6107 -2.3806 -7.7184 -4.9287 47.4067 11.5052
# 6 5.2381 -9.8451 2.3842 -1.2186 11.5052 37.0952
#
#
#
# Elastic Compliance Matrix: (Units=1/GPa)
#
#
# Indices 1 2 3 4 5 6 
#
# 1 0.010635 -0.004777 -0.000219 -0.001950 0.002797 -0.003687
# 2 -0.004777 0.016733 -0.003766 -0.005681 -0.002906 0.006072
# 3 -0.000219 -0.003766 0.018797 -0.007835 0.002810 -0.003306
# 4 -0.001950 -0.005681 -0.007835 0.031288 0.001279 -0.000098
# 5 0.002797 -0.002906 0.002810 0.001279 0.024311 -0.008845
# 6 -0.003687 0.006072 -0.003306 -0.000098 -0.008845 0.032043
#
#
# Mechanical properties :
#
#
# Convention : Reuss Voigt Hill
#
# Bulk Modulus (GPa) = 34.91552 52.20777 43.56164
# Shear Modulus (GPa) = 31.07951 38.50683 34.79317
#
# Velocity S-wave (km/s) = 3.68421 4.10087 3.89811
# Velocity P-wave (km/s) = 5.77465 6.72485 6.26778
#
# Compressibility (1/GPa) = 0.02864056
#
# Stress axis : x y z
#
# Youngs Moduli (GPa) = 94.02893 59.76254 53.20029
#
# Poissons Ratio (x) = 0.28548 0.01165
# Poissons Ratio (y) = 0.44916 0.20037
# Poissons Ratio (z) = 0.02058 0.22509
#
# Static dielectric constant tensor:
#      x y z
#    x 1.912130 0.072530 0.003250 
#    y 0.072530 1.927010 -0.020950 
#    z 0.003250 -0.020950 1.986400 
# 
# From -- ./inp_files/188895.got.cif
#   From: 2010.05.17/outbox.cif.g08.bks.cpg/sg2_95_cif.got.tgz:188895.got - 2010.06.03 11:33:40.
