data_PCOD9098689
_publ_section_title
;
Structure prediction by ZEFSAII (Michael W. Deem and Ramdas Pophale) SiO2 
 PCOD9098689
Probable space group: P -1
;
_chemical_formula_sum "Si O2"
_cell_formula_units_Z 14
_cell_length_a 11.775874
_cell_length_b 7.942271
_cell_length_c 9.048377
_cell_angle_alpha 132.278656
_cell_angle_beta 125.778915
_cell_angle_gamma 76.453748
_cell_volume 489.806841
_symmetry_space_group_name_H-M "P -1"
_symmetry_group_IT_number 2
_symmetry_cell_setting 'triclinic'
loop_
_space_group_symop_operation_xyz
x,y,z
-x,-y,-z
loop_
_atom_site_type_symbol
_atom_site_label
_atom_site_fract_x
_atom_site_fract_y
_atom_site_fract_z
Si Si1 0.287879 0.077984 0.153400
Si Si2 0.561205 0.882172 0.321121
Si Si3 0.869298 0.573187 0.367727
Si Si4 0.607255 0.476351 0.309576
Si Si5 0.681609 0.055939 0.225956
Si Si6 0.865511 0.087989 0.790491
Si Si7 0.988524 0.255664 0.700677
O O1 0.320319 0.341575 0.397638
O O2 0.428819 0.992110 0.257238
O O3 0.148100 0.931385 0.054681
O O4 0.270678 0.051074 0.949950
O O5 0.529883 0.645458 0.255664
O O6 0.624320 0.857908 0.190920
O O7 0.699671 0.074866 0.608713
O O8 0.719414 0.431276 0.243059
O O9 0.000000 0.500000 0.500000
O O10 0.891301 0.569081 0.205312
O O11 0.875008 0.834495 0.584843
O O12 0.572542 0.223371 0.215815
O O13 0.827034 0.240545 0.509624
O O14 0.982737 0.262061 0.878496
O O15 0.000000 0.000000 0.500000
#
# Coordination Sequence:
#
# PCOD9098689 Si02
#       7
#     2   2   2   2   2   2   2
#     4  10  20  37  56  82 116 141 185 238 266 322
#     4   9  19  37  56  80 117 147 180 230 277 324
#     4   9  14  28  53  74 100 135 176 221 260 317
#     4  10  21  37  58  83 109 150 186 219 283 334
#     4  11  21  35  60  84 108 148 189 224 278 331
#     4   8  17  31  52  77 104 146 178 215 279 323
#     4   9  17  32  55  78 105 146 181 221 278 328
#
# _framework density 28.582695999999999
#
# number of rings (size 3 to 8) (size 9 to 14) (size 15 to 20)
#    0.000    2.857    1.429    3.000    0.000    1.143 
#    0.000   10.714    0.000    1.714    0.000    0.000 
#    0.000    0.000    0.000    0.000    0.000    0.000 
#
# Total GULP energy -78269.816785 kJ/mol
# GULP energy per Si atom -5590.701199 kJ/mol
# Density = 2.851764 g / cm^3
# Si number density = 28.582696 Si / 1000 Ang^3
#
#
#
# Elastic Constant Matrix: (Units=GPa)
#
#
# Indices 1 2 3 4 5 6 
#
# 1 140.6776 55.1562 35.1188 -3.9257 -54.8214 19.6789
# 2 55.1562 136.8701 36.4047 16.7905 -8.1019 30.9950
# 3 35.1188 36.4047 126.7068 -11.8718 -37.1887 19.7063
# 4 -3.9257 16.7905 -11.8718 48.4027 17.5758 7.7989
# 5 -54.8214 -8.1019 -37.1887 17.5758 61.7741 -21.7045
# 6 19.6789 30.9950 19.7063 7.7989 -21.7045 71.3033
#
#
#
# Elastic Compliance Matrix: (Units=1/GPa)
#
#
# Indices 1 2 3 4 5 6 
#
# 1 0.013940 -0.005441 0.001165 -0.002180 0.013917 0.002671
# 2 -0.005441 0.011146 -0.003025 -0.002214 -0.005995 -0.004090
# 3 0.001165 -0.003025 0.010497 0.001350 0.006551 -0.000061
# 4 -0.002180 -0.002214 0.001350 0.026219 -0.010595 -0.004902
# 5 0.013917 -0.005995 0.006551 -0.010595 0.038125 0.009719
# 6 0.002671 -0.004090 -0.000061 -0.004902 0.009719 0.018577
#
#
# Mechanical properties :
#
#
# Convention : Reuss Voigt Hill
#
# Bulk Modulus (GPa) = 47.66325 73.06820 60.36572
# Shear Modulus (GPa) = 35.68831 54.80101 45.24466
#
# Velocity S-wave (km/s) = 3.53738 4.38342 3.98293
# Velocity P-wave (km/s) = 5.77892 7.15811 6.50517
#
# Compressibility (1/GPa) = 0.02098053
#
# Stress axis : x y z
#
# Youngs Moduli (GPa) = 71.73593 89.71465 95.26257
#
# Poissons Ratio (x) = 0.48813 -0.11095
# Poissons Ratio (y) = 0.39031 0.28821
# Poissons Ratio (z) = -0.08355 0.27142
#
# Static dielectric constant tensor:
#      x y z
#    x 2.290070 0.057780 0.092370 
#    y 0.057780 2.269150 -0.001400 
#    z 0.092370 -0.001400 2.352710 
# 
# From -- ./inp_files/241575.got.cif
#   From: 2010.05.17/outbox.cif.g08.bks.cpg/sg2_121_cif.got.tgz:241575.got - 2010.06.03 11:33:40.
