data_PCOD9098216
_publ_section_title
;
Structure prediction by ZEFSAII (Michael W. Deem and Ramdas Pophale) SiO2 
 PCOD9098216
Probable space group: P -1
;
_chemical_formula_sum "Si O2"
_cell_formula_units_Z 14
_cell_length_a 8.966868
_cell_length_b 14.252436
_cell_length_c 7.874558
_cell_angle_alpha 120.962019
_cell_angle_beta 75.438355
_cell_angle_gamma 130.323976
_cell_volume 652.792536
_symmetry_space_group_name_H-M "P -1"
_symmetry_group_IT_number 2
_symmetry_cell_setting 'triclinic'
loop_
_space_group_symop_operation_xyz
x,y,z
-x,-y,-z
loop_
_atom_site_type_symbol
_atom_site_label
_atom_site_fract_x
_atom_site_fract_y
_atom_site_fract_z
Si Si1 0.637382 0.968309 0.019102
Si Si2 0.577715 0.192133 0.725473
Si Si3 0.343559 0.465732 0.376397
Si Si4 0.069747 0.720374 0.784521
Si Si5 0.546984 0.238519 0.405866
Si Si6 0.995815 0.629566 0.114773
Si Si7 0.560125 0.436169 0.057293
O O1 0.555467 0.911623 0.178972
O O2 0.847329 0.120072 0.105314
O O3 0.606091 0.854969 0.789829
O O4 0.500000 0.000000 0.000000
O O5 0.506991 0.155534 0.516252
O O6 0.801327 0.245245 0.734067
O O7 0.583211 0.324245 0.884150
O O8 0.500000 0.500000 0.500000
O O9 0.423925 0.619939 0.435030
O O10 0.370145 0.368348 0.165001
O O11 0.112751 0.379751 0.381039
O O12 0.244229 0.714409 0.680010
O O13 0.008138 0.669691 0.950211
O O14 0.778502 0.565324 0.184893
O O15 0.000000 0.500000 0.000000
O O16 0.500000 0.500000 0.000000
#
# Coordination Sequence:
#
# PCOD9098216 Si02
#       7
#     2   2   2   2   2   2   2
#     4  10  22  42  65  94 132 169 208 263 323 377
#     4  11  21  40  67  93 128 170 208 266 317 377
#     4  12  25  39  64  95 129 166 215 269 313 377
#     4  11  23  43  62  94 131 165 212 265 319 379
#     4  11  23  41  67  97 127 163 221 263 312 382
#     4  10  20  36  64  90 122 168 206 261 322 365
#     4  11  21  39  59  90 129 165 208 260 324 367
#
# _framework density 21.446323
#
# number of rings (size 3 to 8) (size 9 to 14) (size 15 to 20)
#    0.000    1.143    5.714    2.143    4.000    2.286 
#    0.000    2.857    0.000    2.571    0.000    0.000 
#    0.000    0.000    0.000    0.000    0.000    0.000 
#
# Total GULP energy -77946.669824 kJ/mol
# GULP energy per Si atom -5567.619273 kJ/mol
# Density = 2.139751 g / cm^3
# Si number density = 21.446323 Si / 1000 Ang^3
#
#
#
# Elastic Constant Matrix: (Units=GPa)
#
#
# Indices 1 2 3 4 5 6 
#
# 1 84.0273 27.8646 17.9754 4.8304 6.3649 -5.9727
# 2 27.8646 124.5491 40.4415 -1.0548 21.1291 -6.0778
# 3 17.9754 40.4415 63.5430 3.3185 7.4482 -4.5495
# 4 4.8304 -1.0548 3.3185 26.6952 -1.7068 0.5082
# 5 6.3649 21.1291 7.4482 -1.7068 37.1065 -6.4702
# 6 -5.9727 -6.0778 -4.5495 0.5082 -6.4702 15.1752
#
#
#
# Elastic Compliance Matrix: (Units=1/GPa)
#
#
# Indices 1 2 3 4 5 6 
#
# 1 0.013470 -0.002173 -0.002016 -0.002353 -0.000103 0.003862
# 2 -0.002173 0.011316 -0.006107 0.001296 -0.004830 -0.000257
# 3 -0.002016 -0.006107 0.020528 -0.002479 0.000120 0.003049
# 4 -0.002353 0.001296 -0.002479 0.038382 0.001625 -0.001743
# 5 -0.000103 -0.004830 0.000120 0.001625 0.031783 0.011558
# 6 0.003862 -0.000257 0.003049 -0.001743 0.011558 0.073214
#
#
# Mechanical properties :
#
#
# Convention : Reuss Voigt Hill
#
# Bulk Modulus (GPa) = 40.44968 49.40916 44.92942
# Shear Modulus (GPa) = 22.98560 28.18458 25.58509
#
# Velocity S-wave (km/s) = 3.27735 3.62911 3.45771
# Velocity P-wave (km/s) = 5.76395 6.37567 6.07751
#
# Compressibility (1/GPa) = 0.02472208
#
# Stress axis : x y z
#
# Youngs Moduli (GPa) = 74.23719 88.37084 48.71340
#
# Poissons Ratio (x) = 0.19202 0.09821
# Poissons Ratio (y) = 0.16131 0.29750
# Poissons Ratio (z) = 0.14967 0.53969
#
# Static dielectric constant tensor:
#      x y z
#    x 1.736840 -0.008380 0.013800 
#    y -0.008380 1.815300 0.025540 
#    z 0.013800 0.025540 1.897500 
# 
# From -- ./inp_files/197556.got.cif
#   From: 2010.05.17/outbox.cif.g08.bks.cpg/sg2_99_cif.got.tgz:197556.got - 2010.06.03 11:33:40.
