data_PCOD9098783
_publ_section_title
;
Structure prediction by ZEFSAII (Michael W. Deem and Ramdas Pophale) SiO2 
 PCOD9098783
Probable space group: P -1
;
_chemical_formula_sum "Si O2"
_cell_formula_units_Z 14
_cell_length_a 12.014585
_cell_length_b 14.008415
_cell_length_c 7.813018
_cell_angle_alpha 70.716075
_cell_angle_beta 111.330424
_cell_angle_gamma 151.273993
_cell_volume 588.524082
_symmetry_space_group_name_H-M "P -1"
_symmetry_group_IT_number 2
_symmetry_cell_setting 'triclinic'
loop_
_space_group_symop_operation_xyz
x,y,z
-x,-y,-z
loop_
_atom_site_type_symbol
_atom_site_label
_atom_site_fract_x
_atom_site_fract_y
_atom_site_fract_z
Si Si1 0.993551 0.607989 0.096145
Si Si2 0.164174 0.700398 0.630434
Si Si3 0.628788 0.623302 0.734481
Si Si4 0.798263 0.963001 0.548358
Si Si5 0.866859 0.637027 0.670585
Si Si6 0.869065 0.717796 0.160623
Si Si7 0.585954 0.161044 0.655804
O O1 0.840952 0.402405 0.194808
O O2 0.961568 0.677441 0.169547
O O3 0.254763 0.751343 0.147006
O O4 0.929598 0.612172 0.880356
O O5 0.226234 0.713425 0.465831
O O6 0.937723 0.608878 0.578511
O O7 0.383152 0.930443 0.665811
O O8 0.638505 0.531265 0.671846
O O9 0.362484 0.453254 0.746012
O O10 0.749842 0.809385 0.608979
O O11 0.776854 0.706133 0.942697
O O12 0.960725 0.141997 0.398871
O O13 0.922350 0.079285 0.731888
O O14 0.547635 0.832295 0.450695
#
# Coordination Sequence:
#
# PCOD9098783 Si02
#       7
#     2   2   2   2   2   2   2
#     4  11  21  39  60  86 120 152 187 240 289 336
#     4  10  20  37  57  84 117 150 188 237 284 335
#     4  10  22  42  61  84 116 153 191 241 289 332
#     4  11  22  40  61  86 117 152 191 241 286 336
#     4  10  23  38  58  88 120 152 194 231 283 354
#     4  10  22  39  64  88 110 148 202 238 280 347
#     4  10  22  37  61  88 113 150 199 234 282 347
#
# _framework density 23.788322999999998
#
# number of rings (size 3 to 8) (size 9 to 14) (size 15 to 20)
#    0.000    1.714    0.000    5.143    0.000    5.143 
#    0.000    8.571    0.000    0.000    0.000    0.000 
#    0.000    0.000    0.000    0.000    0.000    0.000 
#
# Total GULP energy -78182.779596 kJ/mol
# GULP energy per Si atom -5584.484257 kJ/mol
# Density = 2.373418 g / cm^3
# Si number density = 23.788323 Si / 1000 Ang^3
#
#
#
# Elastic Constant Matrix: (Units=GPa)
#
#
# Indices 1 2 3 4 5 6 
#
# 1 166.9393 30.2067 44.3262 4.8963 24.2008 -0.3813
# 2 30.2067 80.0133 27.6745 -9.6447 18.0088 -2.9609
# 3 44.3262 27.6745 108.5954 -12.1968 33.0624 -3.4417
# 4 4.8963 -9.6447 -12.1968 34.1556 4.2342 14.0463
# 5 24.2008 18.0088 33.0624 4.2342 45.4646 0.2826
# 6 -0.3813 -2.9609 -3.4417 14.0463 0.2826 38.9561
#
#
#
# Elastic Compliance Matrix: (Units=1/GPa)
#
#
# Indices 1 2 3 4 5 6 
#
# 1 0.007209 -0.001934 -0.002379 -0.002556 -0.001107 0.000643
# 2 -0.001934 0.015251 -0.001136 0.005064 -0.004653 -0.000752
# 3 -0.002379 -0.001136 0.013915 0.006597 -0.009010 -0.001194
# 4 -0.002556 0.005064 0.006597 0.040087 -0.009093 -0.013445
# 5 -0.001107 -0.004653 -0.009010 -0.009093 0.031815 0.001887
# 6 0.000643 -0.000752 -0.001194 -0.013445 0.001887 0.030348
#
#
# Mechanical properties :
#
#
# Convention : Reuss Voigt Hill
#
# Bulk Modulus (GPa) = 39.25106 62.21807 50.73457
# Shear Modulus (GPa) = 31.64284 40.60463 36.12374
#
# Velocity S-wave (km/s) = 3.65113 4.13596 3.90108
# Velocity P-wave (km/s) = 5.85749 7.00142 6.45485
#
# Compressibility (1/GPa) = 0.02547702
#
# Stress axis : x y z
#
# Youngs Moduli (GPa) = 138.71949 65.57162 71.86264
#
# Poissons Ratio (x) = 0.12680 0.17099
# Poissons Ratio (y) = 0.26824 0.08162
# Poissons Ratio (z) = 0.33007 0.07447
#
# Static dielectric constant tensor:
#      x y z
#    x 1.918260 0.022910 -0.033910 
#    y 0.022910 1.912980 0.047130 
#    z -0.033910 0.047130 1.954050 
# 
# From -- ./inp_files/269859.got.cif
#   From: 2010.05.17/outbox.cif.g08.bks.cpg/sg2_135_cif.got.tgz:269859.got - 2010.06.03 11:33:40.
