data_PCOD9098141
_publ_section_title
;
Structure prediction by ZEFSAII (Michael W. Deem and Ramdas Pophale) SiO2 
 PCOD9098141
Probable space group: P -1
;
_chemical_formula_sum "Si O2"
_cell_formula_units_Z 14
_cell_length_a 8.947456
_cell_length_b 12.589433
_cell_length_c 11.223817
_cell_angle_alpha 87.769013
_cell_angle_beta 41.546796
_cell_angle_gamma 64.688355
_cell_volume 669.573419
_symmetry_space_group_name_H-M "P -1"
_symmetry_group_IT_number 2
_symmetry_cell_setting 'triclinic'
loop_
_space_group_symop_operation_xyz
x,y,z
-x,-y,-z
loop_
_atom_site_type_symbol
_atom_site_label
_atom_site_fract_x
_atom_site_fract_y
_atom_site_fract_z
Si Si1 0.231296 0.207308 0.849862
Si Si2 0.709709 0.950893 0.490726
Si Si3 0.208498 0.216836 0.119582
Si Si4 0.684073 0.220572 0.128812
Si Si5 0.222573 0.299357 0.595085
Si Si6 0.174438 0.984146 0.130897
Si Si7 0.837478 0.574281 0.713788
O O1 0.287305 0.261831 0.697142
O O2 0.502122 0.052800 0.711378
O O3 0.189101 0.274773 0.998222
O O4 0.956945 0.214758 0.984662
O O5 0.836814 0.797510 0.429363
O O6 0.942716 0.972590 0.325939
O O7 0.500000 0.000000 0.500000
O O8 0.081671 0.333270 0.286441
O O9 0.087811 0.131920 0.183037
O O10 0.532675 0.110922 0.969764
O O11 0.491621 0.265110 0.359972
O O12 0.487244 0.327155 0.137476
O O13 0.772827 0.080444 0.029275
O O14 0.953295 0.451940 0.738250
O O15 0.000000 0.500000 0.500000
#
# Coordination Sequence:
#
# PCOD9098141 Si02
#       7
#     2   2   2   2   2   2   2
#     4  11  23  37  61 102 124 161 207 257 322 363
#     4  10  20  36  63  98 123 159 209 256 312 368
#     4  10  23  38  64  94 129 166 208 258 317 369
#     4  10  20  39  68  89 124 171 206 253 310 371
#     4  10  21  38  64  93 126 161 214 255 299 377
#     4  10  20  41  64  94 129 166 208 259 310 370
#     4   9  21  44  66  87 121 172 220 249 306 381
#
# _framework density 20.908835
#
# number of rings (size 3 to 8) (size 9 to 14) (size 15 to 20)
#    0.000    2.000    2.857    0.857    4.000    4.000 
#    0.000    2.857    3.143    0.000    0.000    0.000 
#    0.000    0.000    0.000    0.000    0.000    0.000 
#
# Total GULP energy -78106.378093 kJ/mol
# GULP energy per Si atom -5579.027007 kJ/mol
# Density = 2.086125 g / cm^3
# Si number density = 20.908835 Si / 1000 Ang^3
#
#
#
# Elastic Constant Matrix: (Units=GPa)
#
#
# Indices 1 2 3 4 5 6 
#
# 1 72.5271 21.8453 24.0525 10.1689 11.8025 5.9964
# 2 21.8453 104.0176 31.1427 18.8254 -3.6553 1.7605
# 3 24.0525 31.1427 84.6857 -2.4741 -1.5352 12.8256
# 4 10.1689 18.8254 -2.4741 29.4304 7.5772 8.9999
# 5 11.8025 -3.6553 -1.5352 7.5772 38.9112 -3.0073
# 6 5.9964 1.7605 12.8256 8.9999 -3.0073 20.9656
#
#
#
# Elastic Compliance Matrix: (Units=1/GPa)
#
#
# Indices 1 2 3 4 5 6 
#
# 1 0.017135 -0.001926 -0.004111 -0.003270 -0.005023 -0.001541
# 2 -0.001926 0.014415 -0.006542 -0.013409 0.005051 0.009823
# 3 -0.004111 -0.006542 0.017940 0.012200 -0.002179 -0.014799
# 4 -0.003270 -0.013409 0.012200 0.058084 -0.013593 -0.032286
# 5 -0.005023 0.005051 -0.002179 -0.013593 0.031237 0.012661
# 6 -0.001541 0.009823 -0.014799 -0.032286 0.012661 0.072042
#
#
# Mechanical properties :
#
#
# Convention : Reuss Voigt Hill
#
# Bulk Modulus (GPa) = 41.10032 46.14571 43.62301
# Shear Modulus (GPa) = 20.48157 30.14076 25.31116
#
# Velocity S-wave (km/s) = 3.13320 3.80087 3.48307
# Velocity P-wave (km/s) = 5.72615 6.43273 6.08970
#
# Compressibility (1/GPa) = 0.02433071
#
# Stress axis : x y z
#
# Youngs Moduli (GPa) = 58.36053 69.37207 55.74107
#
# Poissons Ratio (x) = 0.13363 0.22918
# Poissons Ratio (y) = 0.11242 0.36465
# Poissons Ratio (z) = 0.23995 0.45382
#
# Static dielectric constant tensor:
#      x y z
#    x 1.758650 -0.043060 0.038860 
#    y -0.043060 1.843050 0.017090 
#    z 0.038860 0.017090 1.780870 
# 
# From -- ./inp_files/259320.got.cif
#   From: 2010.05.17/outbox.cif.g08.bks.cpg/sg2_130_cif.got.tgz:259320.got - 2010.06.03 11:33:40.
