data_PCOD9098634
_publ_section_title
;
Structure prediction by ZEFSAII (Michael W. Deem and Ramdas Pophale) SiO2 
 PCOD9098634
Probable space group: P -1
;
_chemical_formula_sum "Si O2"
_cell_formula_units_Z 14
_cell_length_a 13.304521
_cell_length_b 13.364097
_cell_length_c 13.581820
_cell_angle_alpha 44.461881
_cell_angle_beta 21.045943
_cell_angle_gamma 50.099418
_cell_volume 604.511261
_symmetry_space_group_name_H-M "P -1"
_symmetry_group_IT_number 2
_symmetry_cell_setting 'triclinic'
loop_
_space_group_symop_operation_xyz
x,y,z
-x,-y,-z
loop_
_atom_site_type_symbol
_atom_site_label
_atom_site_fract_x
_atom_site_fract_y
_atom_site_fract_z
Si Si1 0.149636 0.868179 0.408054
Si Si2 0.237301 0.890613 0.842858
Si Si3 0.618991 0.896592 0.111340
Si Si4 0.822336 0.620460 0.779009
Si Si5 0.178420 0.877556 0.698425
Si Si6 0.060946 0.194496 0.651785
Si Si7 0.204056 0.461946 0.432407
O O1 0.400286 0.830385 0.276482
O O2 0.923884 0.731705 0.693725
O O3 0.000000 0.000000 0.500000
O O4 0.294214 0.942818 0.124846
O O5 0.187736 0.802333 0.848954
O O6 0.500000 0.000000 0.500000
O O7 0.226271 0.816039 0.012606
O O8 0.000000 0.000000 0.000000
O O9 0.453282 0.889282 0.371352
O O10 0.907732 0.827099 0.915173
O O11 0.911239 0.719060 0.534507
O O12 0.022783 0.493221 0.671652
O O13 0.499801 0.557863 0.105337
O O14 0.124164 0.038680 0.667767
O O15 0.252855 0.296309 0.481783
O O16 0.000000 0.500000 0.500000
#
# Coordination Sequence:
#
# PCOD9098634 Si02
#       7
#     2   2   2   2   2   2   2
#     4  11  23  36  58  84 110 147 186 225 296 336
#     4  10  22  34  54  83 109 149 194 221 274 332
#     4  11  22  35  54  83 113 143 180 227 290 335
#     4  11  23  35  56  81 116 146 186 226 273 334
#     4  11  21  35  56  82 115 148 182 227 284 324
#     4  10  20  37  55  77 119 150 180 227 262 327
#     4  10  23  36  52  81 110 156 191 212 270 334
#
# _framework density 23.159205
#
# number of rings (size 3 to 8) (size 9 to 14) (size 15 to 20)
#    0.000    1.429    2.857    3.429    6.000    6.857 
#    0.000    0.000    0.000    0.000    0.000    6.000 
#    0.000    0.000    0.000    0.000    0.000    0.000 
#
# Total GULP energy -78004.694370 kJ/mol
# GULP energy per Si atom -5571.763884 kJ/mol
# Density = 2.310649 g / cm^3
# Si number density = 23.159205 Si / 1000 Ang^3
#
#
#
# Elastic Constant Matrix: (Units=GPa)
#
#
# Indices 1 2 3 4 5 6 
#
# 1 82.1272 -0.9454 45.4384 -6.5668 -14.5391 6.4155
# 2 -0.9454 68.5193 32.6545 -9.9163 -10.8915 21.1417
# 3 45.4384 32.6545 176.9195 4.2418 -15.3940 9.3072
# 4 -6.5668 -9.9163 4.2418 41.6586 11.6693 -4.5657
# 5 -14.5391 -10.8915 -15.3940 11.6693 58.0671 -9.9365
# 6 6.4155 21.1417 9.3072 -4.5657 -9.9365 25.8592
#
#
#
# Elastic Compliance Matrix: (Units=1/GPa)
#
#
# Indices 1 2 3 4 5 6 
#
# 1 0.015712 0.004573 -0.004511 0.002893 0.002219 -0.004649
# 2 0.004573 0.022885 -0.004573 0.004649 0.000339 -0.017248
# 3 -0.004511 -0.004573 0.007694 -0.002623 0.000918 0.001978
# 4 0.002893 0.004649 -0.002623 0.027070 -0.004638 -0.000577
# 5 0.002219 0.000339 0.000918 -0.004638 0.019992 0.005705
# 6 -0.004649 -0.017248 0.001978 -0.000577 0.005705 0.055304
#
#
# Mechanical properties :
#
#
# Convention : Reuss Voigt Hill
#
# Bulk Modulus (GPa) = 26.83244 53.54011 40.18627
# Shear Modulus (GPa) = 29.39392 41.81153 35.60273
#
# Velocity S-wave (km/s) = 3.56646 4.25360 3.92510
# Velocity P-wave (km/s) = 5.34516 6.87697 6.15887
#
# Compressibility (1/GPa) = 0.03726832
#
# Stress axis : x y z
#
# Youngs Moduli (GPa) = 63.64548 43.69593 129.97773
#
# Poissons Ratio (x) = -0.19981 0.58634
# Poissons Ratio (y) = -0.29103 0.59439
# Poissons Ratio (z) = 0.28711 0.19982
#
# Static dielectric constant tensor:
#      x y z
#    x 1.968160 -0.185140 0.022020 
#    y -0.185140 2.020710 -0.018110 
#    z 0.022020 -0.018110 1.947180 
# 
# From -- ./inp_files/533253.got.cif
#   From: 2010.05.17/outbox.cif.g08.bks.cpg/sg2_267_cif.got.tgz:533253.got - 2010.06.03 11:33:40.
