data_PCOD9098558
_publ_section_title
;
Structure prediction by ZEFSAII (Michael W. Deem and Ramdas Pophale) SiO2 
 PCOD9098558
Probable space group: P -1
;
_chemical_formula_sum "Si O2"
_cell_formula_units_Z 14
_cell_length_a 11.845935
_cell_length_b 7.667158
_cell_length_c 9.366899
_cell_angle_alpha 49.059714
_cell_angle_beta 53.706902
_cell_angle_gamma 56.947171
_cell_volume 500.331724
_symmetry_space_group_name_H-M "P -1"
_symmetry_group_IT_number 2
_symmetry_cell_setting 'triclinic'
loop_
_space_group_symop_operation_xyz
x,y,z
-x,-y,-z
loop_
_atom_site_type_symbol
_atom_site_label
_atom_site_fract_x
_atom_site_fract_y
_atom_site_fract_z
Si Si1 0.331403 0.499336 0.714291
Si Si2 0.128962 0.927819 0.247554
Si Si3 0.393353 0.824699 0.256824
Si Si4 0.035029 0.615569 0.735269
Si Si5 0.668453 0.728967 0.725710
Si Si6 0.650854 0.243994 0.153738
Si Si7 0.104236 0.188356 0.720881
O O1 0.375194 0.587180 0.480858
O O2 0.431917 0.249721 0.832646
O O3 0.164221 0.524450 0.798597
O O4 0.344627 0.694947 0.715197
O O5 0.304781 0.838857 0.167906
O O6 0.088436 0.768679 0.490469
O O7 0.013146 0.912169 0.222070
O O8 0.089195 0.193938 0.195343
O O9 0.334427 0.053545 0.279217
O O10 0.014751 0.391123 0.784196
O O11 0.508016 0.784376 0.747361
O O12 0.796707 0.716194 0.521337
O O13 0.682020 0.475039 0.929185
O O14 0.777042 0.001807 0.173786
#
# Coordination Sequence:
#
# PCOD9098558 Si02
#       7
#     2   2   2   2   2   2   2
#     4  10  20  38  66 100 128 171 227 273 322 400
#     4  10  21  40  65 106 129 172 230 263 319 417
#     4  10  21  38  66  97 132 171 224 266 334 389
#     4  10  20  36  68  99 129 172 223 267 331 384
#     4  11  24  40  63 101 132 175 219 275 337 382
#     4  11  24  41  64 100 138 164 227 280 318 402
#     4  12  22  42  73  92 135 180 212 274 335 386
#
# _framework density 27.981438000000001
#
# number of rings (size 3 to 8) (size 9 to 14) (size 15 to 20)
#    0.000    1.429    2.857    3.429    6.000    0.571 
#    0.000    0.714    0.000    4.286    0.000    0.000 
#    0.000    0.000    0.000    0.000    0.000    0.000 
#
# Total GULP energy -78503.173259 kJ/mol
# GULP energy per Si atom -5607.369518 kJ/mol
# Density = 2.791775 g / cm^3
# Si number density = 27.981438 Si / 1000 Ang^3
#
#
#
# Elastic Constant Matrix: (Units=GPa)
#
#
# Indices 1 2 3 4 5 6 
#
# 1 241.9909 80.1821 30.9084 -8.2954 16.2932 -36.5785
# 2 80.1821 160.1086 -3.0342 -17.5335 6.5333 5.6685
# 3 30.9084 -3.0342 125.2157 -13.9019 -6.1492 -6.3756
# 4 -8.2954 -17.5335 -13.9019 28.8762 -5.7456 2.3835
# 5 16.2932 6.5333 -6.1492 -5.7456 18.7434 0.0753
# 6 -36.5785 5.6685 -6.3756 2.3835 0.0753 40.4541
#
#
#
# Elastic Compliance Matrix: (Units=1/GPa)
#
#
# Indices 1 2 3 4 5 6 
#
# 1 0.007057 -0.003905 -0.002171 -0.003244 -0.006507 0.006789
# 2 -0.003905 0.008965 0.001745 0.006108 0.002735 -0.004877
# 3 -0.002171 0.001745 0.009530 0.006381 0.006365 -0.001093
# 4 -0.003244 0.006108 0.006381 0.044180 0.016349 -0.005417
# 5 -0.006507 0.002735 0.006365 0.016349 0.065180 -0.006348
# 6 0.006789 -0.004877 -0.001093 -0.005417 -0.006348 0.031700
#
#
# Mechanical properties :
#
#
# Convention : Reuss Voigt Hill
#
# Bulk Modulus (GPa) = 59.20647 82.60309 70.90478
# Shear Modulus (GPa) = 27.63927 45.56533 36.60230
#
# Velocity S-wave (km/s) = 3.14629 4.03974 3.62068
# Velocity P-wave (km/s) = 5.86549 7.16548 6.54783
#
# Compressibility (1/GPa) = 0.01689005
#
# Stress axis : x y z
#
# Youngs Moduli (GPa) = 141.70942 111.55029 104.93561
#
# Poissons Ratio (x) = 0.43563 0.22777
# Poissons Ratio (y) = 0.55341 -0.18315
# Poissons Ratio (z) = 0.30759 -0.19469
#
# Static dielectric constant tensor:
#      x y z
#    x 2.122770 -0.032680 -0.005550 
#    y -0.032680 2.193690 0.025050 
#    z -0.005550 0.025050 2.247880 
# 
# From -- ./inp_files/411600.got.cif
#   From: 2010.05.17/outbox.cif.g08.bks.cpg/sg2_206_cif.got.tgz:411600.got - 2010.06.03 11:33:40.
