data_PCOD9098417
_publ_section_title
;
Structure prediction by ZEFSAII (Michael W. Deem and Ramdas Pophale) SiO2 
 PCOD9098417
Probable space group: P -1
;
_chemical_formula_sum "Si O2"
_cell_formula_units_Z 14
_cell_length_a 7.937014
_cell_length_b 16.962287
_cell_length_c 12.899529
_cell_angle_alpha 27.810999
_cell_angle_beta 50.891717
_cell_angle_gamma 50.382302
_cell_volume 613.279782
_symmetry_space_group_name_H-M "P -1"
_symmetry_group_IT_number 2
_symmetry_cell_setting 'triclinic'
loop_
_space_group_symop_operation_xyz
x,y,z
-x,-y,-z
loop_
_atom_site_type_symbol
_atom_site_label
_atom_site_fract_x
_atom_site_fract_y
_atom_site_fract_z
Si Si1 0.938879 0.881667 0.377797
Si Si2 0.322576 0.678807 0.342271
Si Si3 0.461491 0.625090 0.994564
Si Si4 0.434925 0.883183 0.875025
Si Si5 0.070759 0.450857 0.327824
Si Si6 0.931031 0.390342 0.059009
Si Si7 0.228159 0.922357 0.580846
O O1 0.827225 0.723666 0.572466
O O2 0.891603 0.941362 0.443658
O O3 0.810324 0.032211 0.175886
O O4 0.803330 0.206276 0.645879
O O5 0.500000 0.500000 0.500000
O O6 0.110021 0.609180 0.460146
O O7 0.408690 0.813485 0.079993
O O8 0.531121 0.713919 0.966296
O O9 0.373963 0.781236 0.767782
O O10 0.256248 0.536731 0.203415
O O11 0.669281 0.481404 0.043982
O O12 0.603141 0.007114 0.641761
O O13 0.955235 0.573935 0.135141
O O14 0.927523 0.186680 0.292109
O O15 0.000000 0.500000 0.000000
#
# Coordination Sequence:
#
# PCOD9098417 Si02
#       7
#     2   2   2   2   2   2   2
#     4   9  19  39  65  98 127 173 221 275 319 383
#     4  10  24  40  65  93 142 181 217 269 329 391
#     4  10  20  36  66 100 127 170 225 273 322 391
#     4  11  20  37  69 101 128 171 227 275 320 388
#     4   9  20  39  64  89 135 172 223 260 324 384
#     4  11  22  37  66 100 134 168 215 273 339 399
#     4  10  20  39  68  98 128 165 225 278 328 383
#
# _framework density 22.82808
#
# number of rings (size 3 to 8) (size 9 to 14) (size 15 to 20)
#    0.857    1.143    0.000    6.429    2.000    0.571 
#    0.000    3.571    6.286   10.286    0.000    0.000 
#    0.000    0.000    0.000    0.000    0.000    0.000 
#
# Total GULP energy -77981.689111 kJ/mol
# GULP energy per Si atom -5570.120651 kJ/mol
# Density = 2.277612 g / cm^3
# Si number density = 22.828080 Si / 1000 Ang^3
#
#
#
# Elastic Constant Matrix: (Units=GPa)
#
#
# Indices 1 2 3 4 5 6 
#
# 1 63.1151 23.2558 25.1729 1.2766 -5.5439 -2.2135
# 2 23.2558 123.1306 53.8033 -7.5013 -1.5403 -15.1056
# 3 25.1729 53.8033 126.9101 5.0238 -23.3938 5.4051
# 4 1.2766 -7.5013 5.0238 31.5633 -1.1958 -3.5295
# 5 -5.5439 -1.5403 -23.3938 -1.1958 37.1850 -10.5764
# 6 -2.2135 -15.1056 5.4051 -3.5295 -10.5764 29.9384
#
#
#
# Elastic Compliance Matrix: (Units=1/GPa)
#
#
# Indices 1 2 3 4 5 6 
#
# 1 0.017770 -0.002237 -0.002343 -0.000715 0.001344 0.000999
# 2 -0.002237 0.011985 -0.005306 0.004528 -0.001037 0.007007
# 3 -0.002343 -0.005306 0.011951 -0.003214 0.005907 -0.003300
# 4 -0.000715 0.004528 -0.003214 0.034158 0.001226 0.007272
# 5 0.001344 -0.001037 0.005907 0.001226 0.033821 0.010603
# 6 0.000999 0.007007 -0.003300 0.007272 0.010603 0.042210
#
#
# Mechanical properties :
#
#
# Convention : Reuss Voigt Hill
#
# Bulk Modulus (GPa) = 45.59124 57.51333 51.55229
# Shear Modulus (GPa) = 27.93633 33.79893 30.86763
#
# Velocity S-wave (km/s) = 3.50204 3.85201 3.68119
# Velocity P-wave (km/s) = 6.03053 6.71065 6.37966
#
# Compressibility (1/GPa) = 0.02193404
#
# Stress axis : x y z
#
# Youngs Moduli (GPa) = 56.27388 83.43793 83.67842
#
# Poissons Ratio (x) = 0.18662 0.19607
# Poissons Ratio (y) = 0.12586 0.44401
# Poissons Ratio (z) = 0.13186 0.44273
#
# Static dielectric constant tensor:
#      x y z
#    x 1.951890 -0.049120 0.076380 
#    y -0.049120 1.892940 -0.044070 
#    z 0.076380 -0.044070 1.964190 
# 
# From -- ./inp_files/508034.got.cif
#   From: 2010.05.17/outbox.cif.g08.bks.cpg/sg2_255_cif.got.tgz:508034.got - 2010.06.03 11:33:40.
