data_PCOD9098015
_publ_section_title
;
Structure prediction by ZEFSAII (Michael W. Deem and Ramdas Pophale) SiO2 
 PCOD9098015
Probable space group: P -1
;
_chemical_formula_sum "Si O2"
_cell_formula_units_Z 10
_cell_length_a 7.570390
_cell_length_b 6.644511
_cell_length_c 16.776852
_cell_angle_alpha 102.869733
_cell_angle_beta 53.569893
_cell_angle_gamma 137.513613
_cell_volume 421.112291
_symmetry_space_group_name_H-M "P -1"
_symmetry_group_IT_number 2
_symmetry_cell_setting 'triclinic'
loop_
_space_group_symop_operation_xyz
x,y,z
-x,-y,-z
loop_
_atom_site_type_symbol
_atom_site_label
_atom_site_fract_x
_atom_site_fract_y
_atom_site_fract_z
Si Si1 0.107943 0.191823 0.606444
Si Si2 0.882928 0.648356 0.547663
Si Si3 0.745462 0.923374 0.246444
Si Si4 0.254475 0.127497 0.015473
Si Si5 0.233632 0.670717 0.215092
O O1 0.500000 0.500000 0.500000
O O2 0.937914 0.135415 0.561013
O O3 0.959747 0.255082 0.710574
O O4 0.005760 0.878638 0.608302
O O5 0.470716 0.330340 0.645012
O O6 0.000000 0.500000 0.500000
O O7 0.473519 0.788264 0.237669
O O8 0.961843 0.286337 0.241263
O O9 0.004296 0.939217 0.141900
O O10 0.508317 0.137552 0.913586
O O11 0.500000 0.500000 0.000000
O O12 0.000000 0.000000 0.000000
#
# Coordination Sequence:
#
# PCOD9098015 Si02
#       5
#     2   2   2   2   2
#     4  11  25  38  59  88 122 159 197 251 298 351
#     4  11  23  40  59  86 121 157 203 244 298 354
#     4  10  20  36  63  87 116 158 198 241 295 354
#     4   8  16  32  56  87 113 149 195 239 291 348
#     4  10  20  37  61  87 120 154 197 245 294 351
#
# _framework density 23.746635000000001
#
# number of rings (size 3 to 8) (size 9 to 14) (size 15 to 20)
#    0.000    2.000    2.000    1.200    5.600    1.600 
#    0.000    1.000    0.000    1.200    0.000    0.000 
#    0.000    0.000    0.000    0.000    0.000    0.000 
#
# Total GULP energy -55756.159536 kJ/mol
# GULP energy per Si atom -5575.615954 kJ/mol
# Density = 2.369259 g / cm^3
# Si number density = 23.746635 Si / 1000 Ang^3
#
#
#
# Elastic Constant Matrix: (Units=GPa)
#
#
# Indices 1 2 3 4 5 6 
#
# 1 38.2200 25.7307 15.7791 7.5745 -4.4786 14.0886
# 2 25.7307 146.1212 63.3592 25.7983 -16.6530 30.0918
# 3 15.7791 63.3592 256.0224 27.0746 -31.1900 -18.9312
# 4 7.5745 25.7983 27.0746 47.1649 -11.1064 -8.3336
# 5 -4.4786 -16.6530 -31.1900 -11.1064 42.9574 0.6032
# 6 14.0886 30.0918 -18.9312 -8.3336 0.6032 40.6274
#
#
#
# Elastic Compliance Matrix: (Units=1/GPa)
#
#
# Indices 1 2 3 4 5 6 
#
# 1 0.033841 -0.001388 -0.002064 -0.005714 0.000194 -0.012844
# 2 -0.001388 0.011781 -0.002863 -0.006296 0.000869 -0.010883
# 3 -0.002064 -0.002863 0.005423 0.000357 0.002629 0.005398
# 4 -0.005714 -0.006296 0.000357 0.028636 0.004449 0.012619
# 5 0.000194 0.000869 0.002629 0.004449 0.026681 0.001031
# 6 -0.012844 -0.010883 0.005398 0.012619 0.001031 0.042217
#
#
# Mechanical properties :
#
#
# Convention : Reuss Voigt Hill
#
# Bulk Modulus (GPa) = 26.03148 72.23351 49.13249
# Shear Modulus (GPa) = 28.73318 48.51626 38.62472
#
# Velocity S-wave (km/s) = 3.48226 4.52495 4.03741
# Velocity P-wave (km/s) = 5.21097 7.60162 6.51686
#
# Compressibility (1/GPa) = 0.03841503
#
# Stress axis : x y z
#
# Youngs Moduli (GPa) = 29.55035 84.87887 184.38879
#
# Poissons Ratio (x) = 0.11782 0.38055
# Poissons Ratio (y) = 0.04102 0.52794
# Poissons Ratio (z) = 0.06099 0.24302
#
# Static dielectric constant tensor:
#      x y z
#    x 2.308470 0.160620 0.082830 
#    y 0.160620 1.945840 0.023240 
#    z 0.082830 0.023240 1.946940 
# 
# From -- ./inp_files/1526.got.cif
#   From: 2010.05.17/outbox.cif.g08.bks.cpg/sg2_1_cif.got.tgz:1526.got - 2010.06.03 11:33:40.
