data_PCOD9098969
_publ_section_title
;
Structure prediction by ZEFSAII (Michael W. Deem and Ramdas Pophale) SiO2 
 PCOD9098969
Probable space group: P -1
;
_chemical_formula_sum "Si O2"
_cell_formula_units_Z 16
_cell_length_a 9.798545
_cell_length_b 5.029188
_cell_length_c 21.537619
_cell_angle_alpha 106.108232
_cell_angle_beta 45.194502
_cell_angle_gamma 84.682717
_cell_volume 655.623874
_symmetry_space_group_name_H-M "P -1"
_symmetry_group_IT_number 2
_symmetry_cell_setting 'triclinic'
loop_
_space_group_symop_operation_xyz
x,y,z
-x,-y,-z
loop_
_atom_site_type_symbol
_atom_site_label
_atom_site_fract_x
_atom_site_fract_y
_atom_site_fract_z
Si Si1 0.637695 0.347761 0.216300
Si Si2 0.665234 0.123766 0.059808
Si Si3 0.831299 0.333144 0.594269
Si Si4 0.775387 0.616693 0.495643
Si Si5 0.165346 0.491037 0.213244
Si Si6 0.897292 0.147118 0.327511
Si Si7 0.281161 0.523881 0.041323
Si Si8 0.640910 0.923670 0.300384
O O1 0.728676 0.206418 0.111502
O O2 0.391858 0.590661 0.297961
O O3 0.637248 0.087478 0.246201
O O4 0.727308 0.565030 0.235582
O O5 0.411830 0.328559 0.143246
O O6 0.784469 0.205384 0.970067
O O7 0.693381 0.778601 0.022837
O O8 0.770962 0.498422 0.558340
O O9 0.978733 0.445757 0.594270
O O10 0.000000 0.000000 0.500000
O O11 0.744418 0.409033 0.439547
O O12 0.590268 0.956636 0.582948
O O13 0.047325 0.280417 0.254875
O O14 0.153735 0.539410 0.145512
O O15 0.042702 0.839914 0.298565
O O16 0.764425 0.050003 0.315229
O O17 0.500000 0.500000 0.000000
#
# Coordination Sequence:
#
# PCOD9098969 Si02
#       8
#     2   2   2   2   2   2   2   2
#     4  11  23  39  64  87 122 159 206 248 301 354
#     4  11  21  37  67  96 120 153 195 245 312 380
#     4  10  20  37  58  88 126 151 186 258 308 344
#     4  10  23  37  60  87 121 162 205 245 304 353
#     4  11  23  39  62  94 124 150 193 254 311 357
#     4  12  25  39  62  87 121 167 211 242 284 363
#     4  10  20  38  62  94 130 150 182 247 323 370
#     4  11  24  43  57  83 125 169 206 250 286 340
#
# _framework density 24.404239
#
# number of rings (size 3 to 8) (size 9 to 14) (size 15 to 20)
#    0.000    1.250    1.250    6.375    3.500    0.000 
#    0.000    3.125    0.000   15.000    0.000    0.000 
#    0.000    0.000    0.000    0.000    0.000    0.000 
#
# Total GULP energy -89457.793842 kJ/mol
# GULP energy per Si atom -5591.112115 kJ/mol
# Density = 2.434869 g / cm^3
# Si number density = 24.404239 Si / 1000 Ang^3
#
#
#
# Elastic Constant Matrix: (Units=GPa)
#
#
# Indices 1 2 3 4 5 6 
#
# 1 60.8987 2.5199 32.6929 -10.5296 18.9934 22.0936
# 2 2.5199 106.2655 11.6293 -7.7508 12.1532 16.3580
# 3 32.6929 11.6293 71.2479 0.6338 25.9031 10.5375
# 4 -10.5296 -7.7508 0.6338 41.4589 4.9454 9.0128
# 5 18.9934 12.1532 25.9031 4.9454 35.6816 11.4129
# 6 22.0936 16.3580 10.5375 9.0128 11.4129 29.2330
#
#
#
# Elastic Compliance Matrix: (Units=1/GPa)
#
#
# Indices 1 2 3 4 5 6 
#
# 1 0.041316 0.008085 -0.012675 0.020610 -0.007308 -0.034682
# 2 0.008085 0.012496 -0.002583 0.007714 -0.003542 -0.013167
# 3 -0.012675 -0.002583 0.023154 -0.004556 -0.011263 0.008480
# 4 0.020610 0.007714 -0.004556 0.037588 -0.006806 -0.027182
# 5 -0.007308 -0.003542 -0.011263 -0.006806 0.043276 -0.003231
# 6 -0.034682 -0.013167 0.008480 -0.027182 -0.003231 0.074373
#
#
# Mechanical properties :
#
#
# Convention : Reuss Voigt Hill
#
# Bulk Modulus (GPa) = 15.96910 36.89959 26.43434
# Shear Modulus (GPa) = 18.69714 34.04603 26.37158
#
# Velocity S-wave (km/s) = 2.77093 3.73914 3.29084
# Velocity P-wave (km/s) = 4.09819 5.81331 5.02940
#
# Compressibility (1/GPa) = 0.06262095
#
# Stress axis : x y z
#
# Youngs Moduli (GPa) = 24.20392 80.02565 43.18857
#
# Poissons Ratio (x) = -0.64702 0.54740
# Poissons Ratio (y) = -0.19569 0.11155
# Poissons Ratio (z) = 0.30678 0.20670
#
# Static dielectric constant tensor:
#      x y z
#    x 2.053730 0.027530 -0.091620 
#    y 0.027530 1.955710 0.017580 
#    z -0.091620 0.017580 2.020960 
# 
# From -- ./inp_files/553594.got.cif
#   From: 2010.05.17/outbox.cif.g08.bks.cpg/sg2_277_cif.got.tgz:553594.got - 2010.06.03 11:33:40.
