data_PCOD9098607
_publ_section_title
;
Structure prediction by ZEFSAII (Michael W. Deem and Ramdas Pophale) SiO2 
 PCOD9098607
Probable space group: P -1
;
_chemical_formula_sum "Si O2"
_cell_formula_units_Z 16
_cell_length_a 11.536821
_cell_length_b 8.183748
_cell_length_c 10.097421
_cell_angle_alpha 71.153927
_cell_angle_beta 58.470019
_cell_angle_gamma 102.168746
_cell_volume 678.504822
_symmetry_space_group_name_H-M "P -1"
_symmetry_group_IT_number 2
_symmetry_cell_setting 'triclinic'
loop_
_space_group_symop_operation_xyz
x,y,z
-x,-y,-z
loop_
_atom_site_type_symbol
_atom_site_label
_atom_site_fract_x
_atom_site_fract_y
_atom_site_fract_z
Si Si1 0.499158 0.756048 0.804859
Si Si2 0.877425 0.523357 0.164292
Si Si3 0.010469 0.724183 0.317633
Si Si4 0.953039 0.774890 0.616110
Si Si5 0.341485 0.315053 0.008292
Si Si6 0.756955 0.123012 0.403220
Si Si7 0.997389 0.912135 0.885841
Si Si8 0.352859 0.946572 0.008914
O O1 0.574027 0.728764 0.904165
O O2 0.623821 0.928413 0.594748
O O3 0.432860 0.537746 0.844414
O O4 0.380939 0.838638 0.894597
O O5 0.734432 0.309051 0.328123
O O6 0.943758 0.609790 0.249332
O O7 0.862847 0.691288 0.046866
O O8 0.000000 0.500000 0.000000
O O9 0.190539 0.788031 0.207977
O O10 0.926493 0.653735 0.527559
O O11 0.011839 0.933028 0.246075
O O12 0.807883 0.698138 0.819829
O O13 0.101071 0.787181 0.599966
O O14 0.000000 0.000000 0.500000
O O15 0.336711 0.145994 0.955565
O O16 0.840157 0.080845 0.241976
O O17 0.000000 0.000000 0.000000
O O18 0.500000 0.000000 0.000000
#
# Coordination Sequence:
#
# PCOD9098607 Si02
#       8
#     2   2   2   2   2   2   2   2
#     4  10  21  36  54  81 126 175 204 237 307 386
#     4   9  22  39  61  92 118 160 216 274 313 356
#     4  11  20  37  64  96 123 165 207 264 325 383
#     4  12  19  34  60  94 129 154 205 263 327 391
#     4  10  20  37  53  81 131 178 196 239 309 385
#     4  11  20  38  59  91 130 158 204 269 321 379
#     4   9  18  37  63  88 114 160 218 269 304 357
#     4  10  20  37  56  88 133 170 202 244 311 404
#
# _framework density 23.581263
#
# number of rings (size 3 to 8) (size 9 to 14) (size 15 to 20)
#    0.000    1.750    3.750    0.750    1.750    0.500 
#   13.500    0.000    0.000    7.500    0.000    0.000 
#    0.000    0.000    0.000    0.000    0.000    0.000 
#
# Total GULP energy -89152.491564 kJ/mol
# GULP energy per Si atom -5572.030723 kJ/mol
# Density = 2.352759 g / cm^3
# Si number density = 23.581263 Si / 1000 Ang^3
#
#
#
# Elastic Constant Matrix: (Units=GPa)
#
#
# Indices 1 2 3 4 5 6 
#
# 1 47.6539 30.8462 30.3352 7.9676 -1.9281 -2.8612
# 2 30.8462 176.5445 98.0228 -9.1998 9.3159 -14.6900
# 3 30.3352 98.0228 123.1985 -14.0847 10.1352 -26.5527
# 4 7.9676 -9.1998 -14.0847 58.8081 6.8592 20.0876
# 5 -1.9281 9.3159 10.1352 6.8592 26.4313 8.1304
# 6 -2.8612 -14.6900 -26.5527 20.0876 8.1304 30.1528
#
#
#
# Elastic Compliance Matrix: (Units=1/GPa)
#
#
# Indices 1 2 3 4 5 6 
#
# 1 0.027956 -0.001683 -0.007530 -0.005710 0.007969 -0.003143
# 2 -0.001683 0.010451 -0.008509 0.000899 0.000213 -0.003218
# 3 -0.007530 -0.008509 0.021240 0.000407 -0.010878 0.016507
# 4 -0.005710 0.000899 0.000407 0.023289 -0.002441 -0.014602
# 5 0.007969 0.000213 -0.010878 -0.002441 0.049426 -0.020420
# 6 -0.003143 -0.003218 0.016507 -0.014602 -0.020420 0.061068
#
#
# Mechanical properties :
#
#
# Convention : Reuss Voigt Hill
#
# Bulk Modulus (GPa) = 41.31791 73.97836 57.64814
# Shear Modulus (GPa) = 21.10219 35.62460 28.36340
#
# Velocity S-wave (km/s) = 2.99468 3.89101 3.47189
# Velocity P-wave (km/s) = 5.43296 7.18515 6.36959
#
# Compressibility (1/GPa) = 0.02420258
#
# Stress axis : x y z
#
# Youngs Moduli (GPa) = 35.77031 95.68836 47.08050
#
# Poissons Ratio (x) = 0.16105 0.35453
# Poissons Ratio (y) = 0.06020 0.40060
# Poissons Ratio (z) = 0.26936 0.81419
#
# Static dielectric constant tensor:
#      x y z
#    x 2.055790 -0.006020 0.046540 
#    y -0.006020 1.972680 -0.037810 
#    z 0.046540 -0.037810 1.911570 
# 
# From -- ./inp_files/444335.got.cif
#   From: 2010.05.17/outbox.cif.g08.bks.cpg/sg2_223_cif.got.tgz:444335.got - 2010.06.03 11:33:40.
