data_PCOD9098125
_publ_section_title
;
Structure prediction by ZEFSAII (Michael W. Deem and Ramdas Pophale) SiO2 
 PCOD9098125
Probable space group: P -1
;
_chemical_formula_sum "Si O2"
_cell_formula_units_Z 15
_cell_length_a 6.695841
_cell_length_b 10.131557
_cell_length_c 13.451283
_cell_angle_alpha 65.211963
_cell_angle_beta 120.021130
_cell_angle_gamma 82.057958
_cell_volume 643.211493
_symmetry_space_group_name_H-M "P -1"
_symmetry_group_IT_number 2
_symmetry_cell_setting 'triclinic'
loop_
_space_group_symop_operation_xyz
x,y,z
-x,-y,-z
loop_
_atom_site_type_symbol
_atom_site_label
_atom_site_fract_x
_atom_site_fract_y
_atom_site_fract_z
Si Si1 0.000000 0.500000 0.500000
Si Si2 0.548137 0.822179 0.968089
Si Si3 0.274396 0.272709 0.491921
Si Si4 0.915442 0.957565 0.096489
Si Si5 0.224512 0.508952 0.991425
Si Si6 0.248341 0.987220 0.655567
Si Si7 0.209441 0.757891 0.414273
Si Si8 0.766880 0.347277 0.244446
O O1 0.748354 0.667630 0.419673
O O2 0.864019 0.390136 0.549999
O O3 0.668669 0.643880 0.009224
O O4 0.455352 0.937499 0.811734
O O5 0.292881 0.879935 0.952918
O O6 0.758396 0.853207 0.070219
O O7 0.489030 0.296251 0.476881
O O8 0.972832 0.378384 0.351092
O O9 0.319081 0.087306 0.559943
O O10 0.139426 0.852050 0.261726
O O11 0.000000 0.000000 0.000000
O O12 0.468574 0.477564 0.131685
O O13 0.146752 0.656239 0.848234
O O14 0.000000 0.500000 0.000000
O O15 0.235511 0.822005 0.676487
O O16 0.976333 0.108480 0.596923
#
# Coordination Sequence:
#
# PCOD9098125 Si02
#       8
#     1   2   2   2   2   2   2   2
#     4  10  24  42  58  86 134 166 208 266 314 380
#     4   9  20  38  59  89 130 160 214 265 319 380
#     4  11  22  40  63  90 126 167 212 262 321 380
#     4  10  20  36  63  96 123 165 213 266 328 377
#     4  10  23  42  62  91 128 173 216 268 322 387
#     4   9  20  39  62  89 126 159 207 269 314 381
#     4  10  22  39  62  92 124 168 213 260 323 390
#     4  10  23  40  62  93 127 164 217 265 319 384
#
# _framework density 23.320478000000001
#
# number of rings (size 3 to 8) (size 9 to 14) (size 15 to 20)
#    0.000    2.133    0.000    1.600    1.867   10.133 
#    2.400    0.000    0.000    0.000    0.000    0.000 
#    0.000    0.000    0.000    0.000    0.000    0.000 
#
# Total GULP energy -83518.325712 kJ/mol
# GULP energy per Si atom -5567.888381 kJ/mol
# Density = 2.326740 g / cm^3
# Si number density = 23.320478 Si / 1000 Ang^3
#
#
#
# Elastic Constant Matrix: (Units=GPa)
#
#
# Indices 1 2 3 4 5 6 
#
# 1 145.7214 11.4717 30.6362 -14.1802 -7.5508 14.5052
# 2 11.4717 52.0279 4.6949 -23.1980 -2.4807 2.7120
# 3 30.6362 4.6949 74.0264 0.0877 -11.0414 6.4055
# 4 -14.1802 -23.1980 0.0877 26.6759 7.1541 -6.7614
# 5 -7.5508 -2.4807 -11.0414 7.1541 39.3715 -4.7187
# 6 14.5052 2.7120 6.4055 -6.7614 -4.7187 19.5967
#
#
#
# Elastic Compliance Matrix: (Units=1/GPa)
#
#
# Indices 1 2 3 4 5 6 
#
# 1 0.008238 0.000362 -0.003167 0.003837 -0.000450 -0.003897
# 2 0.000362 0.032970 -0.003379 0.031464 -0.003772 0.006221
# 3 -0.003167 -0.003379 0.016028 -0.006811 0.004469 -0.003702
# 4 0.003837 0.031464 -0.006811 0.074332 -0.010524 0.018145
# 5 -0.000450 -0.003772 0.004469 -0.010524 0.028557 0.002639
# 6 -0.003897 0.006221 -0.003702 0.018145 0.002639 0.061158
#
#
# Mechanical properties :
#
#
# Convention : Reuss Voigt Hill
#
# Bulk Modulus (GPa) = 22.28716 40.59794 31.44255
# Shear Modulus (GPa) = 20.11201 32.12700 26.11951
#
# Velocity S-wave (km/s) = 2.93988 3.71567 3.35031
# Velocity P-wave (km/s) = 4.59364 5.98789 5.33649
#
# Compressibility (1/GPa) = 0.04486889
#
# Stress axis : x y z
#
# Youngs Moduli (GPa) = 121.39439 30.33021 62.38922
#
# Poissons Ratio (x) = -0.01098 0.19756
# Poissons Ratio (y) = -0.04393 0.21082
# Poissons Ratio (z) = 0.38440 0.10249
#
# Static dielectric constant tensor:
#      x y z
#    x 1.846360 -0.002890 -0.014400 
#    y -0.002890 1.875350 -0.003070 
#    z -0.014400 -0.003070 1.969360 
# 
# From -- ./inp_files/481531.got.cif
#   From: 2010.05.17/outbox.cif.g08.bks.cpg/sg2_241_cif.got.tgz:481531.got - 2010.06.03 11:33:40.
