data_PCOD9098212
_publ_section_title
;
Structure prediction by ZEFSAII (Michael W. Deem and Ramdas Pophale) SiO2 
 PCOD9098212
Probable space group: P -1
;
_chemical_formula_sum "Si O2"
_cell_formula_units_Z 15
_cell_length_a 18.775860
_cell_length_b 12.195410
_cell_length_c 6.880410
_cell_angle_alpha 96.299553
_cell_angle_beta 113.982417
_cell_angle_gamma 28.175240
_cell_volume 555.510827
_symmetry_space_group_name_H-M "P -1"
_symmetry_group_IT_number 2
_symmetry_cell_setting 'triclinic'
loop_
_space_group_symop_operation_xyz
x,y,z
-x,-y,-z
loop_
_atom_site_type_symbol
_atom_site_label
_atom_site_fract_x
_atom_site_fract_y
_atom_site_fract_z
Si Si1 0.216277 0.108189 0.092712
Si Si2 0.218767 0.429130 0.582922
Si Si3 0.225365 0.349398 0.187113
Si Si4 0.665523 0.091865 0.375945
Si Si5 0.363399 0.457376 0.671887
Si Si6 0.107277 0.991828 0.482903
Si Si7 0.000000 0.500000 0.500000
Si Si8 0.754573 0.441479 0.888495
O O1 0.206280 0.252263 0.063350
O O2 0.257989 0.051903 0.358422
O O3 0.408061 0.800489 0.152309
O O4 0.994158 0.348426 0.885584
O O5 0.340592 0.217573 0.490401
O O6 0.373723 0.328242 0.771556
O O7 0.027264 0.763604 0.468066
O O8 0.152930 0.407128 0.620763
O O9 0.255513 0.411340 0.090081
O O10 0.429630 0.379241 0.177632
O O11 0.725538 0.140860 0.434374
O O12 0.807561 0.836562 0.343235
O O13 0.277371 0.542254 0.374190
O O14 0.220098 0.739448 0.644334
O O15 0.963547 0.145982 0.171552
#
# Coordination Sequence:
#
# PCOD9098212 Si02
#       8
#     2   2   2   2   2   2   1   2
#     4  10  20  36  64  90 121 163 202 256 302 359
#     4  10  22  38  63  85 122 166 190 258 305 356
#     4  10  20  39  62  91 127 153 209 250 309 361
#     4  10  21  38  62  92 121 167 195 256 303 360
#     4  10  23  40  63  89 121 166 206 248 300 363
#     4  11  22  44  59  90 130 160 205 249 300 364
#     4  10  20  38  62  86 132 148 202 248 316 354
#     4  10  22  38  66  92 117 164 206 254 300 357
#
# _framework density 27.002175999999999
#
# number of rings (size 3 to 8) (size 9 to 14) (size 15 to 20)
#    0.000    1.867    2.667    0.800    1.867    3.733 
#    9.600    3.333    0.000    0.000    0.000    0.000 
#    0.000    0.000    0.000    0.000    0.000    0.000 
#
# Total GULP energy -83527.191504 kJ/mol
# GULP energy per Si atom -5568.479434 kJ/mol
# Density = 2.694072 g / cm^3
# Si number density = 27.002176 Si / 1000 Ang^3
#
#
#
# Elastic Constant Matrix: (Units=GPa)
#
#
# Indices 1 2 3 4 5 6 
#
# 1 158.1851 15.0421 43.5669 -20.1626 20.4375 -1.0676
# 2 15.0421 84.7780 35.3083 -7.6890 14.4429 -1.0305
# 3 43.5669 35.3083 -27.9818 3.6100 -55.9895 0.7085
# 4 -20.1626 -7.6890 3.6100 32.2218 -0.2262 -10.0425
# 5 20.4375 14.4429 -55.9895 -0.2262 16.8759 -5.8834
# 6 -1.0676 -1.0305 0.7085 -10.0425 -5.8834 27.9558
#
#
#
# Elastic Compliance Matrix: (Units=1/GPa)
#
#
# Indices 1 2 3 4 5 6 
#
# 1 0.006058 -0.002079 0.002224 0.003673 0.002553 0.001955
# 2 -0.002079 0.010482 0.002885 0.001369 0.003658 0.001495
# 3 0.002224 0.002885 -0.002205 0.001634 -0.013128 -0.001929
# 4 0.003673 0.001369 0.001634 0.038204 0.005558 0.015043
# 5 0.002553 0.003658 -0.013128 0.005558 0.011275 0.004935
# 6 0.001955 0.001495 -0.001929 0.015043 0.004935 0.042392
#
#
# Mechanical properties :
#
#
# Convention : Reuss Voigt Hill
#
# Bulk Modulus (GPa) = 49.03109 44.75734 46.89422
# Shear Modulus (GPa) = 46.75276 23.48161 35.11718
#
# Velocity S-wave (km/s) = 4.16558 2.95213 3.61020
# Velocity P-wave (km/s) = 6.42913 5.31334 5.89768
#
# Compressibility (1/GPa) = 0.02039522
#
# Stress axis : x y z
#
# Youngs Moduli (GPa) = 165.06145 95.40016 -453.57115
#
# Poissons Ratio (x) = 0.19837 1.00885
# Poissons Ratio (y) = 0.34322 1.30846
# Poissons Ratio (z) = -0.36714 -0.27521
#
# Static dielectric constant tensor:
#      x y z
#    x 1.872260 0.361880 1.234330 
#    y 0.361880 1.339660 -1.828560 
#    z 1.234330 -1.828560 -2.264030 
# 
# From -- ./inp_files/235545.got.cif
#   From: 2010.05.17/outbox.cif.g08.bks.cpg/sg2_118_cif.got.tgz:235545.got - 2010.06.03 11:33:40.
