data_PCOD9098836
_publ_section_title
;
Structure prediction by ZEFSAII (Michael W. Deem and Ramdas Pophale) SiO2 
 PCOD9098836
Probable space group: P -1
;
_chemical_formula_sum "Si O2"
_cell_formula_units_Z 16
_cell_length_a 11.229706
_cell_length_b 8.580460
_cell_length_c 12.063912
_cell_angle_alpha 121.497679
_cell_angle_beta 132.591309
_cell_angle_gamma 51.721594
_cell_volume 660.994916
_symmetry_space_group_name_H-M "P -1"
_symmetry_group_IT_number 2
_symmetry_cell_setting 'triclinic'
loop_
_space_group_symop_operation_xyz
x,y,z
-x,-y,-z
loop_
_atom_site_type_symbol
_atom_site_label
_atom_site_fract_x
_atom_site_fract_y
_atom_site_fract_z
Si Si1 0.360594 0.484891 0.669128
Si Si2 0.736945 0.507769 0.930607
Si Si3 0.981234 0.723271 0.548316
Si Si4 0.490591 0.171505 0.468217
Si Si5 0.547613 0.906072 0.837872
Si Si6 0.403650 0.351260 0.883805
Si Si7 0.121333 0.859416 0.269722
Si Si8 0.864707 0.923535 0.328581
O O1 0.542653 0.507598 0.793519
O O2 0.348243 0.375851 0.508710
O O3 0.369274 0.347752 0.729997
O O4 0.185395 0.686862 0.643897
O O5 0.865349 0.289937 0.879682
O O6 0.703480 0.713593 0.920846
O O7 0.752057 0.549550 0.085431
O O8 0.868184 0.788007 0.388008
O O9 0.000000 0.500000 0.500000
O O10 0.924864 0.898828 0.671638
O O11 0.672897 0.205709 0.585585
O O12 0.500000 0.000000 0.500000
O O13 0.442310 0.133132 0.301522
O O14 0.537000 0.129672 0.928024
O O15 0.347586 0.946083 0.768994
O O16 0.500000 0.500000 0.000000
O O17 0.979856 0.837341 0.257831
O O18 0.000000 0.000000 0.500000
#
# Coordination Sequence:
#
# PCOD9098836 Si02
#       8
#     2   2   2   2   2   2   2   2
#     4  10  21  35  61  86 124 156 194 248 304 358
#     4  10  23  38  61  87 115 162 209 245 289 346
#     4  11  20  35  57  88 124 162 193 232 312 378
#     4  11  20  34  59  97 123 149 197 256 308 354
#     4  12  21  38  66  90 122 160 200 247 304 366
#     4  10  22  43  59  86 120 163 208 255 289 343
#     4  10  22  39  56  89 133 152 191 254 298 364
#     4  10  20  37  57  91 128 155 188 239 315 376
#
# _framework density 24.205936999999999
#
# number of rings (size 3 to 8) (size 9 to 14) (size 15 to 20)
#    0.000    1.500    3.750    3.375    1.750    1.000 
#    0.000    1.250    0.000    1.500    0.000    0.000 
#    0.000    0.000    0.000    0.000    0.000    0.000 
#
# Total GULP energy -89094.555792 kJ/mol
# GULP energy per Si atom -5568.409737 kJ/mol
# Density = 2.415084 g / cm^3
# Si number density = 24.205937 Si / 1000 Ang^3
#
#
#
# Elastic Constant Matrix: (Units=GPa)
#
#
# Indices 1 2 3 4 5 6 
#
# 1 92.8659 26.4969 32.8485 11.6266 -9.4538 9.6627
# 2 26.4969 116.2825 36.5021 33.1716 -18.1235 1.3791
# 3 32.8485 36.5021 98.4463 33.9104 -30.7548 -3.5129
# 4 11.6266 33.1716 33.9104 41.9929 -9.6786 -6.5415
# 5 -9.4538 -18.1235 -30.7548 -9.6786 46.7930 11.8371
# 6 9.6627 1.3791 -3.5129 -6.5415 11.8371 48.1155
#
#
#
# Elastic Compliance Matrix: (Units=1/GPa)
#
#
# Indices 1 2 3 4 5 6 
#
# 1 0.012894 -0.001837 -0.003880 0.000622 0.000175 -0.002778
# 2 -0.001837 0.011935 -0.000029 -0.008506 0.002942 -0.001855
# 3 -0.003880 -0.000029 0.018399 -0.011897 0.009287 -0.001779
# 4 0.000622 -0.008506 -0.011897 0.039893 -0.004179 0.005702
# 5 0.000175 0.002942 0.009287 -0.004179 0.029631 -0.007299
# 6 -0.002778 -0.001855 -0.001779 0.005702 -0.007299 0.023836
#
#
# Mechanical properties :
#
#
# Convention : Reuss Voigt Hill
#
# Bulk Modulus (GPa) = 31.51111 55.47663 43.49387
# Shear Modulus (GPa) = 31.51424 41.49676 36.50550
#
# Velocity S-wave (km/s) = 3.61213 4.14493 3.88767
# Velocity P-wave (km/s) = 5.51750 6.77315 6.17731
#
# Compressibility (1/GPa) = 0.03173484
#
# Stress axis : x y z
#
# Youngs Moduli (GPa) = 77.55642 83.78936 54.35081
#
# Poissons Ratio (x) = 0.15396 0.21087
# Poissons Ratio (y) = 0.14250 0.00158
# Poissons Ratio (z) = 0.30090 0.00244
#
# Static dielectric constant tensor:
#      x y z
#    x 2.228260 0.156270 -0.039720 
#    y 0.156270 2.073170 0.016360 
#    z -0.039720 0.016360 1.994750 
# 
# From -- ./inp_files/182707.got.cif
#   From: 2010.05.17/outbox.cif.g08.bks.cpg/sg2_92_cif.got.tgz:182707.got - 2010.06.03 11:33:40.
