data_PCOD9098140
_publ_section_title
;
Structure prediction by ZEFSAII (Michael W. Deem and Ramdas Pophale) SiO2 
 PCOD9098140
Probable space group: P -1
;
_chemical_formula_sum "Si O2"
_cell_formula_units_Z 16
_cell_length_a 14.011332
_cell_length_b 9.598632
_cell_length_c 9.243934
_cell_angle_alpha 134.639783
_cell_angle_beta 70.009974
_cell_angle_gamma 90.271175
_cell_volume 778.049067
_symmetry_space_group_name_H-M "P -1"
_symmetry_group_IT_number 2
_symmetry_cell_setting 'triclinic'
loop_
_space_group_symop_operation_xyz
x,y,z
-x,-y,-z
loop_
_atom_site_type_symbol
_atom_site_label
_atom_site_fract_x
_atom_site_fract_y
_atom_site_fract_z
Si Si1 0.984052 0.735647 0.730063
Si Si2 0.536230 0.154004 0.195976
Si Si3 0.927577 0.084748 0.455295
Si Si4 0.883647 0.678198 0.203983
Si Si5 0.618183 0.498277 0.286475
Si Si6 0.814328 0.504639 0.379864
Si Si7 0.737969 0.507049 0.955497
Si Si8 0.743285 0.789544 0.906350
O O1 0.858691 0.815831 0.901117
O O2 0.000000 0.500000 0.500000
O O3 0.009433 0.857596 0.669071
O O4 0.079256 0.690590 0.767868
O O5 0.553613 0.343475 0.238233
O O6 0.451677 0.269709 0.450190
O O7 0.500000 0.000000 0.000000
O O8 0.652194 0.012066 0.093294
O O9 0.825267 0.289855 0.696822
O O10 0.886871 0.895459 0.306123
O O11 0.000000 0.000000 0.500000
O O12 0.850552 0.662438 0.375343
O O13 0.802863 0.609660 0.100081
O O14 0.000000 0.500000 0.000000
O O15 0.728597 0.436941 0.281743
O O16 0.647685 0.483794 0.091830
O O17 0.761455 0.642066 0.647189
O O18 0.703175 0.663759 0.955056
#
# Coordination Sequence:
#
# PCOD9098140 Si02
#       8
#     2   2   2   2   2   2   2   2
#     4  10  20  36  63  97 132 174 213 252 319 403
#     4  11  24  46  72  94 124 171 221 274 332 382
#     4  12  22  36  63  89 135 183 211 258 333 376
#     4  11  23  37  59  94 132 174 222 262 309 392
#     4  10  25  43  71 100 122 167 228 269 322 394
#     4  10  20  41  65  93 138 166 213 267 320 395
#     4  11  24  42  61  97 132 164 218 274 319 391
#     4  11  22  41  68  91 135 178 209 271 328 380
#
# _framework density 20.564254999999999
#
# number of rings (size 3 to 8) (size 9 to 14) (size 15 to 20)
#    0.000    1.250    5.000    2.250    3.500    1.500 
#    0.000    2.500    0.000    0.000    0.000    0.000 
#    0.000    0.000    0.000    0.000    0.000    0.000 
#
# Total GULP energy -89373.939020 kJ/mol
# GULP energy per Si atom -5585.871189 kJ/mol
# Density = 2.051745 g / cm^3
# Si number density = 20.564255 Si / 1000 Ang^3
#
#
#
# Elastic Constant Matrix: (Units=GPa)
#
#
# Indices 1 2 3 4 5 6 
#
# 1 55.1880 9.7087 20.9728 3.7333 -11.9038 2.3982
# 2 9.7087 120.0486 41.5077 -11.0866 0.1012 13.5467
# 3 20.9728 41.5077 83.1758 -1.9503 -9.9141 -0.7767
# 4 3.7333 -11.0866 -1.9503 40.8021 1.2630 -1.4638
# 5 -11.9038 0.1012 -9.9141 1.2630 31.8736 8.0569
# 6 2.3982 13.5467 -0.7767 -1.4638 8.0569 30.9565
#
#
#
# Elastic Compliance Matrix: (Units=1/GPa)
#
#
# Indices 1 2 3 4 5 6 
#
# 1 0.021948 0.000067 -0.004731 -0.002603 0.007842 -0.004012
# 2 0.000067 0.011019 -0.005578 0.002574 -0.000666 -0.004672
# 3 -0.004731 -0.005578 0.016339 -0.000296 0.002713 0.002497
# 4 -0.002603 0.002574 -0.000296 0.025535 -0.002305 0.000875
# 5 0.007842 -0.000666 0.002713 -0.002305 0.037819 -0.010200
# 6 -0.004012 -0.004672 0.002497 0.000875 -0.010200 0.037417
#
#
# Mechanical properties :
#
#
# Convention : Reuss Voigt Hill
#
# Bulk Modulus (GPa) = 34.69747 44.75452 39.72600
# Shear Modulus (GPa) = 27.75167 33.14132 30.44649
#
# Velocity S-wave (km/s) = 3.67755 4.01883 3.85197
# Velocity P-wave (km/s) = 5.91116 6.58370 6.25648
#
# Compressibility (1/GPa) = 0.02882055
#
# Stress axis : x y z
#
# Youngs Moduli (GPa) = 45.56188 90.75424 61.20233
#
# Poissons Ratio (x) = -0.00604 0.28956
# Poissons Ratio (y) = -0.00303 0.34140
# Poissons Ratio (z) = 0.21556 0.50625
#
# Static dielectric constant tensor:
#      x y z
#    x 1.881470 0.126190 -0.097850 
#    y 0.126190 1.878140 -0.152400 
#    z -0.097850 -0.152400 1.856210 
# 
# From -- ./inp_files/296697.got.cif
#   From: 2010.05.17/outbox.cif.g08.bks.cpg/sg2_149_cif.got.tgz:296697.got - 2010.06.03 11:33:40.
