data_PCOD9098359
_publ_section_title
;
Structure prediction by ZEFSAII (Michael W. Deem and Ramdas Pophale) SiO2 
 PCOD9098359
Probable space group: P -1
;
_chemical_formula_sum "Si O2"
_cell_formula_units_Z 14
_cell_length_a 8.775183
_cell_length_b 13.851224
_cell_length_c 18.239328
_cell_angle_alpha 137.891892
_cell_angle_beta 135.992404
_cell_angle_gamma 29.743198
_cell_volume 718.444353
_symmetry_space_group_name_H-M "P -1"
_symmetry_group_IT_number 2
_symmetry_cell_setting 'triclinic'
loop_
_space_group_symop_operation_xyz
x,y,z
-x,-y,-z
loop_
_atom_site_type_symbol
_atom_site_label
_atom_site_fract_x
_atom_site_fract_y
_atom_site_fract_z
Si Si1 0.236465 0.519191 0.074656
Si Si2 0.364316 0.029971 0.890322
Si Si3 0.745632 0.903973 0.683419
Si Si4 0.411287 0.490757 0.680345
Si Si5 0.342918 0.887131 0.079927
Si Si6 0.822834 0.023955 0.523512
Si Si7 0.215829 0.786760 0.664613
O O1 0.451557 0.461006 0.185632
O O2 0.007494 0.759325 0.115286
O O3 0.444551 0.356440 0.989889
O O4 0.000000 0.500000 0.000000
O O5 0.521343 0.060479 0.901662
O O6 0.397786 0.849376 0.776459
O O7 0.500000 0.000000 0.000000
O O8 0.435269 0.972024 0.586199
O O9 0.035840 0.654574 0.659322
O O10 0.908469 0.924639 0.689086
O O11 0.670503 0.032331 0.800890
O O12 0.621479 0.249709 0.617009
O O13 0.417702 0.560477 0.640865
O O14 0.000000 0.000000 0.000000
O O15 0.000000 0.000000 0.500000
O O16 0.080469 0.844448 0.568949
#
# Coordination Sequence:
#
# PCOD9098359 Si02
#       7
#     2   2   2   2   2   2   2
#     4  10  20  36  65  90 127 167 201 258 317 373
#     4  11  21  38  63  93 129 167 209 260 319 375
#     4  10  23  41  64  90 128 169 207 262 312 377
#     4  10  22  42  66  89 128 168 207 256 327 368
#     4  11  20  39  64  94 127 165 212 256 314 378
#     4  12  24  42  67  93 123 166 217 262 314 375
#     4  10  22  41  65  90 127 160 214 253 320 371
#
# _framework density 19.486546000000001
#
# number of rings (size 3 to 8) (size 9 to 14) (size 15 to 20)
#    0.857    0.571    2.857    4.286    2.000    0.571 
#    0.000    4.286    0.000    0.000    0.000    0.000 
#    0.000    0.000    0.000    0.000    0.000    0.000 
#
# Total GULP energy -78056.586477 kJ/mol
# GULP energy per Si atom -5575.470463 kJ/mol
# Density = 1.944219 g / cm^3
# Si number density = 19.486546 Si / 1000 Ang^3
#
#
#
# Elastic Constant Matrix: (Units=GPa)
#
#
# Indices 1 2 3 4 5 6 
#
# 1 75.3982 -8.5729 20.0864 -9.2660 -8.8554 -2.9534
# 2 -8.5729 50.3371 2.8775 -7.2883 -5.8458 3.2931
# 3 20.0864 2.8775 111.4698 -20.4217 -3.5101 -1.4217
# 4 -9.2660 -7.2883 -20.4217 39.4299 -2.1475 -5.3527
# 5 -8.8554 -5.8458 -3.5101 -2.1475 38.0805 -3.4701
# 6 -2.9534 3.2931 -1.4217 -5.3527 -3.4701 28.9582
#
#
#
# Elastic Compliance Matrix: (Units=1/GPa)
#
#
# Indices 1 2 3 4 5 6 
#
# 1 0.015265 0.003615 -0.001988 0.003770 0.004341 0.002265
# 2 0.003615 0.021758 -0.000182 0.004923 0.004380 -0.000680
# 3 -0.001988 -0.000182 0.010308 0.005071 0.000870 0.001366
# 4 0.003770 0.004923 0.005071 0.030881 0.004416 0.006311
# 5 0.004341 0.004380 0.000870 0.004416 0.028657 0.004238
# 6 0.002265 -0.000680 0.001366 0.006311 0.004238 0.036582
#
#
# Mechanical properties :
#
#
# Convention : Reuss Voigt Hill
#
# Bulk Modulus (GPa) = 19.91151 29.55412 24.73281
# Shear Modulus (GPa) = 31.78608 36.14797 33.96702
#
# Velocity S-wave (km/s) = 4.04317 4.31167 4.17958
# Velocity P-wave (km/s) = 5.66008 6.32350 6.00097
#
# Compressibility (1/GPa) = 0.05022222
#
# Stress axis : x y z
#
# Youngs Moduli (GPa) = 65.50769 45.95984 97.01465
#
# Poissons Ratio (x) = -0.16615 0.19285
# Poissons Ratio (y) = -0.23682 0.01764
# Poissons Ratio (z) = 0.13022 0.00836
#
# Static dielectric constant tensor:
#      x y z
#    x 1.668270 0.010470 0.005180 
#    y 0.010470 1.718400 0.018270 
#    z 0.005180 0.018270 1.671790 
# 
# From -- ./inp_files/186135.got.cif
#   From: 2010.05.17/outbox.cif.g08.bks.cpg/sg2_94_cif.got.tgz:186135.got - 2010.06.03 11:33:40.
