data_PCOD9098320
_publ_section_title
;
Structure prediction by ZEFSAII (Michael W. Deem and Ramdas Pophale) SiO2 
 PCOD9098320
Probable space group: P -1
;
_chemical_formula_sum "Si O2"
_cell_formula_units_Z 16
_cell_length_a 5.358077
_cell_length_b 25.158308
_cell_length_c 19.336728
_cell_angle_alpha 19.698427
_cell_angle_beta 100.221654
_cell_angle_gamma 113.387188
_cell_volume 623.392167
_symmetry_space_group_name_H-M "P -1"
_symmetry_group_IT_number 2
_symmetry_cell_setting 'triclinic'
loop_
_space_group_symop_operation_xyz
x,y,z
-x,-y,-z
loop_
_atom_site_type_symbol
_atom_site_label
_atom_site_fract_x
_atom_site_fract_y
_atom_site_fract_z
Si Si1 0.920284 0.650165 0.251162
Si Si2 0.438990 0.266618 0.500363
Si Si3 0.972798 0.809793 0.702193
Si Si4 0.261214 0.845653 0.243733
Si Si5 0.194841 0.334442 0.283013
Si Si6 0.159319 0.612665 0.037135
Si Si7 0.573855 0.443613 0.762259
Si Si8 0.394647 0.224990 0.819346
O O1 0.796062 0.690784 0.128640
O O2 0.622527 0.386314 0.568787
O O3 0.813337 0.721538 0.221497
O O4 0.294106 0.726897 0.180026
O O5 0.496049 0.133175 0.711028
O O6 0.213051 0.194147 0.508558
O O7 0.824278 0.480985 0.231084
O O8 0.329912 0.361327 0.427840
O O9 0.991518 0.792766 0.641470
O O10 0.586078 0.569205 0.996137
O O11 0.223415 0.796920 0.771589
O O12 0.000000 0.000000 0.500000
O O13 0.902517 0.585548 0.549281
O O14 0.500000 0.000000 0.000000
O O15 0.144866 0.973006 0.100768
O O16 0.060203 0.427553 0.206157
O O17 0.446649 0.693496 0.010004
#
# Coordination Sequence:
#
# PCOD9098320 Si02
#       8
#     2   2   2   2   2   2   2   2
#     4  10  23  41  60  85 124 169 206 269 341 395
#     4   9  20  38  60  85 123 165 218 258 333 382
#     4  10  20  36  64  98 126 162 214 263 325 403
#     4  11  24  37  63  93 119 164 223 284 320 394
#     4   9  19  39  61  86 130 173 201 269 326 397
#     4   9  19  38  62  88 125 170 215 260 330 395
#     4  10  22  39  66  86 121 172 220 267 331 400
#     4  10  24  40  59  87 126 159 214 272 338 392
#
# _framework density 25.666029000000002
#
# number of rings (size 3 to 8) (size 9 to 14) (size 15 to 20)
#    0.000    2.250    0.000    1.125   10.500    1.500 
#    2.250    0.000    0.000    0.000    0.000    0.000 
#    0.000    0.000    0.000    0.000    0.000    0.000 
#
# Total GULP energy -89257.489017 kJ/mol
# GULP energy per Si atom -5578.593064 kJ/mol
# Density = 2.560761 g / cm^3
# Si number density = 25.666029 Si / 1000 Ang^3
#
#
#
# Elastic Constant Matrix: (Units=GPa)
#
#
# Indices 1 2 3 4 5 6 
#
# 1 84.5051 43.2824 37.8977 18.1862 12.0653 13.5491
# 2 43.2824 135.9561 57.3997 41.6931 21.7462 20.8652
# 3 37.8977 57.3997 148.7121 24.7225 28.3577 8.6706
# 4 18.1862 41.6931 24.7225 38.2682 10.8200 10.0586
# 5 12.0653 21.7462 28.3577 10.8200 50.6386 13.4305
# 6 13.5491 20.8652 8.6706 10.0586 13.4305 45.1426
#
#
#
# Elastic Compliance Matrix: (Units=1/GPa)
#
#
# Indices 1 2 3 4 5 6 
#
# 1 0.015134 -0.002900 -0.002268 -0.001942 -0.000062 -0.002315
# 2 -0.002900 0.012860 -0.002216 -0.010425 -0.000811 -0.002084
# 3 -0.002268 -0.002216 0.009042 -0.001709 -0.003582 0.001414
# 4 -0.001942 -0.010425 -0.001709 0.040831 -0.002100 -0.002744
# 5 -0.000062 -0.000811 -0.003582 -0.002100 0.024052 -0.005607
# 6 -0.002315 -0.002084 0.001414 -0.002744 -0.005607 0.025818
#
#
# Mechanical properties :
#
#
# Convention : Reuss Voigt Hill
#
# Bulk Modulus (GPa) = 44.90425 71.81475 58.35950
# Shear Modulus (GPa) = 33.34945 42.18280 37.76613
#
# Velocity S-wave (km/s) = 3.60858 4.05844 3.84010
# Velocity P-wave (km/s) = 5.90728 7.07124 6.51531
#
# Compressibility (1/GPa) = 0.02226961
#
# Stress axis : x y z
#
# Youngs Moduli (GPa) = 66.07722 77.75790 110.59283
#
# Poissons Ratio (x) = 0.22549 0.25081
# Poissons Ratio (y) = 0.19161 0.24504
# Poissons Ratio (z) = 0.14986 0.17228
#
# Static dielectric constant tensor:
#      x y z
#    x 2.143320 -0.007280 0.011550 
#    y -0.007280 2.125420 0.027110 
#    z 0.011550 0.027110 2.037010 
# 
# From -- ./inp_files/551227.got.cif
#   From: 2010.05.17/outbox.cif.g08.bks.cpg/sg2_276_cif.got.tgz:551227.got - 2010.06.03 11:33:40.
