data_PCOD9098348
_publ_section_title
;
Structure prediction by ZEFSAII (Michael W. Deem and Ramdas Pophale) SiO2 
 PCOD9098348
Probable space group: P -1
;
_chemical_formula_sum "Si O2"
_cell_formula_units_Z 14
_cell_length_a 12.097039
_cell_length_b 15.533441
_cell_length_c 24.792997
_cell_angle_alpha 26.569816
_cell_angle_beta 19.006813
_cell_angle_gamma 36.008441
_cell_volume 656.776601
_symmetry_space_group_name_H-M "P -1"
_symmetry_group_IT_number 2
_symmetry_cell_setting 'triclinic'
loop_
_space_group_symop_operation_xyz
x,y,z
-x,-y,-z
loop_
_atom_site_type_symbol
_atom_site_label
_atom_site_fract_x
_atom_site_fract_y
_atom_site_fract_z
Si Si1 0.860393 0.398579 0.213647
Si Si2 0.180949 0.921289 0.151479
Si Si3 0.362696 0.808704 0.754594
Si Si4 0.547386 0.280599 0.950174
Si Si5 0.326847 0.935202 0.441012
Si Si6 0.652486 0.623120 0.629765
Si Si7 0.545029 0.717618 0.885529
O O1 0.592201 0.256553 0.458279
O O2 0.660971 0.463855 0.218915
O O3 0.130985 0.594246 0.002091
O O4 0.131940 0.270733 0.140934
O O5 0.331166 0.891735 0.039962
O O6 0.972806 0.721893 0.389227
O O7 0.911439 0.057691 0.196858
O O8 0.500000 0.000000 0.000000
O O9 0.518772 0.780339 0.640411
O O10 0.666508 0.910593 0.599012
O O11 0.722608 0.473971 0.725872
O O12 0.625083 0.304347 0.964258
O O13 0.960043 0.819484 0.647905
O O14 0.555692 0.098446 0.202916
O O15 0.500000 0.500000 0.000000
#
# Coordination Sequence:
#
# PCOD9098348 Si02
#       7
#     2   2   2   2   2   2   2
#     4  10  20  38  63  89 123 161 211 246 298 368
#     4  12  24  36  58  94 136 161 197 250 314 365
#     4  11  22  38  63  93 123 166 209 246 301 374
#     4  10  22  38  60  92 123 160 201 257 310 357
#     4  10  20  36  65  89 118 155 210 257 300 352
#     4  11  21  38  62  87 128 167 207 243 304 375
#     4  10  21  40  64  92 119 156 216 262 300 355
#
# _framework density 21.316227999999999
#
# number of rings (size 3 to 8) (size 9 to 14) (size 15 to 20)
#    0.000    1.429    1.429    6.857    4.000    0.000 
#    0.000    0.714    0.000    1.714    0.000    0.000 
#    0.000    0.000    0.000    0.000    0.000    0.000 
#
# Total GULP energy -77938.056289 kJ/mol
# GULP energy per Si atom -5567.004021 kJ/mol
# Density = 2.126771 g / cm^3
# Si number density = 21.316228 Si / 1000 Ang^3
#
#
#
# Elastic Constant Matrix: (Units=GPa)
#
#
# Indices 1 2 3 4 5 6 
#
# 1 99.9086 32.8422 44.9683 -16.9436 22.8332 23.5554
# 2 32.8422 83.6643 32.7904 -2.7536 15.4896 23.7153
# 3 44.9683 32.7904 109.4951 -28.2794 11.6950 10.5017
# 4 -16.9436 -2.7536 -28.2794 35.7506 -2.3886 3.1185
# 5 22.8332 15.4896 11.6950 -2.3886 54.1032 -11.7503
# 6 23.5554 23.7153 10.5017 3.1185 -11.7503 30.8990
#
#
#
# Elastic Compliance Matrix: (Units=1/GPa)
#
#
# Indices 1 2 3 4 5 6 
#
# 1 0.020193 0.002133 -0.003434 0.008045 -0.012706 -0.021507
# 2 0.002133 0.020027 -0.003760 0.000618 -0.010051 -0.019604
# 3 -0.003434 -0.003760 0.014107 0.009255 -0.000179 -0.000293
# 4 0.008045 0.000618 0.009255 0.040108 -0.007411 -0.016619
# 5 -0.012706 -0.010051 -0.000179 -0.007411 0.033125 0.030807
# 6 -0.021507 -0.019604 -0.000293 -0.016619 0.030807 0.077297
#
#
# Mechanical properties :
#
#
# Convention : Reuss Voigt Hill
#
# Bulk Modulus (GPa) = 22.62235 57.14110 39.88172
# Shear Modulus (GPa) = 21.76623 36.31502 29.04062
#
# Velocity S-wave (km/s) = 3.19895 4.13199 3.69504
# Velocity P-wave (km/s) = 4.92749 7.04478 6.07903
#
# Compressibility (1/GPa) = 0.04420408
#
# Stress axis : x y z
#
# Youngs Moduli (GPa) = 49.52299 49.93243 70.88879
#
# Poissons Ratio (x) = -0.10650 0.24342
# Poissons Ratio (y) = -0.10563 0.26656
# Poissons Ratio (z) = 0.17005 0.18776
#
# Static dielectric constant tensor:
#      x y z
#    x 1.870010 -0.048730 0.030090 
#    y -0.048730 1.858400 -0.048180 
#    z 0.030090 -0.048180 1.823530 
# 
# From -- ./inp_files/200097.got.cif
#   From: 2010.05.17/outbox.cif.g08.bks.cpg/sg2_101_cif.got.tgz:200097.got - 2010.06.03 11:33:40.
