data_PCOD9098272
_publ_section_title
;
Structure prediction by ZEFSAII (Michael W. Deem and Ramdas Pophale) SiO2 
 PCOD9098272
Probable space group: P -1
;
_chemical_formula_sum "Si O2"
_cell_formula_units_Z 16
_cell_length_a 9.477915
_cell_length_b 15.018512
_cell_length_c 16.040931
_cell_angle_alpha 27.343092
_cell_angle_beta 134.798977
_cell_angle_gamma 138.239470
_cell_volume 691.880625
_symmetry_space_group_name_H-M "P -1"
_symmetry_group_IT_number 2
_symmetry_cell_setting 'triclinic'
loop_
_space_group_symop_operation_xyz
x,y,z
-x,-y,-z
loop_
_atom_site_type_symbol
_atom_site_label
_atom_site_fract_x
_atom_site_fract_y
_atom_site_fract_z
Si Si1 0.587062 0.494286 0.860100
Si Si2 0.544617 0.211805 0.941511
Si Si3 0.306619 0.565691 0.341372
Si Si4 0.750621 0.897225 0.874085
Si Si5 0.043141 0.803434 0.781772
Si Si6 0.080779 0.798700 0.601680
Si Si7 0.846291 0.172243 0.832819
Si Si8 0.507309 0.284106 0.223325
O O1 0.546284 0.431595 0.798619
O O2 0.841176 0.596700 0.894013
O O3 0.500547 0.659834 0.729272
O O4 0.469573 0.268295 0.041577
O O5 0.593102 0.242241 0.839675
O O6 0.744011 0.174727 0.098419
O O7 0.324486 0.033070 0.024045
O O8 0.500000 0.500000 0.500000
O O9 0.213742 0.635440 0.326058
O O10 0.118016 0.393430 0.356651
O O11 0.699794 0.889845 0.761434
O O12 0.824171 0.113361 0.775028
O O13 0.927110 0.803544 0.053123
O O14 0.084360 0.799771 0.703080
O O15 0.965410 0.993331 0.610921
O O16 0.291240 0.773476 0.670978
O O17 0.500000 0.500000 0.000000
#
# Coordination Sequence:
#
# PCOD9098272 Si02
#       8
#     2   2   2   2   2   2   2   2
#     4  10  20  37  66  95 126 160 209 265 322 377
#     4  11  23  40  67  95 126 166 222 263 315 384
#     4  12  25  40  62  92 130 173 212 262 319 378
#     4   9  20  37  64  91 123 168 214 255 312 383
#     4  11  23  40  67  98 131 164 209 274 328 372
#     4  11  24  41  63  98 135 167 208 268 326 377
#     4  10  21  39  62  89 125 170 218 255 306 383
#     4  10  20  36  64  94 125 165 208 257 324 379
#
# _framework density 23.125374999999998
#
# number of rings (size 3 to 8) (size 9 to 14) (size 15 to 20)
#    0.000    1.500    1.250    5.250    5.250    1.500 
#    0.000    0.000    0.000    3.000    0.000    0.000 
#    0.000    0.000    0.000    0.000    0.000    0.000 
#
# Total GULP energy -89387.422107 kJ/mol
# GULP energy per Si atom -5586.713882 kJ/mol
# Density = 2.307274 g / cm^3
# Si number density = 23.125375 Si / 1000 Ang^3
#
#
#
# Elastic Constant Matrix: (Units=GPa)
#
#
# Indices 1 2 3 4 5 6 
#
# 1 97.9788 28.4217 41.5586 6.9735 44.2436 -16.1444
# 2 28.4217 76.0010 35.0357 13.6664 12.1320 5.2552
# 3 41.5586 35.0357 91.9748 10.1863 29.9145 -5.5823
# 4 6.9735 13.6664 10.1863 31.2384 0.2045 7.8697
# 5 44.2436 12.1320 29.9145 0.2045 42.4197 -12.0335
# 6 -16.1444 5.2552 -5.5823 7.8697 -12.0335 53.3585
#
#
#
# Elastic Compliance Matrix: (Units=1/GPa)
#
#
# Indices 1 2 3 4 5 6 
#
# 1 0.021355 -0.003892 -0.001327 -0.003210 -0.019414 0.002801
# 2 -0.003892 0.017707 -0.005303 -0.004576 0.002096 -0.002329
# 3 -0.001327 -0.005303 0.016673 -0.002841 -0.008756 0.000310
# 4 -0.003210 -0.004576 -0.002841 0.036916 0.005028 -0.005129
# 5 -0.019414 0.002096 -0.008756 0.005028 0.050404 0.003629
# 6 0.002801 -0.002329 0.000310 -0.005129 0.003629 0.021425
#
#
# Mechanical properties :
#
#
# Convention : Reuss Voigt Hill
#
# Bulk Modulus (GPa) = 28.82447 52.88741 40.85594
# Shear Modulus (GPa) = 25.36959 36.13257 30.75108
#
# Velocity S-wave (km/s) = 3.31576 3.95709 3.65054
# Velocity P-wave (km/s) = 5.21062 6.61797 5.95601
#
# Compressibility (1/GPa) = 0.03469275
#
# Stress axis : x y z
#
# Youngs Moduli (GPa) = 46.82816 56.47523 59.97567
#
# Poissons Ratio (x) = 0.21978 0.07957
# Poissons Ratio (y) = 0.18224 0.31804
# Poissons Ratio (z) = 0.06213 0.29948
#
# Static dielectric constant tensor:
#      x y z
#    x 1.962990 -0.077390 0.000550 
#    y -0.077390 1.887750 -0.055750 
#    z 0.000550 -0.055750 1.858940 
# 
# From -- ./inp_files/561358.got.cif
#   From: 2010.05.17/outbox.cif.g08.bks.cpg/sg2_281_cif.got.tgz:561358.got - 2010.06.03 11:33:40.
