data_PCOD9098479
_publ_section_title
;
Structure prediction by ZEFSAII (Michael W. Deem and Ramdas Pophale) SiO2 
 PCOD9098479
Probable space group: P -1
;
_chemical_formula_sum "Si O2"
_cell_formula_units_Z 13
_cell_length_a 11.295347
_cell_length_b 5.146534
_cell_length_c 12.457475
_cell_angle_alpha 85.980930
_cell_angle_beta 133.899499
_cell_angle_gamma 73.701473
_cell_volume 462.709944
_symmetry_space_group_name_H-M "P -1"
_symmetry_group_IT_number 2
_symmetry_cell_setting 'triclinic'
loop_
_space_group_symop_operation_xyz
x,y,z
-x,-y,-z
loop_
_atom_site_type_symbol
_atom_site_label
_atom_site_fract_x
_atom_site_fract_y
_atom_site_fract_z
Si Si1 0.443515 0.723522 0.222703
Si Si2 0.216849 0.534979 0.963626
Si Si3 0.719761 0.494880 0.602219
Si Si4 0.266118 0.326329 0.758677
Si Si5 0.186099 0.127708 0.207926
Si Si6 0.960619 0.889076 0.287917
Si Si7 0.000000 0.000000 0.500000
O O1 0.567776 0.611091 0.411266
O O2 0.551847 0.791746 0.194074
O O3 0.258347 0.009931 0.137625
O O4 0.386261 0.482519 0.148682
O O5 0.273431 0.341105 0.894211
O O6 0.029435 0.640731 0.914875
O O7 0.171058 0.853648 0.874915
O O8 0.694060 0.726711 0.670593
O O9 0.917325 0.422819 0.675419
O O10 0.771516 0.174685 0.693432
O O11 0.151923 0.137234 0.677449
O O12 0.147442 0.649878 0.632741
O O13 0.097107 0.969364 0.438708
#
# Coordination Sequence:
#
# PCOD9098479 Si02
#       7
#     2   2   2   2   2   2   1
#     4  12  25  42  69 107 135 182 234 296 347 408
#     4  10  24  46  66  96 146 183 229 284 356 422
#     4  11  24  47  74 101 139 182 244 290 339 414
#     4  11  22  41  68  98 139 174 238 279 357 410
#     4  11  25  51  71 101 141 190 234 288 349 420
#     4  10  21  40  67  97 132 190 226 284 344 422
#     4  10  20  36  66  96 132 180 228 282 342 414
#
# _framework density 28.095354
#
# number of rings (size 3 to 8) (size 9 to 14) (size 15 to 20)
#    0.000    1.231    3.077    2.308    0.000    0.615 
#   11.077    2.308    0.000    0.000    0.000    0.000 
#    0.000    0.000    0.000    0.000    0.000    0.000 
#
# Total GULP energy -72526.113593 kJ/mol
# GULP energy per Si atom -5578.931815 kJ/mol
# Density = 2.803141 g / cm^3
# Si number density = 28.095354 Si / 1000 Ang^3
#
#
#
# Elastic Constant Matrix: (Units=GPa)
#
#
# Indices 1 2 3 4 5 6 
#
# 1 177.4767 33.8453 38.1526 15.4355 -14.0938 -27.3705
# 2 33.8453 133.9717 42.5947 6.3399 -19.4897 4.0140
# 3 38.1526 42.5947 112.7951 24.3516 -8.1752 -0.8769
# 4 15.4355 6.3399 24.3516 57.0908 -6.0678 -15.6755
# 5 -14.0938 -19.4897 -8.1752 -6.0678 27.6579 6.5914
# 6 -27.3705 4.0140 -0.8769 -15.6755 6.5914 50.1697
#
#
#
# Elastic Compliance Matrix: (Units=1/GPa)
#
#
# Indices 1 2 3 4 5 6 
#
# 1 0.006898 -0.001078 -0.001842 0.000202 0.001374 0.003700
# 2 -0.001078 0.009572 -0.002959 0.000570 0.005925 -0.002006
# 3 -0.001842 -0.002959 0.011591 -0.004685 -0.000147 -0.002010
# 4 0.000202 0.000570 -0.004685 0.021388 0.002295 0.006364
# 5 0.001374 0.005925 -0.000147 0.002295 0.042589 -0.004605
# 6 0.003700 -0.002006 -0.002010 0.006364 -0.004605 0.024670
#
#
# Mechanical properties :
#
#
# Convention : Reuss Voigt Hill
#
# Bulk Modulus (GPa) = 61.33316 72.60320 66.96818
# Shear Modulus (GPa) = 37.34123 47.62709 42.48416
#
# Velocity S-wave (km/s) = 3.64962 4.12174 3.89285
# Velocity P-wave (km/s) = 6.29582 6.96774 6.64029
#
# Compressibility (1/GPa) = 0.01630439
#
# Stress axis : x y z
#
# Youngs Moduli (GPa) = 144.96759 104.46618 86.27126
#
# Poissons Ratio (x) = 0.11258 0.15887
# Poissons Ratio (y) = 0.15623 0.25532
# Poissons Ratio (z) = 0.26697 0.30916
#
# Static dielectric constant tensor:
#      x y z
#    x 2.465670 0.134650 0.163130 
#    y 0.134650 2.682440 0.600480 
#    z 0.163130 0.600480 2.704650 
# 
# From -- ./inp_files/75428.got.cif
#   From: 2010.05.17/outbox.cif.g08.bks.cpg/sg2_38_cif.got.tgz:75428.got - 2010.06.03 11:33:40.
