data_PCOD9098735
_publ_section_title
;
Structure prediction by ZEFSAII (Michael W. Deem and Ramdas Pophale) SiO2 
 PCOD9098735
Probable space group: P -1
;
_chemical_formula_sum "Si O2"
_cell_formula_units_Z 10
_cell_length_a 11.667775
_cell_length_b 14.533048
_cell_length_c 9.563654
_cell_angle_alpha 81.340104
_cell_angle_beta 76.279025
_cell_angle_gamma 150.870412
_cell_volume 501.508041
_symmetry_space_group_name_H-M "P -1"
_symmetry_group_IT_number 2
_symmetry_cell_setting 'triclinic'
loop_
_space_group_symop_operation_xyz
x,y,z
-x,-y,-z
loop_
_atom_site_type_symbol
_atom_site_label
_atom_site_fract_x
_atom_site_fract_y
_atom_site_fract_z
Si Si1 0.496459 0.803523 0.698575
Si Si2 0.248796 0.933828 0.728853
Si Si3 0.928179 0.864511 0.946449
Si Si4 0.378964 0.874679 0.912119
Si Si5 0.431350 0.333203 0.178785
O O1 0.549201 0.906020 0.797891
O O2 0.673151 0.833241 0.660189
O O3 0.632189 0.958134 0.486896
O O4 0.060602 0.465820 0.879678
O O5 0.450511 0.005541 0.741759
O O6 0.256890 0.036675 0.790160
O O7 0.812992 0.585793 0.934910
O O8 0.838514 0.839382 0.826090
O O9 0.581569 0.539246 0.162353
O O10 0.000000 0.000000 0.000000
O O11 0.500000 0.000000 0.000000
#
# Coordination Sequence:
#
# PCOD9098735 Si02
#       5
#     2   2   2   2   2
#     4  10  20  37  57  77 108 140 176 220 260 318
#     4   9  19  37  55  80 106 140 180 209 265 318
#     4   9  18  36  55  76 112 137 169 223 260 307
#     4  10  22  37  54  79 110 138 175 224 265 305
#     4   8  19  35  54  77 108 139 172 212 272 300
#
# _framework density 19.939859999999999
#
# number of rings (size 3 to 8) (size 9 to 14) (size 15 to 20)
#    1.200    1.600    0.000    0.600    2.800    1.600 
#    3.600    1.000    0.000    0.000    0.000    0.000 
#    0.000    0.000    0.000    0.000    0.000    0.000 
#
# Total GULP energy -55673.505584 kJ/mol
# GULP energy per Si atom -5567.350558 kJ/mol
# Density = 1.989448 g / cm^3
# Si number density = 19.939860 Si / 1000 Ang^3
#
#
#
# Elastic Constant Matrix: (Units=GPa)
#
#
# Indices 1 2 3 4 5 6 
#
# 1 99.1891 39.7013 12.9168 10.5914 20.0128 -13.1055
# 2 39.7013 106.4217 21.0892 24.7278 2.7614 -35.1277
# 3 12.9168 21.0892 68.8778 10.4736 26.1870 -10.4864
# 4 10.5914 24.7278 10.4736 14.8483 -0.6931 -10.8803
# 5 20.0128 2.7614 26.1870 -0.6931 31.5429 9.0883
# 6 -13.1055 -35.1277 -10.4864 -10.8803 9.0883 21.8139
#
#
#
# Elastic Compliance Matrix: (Units=1/GPa)
#
#
# Indices 1 2 3 4 5 6 
#
# 1 0.020049 0.006163 0.017494 -0.006524 -0.040618 0.044049
# 2 0.006163 0.037136 0.023533 -0.023108 -0.051641 0.084806
# 3 0.017494 0.023533 0.057859 -0.020363 -0.091683 0.104261
# 4 -0.006524 -0.023108 -0.020363 0.127677 0.025224 0.002253
# 5 -0.040618 -0.051641 -0.091683 0.025224 0.203111 -0.223677
# 6 0.044049 0.084806 0.104261 0.002253 -0.223677 0.353307
#
#
# Mechanical properties :
#
#
# Convention : Reuss Voigt Hill
#
# Bulk Modulus (GPa) = 4.77498 46.87815 25.82657
# Shear Modulus (GPa) = 6.45523 27.02643 16.74083
#
# Velocity S-wave (km/s) = 1.80122 3.68557 2.90067
# Velocity P-wave (km/s) = 2.59340 6.45539 4.91923
#
# Compressibility (1/GPa) = 0.20942505
#
# Stress axis : x y z
#
# Youngs Moduli (GPa) = 49.87886 26.92804 17.28325
#
# Poissons Ratio (x) = -0.16597 -0.30236
# Poissons Ratio (y) = -0.30742 -0.40672
# Poissons Ratio (z) = -0.87260 -0.63369
#
# Static dielectric constant tensor:
#      x y z
#    x 1.762980 -0.033100 -0.003220 
#    y -0.033100 1.666630 -0.038250 
#    z -0.003220 -0.038250 1.745330 
# 
# From -- ./inp_files/2488.got.cif
#   From: 2010.05.17/outbox.cif.g08.bks.cpg/sg2_2_cif.got.tgz:2488.got - 2010.06.03 11:33:40.
