data_PCOD9098460
_publ_section_title
;
Structure prediction by ZEFSAII (Michael W. Deem and Ramdas Pophale) SiO2 
 PCOD9098460
Probable space group: P -1
;
_chemical_formula_sum "Si O2"
_cell_formula_units_Z 16
_cell_length_a 8.691905
_cell_length_b 11.439470
_cell_length_c 9.228682
_cell_angle_alpha 107.238009
_cell_angle_beta 110.826006
_cell_angle_gamma 54.907359
_cell_volume 696.668984
_symmetry_space_group_name_H-M "P -1"
_symmetry_group_IT_number 2
_symmetry_cell_setting 'triclinic'
loop_
_space_group_symop_operation_xyz
x,y,z
-x,-y,-z
loop_
_atom_site_type_symbol
_atom_site_label
_atom_site_fract_x
_atom_site_fract_y
_atom_site_fract_z
Si Si1 0.842459 0.080165 0.101843
Si Si2 0.904566 0.404083 0.546225
Si Si3 0.858768 0.151859 0.428818
Si Si4 0.344725 0.180935 0.593253
Si Si5 0.514762 0.114523 0.339865
Si Si6 0.935130 0.432764 0.220730
Si Si7 0.777971 0.828893 0.976170
Si Si8 0.423240 0.285705 0.919728
O O1 0.930611 0.126517 0.277537
O O2 0.634032 0.219926 0.039323
O O3 0.810105 0.951480 0.095699
O O4 0.000000 0.000000 0.000000
O O5 0.824423 0.302969 0.528709
O O6 0.878494 0.432135 0.372842
O O7 0.130728 0.295029 0.604615
O O8 0.896256 0.526578 0.691796
O O9 0.650451 0.169549 0.357892
O O10 0.000000 0.000000 0.500000
O O11 0.368061 0.212933 0.450035
O O12 0.480096 0.201869 0.754285
O O13 0.366794 0.030256 0.579598
O O14 0.400329 0.094023 0.167227
O O15 0.734246 0.548521 0.114152
O O16 0.040608 0.289654 0.103248
O O17 0.704210 0.760217 0.044552
#
# Coordination Sequence:
#
# PCOD9098460 Si02
#       8
#     2   2   2   2   2   2   2   2
#     4  12  27  41  67 102 134 169 214 282 336 382
#     4  10  21  42  66  95 133 172 226 262 324 390
#     4  12  25  41  65 102 135 166 215 284 331 379
#     4  10  20  36  66  94 126 174 217 264 317 394
#     4  11  21  36  67  97 127 168 216 273 326 377
#     4  10  23  42  72  93 130 186 217 263 321 406
#     4  12  22  44  68 100 131 169 224 275 324 392
#     4  11  23  42  66  96 128 173 226 264 325 386
#
# _framework density 22.966429999999999
#
# number of rings (size 3 to 8) (size 9 to 14) (size 15 to 20)
#    0.000    1.000    5.000    2.250    3.500    0.000 
#    0.000    3.125    0.000    0.000    0.000    0.000 
#    0.000    0.000    0.000    0.000    0.000    0.000 
#
# Total GULP energy -89184.202012 kJ/mol
# GULP energy per Si atom -5574.012626 kJ/mol
# Density = 2.291416 g / cm^3
# Si number density = 22.966430 Si / 1000 Ang^3
#
#
#
# Elastic Constant Matrix: (Units=GPa)
#
#
# Indices 1 2 3 4 5 6 
#
# 1 34.4663 16.9299 -4.2272 -4.9890 -3.9342 -0.3024
# 2 16.9299 107.4004 19.3076 -11.8281 17.0762 -4.9888
# 3 -4.2272 19.3076 69.7019 -8.0694 2.8774 1.4804
# 4 -4.9890 -11.8281 -8.0694 46.0935 -0.2294 4.0121
# 5 -3.9342 17.0762 2.8774 -0.2294 24.6904 -1.0108
# 6 -0.3024 -4.9888 1.4804 4.0121 -1.0108 23.8127
#
#
#
# Elastic Compliance Matrix: (Units=1/GPa)
#
#
# Indices 1 2 3 4 5 6 
#
# 1 0.034837 -0.007647 0.004149 0.002711 0.010322 -0.001436
# 2 -0.007647 0.012967 -0.003511 0.001650 -0.009674 0.002149
# 3 0.004149 -0.003511 0.015856 0.002507 0.001181 -0.002041
# 4 0.002711 0.001650 0.002507 0.023170 -0.000938 -0.003719
# 5 0.010322 -0.009674 0.001181 -0.000938 0.048701 0.000256
# 6 -0.001436 0.002149 -0.002041 -0.003719 0.000256 0.043191
#
#
# Mechanical properties :
#
#
# Convention : Reuss Voigt Hill
#
# Bulk Modulus (GPa) = 20.14387 30.62105 25.38246
# Shear Modulus (GPa) = 23.89064 30.88988 27.39026
#
# Velocity S-wave (km/s) = 3.22878 3.67140 3.45718
# Velocity P-wave (km/s) = 4.76341 5.59769 5.19732
#
# Compressibility (1/GPa) = 0.04964290
#
# Stress axis : x y z
#
# Youngs Moduli (GPa) = 28.70516 77.11748 63.06818
#
# Poissons Ratio (x) = 0.58970 -0.26168
# Poissons Ratio (y) = 0.21950 0.22143
# Poissons Ratio (z) = -0.11910 0.27076
#
# Static dielectric constant tensor:
#      x y z
#    x 1.986420 0.085360 0.044640 
#    y 0.085360 2.199090 0.250720 
#    z 0.044640 0.250720 2.079560 
# 
# From -- ./inp_files/189556.got.cif
#   From: 2010.05.17/outbox.cif.g08.bks.cpg/sg2_95_cif.got.tgz:189556.got - 2010.06.03 11:33:40.
