data_PCOD9098890
_publ_section_title
;
Structure prediction by ZEFSAII (Michael W. Deem and Ramdas Pophale) SiO2 
 PCOD9098890
Probable space group: P -1
;
_chemical_formula_sum "Si O2"
_cell_formula_units_Z 15
_cell_length_a 6.940656
_cell_length_b 20.707209
_cell_length_c 12.833509
_cell_angle_alpha 142.782898
_cell_angle_beta 54.158550
_cell_angle_gamma 137.284473
_cell_volume 756.771830
_symmetry_space_group_name_H-M "P -1"
_symmetry_group_IT_number 2
_symmetry_cell_setting 'triclinic'
loop_
_space_group_symop_operation_xyz
x,y,z
-x,-y,-z
loop_
_atom_site_type_symbol
_atom_site_label
_atom_site_fract_x
_atom_site_fract_y
_atom_site_fract_z
Si Si1 0.687024 0.296938 0.881265
Si Si2 0.584776 0.667198 0.482282
Si Si3 0.633126 0.513323 0.087483
Si Si4 0.340069 0.084418 0.871202
Si Si5 0.256455 0.837675 0.498806
Si Si6 0.238055 0.970093 0.975904
Si Si7 0.848357 0.281413 0.407090
Si Si8 0.500000 0.500000 0.500000
O O1 0.543732 0.224068 0.939729
O O2 0.631690 0.192498 0.678157
O O3 0.025260 0.392399 0.908865
O O4 0.572566 0.381028 0.982780
O O5 0.531690 0.573791 0.282383
O O6 0.377426 0.715449 0.591226
O O7 0.535691 0.592718 0.509178
O O8 0.919815 0.777128 0.513398
O O9 0.500000 0.500000 0.000000
O O10 0.402408 0.984405 0.672705
O O11 0.342097 0.070407 0.977109
O O12 0.015159 0.037228 0.890605
O O13 0.275560 0.760285 0.490222
O O14 0.111071 0.831065 0.786652
O O15 0.500000 0.000000 0.000000
O O16 0.150713 0.412539 0.481778
#
# Coordination Sequence:
#
# PCOD9098890 Si02
#       8
#     2   2   2   2   2   2   2   1
#     4  10  21  38  60  87 114 151 195 241 289 346
#     4  10  20  37  58  83 115 154 193 239 291 345
#     4  10  22  39  57  85 120 155 191 240 296 346
#     4  10  21  38  60  87 114 151 195 241 289 346
#     4   9  19  37  61  82 114 148 192 240 288 346
#     4  10  22  39  57  85 120 155 191 240 296 346
#     4  10  20  37  58  83 115 154 193 239 291 345
#     4  10  22  36  54  86 114 150 200 240 286 342
#
# _framework density 19.821033
#
# number of rings (size 3 to 8) (size 9 to 14) (size 15 to 20)
#    0.000    2.133    0.000    2.400    1.867    3.200 
#    0.000    0.000    0.000    8.800    0.000    0.000 
#    0.000    0.000    0.000    0.000    0.000    0.000 
#
# Total GULP energy -83507.172015 kJ/mol
# GULP energy per Si atom -5567.144801 kJ/mol
# Density = 1.977592 g / cm^3
# Si number density = 19.821033 Si / 1000 Ang^3
#
#
#
# Elastic Constant Matrix: (Units=GPa)
#
#
# Indices 1 2 3 4 5 6 
#
# 1 76.5568 4.4234 -4.3547 5.5274 -2.8064 -16.6610
# 2 4.4234 98.8583 8.1154 1.8484 -11.3480 -18.6317
# 3 -4.3547 8.1154 39.6531 1.8946 -10.3909 -7.7857
# 4 5.5274 1.8484 1.8946 10.9163 -1.0978 -1.7219
# 5 -2.8064 -11.3480 -10.3909 -1.0978 20.8415 5.0682
# 6 -16.6610 -18.6317 -7.7857 -1.7219 5.0682 16.1074
#
#
#
# Elastic Compliance Matrix: (Units=1/GPa)
#
#
# Indices 1 2 3 4 5 6 
#
# 1 0.019842 0.003991 0.007516 -0.007539 0.001509 0.027492
# 2 0.003991 0.014059 0.002787 -0.001242 0.004616 0.020153
# 3 0.007516 0.002787 0.033693 -0.005217 0.013594 0.022449
# 4 -0.007539 -0.001242 -0.005217 0.096372 0.001231 -0.001841
# 5 0.001509 0.004616 0.013594 0.001231 0.058726 -0.004875
# 6 0.027492 0.020153 0.022449 -0.001841 -0.004875 0.126019
#
#
# Mechanical properties :
#
#
# Convention : Reuss Voigt Hill
#
# Bulk Modulus (GPa) = 10.39706 25.71514 18.05610
# Shear Modulus (GPa) = 14.19712 23.36532 18.78122
#
# Velocity S-wave (km/s) = 2.67922 3.43711 3.08155
# Velocity P-wave (km/s) = 3.85069 5.36223 4.66804
#
# Compressibility (1/GPa) = 0.09618107
#
# Stress axis : x y z
#
# Youngs Moduli (GPa) = 50.39849 71.12694 29.67982
#
# Poissons Ratio (x) = -0.28386 -0.22307
# Poissons Ratio (y) = -0.20113 -0.08271
# Poissons Ratio (z) = -0.37879 -0.19821
#
# Static dielectric constant tensor:
#      x y z
#    x 1.665380 -0.007760 0.008290 
#    y -0.007760 1.668370 0.019520 
#    z 0.008290 0.019520 1.745850 
# 
# From -- ./inp_files/92494.got.cif
#   From: 2010.05.17/outbox.cif.g08.bks.cpg/sg2_47_cif.got.tgz:92494.got - 2010.06.03 11:33:40.
