data_PCOD9098098
_publ_section_title
;
Structure prediction by ZEFSAII (Michael W. Deem and Ramdas Pophale) SiO2 
 PCOD9098098
Probable space group: P -1
;
_chemical_formula_sum "Si O2"
_cell_formula_units_Z 16
_cell_length_a 17.421070
_cell_length_b 8.618342
_cell_length_c 12.344803
_cell_angle_alpha 61.357133
_cell_angle_beta 111.787018
_cell_angle_gamma 150.040115
_cell_volume 808.203711
_symmetry_space_group_name_H-M "P -1"
_symmetry_group_IT_number 2
_symmetry_cell_setting 'triclinic'
loop_
_space_group_symop_operation_xyz
x,y,z
-x,-y,-z
loop_
_atom_site_type_symbol
_atom_site_label
_atom_site_fract_x
_atom_site_fract_y
_atom_site_fract_z
Si Si1 0.411255 0.332672 0.393920
Si Si2 0.944891 0.594667 0.295239
Si Si3 0.594449 0.347178 0.397746
Si Si4 0.344822 0.616049 0.211087
Si Si5 0.889108 0.429953 0.554756
Si Si6 0.328724 0.629467 0.809133
Si Si7 0.158600 0.200867 0.056222
Si Si8 0.165896 0.340928 0.423639
O O1 0.500000 0.500000 0.500000
O O2 0.502633 0.363516 0.352902
O O3 0.394149 0.499806 0.285616
O O4 0.242331 0.936095 0.441473
O O5 0.952139 0.649167 0.409662
O O6 0.787881 0.409820 0.237413
O O7 0.974557 0.437716 0.364000
O O8 0.089345 0.923929 0.189809
O O9 0.662657 0.428744 0.288528
O O10 0.722494 0.588149 0.477097
O O11 0.500000 0.000000 0.500000
O O12 0.268274 0.511483 0.089507
O O13 0.213762 0.416030 0.299469
O O14 0.499060 0.003822 0.188970
O O15 0.809511 0.414891 0.602999
O O16 0.257998 0.359675 0.946303
O O17 0.000000 0.000000 0.000000
O O18 0.000000 0.000000 0.500000
#
# Coordination Sequence:
#
# PCOD9098098 Si02
#       8
#     2   2   2   2   2   2   2   2
#     4  12  22  35  64  99 132 163 205 266 320 383
#     4  10  20  36  63  94 122 166 212 249 320 373
#     4  12  21  41  60  97 129 168 203 265 327 372
#     4  12  23  41  63  97 125 165 224 255 316 386
#     4  11  21  37  63  94 135 163 204 266 328 369
#     4  11  22  41  68  87 132 172 214 259 314 379
#     4  10  23  41  65  90 123 174 220 259 307 382
#     4  12  25  37  62  96 134 159 209 266 325 383
#
# _framework density 19.796989
#
# number of rings (size 3 to 8) (size 9 to 14) (size 15 to 20)
#    0.000    0.750    6.250    1.875    3.500    1.000 
#    0.000    0.625    2.750    1.500    0.000    0.000 
#    0.000    0.000    0.000    0.000    0.000    0.000 
#
# Total GULP energy -89179.218921 kJ/mol
# GULP energy per Si atom -5573.701183 kJ/mol
# Density = 1.975193 g / cm^3
# Si number density = 19.796989 Si / 1000 Ang^3
#
#
#
# Elastic Constant Matrix: (Units=GPa)
#
#
# Indices 1 2 3 4 5 6 
#
# 1 99.6984 -3.7300 18.6291 -0.4141 -9.0166 4.8487
# 2 -3.7300 44.7638 1.6582 -0.9611 1.6948 9.7322
# 3 18.6291 1.6582 106.6776 -2.5755 -25.7877 1.3949
# 4 -0.4141 -0.9611 -2.5755 36.4907 6.2991 -0.8813
# 5 -9.0166 1.6948 -25.7877 6.2991 32.2584 0.8532
# 6 4.8487 9.7322 1.3949 -0.8813 0.8532 27.8448
#
#
#
# Elastic Compliance Matrix: (Units=1/GPa)
#
#
# Indices 1 2 3 4 5 6 
#
# 1 0.010626 0.001363 -0.001392 -0.000328 0.001911 -0.002326
# 2 0.001363 0.024439 -0.000846 0.000645 -0.001476 -0.008671
# 3 -0.001392 -0.000846 0.011866 -0.000817 0.009310 -0.000368
# 4 -0.000328 0.000645 -0.000817 0.028482 -0.006366 0.000969
# 5 0.001911 -0.001476 0.009310 -0.006366 0.040343 -0.001721
# 6 -0.002326 -0.008671 -0.000368 0.000969 -0.001721 0.039451
#
#
# Mechanical properties :
#
#
# Convention : Reuss Voigt Hill
#
# Bulk Modulus (GPa) = 22.13273 31.58381 26.85827
# Shear Modulus (GPa) = 29.06683 34.95760 32.01221
#
# Velocity S-wave (km/s) = 3.83593 4.20671 4.02559
# Velocity P-wave (km/s) = 5.55187 6.29155 5.93325
#
# Compressibility (1/GPa) = 0.04518196
#
# Stress axis : x y z
#
# Youngs Moduli (GPa) = 94.10866 40.91751 84.27416
#
# Poissons Ratio (x) = -0.05578 0.11734
# Poissons Ratio (y) = -0.12830 0.07127
# Poissons Ratio (z) = 0.13103 0.03460
#
# Static dielectric constant tensor:
#      x y z
#    x 1.125500 -0.292040 0.254990 
#    y -0.292040 1.645150 0.097740 
#    z 0.254990 0.097740 1.607930 
# 
# From -- ./inp_files/332453.got.cif
#   From: 2010.05.17/outbox.cif.g08.bks.cpg/sg2_167_cif.got.tgz:332453.got - 2010.06.03 11:33:40.
