data_PCOD9098580
_publ_section_title
;
Structure prediction by ZEFSAII (Michael W. Deem and Ramdas Pophale) SiO2 
 PCOD9098580
Probable space group: P -1
;
_chemical_formula_sum "Si O2"
_cell_formula_units_Z 16
_cell_length_a 8.404792
_cell_length_b 20.304446
_cell_length_c 7.358261
_cell_angle_alpha 138.885894
_cell_angle_beta 57.516626
_cell_angle_gamma 121.549036
_cell_volume 680.417423
_symmetry_space_group_name_H-M "P -1"
_symmetry_group_IT_number 2
_symmetry_cell_setting 'triclinic'
loop_
_space_group_symop_operation_xyz
x,y,z
-x,-y,-z
loop_
_atom_site_type_symbol
_atom_site_label
_atom_site_fract_x
_atom_site_fract_y
_atom_site_fract_z
Si Si1 0.855075 0.389053 0.900544
Si Si2 0.762073 0.295292 0.162380
Si Si3 0.661719 0.698637 0.484045
Si Si4 0.853008 0.879491 0.248746
Si Si5 0.467019 0.515547 0.838177
Si Si6 0.018024 0.824374 0.691475
Si Si7 0.167767 0.919283 0.436847
Si Si8 0.186289 0.335539 0.081191
O O1 0.922383 0.286276 0.577932
O O2 0.804653 0.361200 0.086314
O O3 0.660115 0.402309 0.949885
O O4 0.000000 0.500000 0.000000
O O5 0.562723 0.299478 0.390483
O O6 0.745292 0.175527 0.878034
O O7 0.959879 0.330178 0.227223
O O8 0.644611 0.593926 0.391039
O O9 0.794943 0.794480 0.698760
O O10 0.770072 0.681866 0.195565
O O11 0.960506 0.902133 0.422672
O O12 0.749607 0.760775 0.066240
O O13 0.019773 0.878626 0.995272
O O14 0.738523 0.965212 0.439561
O O15 0.500000 0.500000 0.000000
O O16 0.679532 0.558765 0.722046
O O17 0.135171 0.900640 0.630644
#
# Coordination Sequence:
#
# PCOD9098580 Si02
#       8
#     2   2   2   2   2   2   2   2
#     4  11  20  39  62  92 132 168 211 263 311 377
#     4  10  22  38  66  84 126 174 205 262 325 369
#     4  11  21  40  61  89 128 169 205 259 318 374
#     4  10  20  36  70  89 121 172 211 257 334 371
#     4  10  22  36  60  88 127 167 203 258 315 368
#     4  11  21  38  67  94 128 168 213 259 320 383
#     4   9  20  43  61  91 128 162 210 275 316 372
#     4  10  21  43  59  92 130 162 213 268 308 374
#
# _framework density 23.514976999999998
#
# number of rings (size 3 to 8) (size 9 to 14) (size 15 to 20)
#    0.000    1.750    5.000    1.125    1.750    6.000 
#    0.000    1.250    2.750    0.750    0.000    0.000 
#    0.000    0.000    0.000    0.000    0.000    0.000 
#
# Total GULP energy -89282.563932 kJ/mol
# GULP energy per Si atom -5580.160246 kJ/mol
# Density = 2.346146 g / cm^3
# Si number density = 23.514977 Si / 1000 Ang^3
#
#
#
# Elastic Constant Matrix: (Units=GPa)
#
#
# Indices 1 2 3 4 5 6 
#
# 1 55.7197 33.5079 19.8820 -7.3748 -22.9486 -8.1596
# 2 33.5079 69.8007 19.0744 20.7273 -14.5057 -19.3665
# 3 19.8820 19.0744 75.9297 9.3298 -19.8702 -7.2314
# 4 -7.3748 20.7273 9.3298 39.1839 -4.7446 -7.2043
# 5 -22.9486 -14.5057 -19.8702 -4.7446 37.2989 -9.5458
# 6 -8.1596 -19.3665 -7.2314 -7.2043 -9.5458 36.9062
#
#
#
# Elastic Compliance Matrix: (Units=1/GPa)
#
#
# Indices 1 2 3 4 5 6 
#
# 1 0.046960 -0.021467 -0.002543 0.025691 0.025046 0.010113
# 2 -0.021467 0.032617 0.000514 -0.019946 -0.000633 0.008413
# 3 -0.002543 0.000514 0.016672 -0.002873 0.008319 0.004565
# 4 0.025691 -0.019946 -0.002873 0.044563 0.013970 0.006963
# 5 0.025046 -0.000633 0.008319 0.013970 0.054219 0.023586
# 6 0.010113 0.008413 0.004565 0.006963 0.023586 0.042100
#
#
# Mechanical properties :
#
#
# Convention : Reuss Voigt Hill
#
# Bulk Modulus (GPa) = 20.30187 38.48654 29.39420
# Shear Modulus (GPa) = 16.63656 31.27684 23.95670
#
# Velocity S-wave (km/s) = 2.66275 3.65099 3.19530
# Velocity P-wave (km/s) = 4.25511 5.84596 5.11279
#
# Compressibility (1/GPa) = 0.04925654
#
# Stress axis : x y z
#
# Youngs Moduli (GPa) = 21.29452 30.65912 59.98108
#
# Poissons Ratio (x) = 0.65815 0.15254
# Poissons Ratio (y) = 0.45712 -0.03081
# Poissons Ratio (z) = 0.05416 -0.01575
#
# Static dielectric constant tensor:
#      x y z
#    x 1.912530 -0.007550 0.028750 
#    y -0.007550 1.955510 0.014020 
#    z 0.028750 0.014020 1.951680 
# 
# From -- ./inp_files/222539.got.cif
#   From: 2010.05.17/outbox.cif.g08.bks.cpg/sg2_112_cif.got.tgz:222539.got - 2010.06.03 11:33:40.
