data_PCOD9098285
_publ_section_title
;
Structure prediction by ZEFSAII (Michael W. Deem and Ramdas Pophale) SiO2 
 PCOD9098285
Probable space group: P -1
;
_chemical_formula_sum "Si O2"
_cell_formula_units_Z 14
_cell_length_a 21.049148
_cell_length_b 8.720557
_cell_length_c 8.898561
_cell_angle_alpha 133.388511
_cell_angle_beta 49.971341
_cell_angle_gamma 147.148322
_cell_volume 634.810192
_symmetry_space_group_name_H-M "P -1"
_symmetry_group_IT_number 2
_symmetry_cell_setting 'triclinic'
loop_
_space_group_symop_operation_xyz
x,y,z
-x,-y,-z
loop_
_atom_site_type_symbol
_atom_site_label
_atom_site_fract_x
_atom_site_fract_y
_atom_site_fract_z
Si Si1 0.618026 0.457325 0.230616
Si Si2 0.603966 0.773623 0.708515
Si Si3 0.138523 0.656082 0.313754
Si Si4 0.149191 0.226292 0.094464
Si Si5 0.859881 0.665944 0.484815
Si Si6 0.933223 0.361996 0.256648
Si Si7 0.388848 0.672201 0.519390
O O1 0.623170 0.699616 0.464308
O O2 0.506042 0.272017 0.167321
O O3 0.603251 0.285941 0.284060
O O4 0.735617 0.619247 0.072570
O O5 0.589316 0.540853 0.677859
O O6 0.725785 0.111454 0.780507
O O7 0.089442 0.328858 0.187934
O O8 0.120975 0.733697 0.555137
O O9 0.069463 0.656052 0.290382
O O10 0.183446 0.351071 0.294288
O O11 0.073771 0.876238 0.970576
O O12 0.873150 0.436679 0.304591
O O13 0.748490 0.530753 0.457767
O O14 0.000000 0.000000 0.500000
O O15 0.500000 0.000000 0.500000
#
# Coordination Sequence:
#
# PCOD9098285 Si02
#       7
#     2   2   2   2   2   2   2
#     4   9  21  39  70  91 129 170 225 264 318 386
#     4   9  19  39  68  89 129 171 220 259 327 379
#     4  10  20  36  64  95 124 168 216 274 318 376
#     4  11  23  39  69  97 125 171 230 265 319 391
#     4  11  26  43  66  95 137 176 211 270 345 386
#     4  10  21  38  63  91 133 164 217 270 323 383
#     4  10  22  40  69  97 133 178 212 264 340 385
#
# _framework density 22.053836
#
# number of rings (size 3 to 8) (size 9 to 14) (size 15 to 20)
#    0.857    1.143    1.429    1.286    6.000    3.429 
#    0.000    2.143    0.000    0.000    0.000    0.000 
#    0.000    0.000    0.000    0.000    0.000    0.000 
#
# Total GULP energy -77981.169910 kJ/mol
# GULP energy per Si atom -5570.083565 kJ/mol
# Density = 2.200364 g / cm^3
# Si number density = 22.053836 Si / 1000 Ang^3
#
#
#
# Elastic Constant Matrix: (Units=GPa)
#
#
# Indices 1 2 3 4 5 6 
#
# 1 151.2900 35.1762 5.3999 8.8790 -10.7153 22.0574
# 2 35.1762 81.0686 -1.8124 4.2507 1.3181 12.3254
# 3 5.3999 -1.8124 47.1143 9.3846 -14.9301 -7.7815
# 4 8.8790 4.2507 9.3846 34.0491 -5.4774 -8.7394
# 5 -10.7153 1.3181 -14.9301 -5.4774 18.3261 -2.2196
# 6 22.0574 12.3254 -7.7815 -8.7394 -2.2196 30.7480
#
#
#
# Elastic Compliance Matrix: (Units=1/GPa)
#
#
# Indices 1 2 3 4 5 6 
#
# 1 0.008472 -0.002751 -0.000412 -0.002649 0.003347 -0.005590
# 2 -0.002751 0.014555 -0.000994 -0.002998 -0.005006 -0.005326
# 3 -0.000412 -0.000994 0.031557 -0.001645 0.026272 0.010109
# 4 -0.002649 -0.002998 -0.001645 0.035942 0.009717 0.013603
# 5 0.003347 -0.005006 0.026272 0.009717 0.083010 0.015009
# 6 -0.005590 -0.005326 0.010109 0.013603 0.015009 0.046175
#
#
# Mechanical properties :
#
#
# Convention : Reuss Voigt Hill
#
# Bulk Modulus (GPa) = 21.61186 39.66672 30.63929
# Shear Modulus (GPa) = 20.53834 32.67191 26.60512
#
# Velocity S-wave (km/s) = 3.05500 3.85315 3.47705
# Velocity P-wave (km/s) = 4.71857 6.14988 5.48115
#
# Compressibility (1/GPa) = 0.04627089
#
# Stress axis : x y z
#
# Youngs Moduli (GPa) = 118.04177 68.70520 31.68893
#
# Poissons Ratio (x) = 0.18899 0.01305
# Poissons Ratio (y) = 0.32470 0.03149
# Poissons Ratio (z) = 0.04861 0.06827
#
# Static dielectric constant tensor:
#      x y z
#    x 1.889020 0.022760 -0.000710 
#    y 0.022760 1.879080 0.045400 
#    z -0.000710 0.045400 1.804330 
# 
# From -- ./inp_files/343844.got.cif
#   From: 2010.05.17/outbox.cif.g08.bks.cpg/sg2_172_cif.got.tgz:343844.got - 2010.06.03 11:33:40.
