data_PCOD9098016
_publ_section_title
;
Structure prediction by ZEFSAII (Michael W. Deem and Ramdas Pophale) SiO2 
 PCOD9098016
Probable space group: P -1
;
_chemical_formula_sum "Si O2"
_cell_formula_units_Z 16
_cell_length_a 10.945726
_cell_length_b 9.120145
_cell_length_c 13.234365
_cell_angle_alpha 50.768553
_cell_angle_beta 111.817124
_cell_angle_gamma 117.988011
_cell_volume 898.241835
_symmetry_space_group_name_H-M "P -1"
_symmetry_group_IT_number 2
_symmetry_cell_setting 'triclinic'
loop_
_space_group_symop_operation_xyz
x,y,z
-x,-y,-z
loop_
_atom_site_type_symbol
_atom_site_label
_atom_site_fract_x
_atom_site_fract_y
_atom_site_fract_z
Si Si1 0.340821 0.705607 0.580868
Si Si2 0.661731 0.843711 0.628605
Si Si3 0.093268 0.217230 0.396898
Si Si4 0.096255 0.863195 0.117140
Si Si5 0.033966 0.531734 0.881203
Si Si6 0.326220 0.592801 0.849807
Si Si7 0.361230 0.192638 0.124573
Si Si8 0.891044 0.441591 0.582299
O O1 0.500619 0.718142 0.616336
O O2 0.286918 0.594918 0.718566
O O3 0.256682 0.618450 0.492821
O O4 0.328666 0.927161 0.488153
O O5 0.763251 0.787151 0.606704
O O6 0.688672 0.819161 0.767756
O O7 0.102221 0.378600 0.417690
O O8 0.017016 0.292185 0.251708
O O9 0.000000 0.000000 0.500000
O O10 0.078324 0.740542 0.270419
O O11 0.051153 0.679376 0.105451
O O12 0.256928 0.006047 0.113348
O O13 0.000000 0.000000 0.000000
O O14 0.195840 0.595218 0.874673
O O15 0.000000 0.500000 0.000000
O O16 0.472833 0.772055 0.833378
O O17 0.350385 0.388087 0.979526
O O18 0.000000 0.500000 0.500000
#
# Coordination Sequence:
#
# PCOD9098016 Si02
#       8
#     2   2   2   2   2   2   2   2
#     4  10  20  37  63  87 113 151 199 244 294 358
#     4  10  20  38  62  85 114 156 194 241 305 353
#     4  11  24  38  56  85 121 156 194 244 300 355
#     4  11  22  38  61  90 114 155 204 245 294 356
#     4  11  23  39  60  85 120 157 198 246 301 354
#     4  10  20  37  59  90 117 153 197 243 298 354
#     4  10  20  36  63  87 117 151 199 251 292 354
#     4  11  23  38  59  88 122 155 200 247 291 354
#
# _framework density 17.812574000000001
#
# number of rings (size 3 to 8) (size 9 to 14) (size 15 to 20)
#    0.000    1.500    2.500    3.750    0.000    0.500 
#    0.000    0.625    0.000    0.000    0.000    0.000 
#    0.000    0.000    0.000    0.000    0.000    0.000 
#
# Total GULP energy -89183.457491 kJ/mol
# GULP energy per Si atom -5573.966093 kJ/mol
# Density = 1.777203 g / cm^3
# Si number density = 17.812574 Si / 1000 Ang^3
#
#
#
# Elastic Constant Matrix: (Units=GPa)
#
#
# Indices 1 2 3 4 5 6 
#
# 1 110.5215 49.3982 40.6748 2.2120 -20.8342 2.9045
# 2 49.3982 67.8217 48.9883 0.8750 -3.3421 14.2157
# 3 40.6748 48.9883 161.2657 4.0893 -7.8965 -2.1429
# 4 2.2120 0.8750 4.0893 30.0990 -1.0999 3.5286
# 5 -20.8342 -3.3421 -7.8965 -1.0999 28.6068 3.6265
# 6 2.9045 14.2157 -2.1429 3.5286 3.6265 19.7248
#
#
#
# Elastic Compliance Matrix: (Units=1/GPa)
#
#
# Indices 1 2 3 4 5 6 
#
# 1 0.016360 -0.012742 0.000323 -0.001128 0.009812 0.005207
# 2 -0.012742 0.034385 -0.007847 0.003614 -0.004296 -0.023614
# 3 0.000323 -0.007847 0.008675 -0.001732 0.000795 0.006714
# 4 -0.001128 0.003614 -0.001732 0.034563 0.001606 -0.009105
# 5 0.009812 -0.004296 0.000795 0.001606 0.042693 -0.006399
# 6 0.005207 -0.023614 0.006714 -0.009105 -0.006399 0.070484
#
#
# Mechanical properties :
#
#
# Convention : Reuss Voigt Hill
#
# Bulk Modulus (GPa) = 52.94771 68.63684 60.79227
# Shear Modulus (GPa) = 19.68593 29.05596 24.37095
#
# Velocity S-wave (km/s) = 3.32802 4.04320 3.70292
# Velocity P-wave (km/s) = 6.67511 7.77258 7.24466
#
# Compressibility (1/GPa) = 0.01888656
#
# Stress axis : x y z
#
# Youngs Moduli (GPa) = 61.12565 29.08275 115.26850
#
# Poissons Ratio (x) = 0.37058 -0.03719
# Poissons Ratio (y) = 0.77887 0.90453
# Poissons Ratio (z) = -0.01972 0.22822
#
# Static dielectric constant tensor:
#      x y z
#    x 1.644860 0.067900 0.023250 
#    y 0.067900 1.634580 0.014120 
#    z 0.023250 0.014120 1.615760 
# 
# From -- ./inp_files/416349.got.cif
#   From: 2010.05.17/outbox.cif.g08.bks.cpg/sg2_209_cif.got.tgz:416349.got - 2010.06.03 11:33:40.
