data_PCOD9098419
_publ_section_title
;
Structure prediction by ZEFSAII (Michael W. Deem and Ramdas Pophale) SiO2 
 PCOD9098419
Probable space group: P -1
;
_chemical_formula_sum "Si O2"
_cell_formula_units_Z 15
_cell_length_a 11.664907
_cell_length_b 10.832356
_cell_length_c 17.192189
_cell_angle_alpha 150.441261
_cell_angle_beta 135.001656
_cell_angle_gamma 65.243965
_cell_volume 626.322943
_symmetry_space_group_name_H-M "P -1"
_symmetry_group_IT_number 2
_symmetry_cell_setting 'triclinic'
loop_
_space_group_symop_operation_xyz
x,y,z
-x,-y,-z
loop_
_atom_site_type_symbol
_atom_site_label
_atom_site_fract_x
_atom_site_fract_y
_atom_site_fract_z
Si Si1 0.958129 0.405931 0.030607
Si Si2 0.116717 0.845582 0.970895
Si Si3 0.806966 0.725130 0.215373
Si Si4 0.855552 0.284523 0.245851
Si Si5 0.675533 0.586415 0.799614
Si Si6 0.411214 0.579085 0.899284
Si Si7 0.500000 0.500000 0.500000
Si Si8 0.628889 0.863883 0.480341
O O1 0.929633 0.308226 0.053009
O O2 0.829628 0.112935 0.754574
O O3 0.875401 0.615801 0.114189
O O4 0.178761 0.523159 0.178886
O O5 0.341113 0.121073 0.216991
O O6 0.035055 0.632037 0.739430
O O7 0.000000 0.000000 0.000000
O O8 0.692098 0.486014 0.101138
O O9 0.644670 0.779968 0.136096
O O10 0.000000 0.000000 0.500000
O O11 0.675189 0.306623 0.144377
O O12 0.000000 0.500000 0.500000
O O13 0.789046 0.948323 0.053322
O O14 0.586365 0.485500 0.616279
O O15 0.497302 0.434923 0.690939
O O16 0.358888 0.256946 0.663503
O O17 0.500000 0.000000 0.500000
#
# Coordination Sequence:
#
# PCOD9098419 Si02
#       8
#     2   2   2   2   2   2   1   2
#     4  12  23  45  72 101 137 181 240 297 348 422
#     4  11  21  41  66 102 134 177 229 290 349 416
#     4  11  27  46  72 104 140 194 238 287 364 427
#     4  11  24  44  70 105 147 184 232 299 361 430
#     4  11  26  42  74 107 135 188 240 287 367 415
#     4  11  26  48  69 103 148 188 235 297 359 425
#     4  10  20  36  66 100 132 170 234 276 338 416
#     4  12  27  47  71 102 145 185 239 296 351 427
#
# _framework density 23.949306
#
# number of rings (size 3 to 8) (size 9 to 14) (size 15 to 20)
#    0.000    0.800    6.667    0.800    1.867    5.333 
#    0.000    1.333    0.000    0.000    0.000    0.000 
#    0.000    0.000    0.000    0.000    0.000    0.000 
#
# Total GULP energy -83558.439542 kJ/mol
# GULP energy per Si atom -5570.562636 kJ/mol
# Density = 2.389480 g / cm^3
# Si number density = 23.949306 Si / 1000 Ang^3
#
#
#
# Elastic Constant Matrix: (Units=GPa)
#
#
# Indices 1 2 3 4 5 6 
#
# 1 115.7554 31.2840 47.9012 -14.2478 -14.6499 -6.0357
# 2 31.2840 86.9728 22.8005 -20.5710 8.2153 -7.9210
# 3 47.9012 22.8005 155.1099 -31.0273 -20.4804 -0.8182
# 4 -14.2478 -20.5710 -31.0273 35.9825 2.4329 -0.6362
# 5 -14.6499 8.2153 -20.4804 2.4329 29.9261 2.2244
# 6 -6.0357 -7.9210 -0.8182 -0.6362 2.2244 43.3029
#
#
#
# Elastic Compliance Matrix: (Units=1/GPa)
#
#
# Indices 1 2 3 4 5 6 
#
# 1 0.011285 -0.003899 -0.002254 -0.000033 0.005013 0.000559
# 2 -0.003899 0.015800 -0.000581 0.007543 -0.007467 0.002830
# 3 -0.002254 -0.000581 0.009125 0.006311 0.004818 -0.000403
# 4 -0.000033 0.007543 0.006311 0.037636 -0.000983 0.002098
# 5 0.005013 -0.007467 0.004818 -0.000983 0.041499 -0.002722
# 6 0.000559 0.002830 -0.000403 0.002098 -0.002722 0.023852
#
#
# Mechanical properties :
#
#
# Convention : Reuss Voigt Hill
#
# Bulk Modulus (GPa) = 43.96874 62.42329 53.19602
# Shear Modulus (GPa) = 31.20262 38.89912 35.05087
#
# Velocity S-wave (km/s) = 3.61343 4.03454 3.82978
# Velocity P-wave (km/s) = 5.98399 6.91554 6.46656
#
# Compressibility (1/GPa) = 0.02274343
#
# Stress axis : x y z
#
# Youngs Moduli (GPa) = 88.61536 63.29282 109.59214
#
# Poissons Ratio (x) = 0.24676 0.24697
# Poissons Ratio (y) = 0.34549 0.06362
# Poissons Ratio (z) = 0.19970 0.03675
#
# Static dielectric constant tensor:
#      x y z
#    x 1.965730 -0.026900 -0.004420 
#    y -0.026900 1.987680 0.030430 
#    z -0.004420 0.030430 1.899590 
# 
# From -- ./inp_files/569048.got.cif
#   From: 2010.05.17/outbox.cif.g08.bks.cpg/sg2_285_cif.got.tgz:569048.got - 2010.06.03 11:33:40.
