data_PCOD9098601
_publ_section_title
;
Structure prediction by ZEFSAII (Michael W. Deem and Ramdas Pophale) SiO2 
 PCOD9098601
Probable space group: P -1
;
_chemical_formula_sum "Si O2"
_cell_formula_units_Z 16
_cell_length_a 5.807405
_cell_length_b 9.159567
_cell_length_c 19.015315
_cell_angle_alpha 42.604176
_cell_angle_beta 106.063287
_cell_angle_gamma 102.704683
_cell_volume 657.767088
_symmetry_space_group_name_H-M "P -1"
_symmetry_group_IT_number 2
_symmetry_cell_setting 'triclinic'
loop_
_space_group_symop_operation_xyz
x,y,z
-x,-y,-z
loop_
_atom_site_type_symbol
_atom_site_label
_atom_site_fract_x
_atom_site_fract_y
_atom_site_fract_z
Si Si1 0.592307 0.339352 0.951069
Si Si2 0.744805 0.604777 0.214620
Si Si3 0.520334 0.792770 0.624966
Si Si4 0.662553 0.538793 0.602423
Si Si5 0.923918 0.779969 0.031806
Si Si6 0.984093 0.148372 0.742238
Si Si7 0.272206 0.239123 0.611503
Si Si8 0.611495 0.835867 0.779723
O O1 0.506340 0.336403 0.863445
O O2 0.364263 0.214852 0.013934
O O3 0.567837 0.588214 0.884283
O O4 0.870264 0.274810 0.988337
O O5 0.716848 0.362893 0.328124
O O6 0.910309 0.612694 0.156006
O O7 0.794878 0.791429 0.210198
O O8 0.672538 0.641415 0.642277
O O9 0.622749 0.841393 0.693346
O O10 0.500000 0.000000 0.500000
O O11 0.406844 0.445737 0.585730
O O12 0.749994 0.706801 0.490964
O O13 0.808893 0.324707 0.693638
O O14 0.000000 0.000000 0.000000
O O15 0.030382 0.211387 0.643285
O O16 0.853642 0.920602 0.806861
O O17 0.413497 0.016761 0.714558
#
# Coordination Sequence:
#
# PCOD9098601 Si02
#       8
#     2   2   2   2   2   2   2   2
#     4   9  22  39  67  98 131 155 212 260 324 379
#     4   9  23  36  62  89 126 167 214 261 315 383
#     4  11  20  39  55  84 125 168 218 273 320 370
#     4  10  21  34  55  75 120 161 224 265 313 368
#     4  10  21  41  72 102 128 162 208 264 324 390
#     4  11  22  36  58  82 119 172 217 261 323 383
#     4  10  20  37  51  78 116 171 215 262 312 380
#     4  10  23  36  59  88 122 169 207 270 325 370
#
# _framework density 24.324722999999999
#
# number of rings (size 3 to 8) (size 9 to 14) (size 15 to 20)
#    0.750    1.250    2.500    0.750    5.250    1.000 
#    0.000    1.250    0.000    1.500    0.000    0.000 
#    0.000    0.000    0.000    0.000    0.000    0.000 
#
# Total GULP energy -89150.065087 kJ/mol
# GULP energy per Si atom -5571.879068 kJ/mol
# Density = 2.426936 g / cm^3
# Si number density = 24.324723 Si / 1000 Ang^3
#
#
#
# Elastic Constant Matrix: (Units=GPa)
#
#
# Indices 1 2 3 4 5 6 
#
# 1 76.4756 53.8899 31.0174 1.1648 -15.8135 -0.1451
# 2 53.8899 108.4722 32.4264 -26.9178 1.7915 3.3528
# 3 31.0174 32.4264 75.7464 -4.5305 -15.8295 13.0044
# 4 1.1648 -26.9178 -4.5305 30.0117 3.8370 -7.6792
# 5 -15.8135 1.7915 -15.8295 3.8370 29.8056 -4.3830
# 6 -0.1451 3.3528 13.0044 -7.6792 -4.3830 28.7750
#
#
#
# Elastic Compliance Matrix: (Units=1/GPa)
#
#
# Indices 1 2 3 4 5 6 
#
# 1 0.036144 -0.024726 -0.000861 -0.026754 0.023636 -0.000087
# 2 -0.024726 0.031911 -0.007041 0.032552 -0.022285 0.004632
# 3 -0.000861 -0.007041 0.019705 -0.006732 0.010070 -0.008352
# 4 -0.026754 0.032552 -0.006732 0.069423 -0.026666 0.013580
# 5 0.023636 -0.022285 0.010070 -0.026666 0.056153 -0.000398
# 6 -0.000087 0.004632 -0.008352 0.013580 -0.000398 0.041550
#
#
# Mechanical properties :
#
#
# Convention : Reuss Voigt Hill
#
# Bulk Modulus (GPa) = 44.43985 55.04018 49.74002
# Shear Modulus (GPa) = 15.26060 27.27582 21.26821
#
# Velocity S-wave (km/s) = 2.50745 3.35225 2.96014
# Velocity P-wave (km/s) = 5.16645 6.13676 5.67239
#
# Compressibility (1/GPa) = 0.02250232
#
# Stress axis : x y z
#
# Youngs Moduli (GPa) = 27.66747 31.33763 50.74978
#
# Poissons Ratio (x) = 0.77484 0.04371
# Poissons Ratio (y) = 0.68410 0.35734
# Poissons Ratio (z) = 0.02383 0.22066
#
# Static dielectric constant tensor:
#      x y z
#    x 2.127530 0.094290 -0.046060 
#    y 0.094290 1.986400 -0.011350 
#    z -0.046060 -0.011350 2.013710 
# 
# From -- ./inp_files/370423.got.cif
#   From: 2010.05.17/outbox.cif.g08.bks.cpg/sg2_186_cif.got.tgz:370423.got - 2010.06.03 11:33:40.
