data_PCOD9098111
_publ_section_title
;
Structure prediction by ZEFSAII (Michael W. Deem and Ramdas Pophale) SiO2 
 PCOD9098111
Probable space group: P -1
;
_chemical_formula_sum "Si O2"
_cell_formula_units_Z 16
_cell_length_a 10.535246
_cell_length_b 18.254290
_cell_length_c 8.837527
_cell_angle_alpha 107.024972
_cell_angle_beta 97.761437
_cell_angle_gamma 144.111503
_cell_volume 712.221444
_symmetry_space_group_name_H-M "P -1"
_symmetry_group_IT_number 2
_symmetry_cell_setting 'triclinic'
loop_
_space_group_symop_operation_xyz
x,y,z
-x,-y,-z
loop_
_atom_site_type_symbol
_atom_site_label
_atom_site_fract_x
_atom_site_fract_y
_atom_site_fract_z
Si Si1 0.141067 0.639766 0.762558
Si Si2 0.390257 0.101256 0.238487
Si Si3 0.433396 0.866680 0.241479
Si Si4 0.263134 0.633711 0.238122
Si Si5 0.189251 0.791976 0.450331
Si Si6 0.183960 0.120642 0.453449
Si Si7 0.742835 0.541472 0.453531
Si Si8 0.889004 0.790305 0.743647
O O1 0.389121 0.742676 0.753803
O O2 0.921685 0.461401 0.694960
O O3 0.939618 0.590408 0.612115
O O4 0.298479 0.770846 0.002653
O O5 0.577072 0.137978 0.383731
O O6 0.245561 0.084929 0.319448
O O7 0.147077 0.931620 0.991842
O O8 0.473088 0.810873 0.310291
O O9 0.217542 0.796391 0.277971
O O10 0.709024 0.068774 0.402516
O O11 0.483896 0.681902 0.320178
O O12 0.000000 0.500000 0.000000
O O13 0.869420 0.603813 0.343049
O O14 0.057321 0.121908 0.333286
O O15 0.000000 0.000000 0.500000
O O16 0.819059 0.667818 0.599635
O O17 0.408557 0.344064 0.303138
#
# Coordination Sequence:
#
# PCOD9098111 Si02
#       8
#     2   2   2   2   2   2   2   2
#     4  10  21  41  68  92 119 158 219 262 298 357
#     4  11  24  42  65  93 121 168 210 258 305 368
#     4  10  20  36  63  95 123 151 203 263 310 353
#     4  10  22  41  64  93 121 162 206 258 306 358
#     4  10  21  38  67  93 120 160 213 260 302 359
#     4  12  27  44  62  91 129 169 204 250 319 380
#     4  10  22  41  64  92 125 166 205 261 304 367
#     4  11  24  43  61  91 133 165 205 246 321 374
#
# _framework density 22.464924
#
# number of rings (size 3 to 8) (size 9 to 14) (size 15 to 20)
#    0.000    1.500    2.500    1.875    5.250    3.500 
#    4.500    0.000    0.000    6.000    0.000    0.000 
#    0.000    0.000    0.000    0.000    0.000    0.000 
#
# Total GULP energy -89266.155232 kJ/mol
# GULP energy per Si atom -5579.134702 kJ/mol
# Density = 2.241379 g / cm^3
# Si number density = 22.464924 Si / 1000 Ang^3
#
#
#
# Elastic Constant Matrix: (Units=GPa)
#
#
# Indices 1 2 3 4 5 6 
#
# 1 74.0644 27.2148 14.5257 4.8738 -6.9797 1.5903
# 2 27.2148 169.6092 26.7443 -5.1306 -7.5458 22.6493
# 3 14.5257 26.7443 102.2675 -9.9601 -5.5350 15.9521
# 4 4.8738 -5.1306 -9.9601 19.8747 5.8744 2.9450
# 5 -6.9797 -7.5458 -5.5350 5.8744 17.7255 0.8905
# 6 1.5903 22.6493 15.9521 2.9450 0.8905 40.9294
#
#
#
# Elastic Compliance Matrix: (Units=1/GPa)
#
#
# Indices 1 2 3 4 5 6 
#
# 1 0.016015 -0.002399 -0.002377 -0.008154 0.007141 0.002063
# 2 -0.002399 0.007002 -0.000619 0.002260 0.001281 -0.003731
# 3 -0.002377 -0.000619 0.011687 0.006842 0.000415 -0.004622
# 4 -0.008154 0.002260 0.006842 0.063623 -0.020809 -0.007726
# 5 0.007141 0.001281 0.000415 -0.020809 0.066855 -0.001105
# 6 0.002063 -0.003731 -0.004622 -0.007726 -0.001105 0.028798
#
#
# Mechanical properties :
#
#
# Convention : Reuss Voigt Hill
#
# Bulk Modulus (GPa) = 41.81599 53.65676 47.73637
# Shear Modulus (GPa) = 23.50273 34.20300 28.85286
#
# Velocity S-wave (km/s) = 3.23801 3.90616 3.58767
# Velocity P-wave (km/s) = 5.71261 6.65437 6.20139
#
# Compressibility (1/GPa) = 0.02391430
#
# Stress axis : x y z
#
# Youngs Moduli (GPa) = 62.44225 142.81513 85.56169
#
# Poissons Ratio (x) = 0.34267 0.20335
# Poissons Ratio (y) = 0.14982 0.05296
# Poissons Ratio (z) = 0.14841 0.08840
#
# Static dielectric constant tensor:
#      x y z
#    x 1.891230 0.011540 -0.039050 
#    y 0.011540 1.895190 0.022170 
#    z -0.039050 0.022170 1.860190 
# 
# From -- ./inp_files/283107.got.cif
#   From: 2010.05.17/outbox.cif.g08.bks.cpg/sg2_142_cif.got.tgz:283107.got - 2010.06.03 11:33:40.
