data_PCOD9098306
_publ_section_title
;
Structure prediction by ZEFSAII (Michael W. Deem and Ramdas Pophale) SiO2 
 PCOD9098306
Probable space group: P -1
;
_chemical_formula_sum "Si O2"
_cell_formula_units_Z 15
_cell_length_a 4.989698
_cell_length_b 11.540799
_cell_length_c 11.595719
_cell_angle_alpha 112.090070
_cell_angle_beta 107.738706
_cell_angle_gamma 101.103649
_cell_volume 552.463184
_symmetry_space_group_name_H-M "P -1"
_symmetry_group_IT_number 2
_symmetry_cell_setting 'triclinic'
loop_
_space_group_symop_operation_xyz
x,y,z
-x,-y,-z
loop_
_atom_site_type_symbol
_atom_site_label
_atom_site_fract_x
_atom_site_fract_y
_atom_site_fract_z
Si Si1 0.614775 0.027008 0.329638
Si Si2 0.026040 0.613054 0.736934
Si Si3 0.000000 0.500000 0.500000
Si Si4 0.208038 0.823199 0.376539
Si Si5 0.679050 0.813464 0.799048
Si Si6 0.515964 0.621785 0.397224
Si Si7 0.721018 0.938524 0.071474
Si Si8 0.314772 0.452412 0.844449
O O1 0.850536 0.103614 0.489246
O O2 0.551079 0.142836 0.293294
O O3 0.344727 0.929752 0.334672
O O4 0.674727 0.935200 0.201671
O O5 0.867798 0.717823 0.760992
O O6 0.773645 0.471095 0.597893
O O7 0.249148 0.619361 0.663364
O O8 0.149906 0.558885 0.840046
O O9 0.180941 0.389244 0.519161
O O10 0.458498 0.758806 0.424796
O O11 0.933666 0.696317 0.248093
O O12 0.643968 0.807079 0.932860
O O13 0.948955 0.959358 0.867480
O O14 0.483641 0.553299 0.241761
O O15 0.500000 0.000000 0.000000
O O16 0.500000 0.500000 0.000000
#
# Coordination Sequence:
#
# PCOD9098306 Si02
#       8
#     2   2   1   2   2   2   2   2
#     4  10  22  42  68 101 139 183 223 281 347 417
#     4  10  22  39  66  97 134 175 222 286 347 403
#     4  10  20  36  64  96 130 168 218 278 342 400
#     4  10  23  43  68 101 139 182 229 280 349 416
#     4  10  21  41  63 100 136 177 230 285 340 413
#     4  10  22  41  62 101 132 176 222 279 340 408
#     4   9  21  41  61  93 139 175 228 277 341 402
#     4  10  24  47  66 100 132 180 234 280 342 413
#
# _framework density 27.151128
#
# number of rings (size 3 to 8) (size 9 to 14) (size 15 to 20)
#    0.000    2.133    0.000    1.200    0.000   13.867 
#   19.200    2.667    0.000    0.000    0.000    0.000 
#    0.000    0.000    0.000    0.000    0.000    0.000 
#
# Total GULP energy -83665.973602 kJ/mol
# GULP energy per Si atom -5577.731573 kJ/mol
# Density = 2.708933 g / cm^3
# Si number density = 27.151128 Si / 1000 Ang^3
#
#
#
# Elastic Constant Matrix: (Units=GPa)
#
#
# Indices 1 2 3 4 5 6 
#
# 1 98.5047 43.1527 39.2788 -17.5863 -13.5389 -17.1943
# 2 43.1527 165.4849 52.9044 2.4129 -4.5391 -8.3311
# 3 39.2788 52.9044 234.3213 -19.4170 -47.0944 -23.9384
# 4 -17.5863 2.4129 -19.4170 31.2191 -5.6319 -7.5688
# 5 -13.5389 -4.5391 -47.0944 -5.6319 51.6091 1.2192
# 6 -17.1943 -8.3311 -23.9384 -7.5688 1.2192 54.8705
#
#
#
# Elastic Compliance Matrix: (Units=1/GPa)
#
#
# Indices 1 2 3 4 5 6 
#
# 1 0.015700 -0.004183 0.001241 0.012599 0.006106 0.006428
# 2 -0.004183 0.007772 -0.002297 -0.005375 -0.003054 -0.001807
# 3 0.001241 -0.002297 0.007089 0.007580 0.007324 0.004015
# 4 0.012599 -0.005375 0.007580 0.050105 0.014910 0.013019
# 5 0.006106 -0.003054 0.007324 0.014910 0.028877 0.006060
# 6 0.006428 -0.001807 0.004015 0.013019 0.006060 0.023378
#
#
# Mechanical properties :
#
#
# Convention : Reuss Voigt Hill
#
# Bulk Modulus (GPa) = 49.79813 85.44250 67.62032
# Shear Modulus (GPa) = 33.31230 51.73809 42.52519
#
# Velocity S-wave (km/s) = 3.50654 4.37001 3.96187
# Velocity P-wave (km/s) = 5.89706 7.54985 6.77405
#
# Compressibility (1/GPa) = 0.02008108
#
# Stress axis : x y z
#
# Youngs Moduli (GPa) = 63.69258 128.67080 141.06837
#
# Poissons Ratio (x) = 0.53827 -0.17501
# Poissons Ratio (y) = 0.26645 0.32406
# Poissons Ratio (z) = -0.07902 0.29558
#
# Static dielectric constant tensor:
#      x y z
#    x 2.279990 0.140150 -0.045210 
#    y 0.140150 1.988940 -0.039680 
#    z -0.045210 -0.039680 2.207840 
# 
# From -- ./inp_files/363341.got.cif
#   From: 2010.05.17/outbox.cif.g08.bks.cpg/sg2_182_cif.got.tgz:363341.got - 2010.06.03 11:33:40.
