data_PCOD9098540
_publ_section_title
;
Structure prediction by ZEFSAII (Michael W. Deem and Ramdas Pophale) SiO2 
 PCOD9098540
Probable space group: P -1
;
_chemical_formula_sum "Si O2"
_cell_formula_units_Z 13
_cell_length_a 12.974221
_cell_length_b 9.036353
_cell_length_c 7.638672
_cell_angle_alpha 116.363229
_cell_angle_beta 104.179282
_cell_angle_gamma 34.921390
_cell_volume 446.779258
_symmetry_space_group_name_H-M "P -1"
_symmetry_group_IT_number 2
_symmetry_cell_setting 'triclinic'
loop_
_space_group_symop_operation_xyz
x,y,z
-x,-y,-z
loop_
_atom_site_type_symbol
_atom_site_label
_atom_site_fract_x
_atom_site_fract_y
_atom_site_fract_z
Si Si1 0.207434 0.367943 0.889743
Si Si2 0.008948 0.639249 0.415481
Si Si3 0.917844 0.974239 0.250105
Si Si4 0.530251 0.330040 0.189484
Si Si5 0.706800 0.120135 0.797058
Si Si6 0.391013 0.189100 0.249350
Si Si7 0.000000 0.000000 0.000000
O O1 0.074041 0.397290 0.771395
O O2 0.408138 0.116822 0.751852
O O3 0.294870 0.233282 0.052473
O O4 0.073105 0.701452 0.024786
O O5 0.225660 0.362708 0.401620
O O6 0.993042 0.827036 0.389265
O O7 0.871413 0.813246 0.612275
O O8 0.910283 0.154868 0.244072
O O9 0.725899 0.124121 0.244260
O O10 0.581844 0.205360 0.946345
O O11 0.417269 0.641641 0.280140
O O12 0.421805 0.337201 0.266699
O O13 0.806243 0.147785 0.945234
#
# Coordination Sequence:
#
# PCOD9098540 Si02
#       7
#     2   2   2   2   2   2   1
#     4  10  21  38  65  97 128 163 207 257 312 378
#     4  11  22  40  65 103 122 163 207 275 297 370
#     4  10  20  38  68  88 131 161 210 252 317 372
#     4  10  21  40  62  91 121 182 200 254 317 385
#     4  10  23  42  62  89 133 161 218 255 319 364
#     4  10  20  36  68  93 125 168 211 244 320 373
#     4  10  22  42  58  88 118 178 196 254 314 376
#
# _framework density 29.097144
#
# number of rings (size 3 to 8) (size 9 to 14) (size 15 to 20)
#    0.000    1.846    1.538    3.692    2.154    3.077 
#    8.308    3.846    0.000    0.000    0.000    0.000 
#    0.000    0.000    0.000    0.000    0.000    0.000 
#
# Total GULP energy -72508.670559 kJ/mol
# GULP energy per Si atom -5577.590043 kJ/mol
# Density = 2.903092 g / cm^3
# Si number density = 29.097144 Si / 1000 Ang^3
#
#
#
# Elastic Constant Matrix: (Units=GPa)
#
#
# Indices 1 2 3 4 5 6 
#
# 1 179.3939 42.9171 33.4038 -2.4492 -42.3479 -31.4453
# 2 42.9171 195.3111 31.3363 17.5916 -14.5052 -45.2313
# 3 33.4038 31.3363 117.5926 4.9264 -16.4936 -14.1921
# 4 -2.4492 17.5916 4.9264 58.0250 -6.0722 -12.2897
# 5 -42.3479 -14.5052 -16.4936 -6.0722 40.7866 1.6918
# 6 -31.4453 -45.2313 -14.1921 -12.2897 1.6918 47.5412
#
#
#
# Elastic Compliance Matrix: (Units=1/GPa)
#
#
# Indices 1 2 3 4 5 6 
#
# 1 0.008975 -0.000017 -0.000630 0.002693 0.009205 0.006100
# 2 -0.000017 0.006833 -0.000819 -0.000540 0.001750 0.006044
# 3 -0.000630 -0.000819 0.009483 0.000040 0.002831 0.001545
# 4 0.002693 -0.000540 0.000040 0.019348 0.005248 0.006094
# 5 0.009205 0.001750 0.002831 0.005248 0.036265 0.008665
# 6 0.006100 0.006044 0.001545 0.006094 0.008665 0.032548
#
#
# Mechanical properties :
#
#
# Convention : Reuss Voigt Hill
#
# Bulk Modulus (GPa) = 44.72410 78.62355 61.67383
# Shear Modulus (GPa) = 40.37570 54.91327 47.64449
#
# Velocity S-wave (km/s) = 3.72911 4.34895 4.05090
# Velocity P-wave (km/s) = 5.82629 7.23170 6.56671
#
# Compressibility (1/GPa) = 0.02235931
#
# Stress axis : x y z
#
# Youngs Moduli (GPa) = 111.42195 146.33962 105.45217
#
# Poissons Ratio (x) = 0.00250 0.06647
# Poissons Ratio (y) = 0.00191 0.08632
# Poissons Ratio (z) = 0.07023 0.11979
#
# Static dielectric constant tensor:
#      x y z
#    x 0.834900 -0.790640 0.070010 
#    y -0.790640 1.718890 0.151210 
#    z 0.070010 0.151210 2.551920 
# 
# From -- ./inp_files/303965.got.cif
#   From: 2010.05.17/outbox.cif.g08.bks.cpg/sg2_152_cif.got.tgz:303965.got - 2010.06.03 11:33:40.
