data_PCOD9098723
_publ_section_title
;
Structure prediction by ZEFSAII (Michael W. Deem and Ramdas Pophale) SiO2 
 PCOD9098723
Probable space group: P -1
;
_chemical_formula_sum "Si O2"
_cell_formula_units_Z 12
_cell_length_a 11.414848
_cell_length_b 5.312130
_cell_length_c 8.019299
_cell_angle_alpha 88.109528
_cell_angle_beta 64.030832
_cell_angle_gamma 91.402689
_cell_volume 436.520860
_symmetry_space_group_name_H-M "P -1"
_symmetry_group_IT_number 2
_symmetry_cell_setting 'triclinic'
loop_
_space_group_symop_operation_xyz
x,y,z
-x,-y,-z
loop_
_atom_site_type_symbol
_atom_site_label
_atom_site_fract_x
_atom_site_fract_y
_atom_site_fract_z
Si Si1 0.012628 0.563866 0.755108
Si Si2 0.256232 0.155972 0.071696
Si Si3 0.594179 0.015991 0.606047
Si Si4 0.462689 0.506346 0.792539
Si Si5 0.109493 0.819603 0.375909
Si Si6 0.249077 0.793325 0.764538
O O1 0.102932 0.610384 0.529334
O O2 0.110373 0.644427 0.838932
O O3 0.885835 0.729561 0.844260
O O4 0.946085 0.294630 0.760353
O O5 0.244393 0.968830 0.242873
O O6 0.364066 0.385497 0.996227
O O7 0.271566 0.979409 0.903622
O O8 0.546471 0.768075 0.742365
O O9 0.500000 0.000000 0.500000
O O10 0.555085 0.279973 0.702805
O O11 0.730619 0.040606 0.419941
O O12 0.354376 0.575545 0.718772
O O13 0.000000 0.000000 0.500000
#
# Coordination Sequence:
#
# PCOD9098723 Si02
#       6
#     2   2   2   2   2   2
#     4  10  22  39  61  88 124 160 204 244 314 357
#     4  11  21  35  62  92 125 158 199 250 305 363
#     4  10  20  37  56  88 126 164 196 241 308 357
#     4  11  21  37  59  90 126 161 200 246 302 359
#     4   9  21  42  56  82 120 171 202 242 300 376
#     4  11  22  35  61  97 123 155 199 261 294 363
#
# _framework density 27.490095
#
# number of rings (size 3 to 8) (size 9 to 14) (size 15 to 20)
#    0.000    1.667    3.333    3.500    0.000    5.333 
#    0.000    0.000    0.000    2.000    0.000    1.167 
#    0.000    0.000    0.000    0.000    0.000    0.000 
#
# Total GULP energy -67068.809671 kJ/mol
# GULP energy per Si atom -5589.067473 kJ/mol
# Density = 2.742753 g / cm^3
# Si number density = 27.490095 Si / 1000 Ang^3
#
#
#
# Elastic Constant Matrix: (Units=GPa)
#
#
# Indices 1 2 3 4 5 6 
#
# 1 79.0613 50.5970 22.4282 0.9623 -18.4748 -2.9680
# 2 50.5970 209.8362 67.1007 -19.1177 -20.6996 8.0575
# 3 22.4282 67.1007 158.8062 -39.8820 -3.9104 -6.3237
# 4 0.9623 -19.1177 -39.8820 68.8675 2.2073 -12.4193
# 5 -18.4748 -20.6996 -3.9104 2.2073 42.8501 -7.7732
# 6 -2.9680 8.0575 -6.3237 -12.4193 -7.7732 48.4087
#
#
#
# Elastic Compliance Matrix: (Units=1/GPa)
#
#
# Indices 1 2 3 4 5 6 
#
# 1 0.016528 -0.003262 -0.001146 -0.001641 0.005880 0.001930
# 2 -0.003262 0.006462 -0.002219 0.000281 0.001264 -0.001290
# 3 -0.001146 -0.002219 0.008729 0.004945 -0.000549 0.002620
# 4 -0.001641 0.000281 0.004945 0.018428 -0.000125 0.005206
# 5 0.005880 0.001264 -0.000549 -0.000125 0.027241 0.004421
# 6 0.001930 -0.001290 0.002620 0.005206 0.004421 0.023378
#
#
# Mechanical properties :
#
#
# Convention : Reuss Voigt Hill
#
# Bulk Modulus (GPa) = 54.16155 80.88394 67.52275
# Shear Modulus (GPa) = 41.60541 52.53043 47.06792
#
# Velocity S-wave (km/s) = 3.89455 4.37611 4.14234
# Velocity P-wave (km/s) = 6.32205 7.41759 6.89162
#
# Compressibility (1/GPa) = 0.01846328
#
# Stress axis : x y z
#
# Youngs Moduli (GPa) = 60.50414 154.75703 114.55639
#
# Poissons Ratio (x) = 0.50486 0.13131
# Poissons Ratio (y) = 0.19738 0.25423
# Poissons Ratio (z) = 0.06935 0.34345
#
# Static dielectric constant tensor:
#      x y z
#    x 2.407710 0.067430 0.075620 
#    y 0.067430 2.178520 -0.143200 
#    z 0.075620 -0.143200 2.342000 
# 
# From -- ./inp_files/287229.got.cif
#   From: 2010.05.17/outbox.cif.g08.bks.cpg/sg2_144_cif.got.tgz:287229.got - 2010.06.03 11:33:40.
