data_PCOD9098525
_publ_section_title
;
Structure prediction by ZEFSAII (Michael W. Deem and Ramdas Pophale) SiO2 
 PCOD9098525
Probable space group: P -1
;
_chemical_formula_sum "Si O2"
_cell_formula_units_Z 16
_cell_length_a 11.893262
_cell_length_b 8.831634
_cell_length_c 14.104490
_cell_angle_alpha 110.011520
_cell_angle_beta 150.004005
_cell_angle_gamma 75.501956
_cell_volume 692.589916
_symmetry_space_group_name_H-M "P -1"
_symmetry_group_IT_number 2
_symmetry_cell_setting 'triclinic'
loop_
_space_group_symop_operation_xyz
x,y,z
-x,-y,-z
loop_
_atom_site_type_symbol
_atom_site_label
_atom_site_fract_x
_atom_site_fract_y
_atom_site_fract_z
Si Si1 0.029663 0.868063 0.912977
Si Si2 0.469843 0.598852 0.711739
Si Si3 0.212623 0.742027 0.702781
Si Si4 0.216978 0.421066 0.758220
Si Si5 0.259175 0.423889 0.268891
Si Si6 0.053258 0.028091 0.338252
Si Si7 0.047923 0.648777 0.279294
Si Si8 0.516564 0.730593 0.231144
O O1 0.845126 0.721482 0.773730
O O2 0.980238 0.935348 0.788350
O O3 0.276988 0.802474 0.078846
O O4 0.000000 0.000000 0.000000
O O5 0.429275 0.729099 0.791762
O O6 0.683201 0.633214 0.806413
O O7 0.250423 0.600454 0.484553
O O8 0.469439 0.422488 0.721151
O O9 0.205117 0.598867 0.744210
O O10 0.997270 0.687346 0.467151
O O11 0.157115 0.907104 0.744995
O O12 0.423807 0.339296 0.844192
O O13 0.176651 0.413260 0.839371
O O14 0.500000 0.500000 0.500000
O O15 0.090892 0.561257 0.193081
O O16 0.282385 0.132444 0.563666
O O17 0.065567 0.839862 0.323349
#
# Coordination Sequence:
#
# PCOD9098525 Si02
#       8
#     2   2   2   2   2   2   2   2
#     4  12  29  47  67 101 139 177 228 284 335 407
#     4   9  19  38  65 100 126 178 230 272 325 396
#     4   8  15  33  65  94 131 169 225 273 325 400
#     4   8  15  34  62  99 127 175 229 272 327 396
#     4  10  22  43  69  94 132 182 225 270 327 402
#     4  11  23  42  68 100 139 180 219 278 349 397
#     4  10  20  36  68 102 134 177 227 275 329 407
#     4  10  23  43  71  96 135 182 225 278 337 405
#
# _framework density 23.101692
#
# number of rings (size 3 to 8) (size 9 to 14) (size 15 to 20)
#    0.000    2.250    0.000    4.500    5.250    5.500 
#    0.000    6.250    0.000    0.000    0.000    0.000 
#    0.000    0.000    0.000    0.000    0.000    0.000 
#
# Total GULP energy -89474.141877 kJ/mol
# GULP energy per Si atom -5592.133867 kJ/mol
# Density = 2.304911 g / cm^3
# Si number density = 23.101692 Si / 1000 Ang^3
#
#
#
# Elastic Constant Matrix: (Units=GPa)
#
#
# Indices 1 2 3 4 5 6 
#
# 1 191.1818 66.7318 35.5801 -12.7327 36.2488 -17.7606
# 2 66.7318 117.1790 28.3071 -0.1839 18.8982 -7.7886
# 3 35.5801 28.3071 99.3053 -17.5626 16.6711 0.4541
# 4 -12.7327 -0.1839 -17.5626 13.3893 -13.1148 -0.6595
# 5 36.2488 18.8982 16.6711 -13.1148 0.6692 -7.0927
# 6 -17.7606 -7.7886 0.4541 -0.6595 -7.0927 29.8597
#
#
#
# Elastic Compliance Matrix: (Units=1/GPa)
#
#
# Indices 1 2 3 4 5 6 
#
# 1 0.007107 -0.004420 -0.000079 0.011045 0.004325 0.004347
# 2 -0.004420 0.010743 -0.002802 -0.000933 0.006848 0.001822
# 3 -0.000079 -0.002802 0.014125 0.014377 -0.004039 -0.001635
# 4 0.011045 -0.000933 0.014377 0.047989 -0.056900 -0.006348
# 5 0.004325 0.006848 -0.004039 -0.056900 -0.056462 -0.010248
# 6 0.004347 0.001822 -0.001635 -0.006348 -0.010248 0.034001
#
#
# Mechanical properties :
#
#
# Convention : Reuss Voigt Hill
#
# Bulk Modulus (GPa) = 57.55677 74.32268 65.93973
# Shear Modulus (GPa) = 64.18728 27.25343 45.72036
#
# Velocity S-wave (km/s) = 5.27683 3.43843 4.45352
# Velocity P-wave (km/s) = 7.88005 6.92860 7.41959
#
# Compressibility (1/GPa) = 0.01737415
#
# Stress axis : x y z
#
# Youngs Moduli (GPa) = 140.69750 93.08466 70.79516
#
# Poissons Ratio (x) = 0.41140 0.00562
# Poissons Ratio (y) = 0.62184 0.19835
# Poissons Ratio (z) = 0.01116 0.26080
#
# Static dielectric constant tensor:
#      x y z
#    x 1.932220 -0.048070 0.010500 
#    y -0.048070 1.815440 0.008410 
#    z 0.010500 0.008410 1.875180 
# 
# From -- ./inp_files/516028.got.cif
#   From: 2010.05.17/outbox.cif.g08.bks.cpg/sg2_259_cif.got.tgz:516028.got - 2010.06.03 11:33:40.
