data_PCOD9098923
_publ_section_title
;
Structure prediction by ZEFSAII (Michael W. Deem and Ramdas Pophale) SiO2 
 PCOD9098923
Probable space group: P -1
;
_chemical_formula_sum "Si O2"
_cell_formula_units_Z 16
_cell_length_a 7.611099
_cell_length_b 7.539303
_cell_length_c 18.903143
_cell_angle_alpha 47.379766
_cell_angle_beta 110.265910
_cell_angle_gamma 118.565382
_cell_volume 700.599825
_symmetry_space_group_name_H-M "P -1"
_symmetry_group_IT_number 2
_symmetry_cell_setting 'triclinic'
loop_
_space_group_symop_operation_xyz
x,y,z
-x,-y,-z
loop_
_atom_site_type_symbol
_atom_site_label
_atom_site_fract_x
_atom_site_fract_y
_atom_site_fract_z
Si Si1 0.225537 0.632195 0.469588
Si Si2 0.331110 0.055794 0.914795
Si Si3 0.647167 0.535015 0.782374
Si Si4 0.976815 0.370258 0.952050
Si Si5 0.598881 0.301302 0.097462
Si Si6 0.233244 0.121767 0.415546
Si Si7 0.760516 0.887917 0.412448
Si Si8 0.387708 0.988940 0.278687
O O1 0.309155 0.401267 0.550884
O O2 0.000000 0.500000 0.500000
O O3 0.304697 0.895204 0.454822
O O4 0.250156 0.719243 0.366970
O O5 0.427360 0.351462 0.826232
O O6 0.333284 0.886397 0.892566
O O7 0.500000 0.000000 0.000000
O O8 0.121154 0.932688 0.959194
O O9 0.809667 0.426220 0.865873
O O10 0.661090 0.607574 0.682374
O O11 0.695374 0.808768 0.751871
O O12 0.184043 0.493251 0.906004
O O13 0.000000 0.500000 0.000000
O O14 0.431425 0.093778 0.177558
O O15 0.500000 0.500000 0.000000
O O16 0.254792 0.130959 0.499874
O O17 0.994549 0.034046 0.388832
O O18 0.610415 0.020549 0.327888
#
# Coordination Sequence:
#
# PCOD9098923 Si02
#       8
#     2   2   2   2   2   2   2   2
#     4   9  20  38  58  84 120 158 199 245 301 360
#     4   9  19  37  58  82 114 157 194 241 302 360
#     4  10  20  37  58  85 120 153 202 242 307 366
#     4   9  18  36  60  80 116 158 193 243 306 357
#     4  11  22  38  62  87 118 154 201 254 298 357
#     4   9  20  37  61  81 123 162 190 254 304 355
#     4  10  20  38  59  87 120 154 206 249 299 355
#     4  11  22  36  60  88 116 151 202 249 299 356
#
# _framework density 22.837572999999999
#
# number of rings (size 3 to 8) (size 9 to 14) (size 15 to 20)
#    0.000    2.250    0.000    3.375    1.750    2.000 
#    2.250    6.875   16.500    0.000    0.000    0.000 
#    0.000    0.000    0.000    0.000    0.000    0.000 
#
# Total GULP energy -89118.670805 kJ/mol
# GULP energy per Si atom -5569.916925 kJ/mol
# Density = 2.278559 g / cm^3
# Si number density = 22.837573 Si / 1000 Ang^3
#
#
#
# Elastic Constant Matrix: (Units=GPa)
#
#
# Indices 1 2 3 4 5 6 
#
# 1 68.1073 -1.2445 9.3029 -7.1974 -12.3802 10.6451
# 2 -1.2445 29.9804 11.5095 -7.6647 -4.9553 7.2922
# 3 9.3029 11.5095 97.3348 -16.9657 -20.6207 5.5206
# 4 -7.1974 -7.6647 -16.9657 24.4593 5.0430 -11.3211
# 5 -12.3802 -4.9553 -20.6207 5.0430 43.3264 -4.4582
# 6 10.6451 7.2922 5.5206 -11.3211 -4.4582 29.3537
#
#
#
# Elastic Compliance Matrix: (Units=1/GPa)
#
#
# Indices 1 2 3 4 5 6 
#
# 1 0.016625 0.003418 -0.000401 0.002404 0.004131 -0.005248
# 2 0.003418 0.038557 -0.002649 0.007462 0.002531 -0.007057
# 3 -0.000401 -0.002649 0.012970 0.008040 0.005049 0.002232
# 4 0.002404 0.007462 0.008040 0.057794 0.000506 0.018129
# 5 0.004131 0.002531 0.005049 0.000506 0.027020 0.001223
# 6 -0.005248 -0.007057 0.002232 0.018129 0.001223 0.044482
#
#
# Mechanical properties :
#
#
# Convention : Reuss Voigt Hill
#
# Bulk Modulus (GPa) = 14.51636 26.06205 20.28920
# Shear Modulus (GPa) = 22.76098 31.15152 26.95625
#
# Velocity S-wave (km/s) = 3.16040 3.69731 3.43934
# Velocity P-wave (km/s) = 4.43707 5.44642 4.96745
#
# Compressibility (1/GPa) = 0.06888781
#
# Stress axis : x y z
#
# Youngs Moduli (GPa) = 60.14972 25.93591 77.10158
#
# Poissons Ratio (x) = -0.08865 0.03095
# Poissons Ratio (y) = -0.20560 0.20421
# Poissons Ratio (z) = 0.02414 0.06869
#
# Static dielectric constant tensor:
#      x y z
#    x 1.883190 -0.009630 -0.090530 
#    y -0.009630 1.943080 -0.003970 
#    z -0.090530 -0.003970 1.912790 
# 
# From -- ./inp_files/586514.got.cif
#   From: 2010.05.17/outbox.cif.g08.bks.cpg/sg2_294_cif.got.tgz:586514.got - 2010.06.03 11:33:40.
