data_PCOD9098455
_publ_section_title
;
Structure prediction by ZEFSAII (Michael W. Deem and Ramdas Pophale) SiO2 
 PCOD9098455
Probable space group: P -1
;
_chemical_formula_sum "Si O2"
_cell_formula_units_Z 15
_cell_length_a 25.168018
_cell_length_b 14.107976
_cell_length_c 7.215430
_cell_angle_alpha 55.686405
_cell_angle_beta 122.775108
_cell_angle_gamma 162.133665
_cell_volume 649.099019
_symmetry_space_group_name_H-M "P -1"
_symmetry_group_IT_number 2
_symmetry_cell_setting 'triclinic'
loop_
_space_group_symop_operation_xyz
x,y,z
-x,-y,-z
loop_
_atom_site_type_symbol
_atom_site_label
_atom_site_fract_x
_atom_site_fract_y
_atom_site_fract_z
Si Si1 0.464877 0.546664 0.574055
Si Si2 0.171497 0.732330 0.650417
Si Si3 0.660313 0.653017 0.834419
Si Si4 0.880281 0.693479 0.551812
Si Si5 0.176719 0.594807 0.480208
Si Si6 0.439446 0.692483 0.680011
Si Si7 0.000000 0.500000 0.000000
Si Si8 0.951360 0.232752 0.011413
O O1 0.511459 0.495454 0.767126
O O2 0.331250 0.335497 0.385227
O O3 0.420338 0.553783 0.652194
O O4 0.650826 0.903746 0.445839
O O5 0.187730 0.641844 0.666508
O O6 0.000000 0.500000 0.500000
O O7 0.107275 0.595740 0.887345
O O8 0.611812 0.450628 0.062184
O O9 0.833758 0.994712 0.882124
O O10 0.894864 0.652153 0.428460
O O11 0.690369 0.426289 0.493099
O O12 0.944582 0.699696 0.797695
O O13 0.000000 0.000000 0.500000
O O14 0.368449 0.933582 0.384134
O O15 0.070765 0.516274 0.266014
O O16 0.156329 0.862129 0.962466
#
# Coordination Sequence:
#
# PCOD9098455 Si02
#       8
#     2   2   2   2   2   2   1   2
#     4  10  24  40  63 102 129 167 211 267 333 387
#     4  11  20  41  65  93 132 159 211 274 325 385
#     4  11  22  41  65  95 135 165 210 271 333 380
#     4  11  24  44  63  93 128 174 226 259 311 392
#     4  10  23  40  67  95 126 170 214 265 329 381
#     4  11  23  45  64  92 134 173 217 264 319 388
#     4  10  20  36  66  94 120 162 218 258 326 376
#     4  11  22  41  64  95 125 170 217 268 322 387
#
# _framework density 23.108954000000001
#
# number of rings (size 3 to 8) (size 9 to 14) (size 15 to 20)
#    0.000    1.333    4.000    1.600    3.733    1.067 
#    4.800    2.667    0.000    0.000    0.000    0.000 
#    0.000    0.000    0.000    0.000    0.000    0.000 
#
# Total GULP energy -83511.029441 kJ/mol
# GULP energy per Si atom -5567.401963 kJ/mol
# Density = 2.305636 g / cm^3
# Si number density = 23.108954 Si / 1000 Ang^3
#
#
#
# Elastic Constant Matrix: (Units=GPa)
#
#
# Indices 1 2 3 4 5 6 
#
# 1 83.6791 19.2999 24.6562 3.6718 27.4043 -17.8743
# 2 19.2999 77.7855 7.0485 -1.1414 6.9761 -9.5911
# 3 24.6562 7.0485 71.6052 0.6671 15.0556 -4.8171
# 4 3.6718 -1.1414 0.6671 25.0603 -8.4090 -10.6215
# 5 27.4043 6.9761 15.0556 -8.4090 40.5831 -4.7507
# 6 -17.8743 -9.5911 -4.8171 -10.6215 -4.7507 31.5615
#
#
#
# Elastic Compliance Matrix: (Units=1/GPa)
#
#
# Indices 1 2 3 4 5 6 
#
# 1 0.018650 -0.002612 -0.003409 -0.003730 -0.010910 0.006351
# 2 -0.002612 0.013992 -0.000359 0.002779 0.000504 0.003729
# 3 -0.003409 -0.000359 0.015977 -0.001589 -0.003978 -0.000735
# 4 -0.003730 0.002779 -0.001589 0.054121 0.016083 0.019124
# 5 -0.010910 0.000504 -0.003978 0.016083 0.037243 0.004386
# 6 0.006351 0.003729 -0.000735 0.019124 0.004386 0.043398
#
#
# Mechanical properties :
#
#
# Convention : Reuss Voigt Hill
#
# Bulk Modulus (GPa) = 27.88693 37.23101 32.55897
# Shear Modulus (GPa) = 24.02764 31.57866 27.80315
#
# Velocity S-wave (km/s) = 3.22802 3.70065 3.47238
# Velocity P-wave (km/s) = 5.09777 5.86564 5.49514
#
# Compressibility (1/GPa) = 0.03585910
#
# Stress axis : x y z
#
# Youngs Moduli (GPa) = 53.61822 71.47037 62.59182
#
# Poissons Ratio (x) = 0.18667 0.21338
# Poissons Ratio (y) = 0.14004 0.02247
# Poissons Ratio (z) = 0.18279 0.02566
#
# Static dielectric constant tensor:
#      x y z
#    x 2.591980 0.046300 -0.239260 
#    y 0.046300 1.925760 -0.037380 
#    z -0.239260 -0.037380 1.998650 
# 
# From -- ./inp_files/357251.got.cif
#   From: 2010.05.17/outbox.cif.g08.bks.cpg/sg2_179_cif.got.tgz:357251.got - 2010.06.03 11:33:40.
