data_PCOD9098295
_publ_section_title
;
Structure prediction by ZEFSAII (Michael W. Deem and Ramdas Pophale) SiO2 
 PCOD9098295
Probable space group: P -1
;
_chemical_formula_sum "Si O2"
_cell_formula_units_Z 16
_cell_length_a 8.811562
_cell_length_b 9.279948
_cell_length_c 18.372064
_cell_angle_alpha 46.735096
_cell_angle_beta 115.566783
_cell_angle_gamma 132.553350
_cell_volume 804.436115
_symmetry_space_group_name_H-M "P -1"
_symmetry_group_IT_number 2
_symmetry_cell_setting 'triclinic'
loop_
_space_group_symop_operation_xyz
x,y,z
-x,-y,-z
loop_
_atom_site_type_symbol
_atom_site_label
_atom_site_fract_x
_atom_site_fract_y
_atom_site_fract_z
Si Si1 0.554218 0.021153 0.234953
Si Si2 0.124827 0.914531 0.193777
Si Si3 0.454364 0.192095 0.398227
Si Si4 0.266837 0.340019 0.973109
Si Si5 0.419318 0.400881 0.598356
Si Si6 0.969731 0.967648 0.710209
Si Si7 0.094774 0.620745 0.900330
Si Si8 0.755877 0.432319 0.242759
O O1 0.358934 0.013057 0.220567
O O2 0.490889 0.753044 0.311898
O O3 0.664298 0.146907 0.137570
O O4 0.716982 0.206067 0.266365
O O5 0.039603 0.960928 0.232743
O O6 0.988850 0.631221 0.245785
O O7 0.147791 0.072969 0.073873
O O8 0.504469 0.375433 0.410498
O O9 0.613087 0.335725 0.316233
O O10 0.500000 0.000000 0.500000
O O11 0.227998 0.085857 0.355785
O O12 0.119749 0.426195 0.933650
O O13 0.300240 0.410606 0.871113
O O14 0.500000 0.500000 0.000000
O O15 0.500000 0.500000 0.500000
O O16 0.175015 0.192024 0.635082
O O17 0.979983 0.733945 0.802432
O O18 0.000000 0.500000 0.000000
#
# Coordination Sequence:
#
# PCOD9098295 Si02
#       8
#     2   2   2   2   2   2   2   2
#     4  10  23  41  64  94 137 172 221 281 334 390
#     4  12  21  40  70  98 135 184 225 273 337 396
#     4  12  26  45  73 101 130 177 233 282 340 407
#     4  11  20  39  67  97 139 184 222 276 328 397
#     4  11  26  46  67  98 135 171 224 285 348 402
#     4  11  24  43  70  99 136 177 222 283 338 399
#     4  10  20  36  64  95 138 178 216 263 338 391
#     4  11  23  40  65 102 132 175 234 273 327 408
#
# _framework density 19.889707000000001
#
# number of rings (size 3 to 8) (size 9 to 14) (size 15 to 20)
#    0.000    1.000    6.250    1.125    0.000    5.000 
#    0.000    0.000    0.000    6.750    0.000    0.000 
#    0.000    0.000    0.000    0.000    0.000    0.000 
#
# Total GULP energy -89094.808015 kJ/mol
# GULP energy per Si atom -5568.425501 kJ/mol
# Density = 1.984444 g / cm^3
# Si number density = 19.889707 Si / 1000 Ang^3
#
#
#
# Elastic Constant Matrix: (Units=GPa)
#
#
# Indices 1 2 3 4 5 6 
#
# 1 95.8378 29.9949 61.5582 -3.1686 -11.8348 -8.5551
# 2 29.9949 88.9132 48.4950 -5.0838 3.2318 -12.7490
# 3 61.5582 48.4950 137.4915 -8.9892 -30.7396 -7.4817
# 4 -3.1686 -5.0838 -8.9892 25.6571 -6.9634 1.7769
# 5 -11.8348 3.2318 -30.7396 -6.9634 48.2894 -3.7153
# 6 -8.5551 -12.7490 -7.4817 1.7769 -3.7153 37.8720
#
#
#
# Elastic Compliance Matrix: (Units=1/GPa)
#
#
# Indices 1 2 3 4 5 6 
#
# 1 0.014968 -0.001482 -0.006168 -0.000760 -0.000139 0.001686
# 2 -0.001482 0.015507 -0.005773 -0.000697 -0.004923 0.003295
# 3 -0.006168 -0.005773 0.014422 0.005544 0.008864 0.000122
# 4 -0.000760 -0.000697 0.005544 0.043321 0.009606 -0.000401
# 5 -0.000139 -0.004923 0.008864 0.009606 0.028215 0.002380
# 6 0.001686 0.003295 0.000122 -0.000401 0.002380 0.028171
#
#
# Mechanical properties :
#
#
# Convention : Reuss Voigt Hill
#
# Bulk Modulus (GPa) = 55.39792 66.92653 61.16223
# Shear Modulus (GPa) = 28.17438 34.51000 31.34219
#
# Velocity S-wave (km/s) = 3.76777 4.16993 3.97394
# Velocity P-wave (km/s) = 6.84406 7.54363 7.20234
#
# Compressibility (1/GPa) = 0.01805122
#
# Stress axis : x y z
#
# Youngs Moduli (GPa) = 66.80901 64.48673 69.34010
#
# Poissons Ratio (x) = 0.09558 0.42767
# Poissons Ratio (y) = 0.09902 0.40029
# Poissons Ratio (z) = 0.41206 0.37227
#
# Static dielectric constant tensor:
#      x y z
#    x 1.730810 0.013830 0.026840 
#    y 0.013830 1.821220 0.079900 
#    z 0.026840 0.079900 1.847150 
# 
# From -- ./inp_files/245880.got.cif
#   From: 2010.05.17/outbox.cif.g08.bks.cpg/sg2_123_cif.got.tgz:245880.got - 2010.06.03 11:33:40.
