data_PCOD9098100
_publ_section_title
;
Structure prediction by ZEFSAII (Michael W. Deem and Ramdas Pophale) SiO2 
 PCOD9098100
Probable space group: P -1
;
_chemical_formula_sum "Si O2"
_cell_formula_units_Z 14
_cell_length_a 8.588265
_cell_length_b 20.090327
_cell_length_c 7.850080
_cell_angle_alpha 56.514691
_cell_angle_beta 33.519563
_cell_angle_gamma 53.819337
_cell_volume 598.310525
_symmetry_space_group_name_H-M "P -1"
_symmetry_group_IT_number 2
_symmetry_cell_setting 'triclinic'
loop_
_space_group_symop_operation_xyz
x,y,z
-x,-y,-z
loop_
_atom_site_type_symbol
_atom_site_label
_atom_site_fract_x
_atom_site_fract_y
_atom_site_fract_z
Si Si1 0.226639 0.057216 0.557750
Si Si2 0.163373 0.217486 0.569936
Si Si3 0.340999 0.942783 0.115071
Si Si4 0.569380 0.316711 0.893769
Si Si5 0.598352 0.782520 0.287445
Si Si6 0.279021 0.500003 0.853266
Si Si7 0.797197 0.316703 0.289523
O O1 0.070144 0.139067 0.690701
O O2 0.977075 0.022981 0.738413
O O3 0.500000 0.000000 0.500000
O O4 0.410904 0.089176 0.205347
O O5 0.866266 0.289524 0.768368
O O6 0.311193 0.188810 0.655568
O O7 0.371329 0.255737 0.207144
O O8 0.348276 0.860937 0.329816
O O9 0.500000 0.000000 0.000000
O O10 0.392276 0.411272 0.965138
O O11 0.689100 0.310902 0.594544
O O12 0.445336 0.710478 0.557875
O O13 0.882815 0.744277 0.962876
O O14 0.500000 0.500000 0.500000
O O15 0.214803 0.588738 0.876413
O O16 0.000000 0.500000 0.000000
#
# Coordination Sequence:
#
# PCOD9098100 Si02
#       7
#     2   2   2   2   2   2   2
#     4  12  26  45  70  99 132 173 218 270 328 392
#     4  12  25  42  64  96 134 173 215 267 326 390
#     4  12  26  45  70  99 132 173 218 270 328 392
#     4  11  22  41  66  94 126 171 222 271 323 387
#     4  12  25  42  64  96 134 173 215 267 326 390
#     4  10  20  36  63  94 123 162 217 272 321 382
#     4  11  22  41  66  94 126 171 222 271 323 387
#
# _framework density 23.399221000000001
#
# number of rings (size 3 to 8) (size 9 to 14) (size 15 to 20)
#    0.000    0.571    0.000   11.143    0.000    2.286 
#    0.000    4.286    0.000    0.000    0.000    0.000 
#    0.000    0.000    0.000    0.000    0.000    0.000 
#
# Total GULP energy -78145.247372 kJ/mol
# GULP energy per Si atom -5581.803384 kJ/mol
# Density = 2.334596 g / cm^3
# Si number density = 23.399221 Si / 1000 Ang^3
#
#
#
# Elastic Constant Matrix: (Units=GPa)
#
#
# Indices 1 2 3 4 5 6 
#
# 1 101.3515 40.8191 25.7740 -3.0033 -25.7372 -4.8745
# 2 40.8191 122.0757 29.3963 -7.5199 -9.6740 -6.9494
# 3 25.7740 29.3963 108.3950 6.0990 -31.1597 -0.2611
# 4 -3.0033 -7.5199 6.0990 27.8517 -1.5676 -14.5945
# 5 -25.7372 -9.6740 -31.1597 -1.5676 45.8785 3.1465
# 6 -4.8745 -6.9494 -0.2611 -14.5945 3.1465 29.8214
#
#
#
# Elastic Compliance Matrix: (Units=1/GPa)
#
#
# Indices 1 2 3 4 5 6 
#
# 1 0.013142 -0.003609 -0.000431 0.001649 0.006275 0.001448
# 2 -0.003609 0.010533 -0.002827 0.005428 -0.001860 0.004693
# 3 -0.000431 -0.002827 0.012633 -0.005235 0.007838 -0.004008
# 4 0.001649 0.005428 -0.005235 0.053087 -0.001567 0.027635
# 5 0.006275 -0.001860 0.007838 -0.001567 0.030422 -0.003316
# 6 0.001448 0.004693 -0.004008 0.027635 -0.003316 0.048702
#
#
# Mechanical properties :
#
#
# Convention : Reuss Voigt Hill
#
# Bulk Modulus (GPa) = 44.30164 58.20011 51.25088
# Shear Modulus (GPa) = 26.34634 36.43251 31.38943
#
# Velocity S-wave (km/s) = 3.35916 3.95016 3.66659
# Velocity P-wave (km/s) = 5.83261 6.76252 6.31471
#
# Compressibility (1/GPa) = 0.02257253
#
# Stress axis : x y z
#
# Youngs Moduli (GPa) = 76.09145 94.93613 79.15868
#
# Poissons Ratio (x) = 0.34264 0.03415
# Poissons Ratio (y) = 0.27462 0.22381
# Poissons Ratio (z) = 0.03283 0.26841
#
# Static dielectric constant tensor:
#      x y z
#    x 2.008810 0.007100 0.052640 
#    y 0.007100 1.844830 0.005380 
#    z 0.052640 0.005380 1.877420 
# 
# From -- ./inp_files/223115.got.cif
#   From: 2010.05.17/outbox.cif.g08.bks.cpg/sg2_112_cif.got.tgz:223115.got - 2010.06.03 11:33:40.
