data_PCOD9098611
_publ_section_title
;
Structure prediction by ZEFSAII (Michael W. Deem and Ramdas Pophale) SiO2 
 PCOD9098611
Probable space group: P -1
;
_chemical_formula_sum "Si O2"
_cell_formula_units_Z 16
_cell_length_a 9.003346
_cell_length_b 14.932388
_cell_length_c 9.785528
_cell_angle_alpha 68.585103
_cell_angle_beta 137.819307
_cell_angle_gamma 90.646772
_cell_volume 748.312507
_symmetry_space_group_name_H-M "P -1"
_symmetry_group_IT_number 2
_symmetry_cell_setting 'triclinic'
loop_
_space_group_symop_operation_xyz
x,y,z
-x,-y,-z
loop_
_atom_site_type_symbol
_atom_site_label
_atom_site_fract_x
_atom_site_fract_y
_atom_site_fract_z
Si Si1 0.278030 0.040181 0.432834
Si Si2 0.709410 0.291913 0.561766
Si Si3 0.222857 0.182951 0.868354
Si Si4 0.847642 0.307962 0.225166
Si Si5 0.370310 0.137191 0.709517
Si Si6 0.235942 0.768948 0.066106
Si Si7 0.093487 0.587312 0.551577
Si Si8 0.636472 0.179000 0.349111
O O1 0.380690 0.059061 0.637946
O O2 0.045720 0.145736 0.173241
O O3 0.500000 0.000000 0.500000
O O4 0.196736 0.943697 0.442760
O O5 0.544044 0.250037 0.383083
O O6 0.973781 0.195651 0.761921
O O7 0.726812 0.393508 0.446063
O O8 0.685210 0.296025 0.703565
O O9 0.306700 0.110103 0.833160
O O10 0.141752 0.301152 0.685042
O O11 0.418290 0.172309 0.119678
O O12 0.730946 0.306078 0.000915
O O13 0.760235 0.237939 0.306510
O O14 0.136602 0.242601 0.443604
O O15 0.804776 0.412002 0.226710
O O16 0.600904 0.164514 0.868554
O O17 0.000000 0.500000 0.500000
#
# Coordination Sequence:
#
# PCOD9098611 Si02
#       8
#     2   2   2   2   2   2   2   2
#     4  11  25  35  52  84 117 145 199 236 264 322
#     4   9  21  35  58  81 112 145 185 225 285 326
#     4   9  19  36  59  81 108 145 184 226 284 324
#     4   9  20  37  57  82 112 147 187 230 277 335
#     4  10  20  37  54  80 110 152 190 231 272 318
#     4  11  21  38  57  79 115 158 181 230 282 318
#     4   8  17  38  63  85 110 140 183 231 275 342
#     4  11  19  37  55  78 112 150 189 228 269 328
#
# _framework density 21.381440999999999
#
# number of rings (size 3 to 8) (size 9 to 14) (size 15 to 20)
#    0.750    1.500    2.500    1.500    0.000    6.500 
#    0.000    3.125    0.000    3.000    0.000    0.000 
#    0.000    0.000    0.000    0.000    0.000    0.000 
#
# Total GULP energy -89124.627198 kJ/mol
# GULP energy per Si atom -5570.289200 kJ/mol
# Density = 2.133278 g / cm^3
# Si number density = 21.381441 Si / 1000 Ang^3
#
#
#
# Elastic Constant Matrix: (Units=GPa)
#
#
# Indices 1 2 3 4 5 6 
#
# 1 62.6246 17.5764 18.5167 21.6597 -15.6552 -5.6601
# 2 17.5764 112.1720 24.3645 40.5444 -26.1117 0.4812
# 3 18.5167 24.3645 73.7470 36.8582 -21.2184 -7.6728
# 4 21.6597 40.5444 36.8582 37.8258 -12.3554 -0.4444
# 5 -15.6552 -26.1117 -21.2184 -12.3554 45.7177 11.5586
# 6 -5.6601 0.4812 -7.6728 -0.4444 11.5586 16.7716
#
#
#
# Elastic Compliance Matrix: (Units=1/GPa)
#
#
# Indices 1 2 3 4 5 6 
#
# 1 0.022179 0.003984 0.005509 -0.020482 0.005484 0.005569
# 2 0.003984 0.018774 0.009669 -0.028820 0.009272 -0.001925
# 3 0.005509 0.009669 0.034803 -0.044368 0.009013 0.010117
# 4 -0.020482 -0.028820 -0.044368 0.108632 -0.010614 -0.016189
# 5 0.005484 0.009272 0.009013 -0.010614 0.035107 -0.018768
# 6 0.005569 -0.001925 0.010117 -0.016189 -0.018768 0.078693
#
#
# Mechanical properties :
#
#
# Convention : Reuss Voigt Hill
#
# Bulk Modulus (GPa) = 8.76589 41.05098 24.90843
# Shear Modulus (GPa) = 16.78463 32.60208 24.69336
#
# Velocity S-wave (km/s) = 2.80484 3.90908 3.40206
# Velocity P-wave (km/s) = 3.82076 6.29409 5.20643
#
# Compressibility (1/GPa) = 0.11407853
#
# Stress axis : x y z
#
# Youngs Moduli (GPa) = 45.08701 53.26469 28.73338
#
# Poissons Ratio (x) = -0.21220 -0.15828
# Poissons Ratio (y) = -0.17962 -0.27781
# Poissons Ratio (z) = -0.24837 -0.51500
#
# Static dielectric constant tensor:
#      x y z
#    x 1.812370 -0.024230 -0.004720 
#    y -0.024230 1.788270 0.004430 
#    z -0.004720 0.004430 1.847140 
# 
# From -- ./inp_files/212564.got.cif
#   From: 2010.05.17/outbox.cif.g08.bks.cpg/sg2_107_cif.got.tgz:212564.got - 2010.06.03 11:33:40.
