data_PCOD9098574
_publ_section_title
;
Structure prediction by ZEFSAII (Michael W. Deem and Ramdas Pophale) SiO2 
 PCOD9098574
Probable space group: P -1
;
_chemical_formula_sum "Si O2"
_cell_formula_units_Z 11
_cell_length_a 7.361306
_cell_length_b 9.784485
_cell_length_c 9.021196
_cell_angle_alpha 50.060895
_cell_angle_beta 108.276338
_cell_angle_gamma 81.725167
_cell_volume 416.490639
_symmetry_space_group_name_H-M "P -1"
_symmetry_group_IT_number 2
_symmetry_cell_setting 'triclinic'
loop_
_space_group_symop_operation_xyz
x,y,z
-x,-y,-z
loop_
_atom_site_type_symbol
_atom_site_label
_atom_site_fract_x
_atom_site_fract_y
_atom_site_fract_z
Si Si1 0.119623 0.259957 0.683061
Si Si2 0.559417 0.266605 0.702881
Si Si3 0.184986 0.674175 0.687893
Si Si4 0.763407 0.886021 0.865280
Si Si5 0.000000 0.500000 0.000000
Si Si6 0.408756 0.751661 0.949779
O O1 0.354477 0.226778 0.713309
O O2 0.110642 0.184100 0.897315
O O3 0.000000 0.500000 0.500000
O O4 0.988151 0.207942 0.564257
O O5 0.500000 0.500000 0.500000
O O6 0.681645 0.195998 0.942861
O O7 0.670382 0.128376 0.683649
O O8 0.245303 0.787482 0.750246
O O9 0.077556 0.555003 0.829188
O O10 0.420118 0.491001 0.824208
O O11 0.893045 0.744055 0.861635
O O12 0.554528 0.851351 0.864867
#
# Coordination Sequence:
#
# PCOD9098574 Si02
#       6
#     2   2   2   2   1   2
#     4  11  19  41  71  99 131 181 228 273 338 417
#     4  11  24  42  68  99 139 182 228 279 339 400
#     4  10  20  36  69  98 135 176 217 282 341 404
#     4  10  22  44  70  96 138 183 223 281 341 404
#     4  10  20  38  70  98 140 164 226 286 338 386
#     4   9  19  39  68  95 134 179 221 274 346 403
#
# _framework density 26.411161
#
# number of rings (size 3 to 8) (size 9 to 14) (size 15 to 20)
#    0.000    1.818    5.455    2.182    2.545    0.000 
#    0.000   10.000    8.000    8.727    0.000    0.000 
#    0.000    0.000    0.000    0.000    0.000    0.000 
#
# Total GULP energy -61253.528389 kJ/mol
# GULP energy per Si atom -5568.502581 kJ/mol
# Density = 2.635105 g / cm^3
# Si number density = 26.411161 Si / 1000 Ang^3
#
#
#
# Elastic Constant Matrix: (Units=GPa)
#
#
# Indices 1 2 3 4 5 6 
#
# 1 85.3721 41.9480 33.4002 17.6962 -15.3168 2.3113
# 2 41.9480 219.0327 38.8905 -15.2123 15.5825 -16.1035
# 3 33.4002 38.8905 81.5446 7.7415 16.8856 25.6581
# 4 17.6962 -15.2123 7.7415 54.4641 10.0992 18.1927
# 5 -15.3168 15.5825 16.8856 10.0992 26.5689 13.3966
# 6 2.3113 -16.1035 25.6581 18.1927 13.3966 45.5372
#
#
#
# Elastic Compliance Matrix: (Units=1/GPa)
#
#
# Indices 1 2 3 4 5 6 
#
# 1 0.033035 -0.007474 -0.016820 -0.018130 0.040810 0.000395
# 2 -0.007474 0.007642 0.000174 0.005430 -0.013357 0.004744
# 3 -0.016820 0.000174 0.026703 0.009960 -0.025156 -0.010709
# 4 -0.018130 0.005430 0.009960 0.032040 -0.028525 -0.007180
# 5 0.040810 -0.013357 -0.025156 -0.028525 0.101404 -0.011057
# 6 0.000395 0.004744 -0.010709 -0.007180 -0.011057 0.035773
#
#
# Mechanical properties :
#
#
# Convention : Reuss Voigt Hill
#
# Bulk Modulus (GPa) = 52.24520 68.26964 60.25742
# Shear Modulus (GPa) = 17.16930 43.42809 30.29869
#
# Velocity S-wave (km/s) = 2.55243 4.05941 3.39070
# Velocity P-wave (km/s) = 5.33956 6.91929 6.18011
#
# Compressibility (1/GPa) = 0.01914051
#
# Stress axis : x y z
#
# Youngs Moduli (GPa) = 30.27056 130.85424 37.44921
#
# Poissons Ratio (x) = 0.97796 0.62991
# Poissons Ratio (y) = 0.22623 -0.00652
# Poissons Ratio (z) = 0.50917 -0.02279
#
# Static dielectric constant tensor:
#      x y z
#    x 2.064030 0.014670 0.123150 
#    y 0.014670 2.145010 -0.074370 
#    z 0.123150 -0.074370 2.013630 
# 
# From -- ./inp_files/148962.got.cif
#   From: 2010.05.17/outbox.cif.g08.bks.cpg/sg2_75_cif.got.tgz:148962.got - 2010.06.03 11:33:40.
