data_PCOD9098927
_publ_section_title
;
Structure prediction by ZEFSAII (Michael W. Deem and Ramdas Pophale) SiO2 
 PCOD9098927
Probable space group: P -1
;
_chemical_formula_sum "Si O2"
_cell_formula_units_Z 16
_cell_length_a 9.321574
_cell_length_b 20.769449
_cell_length_c 26.859058
_cell_angle_alpha 19.089194
_cell_angle_beta 30.255239
_cell_angle_gamma 38.768084
_cell_volume 835.451080
_symmetry_space_group_name_H-M "P -1"
_symmetry_group_IT_number 2
_symmetry_cell_setting 'triclinic'
loop_
_space_group_symop_operation_xyz
x,y,z
-x,-y,-z
loop_
_atom_site_type_symbol
_atom_site_label
_atom_site_fract_x
_atom_site_fract_y
_atom_site_fract_z
Si Si1 0.630897 0.744827 0.939219
Si Si2 0.019337 0.284204 0.239367
Si Si3 0.655477 0.986801 0.238340
Si Si4 0.620794 0.863865 0.688134
Si Si5 0.728529 0.872047 0.005447
Si Si6 0.301641 0.449959 0.429875
Si Si7 0.077577 0.929903 0.755385
Si Si8 0.590418 0.618805 0.664008
O O1 0.882748 0.839676 0.833348
O O2 0.775298 0.660977 0.909643
O O3 0.478738 0.916599 0.837907
O O4 0.410243 0.561870 0.165987
O O5 0.749944 0.390159 0.240304
O O6 0.210146 0.299039 0.221821
O O7 0.858032 0.044486 0.459855
O O8 0.635438 0.748812 0.417853
O O9 0.492511 0.038845 0.299275
O O10 0.994662 0.089257 0.069443
O O11 0.330219 0.809273 0.781871
O O12 0.560828 0.641108 0.222177
O O13 0.868294 0.929224 0.866825
O O14 0.500000 0.000000 0.000000
O O15 0.271599 0.408564 0.410307
O O16 0.000000 0.500000 0.500000
O O17 0.255825 0.159428 0.524900
#
# Coordination Sequence:
#
# PCOD9098927 Si02
#       8
#     2   2   2   2   2   2   2   2
#     4  11  23  36  60  88 127 158 186 242 303 341
#     4   9  17  34  58  84 121 158 196 239 288 338
#     4  10  21  39  58  90 119 151 196 247 286 346
#     4   8  16  33  58  82 116 157 197 241 277 341
#     4  11  20  38  65  86 110 151 201 243 290 348
#     4  12  21  38  67  88 109 154 200 240 295 348
#     4  10  20  37  58  85 122 154 196 237 295 346
#     4  11  21  38  59  87 122 157 198 242 288 353
#
# _framework density 19.151330000000002
#
# number of rings (size 3 to 8) (size 9 to 14) (size 15 to 20)
#    0.000    1.750    6.250    0.375    0.000    3.000 
#    0.000    3.125    2.750    3.000    0.000    0.000 
#    0.000    0.000    0.000    0.000    0.000    0.000 
#
# Total GULP energy -89320.878151 kJ/mol
# GULP energy per Si atom -5582.554884 kJ/mol
# Density = 1.910774 g / cm^3
# Si number density = 19.151330 Si / 1000 Ang^3
#
#
#
# Elastic Constant Matrix: (Units=GPa)
#
#
# Indices 1 2 3 4 5 6 
#
# 1 102.7753 11.5939 40.2001 -3.3963 7.6650 -16.7512
# 2 11.5939 53.2464 14.7311 6.6885 14.2565 -14.4496
# 3 40.2001 14.7311 115.8173 -12.3512 3.9839 -15.0781
# 4 -3.3963 6.6885 -12.3512 28.2733 -2.4005 -1.2951
# 5 7.6650 14.2565 3.9839 -2.4005 38.3698 -0.1162
# 6 -16.7512 -14.4496 -15.0781 -1.2951 -0.1162 21.5724
#
#
#
# Elastic Compliance Matrix: (Units=1/GPa)
#
#
# Indices 1 2 3 4 5 6 
#
# 1 0.012397 0.001071 -0.003317 -0.000059 -0.002509 0.008008
# 2 0.001071 0.027625 -0.002042 -0.007408 -0.010677 0.017406
# 3 -0.003317 -0.002042 0.011116 0.005182 0.000604 0.004141
# 4 -0.000059 -0.007408 0.005182 0.039826 0.004721 0.001030
# 5 -0.002509 -0.010677 0.000604 0.004721 0.030738 -0.008229
# 6 0.008008 0.017406 0.004141 0.001030 -0.008229 0.067145
#
#
# Mechanical properties :
#
#
# Convention : Reuss Voigt Hill
#
# Bulk Modulus (GPa) = 23.49492 44.98771 34.24132
# Shear Modulus (GPa) = 23.62837 31.33068 27.47952
#
# Velocity S-wave (km/s) = 3.51632 4.04908 3.79207
# Velocity P-wave (km/s) = 5.36476 6.73808 6.09025
#
# Compressibility (1/GPa) = 0.04256239
#
# Stress axis : x y z
#
# Youngs Moduli (GPa) = 80.66538 36.19905 89.95942
#
# Poissons Ratio (x) = -0.03876 0.29836
# Poissons Ratio (y) = -0.08638 0.18371
# Poissons Ratio (z) = 0.26753 0.07392
#
# Static dielectric constant tensor:
#      x y z
#    x 1.670840 -0.009170 0.003910 
#    y -0.009170 1.687780 -0.018850 
#    z 0.003910 -0.018850 1.692130 
# 
# From -- ./inp_files/207201.got.cif
#   From: 2010.05.17/outbox.cif.g08.bks.cpg/sg2_104_cif.got.tgz:207201.got - 2010.06.03 11:33:40.
