data_PCOD9098050
_publ_section_title
;
Structure prediction by ZEFSAII (Michael W. Deem and Ramdas Pophale) SiO2 
 PCOD9098050
Probable space group: P -1
;
_chemical_formula_sum "Si O2"
_cell_formula_units_Z 15
_cell_length_a 15.866303
_cell_length_b 10.492751
_cell_length_c 14.525742
_cell_angle_alpha 31.308639
_cell_angle_beta 25.297776
_cell_angle_gamma 36.013301
_cell_volume 529.714949
_symmetry_space_group_name_H-M "P -1"
_symmetry_group_IT_number 2
_symmetry_cell_setting 'triclinic'
loop_
_space_group_symop_operation_xyz
x,y,z
-x,-y,-z
loop_
_atom_site_type_symbol
_atom_site_label
_atom_site_fract_x
_atom_site_fract_y
_atom_site_fract_z
Si Si1 0.741336 0.398955 0.914744
Si Si2 0.537806 0.945510 0.757325
Si Si3 0.860372 0.639929 0.362324
Si Si4 0.157219 0.091976 0.963494
Si Si5 0.729250 0.863564 0.918683
Si Si6 0.129291 0.763136 0.685991
Si Si7 0.390811 0.631193 0.361813
Si Si8 0.500000 0.000000 0.500000
O O1 0.595721 0.650041 0.876842
O O2 0.940768 0.480820 0.710062
O O3 0.828668 0.206362 0.865172
O O4 0.633300 0.227026 0.196347
O O5 0.401890 0.088654 0.720401
O O6 0.738453 0.049245 0.515935
O O7 0.383711 0.019894 0.948962
O O8 0.929987 0.803048 0.110591
O O9 0.722757 0.473319 0.545362
O O10 0.699853 0.836743 0.452363
O O11 0.023318 0.256327 0.068558
O O12 0.962169 0.820341 0.735891
O O13 0.680512 0.070099 0.761170
O O14 0.628625 0.624379 0.137163
O O15 0.301786 0.569599 0.585885
#
# Coordination Sequence:
#
# PCOD9098050 Si02
#       8
#     2   2   2   2   2   2   2   1
#     4  11  23  41  65  93 119 160 210 249 300 363
#     4  10  21  38  63  91 123 161 202 249 304 358
#     4  11  24  41  64  92 121 161 206 249 305 364
#     4  10  23  40  57  89 129 160 202 250 301 363
#     4   9  19  37  59  94 125 155 204 254 302 360
#     4  10  21  38  59  87 126 163 199 249 302 359
#     4  10  20  36  63  91 120 160 204 252 301 359
#     4  10  22  40  60  86 122 152 192 256 300 342
#
# _framework density 28.317114
#
# number of rings (size 3 to 8) (size 9 to 14) (size 15 to 20)
#    0.000    1.867    0.000    4.000    0.000    9.600 
#    0.000    6.000    0.000    0.000    0.000    0.000 
#    0.000    0.000    0.000    0.000    0.000    0.000 
#
# Total GULP energy -83543.799195 kJ/mol
# GULP energy per Si atom -5569.586613 kJ/mol
# Density = 2.825266 g / cm^3
# Si number density = 28.317114 Si / 1000 Ang^3
#
#
#
# Elastic Constant Matrix: (Units=GPa)
#
#
# Indices 1 2 3 4 5 6 
#
# 1 57.9177 21.8570 32.8503 7.8377 -42.0253 -9.6318
# 2 21.8570 120.7592 34.6959 1.2350 -11.9679 -8.7359
# 3 32.8503 34.6959 183.0852 4.4604 -32.8064 1.9308
# 4 7.8377 1.2350 4.4604 48.8686 0.5793 -7.0664
# 5 -42.0253 -11.9679 -32.8064 0.5793 55.8803 4.9094
# 6 -9.6318 -8.7359 1.9308 -7.0664 4.9094 44.7815
#
#
#
# Elastic Compliance Matrix: (Units=1/GPa)
#
#
# Indices 1 2 3 4 5 6 
#
# 1 0.043413 -0.004041 -0.001419 -0.006483 0.030647 0.004228
# 2 -0.004041 0.009315 -0.001434 0.000763 -0.002012 0.001351
# 3 -0.001419 -0.001434 0.006469 -0.000534 0.002537 -0.001226
# 4 -0.006483 0.000763 -0.000534 0.022010 -0.005505 0.002854
# 5 0.030647 -0.002012 0.002537 -0.005505 0.042005 0.000616
# 6 0.004228 0.001351 -0.001226 0.002854 0.000616 0.023939
#
#
# Mechanical properties :
#
#
# Convention : Reuss Voigt Hill
#
# Bulk Modulus (GPa) = 22.02140 60.06318 41.04229
# Shear Modulus (GPa) = 28.39724 48.06336 38.23030
#
# Velocity S-wave (km/s) = 3.17018 4.12433 3.67833
# Velocity P-wave (km/s) = 4.60366 6.62851 5.70661
#
# Compressibility (1/GPa) = 0.04541038
#
# Stress axis : x y z
#
# Youngs Moduli (GPa) = 23.03451 107.35755 154.59071
#
# Poissons Ratio (x) = 0.43378 0.21935
# Poissons Ratio (y) = 0.09307 0.22161
# Poissons Ratio (z) = 0.03268 0.15390
#
# Static dielectric constant tensor:
#      x y z
#    x 2.542230 0.196080 0.174790 
#    y 0.196080 2.284010 -0.056500 
#    z 0.174790 -0.056500 2.377590 
# 
# From -- ./inp_files/575899.got.cif
#   From: 2010.05.17/outbox.cif.g08.bks.cpg/sg2_288_cif.got.tgz:575899.got - 2010.06.03 11:33:40.
