data_PCOD9098198
_publ_section_title
;
Structure prediction by ZEFSAII (Michael W. Deem and Ramdas Pophale) SiO2 
 PCOD9098198
Probable space group: P -1
;
_chemical_formula_sum "Si O2"
_cell_formula_units_Z 16
_cell_length_a 11.977955
_cell_length_b 7.942144
_cell_length_c 16.055694
_cell_angle_alpha 73.297594
_cell_angle_beta 26.049876
_cell_angle_gamma 85.596902
_cell_volume 579.620549
_symmetry_space_group_name_H-M "P -1"
_symmetry_group_IT_number 2
_symmetry_cell_setting 'triclinic'
loop_
_space_group_symop_operation_xyz
x,y,z
-x,-y,-z
loop_
_atom_site_type_symbol
_atom_site_label
_atom_site_fract_x
_atom_site_fract_y
_atom_site_fract_z
Si Si1 0.526845 0.734140 0.696596
Si Si2 0.093855 0.226490 0.419858
Si Si3 0.965143 0.168014 0.160524
Si Si4 0.522531 0.157360 0.851724
Si Si5 0.682537 0.570646 0.255028
Si Si6 0.665836 0.933987 0.259051
Si Si7 0.395767 0.707460 0.038354
Si Si8 0.992820 0.484656 0.204659
O O1 0.806190 0.752678 0.553866
O O2 0.497530 0.630216 0.642439
O O3 0.472170 0.927882 0.702307
O O4 0.286395 0.590433 0.939976
O O5 0.348914 0.325890 0.170721
O O6 0.816319 0.258786 0.591842
O O7 0.000000 0.000000 0.500000
O O8 0.248152 0.147616 0.992388
O O9 0.054049 0.321488 0.001518
O O10 0.897429 0.259506 0.274956
O O11 0.720411 0.974995 0.314999
O O12 0.456768 0.932144 0.943568
O O13 0.574394 0.280248 0.884336
O O14 0.530769 0.713125 0.348553
O O15 0.797967 0.554797 0.270416
O O16 0.000000 0.000000 0.000000
O O17 0.103015 0.569186 0.209426
#
# Coordination Sequence:
#
# PCOD9098198 Si02
#       8
#     2   2   2   2   2   2   2   2
#     4  10  17  32  47  80 115 140 190 236 285 336
#     4   9  20  34  59  79 113 159 183 235 291 334
#     4  10  18  28  51  82 111 143 192 237 279 351
#     4  10  20  36  54  85 112 150 197 228 286 349
#     4  10  18  28  49  82 116 142 189 244 286 338
#     4  10  17  25  50  80 109 145 186 240 282 345
#     4   9  20  35  56  80 112 154 189 238 282 340
#     4  10  16  31  50  79 114 141 187 242 285 333
#
# _framework density 27.604265000000002
#
# number of rings (size 3 to 8) (size 9 to 14) (size 15 to 20)
#    0.000    2.250    3.750    1.500    8.750    0.500 
#    0.000    5.625    0.000    0.750    3.250    3.500 
#    0.000    0.125    0.000    0.000    0.000    0.000 
#
# Total GULP energy -89586.862882 kJ/mol
# GULP energy per Si atom -5599.178930 kJ/mol
# Density = 2.754144 g / cm^3
# Si number density = 27.604265 Si / 1000 Ang^3
#
#
#
# Elastic Constant Matrix: (Units=GPa)
#
#
# Indices 1 2 3 4 5 6 
#
# 1 148.6160 47.2270 44.6515 0.2924 -17.0150 31.5707
# 2 47.2270 136.2420 25.2745 15.6452 2.3909 25.0110
# 3 44.6515 25.2745 102.9349 21.7719 -7.1962 2.9766
# 4 0.2924 15.6452 21.7719 46.2043 -6.7683 -2.0505
# 5 -17.0150 2.3909 -7.1962 -6.7683 45.6197 -3.1312
# 6 31.5707 25.0110 2.9766 -2.0505 -3.1312 52.1028
#
#
#
# Elastic Compliance Matrix: (Units=1/GPa)
#
#
# Indices 1 2 3 4 5 6 
#
# 1 0.009976 -0.002297 -0.004017 0.002901 0.003336 -0.004398
# 2 -0.002297 0.009273 -0.000641 -0.003285 -0.002157 -0.003281
# 3 -0.004017 -0.000641 0.012760 -0.005717 -0.000178 0.001777
# 4 0.002901 -0.003285 -0.005717 0.026128 0.004327 0.001434
# 5 0.003336 -0.002157 -0.000178 0.004327 0.023935 0.000633
# 6 -0.004398 -0.003281 0.001777 0.001434 0.000633 0.023426
#
#
# Mechanical properties :
#
#
# Convention : Reuss Voigt Hill
#
# Bulk Modulus (GPa) = 55.25386 69.12212 62.18799
# Shear Modulus (GPa) = 39.85931 46.82801 43.34366
#
# Velocity S-wave (km/s) = 3.80406 4.12321 3.96685
# Velocity P-wave (km/s) = 6.27331 6.91105 6.59989
#
# Compressibility (1/GPa) = 0.01809828
#
# Stress axis : x y z
#
# Youngs Moduli (GPa) = 100.23998 107.84446 78.36908
#
# Poissons Ratio (x) = 0.24775 0.31477
# Poissons Ratio (y) = 0.23028 0.05027
# Poissons Ratio (z) = 0.40262 0.06917
#
# Static dielectric constant tensor:
#      x y z
#    x 2.281180 -0.000540 0.078420 
#    y -0.000540 2.240480 -0.048780 
#    z 0.078420 -0.048780 2.275900 
# 
# From -- ./inp_files/565334.got.cif
#   From: 2010.05.17/outbox.cif.g08.bks.cpg/sg2_283_cif.got.tgz:565334.got - 2010.06.03 11:33:40.
