data_PCOD9098550
_publ_section_title
;
Structure prediction by ZEFSAII (Michael W. Deem and Ramdas Pophale) SiO2 
 PCOD9098550
Probable space group: P -1
;
_chemical_formula_sum "Si O2"
_cell_formula_units_Z 13
_cell_length_a 17.043379
_cell_length_b 23.314397
_cell_length_c 13.472283
_cell_angle_alpha 16.876003
_cell_angle_beta 24.976915
_cell_angle_gamma 23.404489
_cell_volume 598.460531
_symmetry_space_group_name_H-M "P -1"
_symmetry_group_IT_number 2
_symmetry_cell_setting 'triclinic'
loop_
_space_group_symop_operation_xyz
x,y,z
-x,-y,-z
loop_
_atom_site_type_symbol
_atom_site_label
_atom_site_fract_x
_atom_site_fract_y
_atom_site_fract_z
Si Si1 0.370575 0.080545 0.201590
Si Si2 0.229922 0.490537 0.540410
Si Si3 0.041513 0.712791 0.577497
Si Si4 0.382024 0.706690 0.687219
Si Si5 0.000000 0.000000 0.500000
Si Si6 0.243024 0.906660 0.167011
Si Si7 0.944061 0.376738 0.681020
O O1 0.174250 0.093782 0.467308
O O2 0.469801 0.857404 0.396739
O O3 0.286576 0.268938 0.903088
O O4 0.530433 0.121985 0.019396
O O5 0.119173 0.684414 0.422886
O O6 0.443155 0.472103 0.281608
O O7 0.088574 0.508412 0.578027
O O8 0.210567 0.730266 0.427505
O O9 0.000000 0.500000 0.000000
O O10 0.207608 0.859192 0.560315
O O11 0.265665 0.626845 0.033651
O O12 0.129746 0.925167 0.370705
O O13 0.119648 0.136243 0.873758
O O14 0.000000 0.500000 0.500000
#
# Coordination Sequence:
#
# PCOD9098550 Si02
#       7
#     2   2   2   2   1   2   2
#     4  11  22  43  72  94 131 176 225 273 323 391
#     4  11  24  40  66  99 131 174 218 272 335 386
#     4  10  24  43  66  98 138 170 225 272 322 395
#     4  11  22  40  69  96 128 177 223 276 328 387
#     4  10  20  36  68  96 124 168 228 272 318 372
#     4  11  23  42  65  99 132 176 219 271 326 393
#     4  11  25  42  65  99 139 165 222 281 330 391
#
# _framework density 21.722401999999999
#
# number of rings (size 3 to 8) (size 9 to 14) (size 15 to 20)
#    0.000    1.231    4.615    1.846    4.308    3.077 
#    2.769    0.769    0.000    0.000    0.000    0.000 
#    0.000    0.000    0.000    0.000    0.000    0.000 
#
# Total GULP energy -72401.864245 kJ/mol
# GULP energy per Si atom -5569.374173 kJ/mol
# Density = 2.167296 g / cm^3
# Si number density = 21.722402 Si / 1000 Ang^3
#
#
#
# Elastic Constant Matrix: (Units=GPa)
#
#
# Indices 1 2 3 4 5 6 
#
# 1 165.7513 59.0270 47.9584 15.1747 -11.8567 -6.7779
# 2 59.0270 88.3445 17.2621 15.2634 12.2656 14.2464
# 3 47.9584 17.2621 52.0567 -3.1099 -9.9631 -6.2256
# 4 15.1747 15.2634 -3.1099 25.0572 0.1188 3.9996
# 5 -11.8567 12.2656 -9.9631 0.1188 31.4659 -1.4205
# 6 -6.7779 14.2464 -6.2256 3.9996 -1.4205 29.4613
#
#
#
# Elastic Compliance Matrix: (Units=1/GPa)
#
#
# Indices 1 2 3 4 5 6 
#
# 1 0.011640 -0.007334 -0.006856 -0.004356 0.005344 0.005624
# 2 -0.007334 0.022790 -0.005563 -0.007913 -0.013987 -0.013483
# 3 -0.006856 -0.005563 0.030603 0.010232 0.009536 0.006650
# 4 -0.004356 -0.007913 0.010232 0.048844 0.004434 -0.001431
# 5 0.005344 -0.013987 0.009536 0.004434 0.042767 0.011468
# 6 0.005624 -0.013483 0.006650 -0.001431 0.011468 0.043909
#
#
# Mechanical properties :
#
#
# Convention : Reuss Voigt Hill
#
# Bulk Modulus (GPa) = 39.17530 61.62749 50.40139
# Shear Modulus (GPa) = 20.11537 29.32388 24.71962
#
# Velocity S-wave (km/s) = 3.04636 3.67814 3.37705
# Velocity P-wave (km/s) = 5.51792 6.81691 6.20152
#
# Compressibility (1/GPa) = 0.02552629
#
# Stress axis : x y z
#
# Youngs Moduli (GPa) = 85.91373 43.87966 32.67691
#
# Poissons Ratio (x) = 0.32180 0.22404
# Poissons Ratio (y) = 0.63006 0.18178
# Poissons Ratio (z) = 0.58904 0.24410
#
# Static dielectric constant tensor:
#      x y z
#    x 1.808870 -0.009240 -0.017120 
#    y -0.009240 1.822700 -0.020970 
#    z -0.017120 -0.020970 1.844450 
# 
# From -- ./inp_files/457578.got.cif
#   From: 2010.05.17/outbox.cif.g08.bks.cpg/sg2_229_cif.got.tgz:457578.got - 2010.06.03 11:33:40.
