data_PCOD9098137
_publ_section_title
;
Structure prediction by ZEFSAII (Michael W. Deem and Ramdas Pophale) SiO2 
 PCOD9098137
Probable space group: P -1
;
_chemical_formula_sum "Si O2"
_cell_formula_units_Z 16
_cell_length_a 7.793348
_cell_length_b 21.371894
_cell_length_c 7.824749
_cell_angle_alpha 145.339649
_cell_angle_beta 62.700483
_cell_angle_gamma 106.300767
_cell_volume 646.498781
_symmetry_space_group_name_H-M "P -1"
_symmetry_group_IT_number 2
_symmetry_cell_setting 'triclinic'
loop_
_space_group_symop_operation_xyz
x,y,z
-x,-y,-z
loop_
_atom_site_type_symbol
_atom_site_label
_atom_site_fract_x
_atom_site_fract_y
_atom_site_fract_z
Si Si1 0.181371 0.816646 0.691380
Si Si2 0.270174 0.489012 0.228840
Si Si3 0.017489 0.615337 0.333551
Si Si4 0.631782 0.312718 0.193662
Si Si5 0.411641 0.249239 0.453220
Si Si6 0.305425 0.330147 0.147806
Si Si7 0.268590 0.037785 0.138583
Si Si8 0.032992 0.174682 0.822148
O O1 0.103039 0.710770 0.410996
O O2 0.406852 0.776042 0.553455
O O3 0.053967 0.835695 0.971216
O O4 0.193031 0.932506 0.850192
O O5 0.148288 0.580804 0.365594
O O6 0.414271 0.564762 0.417899
O O7 0.210739 0.436896 0.316291
O O8 0.317879 0.376411 0.838610
O O9 0.801008 0.661362 0.602899
O O10 0.000000 0.500000 0.000000
O O11 0.526129 0.236544 0.193179
O O12 0.531992 0.320939 0.071917
O O13 0.862030 0.257385 0.979912
O O14 0.272649 0.156995 0.314964
O O15 0.229007 0.228259 0.867901
O O16 0.120517 0.065151 0.428496
O O17 0.500000 0.000000 0.000000
#
# Coordination Sequence:
#
# PCOD9098137 Si02
#       8
#     2   2   2   2   2   2   2   2
#     4   9  20  38  63  98 130 178 220 264 336 392
#     4  12  21  39  63  95 139 171 223 275 328 397
#     4  11  23  39  65  98 138 179 214 273 336 396
#     4  11  23  39  64  97 137 175 221 266 341 397
#     4  10  20  36  63  97 128 175 218 275 327 386
#     4  11  23  39  63  99 132 177 219 271 332 395
#     4  10  20  38  70  97 125 177 221 274 336 389
#     4  10  20  42  66  94 133 175 218 280 325 395
#
# _framework density 24.748694
#
# number of rings (size 3 to 8) (size 9 to 14) (size 15 to 20)
#    0.000    1.500    5.000    2.250    1.750    0.000 
#    0.000    0.000    5.500   29.250    0.000    0.000 
#    0.000    0.000    0.000    0.000    0.000    0.000 
#
# Total GULP energy -89142.312711 kJ/mol
# GULP energy per Si atom -5571.394544 kJ/mol
# Density = 2.469237 g / cm^3
# Si number density = 24.748694 Si / 1000 Ang^3
#
#
#
# Elastic Constant Matrix: (Units=GPa)
#
#
# Indices 1 2 3 4 5 6 
#
# 1 118.0518 32.4836 35.0099 17.8148 5.8059 -9.6712
# 2 32.4836 93.4000 34.0750 19.0377 13.3684 34.5153
# 3 35.0099 34.0750 87.2251 25.6638 5.4606 18.9171
# 4 17.8148 19.0377 25.6638 37.8981 13.7650 8.0919
# 5 5.8059 13.3684 5.4606 13.7650 37.0484 11.2876
# 6 -9.6712 34.5153 18.9171 8.0919 11.2876 37.1202
#
#
#
# Elastic Compliance Matrix: (Units=1/GPa)
#
#
# Indices 1 2 3 4 5 6 
#
# 1 0.013451 -0.007394 -0.005000 -0.001307 -0.002472 0.013964
# 2 -0.007394 0.021857 0.000083 -0.003302 0.001167 -0.021927
# 3 -0.005000 0.000083 0.018105 -0.009518 0.004652 -0.009946
# 4 -0.001307 -0.003302 -0.009518 0.039062 -0.012596 0.002896
# 5 -0.002472 0.001167 0.004652 -0.012596 0.034567 -0.011865
# 6 0.013964 -0.021927 -0.009946 0.002896 -0.011865 0.059012
#
#
# Mechanical properties :
#
#
# Convention : Reuss Voigt Hill
#
# Bulk Modulus (GPa) = 34.73188 55.75710 45.24449
# Shear Modulus (GPa) = 22.69913 35.55388 29.12651
#
# Velocity S-wave (km/s) = 3.03179 3.79436 3.43431
# Velocity P-wave (km/s) = 5.13030 6.46331 5.83500
#
# Compressibility (1/GPa) = 0.02879199
#
# Stress axis : x y z
#
# Youngs Moduli (GPa) = 74.34401 45.75183 55.23323
#
# Poissons Ratio (x) = 0.33831 0.27614
# Poissons Ratio (y) = 0.54973 -0.00461
# Poissons Ratio (z) = 0.37169 -0.00382
#
# Static dielectric constant tensor:
#      x y z
#    x 2.036940 -0.014360 0.049600 
#    y -0.014360 2.028920 -0.025730 
#    z 0.049600 -0.025730 2.078080 
# 
# From -- ./inp_files/225712.got.cif
#   From: 2010.05.17/outbox.cif.g08.bks.cpg/sg2_113_cif.got.tgz:225712.got - 2010.06.03 11:33:40.
