data_PCOD9098238
_publ_section_title
;
Structure prediction by ZEFSAII (Michael W. Deem and Ramdas Pophale) SiO2 
 PCOD9098238
Probable space group: P -1
;
_chemical_formula_sum "Si O2"
_cell_formula_units_Z 13
_cell_length_a 9.381525
_cell_length_b 9.307893
_cell_length_c 7.179346
_cell_angle_alpha 72.034929
_cell_angle_beta 119.230161
_cell_angle_gamma 92.616125
_cell_volume 516.237116
_symmetry_space_group_name_H-M "P -1"
_symmetry_group_IT_number 2
_symmetry_cell_setting 'triclinic'
loop_
_space_group_symop_operation_xyz
x,y,z
-x,-y,-z
loop_
_atom_site_type_symbol
_atom_site_label
_atom_site_fract_x
_atom_site_fract_y
_atom_site_fract_z
Si Si1 0.500000 0.000000 0.500000
Si Si2 0.263042 0.329056 0.577363
Si Si3 0.812746 0.772683 0.842821
Si Si4 0.111095 0.951689 0.407686
Si Si5 0.682492 0.002497 0.181262
Si Si6 0.908234 0.363103 0.672244
Si Si7 0.633083 0.246006 0.775885
O O1 0.631727 0.855335 0.740061
O O2 0.421705 0.873122 0.362428
O O3 0.202899 0.305747 0.336741
O O4 0.238512 0.170391 0.726752
O O5 0.153295 0.475804 0.524873
O O6 0.459583 0.334261 0.701631
O O7 0.913518 0.918367 0.813996
O O8 0.921095 0.661610 0.095802
O O9 0.100297 0.783329 0.405064
O O10 0.298859 0.969244 0.595644
O O11 0.000000 0.000000 0.500000
O O12 0.500000 0.000000 0.000000
O O13 0.729145 0.144775 0.041224
O O14 0.758390 0.349284 0.728207
#
# Coordination Sequence:
#
# PCOD9098238 Si02
#       7
#     1   2   2   2   2   2   2
#     4  10  20  36  64  92 112 154 222 250 290 370
#     4   9  21  40  61  94 132 157 200 261 322 370
#     4  10  21  39  62  91 122 166 209 254 311 378
#     4  11  23  38  58  91 125 162 214 253 300 374
#     4   9  20  40  62  82 125 169 200 245 306 376
#     4  12  22  37  65  95 125 159 208 269 313 351
#     4  10  20  37  68  90 119 164 210 253 303 375
#
# _framework density 25.182226
#
# number of rings (size 3 to 8) (size 9 to 14) (size 15 to 20)
#    0.000    1.846    1.538    3.231    2.154    0.000 
#    0.000    6.154   13.538    0.000    0.000    0.000 
#    0.000    0.000    0.000    0.000    0.000    0.000 
#
# Total GULP energy -72492.017973 kJ/mol
# GULP energy per Si atom -5576.309075 kJ/mol
# Density = 2.512491 g / cm^3
# Si number density = 25.182226 Si / 1000 Ang^3
#
#
#
# Elastic Constant Matrix: (Units=GPa)
#
#
# Indices 1 2 3 4 5 6 
#
# 1 79.9235 16.6609 33.2662 -19.3606 29.8045 -26.7771
# 2 16.6609 93.4094 44.6996 -34.9680 2.0788 -9.2183
# 3 33.2662 44.6996 176.4692 -29.6260 15.8076 -1.4923
# 4 -19.3606 -34.9680 -29.6260 49.5309 -0.6434 11.8815
# 5 29.8045 2.0788 15.8076 -0.6434 43.7071 2.5081
# 6 -26.7771 -9.2183 -1.4923 11.8815 2.5081 16.8567
#
#
#
# Elastic Compliance Matrix: (Units=1/GPa)
#
#
# Indices 1 2 3 4 5 6 
#
# 1 0.118810 0.004958 -0.015911 -0.011355 -0.087780 0.211099
# 2 0.004958 0.015603 -0.003051 0.008528 -0.003505 0.010648
# 3 -0.015911 -0.003051 0.009092 0.004572 0.009540 -0.030780
# 4 -0.011355 0.008528 0.004572 0.033727 0.008360 -0.037985
# 5 -0.087780 -0.003505 0.009540 0.008360 0.088737 -0.159608
# 6 0.211099 0.010648 -0.030780 -0.037985 -0.159608 0.448277
#
#
# Mechanical properties :
#
#
# Convention : Reuss Voigt Hill
#
# Bulk Modulus (GPa) = 8.65825 59.89505 34.27665
# Shear Modulus (GPa) = 6.40408 39.03063 22.71736
#
# Velocity S-wave (km/s) = 1.59644 3.94118 3.00679
# Velocity P-wave (km/s) = 2.61608 6.67434 5.06906
#
# Compressibility (1/GPa) = 0.11549674
#
# Stress axis : x y z
#
# Youngs Moduli (GPa) = 8.41680 64.09118 109.99172
#
# Poissons Ratio (x) = -0.31776 1.75005
# Poissons Ratio (y) = -0.04173 0.33558
# Poissons Ratio (z) = 0.13392 0.19554
#
# Static dielectric constant tensor:
#      x y z
#    x 1.900450 0.028720 -0.043870 
#    y 0.028720 1.945940 0.022920 
#    z -0.043870 0.022920 2.055980 
# 
# From -- ./inp_files/151485.got.cif
#   From: 2010.05.17/outbox.cif.g08.bks.cpg/sg2_76_cif.got.tgz:151485.got - 2010.06.03 11:33:40.
