data_PCOD9098565
_publ_section_title
;
Structure prediction by ZEFSAII (Michael W. Deem and Ramdas Pophale) SiO2 
 PCOD9098565
Probable space group: P -1
;
_chemical_formula_sum "Si O2"
_cell_formula_units_Z 14
_cell_length_a 9.224315
_cell_length_b 14.585958
_cell_length_c 9.950124
_cell_angle_alpha 27.677870
_cell_angle_beta 124.419869
_cell_angle_gamma 131.685336
_cell_volume 463.316345
_symmetry_space_group_name_H-M "P -1"
_symmetry_group_IT_number 2
_symmetry_cell_setting 'triclinic'
loop_
_space_group_symop_operation_xyz
x,y,z
-x,-y,-z
loop_
_atom_site_type_symbol
_atom_site_label
_atom_site_fract_x
_atom_site_fract_y
_atom_site_fract_z
Si Si1 0.464602 0.259088 0.844736
Si Si2 0.039044 0.375910 0.491404
Si Si3 0.297344 0.634989 0.525730
Si Si4 0.182899 0.525859 0.969998
Si Si5 0.175213 0.141843 0.636875
Si Si6 0.372531 0.219812 0.147254
Si Si7 0.288906 0.972710 0.688630
O O1 0.500000 0.500000 0.500000
O O2 0.350557 0.125961 0.829947
O O3 0.761985 0.650707 0.699539
O O4 0.343524 0.178925 0.024736
O O5 0.868526 0.280622 0.636183
O O6 0.930836 0.496700 0.197589
O O7 0.603130 0.282468 0.200301
O O8 0.224237 0.534532 0.468799
O O9 0.325700 0.427476 0.875336
O O10 0.503530 0.833359 0.410802
O O11 0.931357 0.792221 0.379844
O O12 0.339676 0.765766 0.985733
O O13 0.000000 0.500000 0.000000
O O14 0.130658 0.961683 0.730085
O O15 0.257248 0.034971 0.438066
#
# Coordination Sequence:
#
# PCOD9098565 Si02
#       7
#     2   2   2   2   2   2   2
#     4  12  25  45  71 105 140 189 246 306 361 424
#     4  10  22  38  67 107 149 191 226 291 364 431
#     4  11  21  40  72 106 145 191 237 286 363 429
#     4  10  20  36  69 103 143 188 231 276 359 429
#     4  11  22  42  67 102 143 187 237 287 359 426
#     4  12  22  44  73 107 145 191 239 294 363 430
#     4  12  25  40  72 111 140 184 250 300 351 433
#
# _framework density 30.216936
#
# number of rings (size 3 to 8) (size 9 to 14) (size 15 to 20)
#    0.000    0.857    5.714    2.143    0.000    0.000 
#    0.000    0.714    0.000    4.286    0.000    0.000 
#    0.000    0.000    0.000    0.000    0.000    0.000 
#
# Total GULP energy -78159.471234 kJ/mol
# GULP energy per Si atom -5582.819374 kJ/mol
# Density = 3.014816 g / cm^3
# Si number density = 30.216936 Si / 1000 Ang^3
#
#
#
# Elastic Constant Matrix: (Units=GPa)
#
#
# Indices 1 2 3 4 5 6 
#
# 1 224.9095 20.9325 19.9446 -1.9087 9.2180 -22.4003
# 2 20.9325 103.2166 37.5410 26.3853 -8.3871 1.3895
# 3 19.9446 37.5410 174.3040 27.3377 -2.1133 -16.3793
# 4 -1.9087 26.3853 27.3377 52.3399 -1.6332 -0.7242
# 5 9.2180 -8.3871 -2.1133 -1.6332 35.7089 1.7952
# 6 -22.4003 1.3895 -16.3793 -0.7242 1.7952 52.9988
#
#
#
# Elastic Compliance Matrix: (Units=1/GPa)
#
#
# Indices 1 2 3 4 5 6 
#
# 1 0.004872 -0.001299 -0.000249 0.000940 -0.001639 0.002085
# 2 -0.001299 0.012185 -0.001775 -0.005193 0.002934 -0.001587
# 3 -0.000249 -0.001775 0.006743 -0.002614 -0.000173 0.001995
# 4 0.000940 -0.005193 -0.002614 0.023107 -0.000563 0.000061
# 5 -0.001639 0.002934 -0.000173 -0.000563 0.029172 -0.001819
# 6 0.002085 -0.001587 0.001995 0.000061 -0.001819 0.020470
#
#
# Mechanical properties :
#
#
# Convention : Reuss Voigt Hill
#
# Bulk Modulus (GPa) = 58.29531 73.25180 65.77355
# Shear Modulus (GPa) = 45.90814 56.47699 51.19256
#
# Velocity S-wave (km/s) = 3.90203 4.32794 4.12049
# Velocity P-wave (km/s) = 6.29565 7.01921 6.66726
#
# Compressibility (1/GPa) = 0.01715404
#
# Stress axis : x y z
#
# Youngs Moduli (GPa) = 205.25337 82.07026 148.29590
#
# Poissons Ratio (x) = 0.10662 0.03695
# Poissons Ratio (y) = 0.26664 0.26318
# Poissons Ratio (z) = 0.05114 0.14565
#
# Static dielectric constant tensor:
#      x y z
#    x 2.663370 0.033900 -0.170960 
#    y 0.033900 2.427350 -0.173380 
#    z -0.170960 -0.173380 2.518800 
# 
# From -- ./inp_files/457240.got.cif
#   From: 2010.05.17/outbox.cif.g08.bks.cpg/sg2_229_cif.got.tgz:457240.got - 2010.06.03 11:33:40.
