data_PCOD9098981
_publ_section_title
;
Structure prediction by ZEFSAII (Michael W. Deem and Ramdas Pophale) SiO2 
 PCOD9098981
Probable space group: P -1
;
_chemical_formula_sum "Si O2"
_cell_formula_units_Z 14
_cell_length_a 16.929448
_cell_length_b 19.585038
_cell_length_c 9.366140
_cell_angle_alpha 141.833401
_cell_angle_beta 150.648558
_cell_angle_gamma 25.740270
_cell_volume 661.069190
_symmetry_space_group_name_H-M "P -1"
_symmetry_group_IT_number 2
_symmetry_cell_setting 'triclinic'
loop_
_space_group_symop_operation_xyz
x,y,z
-x,-y,-z
loop_
_atom_site_type_symbol
_atom_site_label
_atom_site_fract_x
_atom_site_fract_y
_atom_site_fract_z
Si Si1 0.477392 0.906821 0.707139
Si Si2 0.203583 0.091249 0.286940
Si Si3 0.333343 0.367074 0.612998
Si Si4 0.083681 0.615790 0.392088
Si Si5 0.372599 0.304024 0.177690
Si Si6 0.147620 0.815392 0.934545
Si Si7 0.583496 0.777474 0.210022
O O1 0.680127 0.747196 0.672947
O O2 0.428052 0.834690 0.628911
O O3 0.318643 0.019061 0.507780
O O4 0.500000 0.000000 0.000000
O O5 0.264697 0.184821 0.490653
O O6 0.938544 0.193699 0.065487
O O7 0.337142 0.940494 0.148283
O O8 0.165485 0.529895 0.534235
O O9 0.315269 0.356252 0.734290
O O10 0.589530 0.284745 0.845496
O O11 0.263716 0.473154 0.331730
O O12 0.091965 0.743626 0.616691
O O13 0.835630 0.681204 0.093353
O O14 0.430897 0.264032 0.038890
O O15 0.000000 0.000000 0.000000
#
# Coordination Sequence:
#
# PCOD9098981 Si02
#       7
#     2   2   2   2   2   2   2
#     4  10  16  31  53  87 109 151 182 237 271 343
#     4  10  20  33  60  88 120 143 196 238 290 327
#     4  10  23  35  60  86 118 150 197 229 296 334
#     4  10  22  39  57  89 113 159 190 238 277 358
#     4  10  20  35  60  84 121 146 198 236 292 325
#     4  12  20  39  61  86 114 158 192 235 277 362
#     4  10  18  35  56  93 112 150 185 252 281 333
#
# _framework density 21.177814000000001
#
# number of rings (size 3 to 8) (size 9 to 14) (size 15 to 20)
#    0.000    1.714    5.714    0.429    0.000    0.571 
#    0.000    0.714    0.000    7.714    0.000    0.000 
#    0.000    0.000    0.000    0.000    0.000    0.000 
#
# Total GULP energy -77950.078733 kJ/mol
# GULP energy per Si atom -5567.862767 kJ/mol
# Density = 2.112961 g / cm^3
# Si number density = 21.177814 Si / 1000 Ang^3
#
#
#
# Elastic Constant Matrix: (Units=GPa)
#
#
# Indices 1 2 3 4 5 6 
#
# 1 115.1837 14.8531 36.7407 -3.5951 -27.7371 -1.5165
# 2 14.8531 76.6632 26.1749 19.4890 -3.2788 -0.3699
# 3 36.7407 26.1749 70.8539 21.1949 -11.5530 0.5175
# 4 -3.5951 19.4890 21.1949 47.9407 -6.6294 -11.9947
# 5 -27.7371 -3.2788 -11.5530 -6.6294 51.5385 3.1201
# 6 -1.5165 -0.3699 0.5175 -11.9947 3.1201 30.8260
#
#
#
# Elastic Compliance Matrix: (Units=1/GPa)
#
#
# Indices 1 2 3 4 5 6 
#
# 1 0.012689 -0.001350 -0.006944 0.005991 0.005808 0.002468
# 2 -0.001350 0.015923 -0.003690 -0.005568 -0.001144 -0.001864
# 3 -0.006944 -0.003690 0.022082 -0.009943 -0.000021 -0.004623
# 4 0.005991 -0.005568 -0.009943 0.031589 0.003961 0.012286
# 5 0.005808 -0.001144 -0.000021 0.003961 0.022992 -0.000514
# 6 0.002468 -0.001864 -0.004623 0.012286 -0.000514 0.037449
#
#
# Mechanical properties :
#
#
# Convention : Reuss Voigt Hill
#
# Bulk Modulus (GPa) = 37.41669 46.47089 41.94379
# Shear Modulus (GPa) = 28.47378 38.38988 33.43183
#
# Velocity S-wave (km/s) = 3.67073 4.26225 3.97750
# Velocity P-wave (km/s) = 5.97260 6.79803 6.39864
#
# Compressibility (1/GPa) = 0.02672604
#
# Stress axis : x y z
#
# Youngs Moduli (GPa) = 78.80903 62.80293 45.28572
#
# Poissons Ratio (x) = 0.08480 0.31447
# Poissons Ratio (y) = 0.10641 0.16708
# Poissons Ratio (z) = 0.54726 0.23171
#
# Static dielectric constant tensor:
#      x y z
#    x 1.783730 -0.011430 0.024690 
#    y -0.011430 1.857310 -0.036770 
#    z 0.024690 -0.036770 1.890660 
# 
# From -- ./inp_files/337995.got.cif
#   From: 2010.05.17/outbox.cif.g08.bks.cpg/sg2_169_cif.got.tgz:337995.got - 2010.06.03 11:33:40.
