data_PCOD9098017
_publ_section_title
;
Structure prediction by ZEFSAII (Michael W. Deem and Ramdas Pophale) SiO2 
 PCOD9098017
Probable space group: P -1
;
_chemical_formula_sum "Si O2"
_cell_formula_units_Z 16
_cell_length_a 7.906644
_cell_length_b 9.224641
_cell_length_c 10.033126
_cell_angle_alpha 87.372685
_cell_angle_beta 111.600233
_cell_angle_gamma 86.136535
_cell_volume 676.869229
_symmetry_space_group_name_H-M "P -1"
_symmetry_group_IT_number 2
_symmetry_cell_setting 'triclinic'
loop_
_space_group_symop_operation_xyz
x,y,z
-x,-y,-z
loop_
_atom_site_type_symbol
_atom_site_label
_atom_site_fract_x
_atom_site_fract_y
_atom_site_fract_z
Si Si1 0.866469 0.956707 0.348895
Si Si2 0.313961 0.236692 0.310028
Si Si3 0.280861 0.316030 0.595964
Si Si4 0.596123 0.416114 0.240447
Si Si5 0.740474 0.401831 0.008026
Si Si6 0.454134 0.942090 0.254828
Si Si7 0.830984 0.992529 0.049447
Si Si8 0.085237 0.312257 0.981736
O O1 0.860482 0.780713 0.365758
O O2 0.901014 0.027337 0.213820
O O3 0.651759 0.003861 0.303203
O O4 0.000000 0.000000 0.500000
O O5 0.250553 0.297878 0.431243
O O6 0.496162 0.309190 0.311759
O O7 0.343457 0.059846 0.313999
O O8 0.169522 0.291210 0.153959
O O9 0.284622 0.477681 0.646001
O O10 0.481559 0.222437 0.675899
O O11 0.438867 0.527294 0.120857
O O12 0.691665 0.339962 0.140365
O O13 0.860750 0.537307 0.066951
O O14 0.870087 0.308476 0.945507
O O15 0.350806 0.943575 0.082480
O O16 0.811839 0.819595 0.062979
O O17 0.000000 0.000000 0.000000
#
# Coordination Sequence:
#
# PCOD9098017 Si02
#       8
#     2   2   2   2   2   2   2   2
#     4  10  24  41  62  90 129 169 206 256 317 371
#     4  10  20  39  60  90 119 164 201 255 313 374
#     4  10  22  38  63  83 129 156 209 248 322 362
#     4  10  20  36  63  87 117 155 210 253 307 372
#     4   9  19  38  58  87 114 159 200 256 309 366
#     4   9  23  41  64  87 127 166 206 257 308 370
#     4  11  23  37  64  97 122 159 217 257 302 372
#     4   9  20  36  60  82 124 157 203 252 307 364
#
# _framework density 23.638242000000002
#
# number of rings (size 3 to 8) (size 9 to 14) (size 15 to 20)
#    0.750    1.500    0.000    1.875    5.250    2.000 
#    0.000    0.625    0.000    0.000    0.000    0.000 
#    0.000    0.000    0.000    0.000    0.000    0.000 
#
# Total GULP energy -89209.293024 kJ/mol
# GULP energy per Si atom -5575.580814 kJ/mol
# Density = 2.358444 g / cm^3
# Si number density = 23.638242 Si / 1000 Ang^3
#
#
#
# Elastic Constant Matrix: (Units=GPa)
#
#
# Indices 1 2 3 4 5 6 
#
# 1 48.0706 -21.8465 24.3260 -3.2222 10.5407 13.8596
# 2 -21.8465 62.8949 -8.8471 3.0609 6.3307 8.8278
# 3 24.3260 -8.8471 147.2825 9.0396 -1.5679 14.5292
# 4 -3.2222 3.0609 9.0396 19.5101 6.6643 4.9174
# 5 10.5407 6.3307 -1.5679 6.6643 35.2380 0.9577
# 6 13.8596 8.8278 14.5292 4.9174 0.9577 16.5305
#
#
#
# Elastic Compliance Matrix: (Units=1/GPa)
#
#
# Indices 1 2 3 4 5 6 
#
# 1 0.087242 0.046274 -0.004662 0.050180 -0.041219 -0.106299
# 2 0.046274 0.042640 -0.000290 0.026615 -0.024706 -0.067800
# 3 -0.004662 -0.000290 0.008044 -0.004980 0.002792 -0.001687
# 4 0.050180 0.026615 -0.004980 0.088769 -0.034728 -0.076303
# 5 -0.041219 -0.024706 0.002792 -0.034728 0.050406 0.052709
# 6 -0.106299 -0.067800 -0.001687 -0.076303 0.052709 0.206953
#
#
# Mechanical properties :
#
#
# Convention : Reuss Voigt Hill
#
# Bulk Modulus (GPa) = 4.53369 27.27919 15.90644
# Shear Modulus (GPa) = 10.52781 31.89678 21.21230
#
# Velocity S-wave (km/s) = 2.11267 3.67737 2.99887
# Velocity P-wave (km/s) = 2.80594 5.44022 4.32836
#
# Compressibility (1/GPa) = 0.22057088
#
# Stress axis : x y z
#
# Youngs Moduli (GPa) = 11.46237 23.45223 124.31494
#
# Poissons Ratio (x) = -1.08524 0.57957
# Poissons Ratio (y) = -0.53041 0.03602
# Poissons Ratio (z) = 0.05344 0.00680
#
# Static dielectric constant tensor:
#      x y z
#    x 1.968900 -0.046200 -0.016070 
#    y -0.046200 2.037160 0.036130 
#    z -0.016070 0.036130 1.892920 
# 
# From -- ./inp_files/187899.got.cif
#   From: 2010.05.17/outbox.cif.g08.bks.cpg/sg2_94_cif.got.tgz:187899.got - 2010.06.03 11:33:40.
