data_PCOD9098679
_publ_section_title
;
Structure prediction by ZEFSAII (Michael W. Deem and Ramdas Pophale) SiO2 
 PCOD9098679
Probable space group: P -1
;
_chemical_formula_sum "Si O2"
_cell_formula_units_Z 16
_cell_length_a 22.208402
_cell_length_b 8.740280
_cell_length_c 16.293951
_cell_angle_alpha 46.434159
_cell_angle_beta 155.683275
_cell_angle_gamma 144.948928
_cell_volume 726.045753
_symmetry_space_group_name_H-M "P -1"
_symmetry_group_IT_number 2
_symmetry_cell_setting 'triclinic'
loop_
_space_group_symop_operation_xyz
x,y,z
-x,-y,-z
loop_
_atom_site_type_symbol
_atom_site_label
_atom_site_fract_x
_atom_site_fract_y
_atom_site_fract_z
Si Si1 0.447174 0.164804 0.424787
Si Si2 0.800894 0.821632 0.012485
Si Si3 0.997010 0.757727 0.554571
Si Si4 0.871219 0.589420 0.788508
Si Si5 0.414705 0.135619 0.945231
Si Si6 0.207899 0.635038 0.407567
Si Si7 0.194464 0.552264 0.726153
Si Si8 0.569277 0.755057 0.889639
O O1 0.658852 0.407829 0.630749
O O2 0.500000 0.000000 0.500000
O O3 0.268726 0.925922 0.347167
O O4 0.360052 0.266852 0.220765
O O5 0.802989 0.588802 0.137110
O O6 0.745551 0.911466 0.990124
O O7 0.007610 0.099490 0.145334
O O8 0.938550 0.547195 0.633686
O O9 0.842676 0.614424 0.343289
O O10 0.211664 0.904797 0.738161
O O11 0.000000 0.000000 0.500000
O O12 0.840304 0.544534 0.667731
O O13 0.000000 0.500000 0.000000
O O14 0.482542 0.437969 0.899552
O O15 0.595804 0.162751 0.135091
O O16 0.383273 0.109980 0.013025
O O17 0.405200 0.738233 0.651732
O O18 0.000000 0.500000 0.500000
#
# Coordination Sequence:
#
# PCOD9098679 Si02
#       8
#     2   2   2   2   2   2   2   2
#     4  10  19  31  46  82 120 150 186 232 305 353
#     4  11  20  34  55  79 121 157 190 240 294 350
#     4  12  21  37  63  92 115 152 203 247 302 357
#     4  11  18  30  50  84 122 154 182 232 295 356
#     4  10  20  34  54  82 114 154 193 239 299 342
#     4  11  18  30  50  83 123 143 183 233 298 354
#     4  11  26  42  58  85 123 163 202 243 294 353
#     4  10  16  31  52  83 120 145 180 246 300 344
#
# _framework density 22.037178000000001
#
# number of rings (size 3 to 8) (size 9 to 14) (size 15 to 20)
#    0.000    1.250    7.500    3.000    0.000    0.500 
#    0.000    0.000    0.000    0.750    0.000    1.750 
#    0.000    0.000    0.000    0.000    0.000    0.000 
#
# Total GULP energy -89197.810224 kJ/mol
# GULP energy per Si atom -5574.863139 kJ/mol
# Density = 2.198702 g / cm^3
# Si number density = 22.037178 Si / 1000 Ang^3
#
#
#
# Elastic Constant Matrix: (Units=GPa)
#
#
# Indices 1 2 3 4 5 6 
#
# 1 27.2040 13.7140 9.4810 0.8181 6.8664 11.9924
# 2 13.7140 68.5360 44.0039 14.7834 9.3011 28.7347
# 3 9.4810 44.0039 137.2063 7.2126 3.4974 12.9684
# 4 0.8181 14.7834 7.2126 50.6204 8.3585 -0.6623
# 5 6.8664 9.3011 3.4974 8.3585 38.8223 6.8139
# 6 11.9924 28.7347 12.9684 -0.6623 6.8139 22.9631
#
#
#
# Elastic Compliance Matrix: (Units=1/GPa)
#
#
# Indices 1 2 3 4 5 6 
#
# 1 0.049006 0.004356 -0.001878 -0.001485 -0.004169 -0.028789
# 2 0.004356 0.044499 -0.008857 -0.012764 0.001555 -0.053785
# 3 -0.001878 -0.008857 0.009556 0.001320 0.000140 0.006664
# 4 -0.001485 -0.012764 0.001320 0.024427 -0.005264 0.018269
# 5 -0.004169 0.001555 0.000140 -0.005264 0.028741 -0.008527
# 6 -0.028789 -0.053785 0.006664 0.018269 -0.008527 0.125180
#
#
# Mechanical properties :
#
#
# Convention : Reuss Voigt Hill
#
# Bulk Modulus (GPa) = 11.07393 40.81603 25.94498
# Shear Modulus (GPa) = 15.41938 33.53101 24.47520
#
# Velocity S-wave (km/s) = 2.64805 3.90496 3.33623
# Velocity P-wave (km/s) = 3.79283 6.23644 5.16134
#
# Compressibility (1/GPa) = 0.09030214
#
# Stress axis : x y z
#
# Youngs Moduli (GPa) = 20.40571 22.47257 104.64730
#
# Poissons Ratio (x) = -0.09789 0.19653
# Poissons Ratio (y) = -0.08889 0.92689
# Poissons Ratio (z) = 0.03832 0.19905
#
# Static dielectric constant tensor:
#      x y z
#    x 1.925090 0.021600 0.036820 
#    y 0.021600 1.895450 -0.016020 
#    z 0.036820 -0.016020 1.824910 
# 
# From -- ./inp_files/451350.got.cif
#   From: 2010.05.17/outbox.cif.g08.bks.cpg/sg2_226_cif.got.tgz:451350.got - 2010.06.03 11:33:40.
