data_PCOD9098600
_publ_section_title
;
Structure prediction by ZEFSAII (Michael W. Deem and Ramdas Pophale) SiO2 
 PCOD9098600
Probable space group: P -1
;
_chemical_formula_sum "Si O2"
_cell_formula_units_Z 16
_cell_length_a 9.900718
_cell_length_b 9.739759
_cell_length_c 12.295318
_cell_angle_alpha 126.384334
_cell_angle_beta 128.032875
_cell_angle_gamma 92.436495
_cell_volume 575.541974
_symmetry_space_group_name_H-M "P -1"
_symmetry_group_IT_number 2
_symmetry_cell_setting 'triclinic'
loop_
_space_group_symop_operation_xyz
x,y,z
-x,-y,-z
loop_
_atom_site_type_symbol
_atom_site_label
_atom_site_fract_x
_atom_site_fract_y
_atom_site_fract_z
Si Si1 0.820357 0.232935 0.138466
Si Si2 0.646014 0.935247 0.233769
Si Si3 0.236656 0.162875 0.127009
Si Si4 0.670679 0.828141 0.434485
Si Si5 0.716874 0.439115 0.615570
Si Si6 0.735568 0.623995 0.070183
Si Si7 0.149375 0.748108 0.239191
Si Si8 0.890002 0.636414 0.400583
O O1 0.820745 0.402960 0.292527
O O2 0.059901 0.403098 0.275617
O O3 0.593450 0.127461 0.907881
O O4 0.784893 0.012195 0.046844
O O5 0.732692 0.931059 0.392032
O O6 0.631126 0.743944 0.075063
O O7 0.843235 0.170319 0.388105
O O8 0.473026 0.288331 0.367740
O O9 0.260840 0.377674 0.211449
O O10 0.000000 0.000000 0.000000
O O11 0.795469 0.729527 0.471454
O O12 0.681952 0.996471 0.600782
O O13 0.419062 0.610000 0.177744
O O14 0.745804 0.284218 0.622666
O O15 0.792714 0.605005 0.214041
O O16 0.963746 0.769837 0.188370
O O17 0.000000 0.500000 0.000000
#
# Coordination Sequence:
#
# PCOD9098600 Si02
#       8
#     2   2   2   2   2   2   2   2
#     4  11  17  28  51  84 106 134 167 214 289 330
#     4  11  17  28  50  78 110 142 165 217 285 333
#     4   9  20  34  56  78 108 139 178 228 280 323
#     4  11  18  31  47  71 105 142 178 216 261 322
#     4  10  20  37  51  77 114 143 182 226 262 320
#     4  11  19  32  47  73 110 145 180 213 267 330
#     4  12  24  36  52  75 112 160 190 210 250 315
#     4  11  17  26  49  77 105 137 163 220 282 325
#
# _framework density 27.799883000000001
#
# number of rings (size 3 to 8) (size 9 to 14) (size 15 to 20)
#    0.000    1.250    6.250    3.000    0.000    0.500 
#    0.000    0.000    0.000    0.000    0.000    1.750 
#    0.000    0.500    0.000    0.000    0.000    0.000 
#
# Total GULP energy -89305.950531 kJ/mol
# GULP energy per Si atom -5581.621908 kJ/mol
# Density = 2.773661 g / cm^3
# Si number density = 27.799883 Si / 1000 Ang^3
#
#
#
# Elastic Constant Matrix: (Units=GPa)
#
#
# Indices 1 2 3 4 5 6 
#
# 1 73.6339 46.9838 44.3283 -5.4306 19.3639 -29.0813
# 2 46.9838 124.1746 57.9158 31.3081 -28.5742 -39.6279
# 3 44.3283 57.9158 194.5521 13.1772 3.0666 -14.0686
# 4 -5.4306 31.3081 13.1772 70.0217 -22.6242 -14.9235
# 5 19.3639 -28.5742 3.0666 -22.6242 43.6627 8.3027
# 6 -29.0813 -39.6279 -14.0686 -14.9235 8.3027 44.9460
#
#
#
# Elastic Compliance Matrix: (Units=1/GPa)
#
#
# Indices 1 2 3 4 5 6 
#
# 1 0.041723 -0.016640 -0.003109 0.005615 -0.029826 0.018726
# 2 -0.016640 0.021867 -0.002564 -0.003698 0.019403 0.002899
# 3 -0.003109 -0.002564 0.006525 -0.001126 -0.000877 -0.002442
# 4 0.005615 -0.003698 -0.001126 0.019065 0.003979 0.005615
# 5 -0.029826 0.019403 -0.000877 0.003979 0.053032 -0.010941
# 6 0.018726 0.002899 -0.002442 0.005615 -0.010941 0.040042
#
#
# Mechanical properties :
#
#
# Convention : Reuss Voigt Hill
#
# Bulk Modulus (GPa) = 39.23080 76.75738 57.99409
# Shear Modulus (GPa) = 21.24241 47.93491 34.58866
#
# Velocity S-wave (km/s) = 2.76727 4.15696 3.53115
# Velocity P-wave (km/s) = 4.93486 7.12117 6.12633
#
# Compressibility (1/GPa) = 0.02549017
#
# Stress axis : x y z
#
# Youngs Moduli (GPa) = 23.96736 45.73002 153.25102
#
# Poissons Ratio (x) = 0.76094 0.47648
# Poissons Ratio (y) = 0.39881 0.39294
# Poissons Ratio (z) = 0.07452 0.11725
#
# Static dielectric constant tensor:
#      x y z
#    x 2.265680 -0.036660 -0.106890 
#    y -0.036660 2.073280 0.014340 
#    z -0.106890 0.014340 2.347770 
# 
# From -- ./inp_files/540938.got.cif
#   From: 2010.05.17/outbox.cif.g08.bks.cpg/sg2_271_cif.got.tgz:540938.got - 2010.06.03 11:33:40.
