data_PCOD9098159
_publ_section_title
;
Structure prediction by ZEFSAII (Michael W. Deem and Ramdas Pophale) SiO2 
 PCOD9098159
Probable space group: P -1
;
_chemical_formula_sum "Si O2"
_cell_formula_units_Z 16
_cell_length_a 12.564492
_cell_length_b 22.746686
_cell_length_c 8.673592
_cell_angle_alpha 40.562975
_cell_angle_beta 113.999678
_cell_angle_gamma 144.964608
_cell_volume 756.008695
_symmetry_space_group_name_H-M "P -1"
_symmetry_group_IT_number 2
_symmetry_cell_setting 'triclinic'
loop_
_space_group_symop_operation_xyz
x,y,z
-x,-y,-z
loop_
_atom_site_type_symbol
_atom_site_label
_atom_site_fract_x
_atom_site_fract_y
_atom_site_fract_z
Si Si1 0.928594 0.978695 0.827954
Si Si2 0.388005 0.634010 0.649527
Si Si3 0.514433 0.234662 0.902141
Si Si4 0.080441 0.259664 0.213550
Si Si5 0.855702 0.029831 0.225967
Si Si6 0.705646 0.097417 0.521246
Si Si7 0.744979 0.143484 0.785592
Si Si8 0.995026 0.478591 0.359009
O O1 0.079800 0.166745 0.496558
O O2 0.661125 0.824708 0.981583
O O3 0.978671 0.931881 0.832407
O O4 0.000000 0.000000 0.000000
O O5 0.438397 0.689070 0.388154
O O6 0.613390 0.814249 0.518563
O O7 0.185185 0.567644 0.715566
O O8 0.301691 0.472028 0.921378
O O9 0.746991 0.355653 0.877210
O O10 0.378377 0.052479 0.156798
O O11 0.900650 0.204794 0.302606
O O12 0.968617 0.148834 0.208387
O O13 0.812716 0.086751 0.976968
O O14 0.764186 0.188209 0.530383
O O15 0.500000 0.000000 0.500000
O O16 0.910308 0.320557 0.616086
O O17 0.500000 0.000000 0.000000
O O18 0.000000 0.500000 0.500000
#
# Coordination Sequence:
#
# PCOD9098159 Si02
#       8
#     2   2   2   2   2   2   2   2
#     4  11  23  46  72  92 136 179 225 281 345 408
#     4  11  21  42  70 101 135 174 227 283 337 402
#     4  10  20  42  65  94 132 178 217 286 334 393
#     4  11  26  43  67 102 135 176 228 285 339 403
#     4  12  22  43  73  98 132 183 230 276 349 402
#     4  11  22  40  62  96 138 178 222 276 336 399
#     4  12  21  40  70 100 132 185 223 271 348 406
#     4  10  20  36  64 101 133 162 221 276 329 404
#
# _framework density 21.163778000000001
#
# number of rings (size 3 to 8) (size 9 to 14) (size 15 to 20)
#    0.000    1.000    3.750    4.875    0.000    0.500 
#    4.500    3.750    0.000    0.000    0.000    0.000 
#    0.000    0.000    0.000    0.000    0.000    0.000 
#
# Total GULP energy -89228.704870 kJ/mol
# GULP energy per Si atom -5576.794054 kJ/mol
# Density = 2.111561 g / cm^3
# Si number density = 21.163778 Si / 1000 Ang^3
#
#
#
# Elastic Constant Matrix: (Units=GPa)
#
#
# Indices 1 2 3 4 5 6 
#
# 1 127.2656 32.6189 38.8019 -7.8123 -0.9313 2.2812
# 2 32.6189 96.3158 33.5025 -6.9536 -0.4639 -16.7566
# 3 38.8019 33.5025 109.9350 -13.5250 11.5108 -9.5233
# 4 -7.8123 -6.9536 -13.5250 40.4692 1.8483 1.7612
# 5 -0.9313 -0.4639 11.5108 1.8483 25.2556 -3.4475
# 6 2.2812 -16.7566 -9.5233 1.7612 -3.4475 28.0324
#
#
#
# Elastic Compliance Matrix: (Units=1/GPa)
#
#
# Indices 1 2 3 4 5 6 
#
# 1 0.009538 -0.002766 -0.002865 0.000501 0.001120 -0.003296
# 2 -0.002766 0.013652 -0.002710 0.000460 0.002406 0.007732
# 3 -0.002865 -0.002710 0.012075 0.003195 -0.005644 0.001821
# 4 0.000501 0.000460 0.003195 0.026144 -0.003445 -0.000746
# 5 0.001120 0.002406 -0.005644 -0.003445 0.043182 0.004956
# 6 -0.003296 0.007732 0.001821 -0.000746 0.004956 0.041838
#
#
# Mechanical properties :
#
#
# Convention : Reuss Voigt Hill
#
# Bulk Modulus (GPa) = 53.80876 60.37368 57.09122
# Shear Modulus (GPa) = 29.53286 33.99097 31.76191
#
# Velocity S-wave (km/s) = 3.73962 4.01196 3.87818
# Velocity P-wave (km/s) = 6.64277 7.07459 6.86208
#
# Compressibility (1/GPa) = 0.01858434
#
# Stress axis : x y z
#
# Youngs Moduli (GPa) = 104.84495 73.25146 82.81550
#
# Poissons Ratio (x) = 0.20258 0.23725
# Poissons Ratio (y) = 0.28996 0.22441
# Poissons Ratio (z) = 0.30036 0.19849
#
# Static dielectric constant tensor:
#      x y z
#    x 1.930450 -0.020170 -0.043560 
#    y -0.020170 1.841550 0.029120 
#    z -0.043560 0.029120 1.748790 
# 
# From -- ./inp_files/282766.got.cif
#   From: 2010.05.17/outbox.cif.g08.bks.cpg/sg2_142_cif.got.tgz:282766.got - 2010.06.03 11:33:40.
