data_PCOD9098405
_publ_section_title
;
Structure prediction by ZEFSAII (Michael W. Deem and Ramdas Pophale) SiO2 
 PCOD9098405
Probable space group: P -1
;
_chemical_formula_sum "Si O2"
_cell_formula_units_Z 16
_cell_length_a 11.346757
_cell_length_b 7.915549
_cell_length_c 21.165774
_cell_angle_alpha 136.095947
_cell_angle_beta 149.780777
_cell_angle_gamma 54.035921
_cell_volume 660.092907
_symmetry_space_group_name_H-M "P -1"
_symmetry_group_IT_number 2
_symmetry_cell_setting 'triclinic'
loop_
_space_group_symop_operation_xyz
x,y,z
-x,-y,-z
loop_
_atom_site_type_symbol
_atom_site_label
_atom_site_fract_x
_atom_site_fract_y
_atom_site_fract_z
Si Si1 0.458710 0.416947 0.229201
Si Si2 0.024117 0.415649 0.905599
Si Si3 0.123238 0.296412 0.542249
Si Si4 0.693670 0.285781 0.425708
Si Si5 0.099063 0.283163 0.289929
Si Si6 0.336176 0.998787 0.984008
Si Si7 0.778535 0.041123 0.861176
Si Si8 0.772897 0.016148 0.609889
O O1 0.209504 0.521909 0.149144
O O2 0.620678 0.560185 0.290140
O O3 0.575718 0.447347 0.360801
O O4 0.460086 0.128150 0.137008
O O5 0.163636 0.209044 0.945930
O O6 0.910438 0.285519 0.755036
O O7 0.186523 0.666573 0.043562
O O8 0.176825 0.079256 0.461857
O O9 0.000000 0.500000 0.500000
O O10 0.943037 0.227789 0.496327
O O11 0.757666 0.453224 0.562339
O O12 0.490847 0.063510 0.278565
O O13 0.122437 0.156324 0.335298
O O14 0.179516 0.110822 0.224841
O O15 0.816293 0.257067 0.143164
O O16 0.500000 0.000000 0.000000
O O17 0.000000 0.000000 0.000000
O O18 0.500000 0.000000 0.500000
#
# Coordination Sequence:
#
# PCOD9098405 Si02
#       8
#     2   2   2   2   2   2   2   2
#     4  11  19  39  65  93 130 166 215 274 330 382
#     4  11  23  39  62  98 128 170 220 264 331 388
#     4  10  20  36  65  96 131 163 214 276 336 376
#     4  11  22  40  66  95 135 179 218 261 330 392
#     4  11  22  40  66  99 127 170 226 271 332 386
#     4  11  24  37  65 101 134 159 216 284 341 378
#     4  12  25  44  65  91 139 186 223 261 311 411
#     4  11  21  37  67 103 130 159 215 288 336 382
#
# _framework density 24.239011000000001
#
# number of rings (size 3 to 8) (size 9 to 14) (size 15 to 20)
#    0.000    1.000    6.250    1.500    7.000    0.000 
#    0.000    0.625    0.000    3.750    0.000    0.000 
#    0.000    0.000    0.000    0.000    0.000    0.000 
#
# Total GULP energy -89272.072336 kJ/mol
# GULP energy per Si atom -5579.504521 kJ/mol
# Density = 2.418384 g / cm^3
# Si number density = 24.239011 Si / 1000 Ang^3
#
#
#
# Elastic Constant Matrix: (Units=GPa)
#
#
# Indices 1 2 3 4 5 6 
#
# 1 85.8326 15.6257 61.5453 13.8727 18.2529 -30.7720
# 2 15.6257 53.2146 33.8487 10.5181 4.0215 -5.8270
# 3 61.5453 33.8487 207.5177 50.1040 14.3324 -12.3063
# 4 13.8727 10.5181 50.1040 36.9649 -2.8743 -0.3399
# 5 18.2529 4.0215 14.3324 -2.8743 61.0440 1.8992
# 6 -30.7720 -5.8270 -12.3063 -0.3399 1.8992 35.9819
#
#
#
# Elastic Compliance Matrix: (Units=1/GPa)
#
#
# Indices 1 2 3 4 5 6 
#
# 1 0.023823 -0.000905 -0.004686 -0.002676 -0.006679 0.018951
# 2 -0.000905 0.021367 -0.002469 -0.002434 -0.000730 0.001857
# 3 -0.004686 -0.002469 0.008951 -0.009759 -0.000954 -0.001388
# 4 -0.002676 -0.002434 -0.009759 0.042344 0.005429 -0.005907
# 5 -0.006679 -0.000730 -0.000954 0.005429 0.019128 -0.007115
# 6 0.018951 0.001857 -0.001388 -0.005907 -0.007115 0.044145
#
#
# Mechanical properties :
#
#
# Convention : Reuss Voigt Hill
#
# Bulk Modulus (GPa) = 26.30173 63.17826 44.74000
# Shear Modulus (GPa) = 26.51776 42.50117 34.50946
#
# Velocity S-wave (km/s) = 3.31117 4.19193 3.77731
# Velocity P-wave (km/s) = 5.04906 7.03925 6.12552
#
# Compressibility (1/GPa) = 0.03802031
#
# Stress axis : x y z
#
# Youngs Moduli (GPa) = 41.97660 46.80006 111.71764
#
# Poissons Ratio (x) = 0.04238 0.52356
# Poissons Ratio (y) = 0.03801 0.27579
# Poissons Ratio (z) = 0.19672 0.11553
#
# Static dielectric constant tensor:
#      x y z
#    x 2.086300 0.029280 -0.191510 
#    y 0.029280 2.042100 0.050750 
#    z -0.191510 0.050750 2.512920 
# 
# From -- ./inp_files/356961.got.cif
#   From: 2010.05.17/outbox.cif.g08.bks.cpg/sg2_179_cif.got.tgz:356961.got - 2010.06.03 11:33:40.
