data_PCOD9098255
_publ_section_title
;
Structure prediction by ZEFSAII (Michael W. Deem and Ramdas Pophale) SiO2 
 PCOD9098255
Probable space group: P -1
;
_chemical_formula_sum "Si O2"
_cell_formula_units_Z 15
_cell_length_a 5.112069
_cell_length_b 5.413204
_cell_length_c 20.613440
_cell_angle_alpha 96.330412
_cell_angle_beta 93.250202
_cell_angle_gamma 93.830893
_cell_volume 564.502423
_symmetry_space_group_name_H-M "P -1"
_symmetry_group_IT_number 2
_symmetry_cell_setting 'triclinic'
loop_
_space_group_symop_operation_xyz
x,y,z
-x,-y,-z
loop_
_atom_site_type_symbol
_atom_site_label
_atom_site_fract_x
_atom_site_fract_y
_atom_site_fract_z
Si Si1 0.167710 0.103502 0.302472
Si Si2 0.608535 0.465488 0.381556
Si Si3 0.698982 0.852412 0.041924
Si Si4 0.500000 0.500000 0.500000
Si Si5 0.114399 0.291481 0.086166
Si Si6 0.047335 0.421719 0.728682
Si Si7 0.019113 0.830236 0.556636
Si Si8 0.378203 0.459150 0.853528
O O1 0.432061 0.268198 0.331074
O O2 0.002218 0.081553 0.366790
O O3 0.040957 0.296144 0.256857
O O4 0.161578 0.816327 0.271498
O O5 0.510157 0.680776 0.430779
O O6 0.843295 0.565854 0.342404
O O7 0.711658 0.316211 0.442889
O O8 0.556400 0.756492 0.102294
O O9 0.785929 0.653809 0.984498
O O10 0.959395 0.020393 0.071537
O O11 0.500000 0.000000 0.000000
O O12 0.767910 0.641542 0.539354
O O13 0.377001 0.337844 0.133771
O O14 0.888702 0.453007 0.115305
O O15 0.287569 0.382099 0.778774
O O16 0.000000 0.000000 0.500000
#
# Coordination Sequence:
#
# PCOD9098255 Si02
#       8
#     2   2   2   1   2   2   2   2
#     4  10  25  46  68  99 136 187 233 299 360 431
#     4  10  23  42  66 102 139 182 237 299 360 439
#     4  11  25  45  77 110 151 187 247 307 373 439
#     4  10  20  36  64  92 132 176 228 288 362 420
#     4  11  26  46  70 111 144 192 239 308 366 440
#     4  11  27  47  70  99 144 188 243 295 362 436
#     4  10  21  37  63  98 135 173 230 288 362 432
#     4  12  28  44  74 104 150 195 249 300 375 442
#
# _framework density 26.57207
#
# number of rings (size 3 to 8) (size 9 to 14) (size 15 to 20)
#    0.000    1.333    1.333    2.000    7.467    9.600 
#    0.000    0.000    0.000    0.000    0.000    0.000 
#    0.000    0.000    0.000    0.000    0.000    0.000 
#
# Total GULP energy -83672.467273 kJ/mol
# GULP energy per Si atom -5578.164485 kJ/mol
# Density = 2.651159 g / cm^3
# Si number density = 26.572070 Si / 1000 Ang^3
#
#
#
# Elastic Constant Matrix: (Units=GPa)
#
#
# Indices 1 2 3 4 5 6 
#
# 1 134.0858 26.9870 26.0502 -2.3008 21.0848 3.1979
# 2 26.9870 109.5976 34.8842 -12.1912 18.2513 10.8314
# 3 26.0502 34.8842 102.7278 -20.9477 20.9640 -0.1138
# 4 -2.3008 -12.1912 -20.9477 32.2424 8.0259 9.5056
# 5 21.0848 18.2513 20.9640 8.0259 50.1762 10.5189
# 6 3.1979 10.8314 -0.1138 9.5056 10.5189 34.9572
#
#
#
# Elastic Compliance Matrix: (Units=1/GPa)
#
#
# Indices 1 2 3 4 5 6 
#
# 1 0.008346 -0.001310 -0.001166 -0.000143 -0.002618 0.000465
# 2 -0.001310 0.011462 -0.002048 0.004736 -0.002700 -0.003914
# 3 -0.001166 -0.002048 0.013973 0.009758 -0.006161 -0.000013
# 4 -0.000143 0.004736 0.009758 0.044872 -0.010738 -0.010393
# 5 -0.002618 -0.002700 -0.006161 -0.010738 0.027186 -0.004204
# 6 0.000465 -0.003914 -0.000013 -0.010393 -0.004204 0.033868
#
#
# Mechanical properties :
#
#
# Convention : Reuss Voigt Hill
#
# Bulk Modulus (GPa) = 40.43013 58.02823 49.22918
# Shear Modulus (GPa) = 31.84766 40.70781 36.27774
#
# Velocity S-wave (km/s) = 3.46575 3.91829 3.69895
# Velocity P-wave (km/s) = 5.59138 6.50816 6.06711
#
# Compressibility (1/GPa) = 0.02473403
#
# Stress axis : x y z
#
# Youngs Moduli (GPa) = 119.81435 87.24612 71.56900
#
# Poissons Ratio (x) = 0.11428 0.08344
# Poissons Ratio (y) = 0.15694 0.14654
# Poissons Ratio (z) = 0.13969 0.17864
#
# Static dielectric constant tensor:
#      x y z
#    x 2.291210 -0.092960 -0.132960 
#    y -0.092960 2.181350 -0.059840 
#    z -0.132960 -0.059840 2.156950 
# 
# From -- ./inp_files/128901.got.cif
#   From: 2010.05.17/outbox.cif.g08.bks.cpg/sg2_65_cif.got.tgz:128901.got - 2010.06.03 11:33:40.
