data_PCOD9098581
_publ_section_title
;
Structure prediction by ZEFSAII (Michael W. Deem and Ramdas Pophale) SiO2 
 PCOD9098581
Probable space group: P -1
;
_chemical_formula_sum "Si O2"
_cell_formula_units_Z 15
_cell_length_a 6.838439
_cell_length_b 12.416977
_cell_length_c 9.960193
_cell_angle_alpha 60.587801
_cell_angle_beta 81.802728
_cell_angle_gamma 52.306639
_cell_volume 567.517524
_symmetry_space_group_name_H-M "P -1"
_symmetry_group_IT_number 2
_symmetry_cell_setting 'triclinic'
loop_
_space_group_symop_operation_xyz
x,y,z
-x,-y,-z
loop_
_atom_site_type_symbol
_atom_site_label
_atom_site_fract_x
_atom_site_fract_y
_atom_site_fract_z
Si Si1 0.650384 0.105800 0.379432
Si Si2 0.500000 0.500000 0.500000
Si Si3 0.925485 0.844640 0.707487
Si Si4 0.996044 0.636088 0.266665
Si Si5 0.837428 0.942938 0.944996
Si Si6 0.789841 0.495185 0.211180
Si Si7 0.385068 0.837920 0.943111
Si Si8 0.591906 0.682944 0.470992
O O1 0.540559 0.135495 0.223936
O O2 0.476823 0.226457 0.441266
O O3 0.857033 0.134989 0.329597
O O4 0.770804 0.934579 0.532736
O O5 0.687700 0.466268 0.370521
O O6 0.381441 0.699222 0.393494
O O7 0.773684 0.931157 0.806298
O O8 0.058583 0.660211 0.800321
O O9 0.964074 0.539679 0.219885
O O10 0.786803 0.688189 0.367119
O O11 0.266952 0.508569 0.394201
O O12 0.953967 0.781014 0.112480
O O13 0.083119 0.933905 0.909161
O O14 0.604725 0.086717 0.967269
O O15 0.553671 0.650334 0.062672
#
# Coordination Sequence:
#
# PCOD9098581 Si02
#       8
#     2   1   2   2   2   2   2   2
#     4  10  22  42  66  97 131 167 224 279 319 387
#     4  10  20  36  70  92 128 166 228 260 322 376
#     4  10  23  40  68  97 131 167 226 272 331 374
#     4  10  24  40  63  96 141 168 219 263 340 387
#     4  10  23  43  65  95 133 171 218 283 319 396
#     4  11  23  40  66  99 126 179 217 271 320 396
#     4  10  24  42  71  95 128 174 228 265 335 375
#     4  10  21  41  64  99 129 180 212 275 321 399
#
# _framework density 26.430903000000001
#
# number of rings (size 3 to 8) (size 9 to 14) (size 15 to 20)
#    0.000    1.867    1.333    0.800    5.600    7.467 
#    0.000    1.333    0.000    0.000    0.000    0.000 
#    0.000    0.000    0.000    0.000    0.000    0.000 
#
# Total GULP energy -83879.492005 kJ/mol
# GULP energy per Si atom -5591.966134 kJ/mol
# Density = 2.637075 g / cm^3
# Si number density = 26.430903 Si / 1000 Ang^3
#
#
#
# Elastic Constant Matrix: (Units=GPa)
#
#
# Indices 1 2 3 4 5 6 
#
# 1 78.8215 11.2738 2.6573 8.2821 11.6134 14.1967
# 2 11.2738 172.3823 63.0087 23.8223 -0.3012 3.0892
# 3 2.6573 63.0087 127.9039 12.7227 2.5172 -5.0276
# 4 8.2821 23.8223 12.7227 45.5972 -2.5072 10.0050
# 5 11.6134 -0.3012 2.5172 -2.5072 30.4051 -5.7511
# 6 14.1967 3.0892 -5.0276 10.0050 -5.7511 24.4797
#
#
#
# Elastic Compliance Matrix: (Units=1/GPa)
#
#
# Indices 1 2 3 4 5 6 
#
# 1 0.016042 -0.000723 -0.000194 -0.000527 -0.008237 -0.010972
# 2 -0.000723 0.007479 -0.003397 -0.002811 0.000404 0.000022
# 3 -0.000194 -0.003397 0.009787 -0.001628 -0.000310 0.003144
# 4 -0.000527 -0.002811 -0.001628 0.026232 0.000529 -0.010271
# 5 -0.008237 0.000404 -0.000310 0.000529 0.038668 0.013531
# 6 -0.010972 0.000022 0.003144 -0.010271 0.013531 0.055233
#
#
# Mechanical properties :
#
#
# Convention : Reuss Voigt Hill
#
# Bulk Modulus (GPa) = 40.51734 59.22082 49.86908
# Shear Modulus (GPa) = 29.36080 40.24090 34.80085
#
# Velocity S-wave (km/s) = 3.33656 3.90615 3.63254
# Velocity P-wave (km/s) = 5.49603 6.54206 6.04172
#
# Compressibility (1/GPa) = 0.02468079
#
# Stress axis : x y z
#
# Youngs Moduli (GPa) = 62.33613 133.71430 102.17354
#
# Poissons Ratio (x) = 0.09671 0.01979
# Poissons Ratio (y) = 0.04508 0.34705
# Poissons Ratio (z) = 0.01207 0.45418
#
# Static dielectric constant tensor:
#      x y z
#    x 2.315790 0.091460 0.151030 
#    y 0.091460 2.132670 0.001800 
#    z 0.151030 0.001800 2.105300 
# 
# From -- ./inp_files/174936.got.cif
#   From: 2010.05.17/outbox.cif.g08.bks.cpg/sg2_88_cif.got.tgz:174936.got - 2010.06.03 11:33:40.
