data_PCOD9098228
_publ_section_title
;
Structure prediction by ZEFSAII (Michael W. Deem and Ramdas Pophale) SiO2 
 PCOD9098228
Probable space group: P -1
;
_chemical_formula_sum "Si O2"
_cell_formula_units_Z 16
_cell_length_a 15.617355
_cell_length_b 9.396578
_cell_length_c 31.539338
_cell_angle_alpha 33.676082
_cell_angle_beta 159.557571
_cell_angle_gamma 138.026009
_cell_volume 880.454002
_symmetry_space_group_name_H-M "P -1"
_symmetry_group_IT_number 2
_symmetry_cell_setting 'triclinic'
loop_
_space_group_symop_operation_xyz
x,y,z
-x,-y,-z
loop_
_atom_site_type_symbol
_atom_site_label
_atom_site_fract_x
_atom_site_fract_y
_atom_site_fract_z
Si Si1 0.179746 0.873992 0.172926
Si Si2 0.391742 0.040684 0.144945
Si Si3 0.288458 0.363628 0.667583
Si Si4 0.794340 0.705377 0.684289
Si Si5 0.472227 0.198784 0.374944
Si Si6 0.427541 0.882918 0.059940
Si Si7 0.353016 0.648841 0.991735
Si Si8 0.920292 0.804924 0.875304
O O1 0.357791 0.918263 0.205671
O O2 0.203859 0.569398 0.269255
O O3 0.233027 0.046486 0.194110
O O4 0.885498 0.963644 0.001892
O O5 0.608151 0.879020 0.256024
O O6 0.566506 0.417579 0.337065
O O7 0.368828 0.271385 0.775207
O O8 0.000000 0.500000 0.500000
O O9 0.574437 0.660088 0.907413
O O10 0.618665 0.708598 0.643294
O O11 0.066108 0.720742 0.825069
O O12 0.683755 0.945532 0.543446
O O13 0.235140 0.146781 0.251767
O O14 0.496814 0.158324 0.010833
O O15 0.388365 0.717875 0.040443
O O16 0.169492 0.919555 0.956305
O O17 0.000000 0.500000 0.000000
#
# Coordination Sequence:
#
# PCOD9098228 Si02
#       8
#     2   2   2   2   2   2   2   2
#     4  10  20  36  64  91 120 152 205 256 295 350
#     4  10  20  38  62  91 117 158 203 250 301 354
#     4  12  24  41  61  89 125 160 202 247 304 367
#     4  10  21  39  61  89 120 160 201 247 303 357
#     4  11  22  38  62  89 121 160 201 247 302 358
#     4  11  22  39  60  93 119 159 202 248 305 360
#     4  10  22  39  63  88 121 158 201 251 304 357
#     4  12  21  37  65  92 120 154 204 256 295 355
#
# _framework density 18.172442
#
# number of rings (size 3 to 8) (size 9 to 14) (size 15 to 20)
#    0.000    1.250    5.000    1.500    1.750    1.000 
#    2.250    0.625    0.000    0.000    0.000    0.000 
#    0.000    0.000    0.000    0.000    0.000    0.000 
#
# Total GULP energy -89268.357065 kJ/mol
# GULP energy per Si atom -5579.272317 kJ/mol
# Density = 1.813108 g / cm^3
# Si number density = 18.172442 Si / 1000 Ang^3
#
#
#
# Elastic Constant Matrix: (Units=GPa)
#
#
# Indices 1 2 3 4 5 6 
#
# 1 73.1431 36.0656 26.2880 -12.8332 -10.0193 -1.4188
# 2 36.0656 91.1654 42.7903 -16.7023 -5.5575 2.3196
# 3 26.2880 42.7903 94.0995 -10.5225 -2.3498 -10.0839
# 4 -12.8332 -16.7023 -10.5225 23.8046 1.9629 4.6269
# 5 -10.0193 -5.5575 -2.3498 1.9629 31.4736 2.9131
# 6 -1.4188 2.3196 -10.0839 4.6269 2.9131 30.2598
#
#
#
# Elastic Compliance Matrix: (Units=1/GPa)
#
#
# Indices 1 2 3 4 5 6 
#
# 1 0.018477 -0.004986 -0.002276 0.005225 0.004575 -0.000749
# 2 -0.004986 0.017434 -0.006176 0.007684 0.001004 -0.004900
# 3 -0.002276 -0.006176 0.014610 -0.000043 -0.001218 0.005359
# 4 0.005225 0.007684 -0.000043 0.051771 0.000559 -0.008328
# 5 0.004575 0.001004 -0.001218 0.000559 0.033613 -0.003590
# 6 -0.000749 -0.004900 0.005359 -0.008328 -0.003590 0.036793
#
#
# Mechanical properties :
#
#
# Convention : Reuss Voigt Hill
#
# Bulk Modulus (GPa) = 42.29126 52.07733 47.18429
# Shear Modulus (GPa) = 24.10152 27.32521 25.71337
#
# Velocity S-wave (km/s) = 3.64575 3.88191 3.76568
# Velocity P-wave (km/s) = 6.40661 6.98655 6.70286
#
# Compressibility (1/GPa) = 0.02364555
#
# Stress axis : x y z
#
# Youngs Moduli (GPa) = 54.12004 57.35936 68.44474
#
# Poissons Ratio (x) = 0.28600 0.15580
# Poissons Ratio (y) = 0.26985 0.42269
# Poissons Ratio (z) = 0.12320 0.35423
#
# Static dielectric constant tensor:
#      x y z
#    x 1.643970 -0.019660 -0.003890 
#    y -0.019660 1.627810 0.007760 
#    z -0.003890 0.007760 1.626210 
# 
# From -- ./inp_files/416931.got.cif
#   From: 2010.05.17/outbox.cif.g08.bks.cpg/sg2_209_cif.got.tgz:416931.got - 2010.06.03 11:33:40.
