data_PCOD9098311
_publ_section_title
;
Structure prediction by ZEFSAII (Michael W. Deem and Ramdas Pophale) SiO2 
 PCOD9098311
Probable space group: P -1
;
_chemical_formula_sum "Si O2"
_cell_formula_units_Z 12
_cell_length_a 10.567782
_cell_length_b 13.957112
_cell_length_c 14.862395
_cell_angle_alpha 148.901366
_cell_angle_beta 143.567818
_cell_angle_gamma 28.285160
_cell_volume 524.982516
_symmetry_space_group_name_H-M "P -1"
_symmetry_group_IT_number 2
_symmetry_cell_setting 'triclinic'
loop_
_space_group_symop_operation_xyz
x,y,z
-x,-y,-z
loop_
_atom_site_type_symbol
_atom_site_label
_atom_site_fract_x
_atom_site_fract_y
_atom_site_fract_z
Si Si1 0.053091 0.259318 0.201384
Si Si2 0.831774 0.126381 0.633546
Si Si3 0.428309 0.763016 0.084580
Si Si4 0.765803 0.381302 0.617180
Si Si5 0.975907 0.669523 0.969506
Si Si6 0.401276 0.260550 0.639612
O O1 0.085822 0.241248 0.097666
O O2 0.923372 0.525595 0.371441
O O3 0.810797 0.250877 0.086281
O O4 0.319622 0.027942 0.212569
O O5 0.754646 0.268335 0.610963
O O6 0.563928 0.247896 0.637912
O O7 0.038421 0.149579 0.825673
O O8 0.978921 0.850100 0.476304
O O9 0.707955 0.567306 0.037447
O O10 0.486232 0.709148 0.179895
O O11 0.500000 0.500000 0.500000
O O12 0.808317 0.574992 0.818600
O O13 0.500000 0.000000 0.500000
#
# Coordination Sequence:
#
# PCOD9098311 Si02
#       6
#     2   2   2   2   2   2
#     4  10  20  36  64  97 125 156 202 251 309 389
#     4  11  23  44  65  89 129 166 213 268 310 374
#     4  10  20  37  62  96 128 156 199 252 313 382
#     4  11  28  44  62  91 123 168 224 269 311 364
#     4  11  21  43  69  91 128 170 207 261 321 372
#     4  11  21  37  62  93 130 165 198 255 320 379
#
# _framework density 22.857903
#
# number of rings (size 3 to 8) (size 9 to 14) (size 15 to 20)
#    0.000    1.333    3.333    3.500    0.000    8.000 
#    0.000    0.000    0.000    0.000    0.000    0.000 
#    0.000    0.000    0.000    0.000    0.000    0.000 
#
# Total GULP energy -67103.809654 kJ/mol
# GULP energy per Si atom -5591.984138 kJ/mol
# Density = 2.280588 g / cm^3
# Si number density = 22.857903 Si / 1000 Ang^3
#
#
#
# Elastic Constant Matrix: (Units=GPa)
#
#
# Indices 1 2 3 4 5 6 
#
# 1 40.4729 23.1690 -1.8478 0.3180 -7.7312 17.3978
# 2 23.1690 106.2007 2.7093 9.0191 -11.5114 22.9265
# 3 -1.8478 2.7093 85.9468 8.4402 1.3132 8.6526
# 4 0.3180 9.0191 8.4402 34.6479 -0.0129 2.8759
# 5 -7.7312 -11.5114 1.3132 -0.0129 36.4328 -1.1549
# 6 17.3978 22.9265 8.6526 2.8759 -1.1549 22.8157
#
#
#
# Elastic Compliance Matrix: (Units=1/GPa)
#
#
# Indices 1 2 3 4 5 6 
#
# 1 0.040109 -0.001747 0.003675 0.001691 0.006874 -0.030088
# 2 -0.001747 0.012809 0.000910 -0.002593 0.003282 -0.011391
# 3 0.003675 0.000910 0.012771 -0.002701 0.000346 -0.008202
# 4 0.001691 -0.002593 -0.002701 0.030304 -0.000400 -0.001500
# 5 0.006874 0.003282 0.000346 -0.000400 0.029705 -0.007116
# 6 -0.030088 -0.011391 -0.008202 -0.001500 -0.007116 0.081159
#
#
# Mechanical properties :
#
#
# Convention : Reuss Voigt Hill
#
# Bulk Modulus (GPa) = 14.01227 31.18680 22.59954
# Shear Modulus (GPa) = 22.22523 32.68528 27.45526
#
# Velocity S-wave (km/s) = 3.12159 3.78555 3.46949
# Velocity P-wave (km/s) = 4.37446 5.72543 5.09492
#
# Compressibility (1/GPa) = 0.07136600
#
# Stress axis : x y z
#
# Youngs Moduli (GPa) = 24.93175 78.06923 78.30153
#
# Poissons Ratio (x) = 0.13641 -0.28779
# Poissons Ratio (y) = 0.04356 -0.07125
# Poissons Ratio (z) = -0.09163 -0.07104
#
# Static dielectric constant tensor:
#      x y z
#    x 1.822600 -0.010290 0.028930 
#    y -0.010290 1.863000 0.040520 
#    z 0.028930 0.040520 1.964360 
# 
# From -- ./inp_files/349118.got.cif
#   From: 2010.05.17/outbox.cif.g08.bks.cpg/sg2_175_cif.got.tgz:349118.got - 2010.06.03 11:33:40.
