data_PCOD9098088
_publ_section_title
;
Structure prediction by ZEFSAII (Michael W. Deem and Ramdas Pophale) SiO2 
 PCOD9098088
Probable space group: P -1
;
_chemical_formula_sum "Si O2"
_cell_formula_units_Z 16
_cell_length_a 10.563905
_cell_length_b 7.988796
_cell_length_c 9.355789
_cell_angle_alpha 101.896085
_cell_angle_beta 75.369421
_cell_angle_gamma 118.048622
_cell_volume 670.694058
_symmetry_space_group_name_H-M "P -1"
_symmetry_group_IT_number 2
_symmetry_cell_setting 'triclinic'
loop_
_space_group_symop_operation_xyz
x,y,z
-x,-y,-z
loop_
_atom_site_type_symbol
_atom_site_label
_atom_site_fract_x
_atom_site_fract_y
_atom_site_fract_z
Si Si1 0.068243 0.508282 0.705754
Si Si2 0.679555 0.666661 0.184175
Si Si3 0.925606 0.179723 0.472500
Si Si4 0.350636 0.204007 0.470627
Si Si5 0.272303 0.995291 0.970363
Si Si6 0.059055 0.300555 0.051552
Si Si7 0.184206 0.178583 0.260270
Si Si8 0.615038 0.289002 0.217218
O O1 0.075315 0.669580 0.618414
O O2 0.231173 0.584940 0.727621
O O3 0.000537 0.308579 0.610554
O O4 0.965488 0.516505 0.865524
O O5 0.642864 0.704089 0.361736
O O6 0.656794 0.815238 0.113676
O O7 0.591052 0.438991 0.147441
O O8 0.847928 0.707514 0.111396
O O9 0.025101 0.086820 0.361232
O O10 0.767970 0.014618 0.518971
O O11 0.287193 0.293437 0.381178
O O12 0.497192 0.216247 0.363147
O O13 0.360338 0.872168 0.902206
O O14 0.251967 0.048771 0.147215
O O15 0.104475 0.870181 0.941059
O O16 0.156995 0.283771 0.151000
#
# Coordination Sequence:
#
# PCOD9098088 Si02
#       8
#     2   2   2   2   2   2   2   2
#     4   9  20  38  61  94 126 159 209 263 310 368
#     4  11  22  40  64  90 123 166 209 253 307 366
#     4  10  20  36  63  93 125 164 207 261 317 358
#     4  12  24  38  61  94 129 166 205 253 314 374
#     4  10  22  42  65  90 125 166 208 257 312 370
#     4   9  19  39  64  90 122 163 211 261 311 362
#     4  10  20  37  61  89 121 158 206 261 308 359
#     4  11  25  41  61  93 131 166 208 250 307 383
#
# _framework density 23.855885000000001
#
# number of rings (size 3 to 8) (size 9 to 14) (size 15 to 20)
#    0.000    1.750    0.000    6.000    0.000    7.500 
#    0.000    5.000    0.000    0.000    0.000    0.000 
#    0.000    0.000    0.000    0.000    0.000    0.000 
#
# Total GULP energy -89431.038210 kJ/mol
# GULP energy per Si atom -5589.439888 kJ/mol
# Density = 2.380159 g / cm^3
# Si number density = 23.855885 Si / 1000 Ang^3
#
#
#
# Elastic Constant Matrix: (Units=GPa)
#
#
# Indices 1 2 3 4 5 6 
#
# 1 42.1723 32.6909 37.3367 -2.0578 -10.3358 -7.2437
# 2 32.6909 125.4805 65.2059 7.3880 -24.7619 -25.8502
# 3 37.3367 65.2059 156.6939 9.7275 -19.9591 -18.7176
# 4 -2.0578 7.3880 9.7275 29.3691 0.9785 -1.2266
# 5 -10.3358 -24.7619 -19.9591 0.9785 50.8306 3.0109
# 6 -7.2437 -25.8502 -18.7176 -1.2266 3.0109 20.3352
#
#
#
# Elastic Compliance Matrix: (Units=1/GPa)
#
#
# Indices 1 2 3 4 5 6 
#
# 1 0.034120 -0.006019 -0.005869 0.005761 0.001637 -0.000795
# 2 -0.006019 0.014472 -0.002278 -0.002889 0.004196 0.013360
# 3 -0.005869 -0.002278 0.009472 -0.002877 0.001272 0.003369
# 4 0.005761 -0.002889 -0.002877 0.036123 -0.001954 -0.001801
# 5 0.001637 0.004196 0.001272 -0.001954 0.022370 0.003657
# 6 -0.000795 0.013360 0.003369 -0.001801 0.003657 0.068327
#
#
# Mechanical properties :
#
#
# Convention : Reuss Voigt Hill
#
# Bulk Modulus (GPa) = 33.63594 66.09043 49.86318
# Shear Modulus (GPa) = 22.40872 32.71452 27.56162
#
# Velocity S-wave (km/s) = 3.06819 3.70718 3.40271
# Velocity P-wave (km/s) = 5.16546 6.78884 6.03201
#
# Compressibility (1/GPa) = 0.02973010
#
# Stress axis : x y z
#
# Youngs Moduli (GPa) = 29.30805 69.10013 105.57924
#
# Poissons Ratio (x) = 0.41591 0.61969
# Poissons Ratio (y) = 0.17641 0.24055
# Poissons Ratio (z) = 0.17202 0.15743
#
# Static dielectric constant tensor:
#      x y z
#    x 1.943510 -0.054900 0.024190 
#    y -0.054900 1.941640 -0.022160 
#    z 0.024190 -0.022160 1.928100 
# 
# From -- ./inp_files/244430.got.cif
#   From: 2010.05.17/outbox.cif.g08.bks.cpg/sg2_123_cif.got.tgz:244430.got - 2010.06.03 11:33:40.
