data_PCOD9098413
_publ_section_title
;
Structure prediction by ZEFSAII (Michael W. Deem and Ramdas Pophale) SiO2 
 PCOD9098413
Probable space group: P -1
;
_chemical_formula_sum "Si O2"
_cell_formula_units_Z 14
_cell_length_a 9.811822
_cell_length_b 6.636985
_cell_length_c 19.659314
_cell_angle_alpha 124.227873
_cell_angle_beta 26.972305
_cell_angle_gamma 119.057848
_cell_volume 479.679312
_symmetry_space_group_name_H-M "P -1"
_symmetry_group_IT_number 2
_symmetry_cell_setting 'triclinic'
loop_
_space_group_symop_operation_xyz
x,y,z
-x,-y,-z
loop_
_atom_site_type_symbol
_atom_site_label
_atom_site_fract_x
_atom_site_fract_y
_atom_site_fract_z
Si Si1 0.830991 0.727688 0.835209
Si Si2 0.327108 0.081280 0.269257
Si Si3 0.881285 0.703331 0.950666
Si Si4 0.718783 0.283024 0.020720
Si Si5 0.254024 0.685770 0.446691
Si Si6 0.563719 0.266380 0.491418
Si Si7 0.482494 0.912014 0.673539
O O1 0.889131 0.572650 0.847936
O O2 0.518231 0.704673 0.934031
O O3 0.088080 0.669235 0.656940
O O4 0.872027 0.014294 0.890284
O O5 0.525365 0.265013 0.171799
O O6 0.997153 0.085258 0.383926
O O7 0.283822 0.129528 0.377475
O O8 0.550415 0.840592 0.121858
O O9 0.902175 0.519422 0.968981
O O10 0.165824 0.874553 0.846992
O O11 0.480620 0.595651 0.389854
O O12 0.465932 0.813951 0.322501
O O13 0.000000 0.500000 0.500000
O O14 0.500000 0.000000 0.500000
O O15 0.491296 0.250515 0.438810
#
# Coordination Sequence:
#
# PCOD9098413 Si02
#       7
#     2   2   2   2   2   2   2
#     4   9  18  37  61  97 131 169 220 270 324 396
#     4  11  23  41  67  99 131 173 225 274 323 404
#     4  10  22  40  66  96 139 172 218 275 336 390
#     4  10  20  36  65  99 130 174 217 268 334 391
#     4  11  24  45  71  97 129 181 229 272 333 400
#     4   9  19  41  68  87 134 174 212 275 333 383
#     4  10  23  44  65  98 140 170 217 284 331 394
#
# _framework density 29.186164999999999
#
# number of rings (size 3 to 8) (size 9 to 14) (size 15 to 20)
#    0.000    2.000    1.429    1.286    2.000    0.571 
#   10.286    2.143    0.000    0.000    0.000    0.000 
#    0.000    0.000    0.000    0.000    0.000    0.000 
#
# Total GULP energy -78078.267156 kJ/mol
# GULP energy per Si atom -5577.019083 kJ/mol
# Density = 2.911974 g / cm^3
# Si number density = 29.186165 Si / 1000 Ang^3
#
#
#
# Elastic Constant Matrix: (Units=GPa)
#
#
# Indices 1 2 3 4 5 6 
#
# 1 181.7427 30.6672 18.3920 -25.2146 26.0771 -39.6308
# 2 30.6672 138.8673 66.3644 -31.9226 4.8474 -5.9007
# 3 18.3920 66.3644 130.7661 -28.6833 1.1154 -9.7913
# 4 -25.2146 -31.9226 -28.6833 47.6348 -9.9875 10.6024
# 5 26.0771 4.8474 1.1154 -9.9875 56.1543 -13.6865
# 6 -39.6308 -5.9007 -9.7913 10.6024 -13.6865 57.8207
#
#
#
# Elastic Compliance Matrix: (Units=1/GPa)
#
#
# Indices 1 2 3 4 5 6 
#
# 1 0.007050 -0.000998 0.000253 0.001937 -0.001880 0.003973
# 2 -0.000998 0.010371 -0.004307 0.004093 0.000119 -0.001078
# 3 0.000253 -0.004307 0.010667 0.003626 0.000956 0.001102
# 4 0.001937 0.004093 0.003626 0.028063 0.003170 -0.002036
# 5 -0.001880 0.000119 0.000956 0.003170 0.019953 0.003027
# 6 0.003973 -0.001078 0.001102 -0.002036 0.003027 0.021184
#
#
# Mechanical properties :
#
#
# Convention : Reuss Voigt Hill
#
# Bulk Modulus (GPa) = 55.60321 75.80259 65.70290
# Shear Modulus (GPa) = 44.09708 54.71880 49.40794
#
# Velocity S-wave (km/s) = 3.89123 4.33462 4.11890
# Velocity P-wave (km/s) = 6.26750 7.14705 6.72168
#
# Compressibility (1/GPa) = 0.01798457
#
# Stress axis : x y z
#
# Youngs Moduli (GPa) = 141.84630 96.42562 93.74699
#
# Poissons Ratio (x) = 0.09626 -0.02376
# Poissons Ratio (y) = 0.14161 0.40373
# Poissons Ratio (z) = -0.03595 0.41527
#
# Static dielectric constant tensor:
#      x y z
#    x 2.335580 0.062430 0.105140 
#    y 0.062430 2.531370 0.184810 
#    z 0.105140 0.184810 2.336520 
# 
# From -- ./inp_files/592574.got.cif
#   From: 2010.05.17/outbox.cif.g08.bks.cpg/sg2_297_cif.got.tgz:592574.got - 2010.06.03 11:33:40.
