data_PCOD9098782
_publ_section_title
;
Structure prediction by ZEFSAII (Michael W. Deem and Ramdas Pophale) SiO2 
 PCOD9098782
Probable space group: P -1
;
_chemical_formula_sum "Si O2"
_cell_formula_units_Z 14
_cell_length_a 13.825255
_cell_length_b 11.582106
_cell_length_c 20.466468
_cell_angle_alpha 16.727208
_cell_angle_beta 30.826943
_cell_angle_gamma 34.813356
_cell_volume 483.334257
_symmetry_space_group_name_H-M "P -1"
_symmetry_group_IT_number 2
_symmetry_cell_setting 'triclinic'
loop_
_space_group_symop_operation_xyz
x,y,z
-x,-y,-z
loop_
_atom_site_type_symbol
_atom_site_label
_atom_site_fract_x
_atom_site_fract_y
_atom_site_fract_z
Si Si1 0.707405 0.662546 0.364046
Si Si2 0.901562 0.663694 0.372213
Si Si3 0.913147 0.645736 0.834000
Si Si4 0.776558 0.565767 0.088899
Si Si5 0.288292 0.351305 0.776987
Si Si6 0.591809 0.496053 0.020384
Si Si7 0.287921 0.355021 0.378226
O O1 0.872680 0.508758 0.398472
O O2 0.512327 0.425150 0.599811
O O3 0.762312 0.804095 0.182889
O O4 0.651114 0.036739 0.238014
O O5 0.735933 0.560511 0.576365
O O6 0.087429 0.458675 0.404979
O O7 0.930519 0.149035 0.098674
O O8 0.776968 0.755615 0.914131
O O9 0.786590 0.730322 0.797626
O O10 0.000000 0.500000 0.000000
O O11 0.138232 0.728942 0.661518
O O12 0.723019 0.791838 0.063451
O O13 0.682105 0.126954 0.381020
O O14 0.440273 0.554442 0.133566
O O15 0.500000 0.500000 0.000000
#
# Coordination Sequence:
#
# PCOD9098782 Si02
#       7
#     2   2   2   2   2   2   2
#     4  10  22  38  60  84 113 163 188 233 296 340
#     4   9  21  37  63  86 112 150 192 241 293 334
#     4   9  21  37  63  85 110 157 193 236 291 337
#     4   9  18  37  62  85 112 150 195 234 286 341
#     4  10  20  37  57  84 116 151 195 229 281 355
#     4  11  24  37  59  90 116 149 196 242 284 339
#     4  10  20  38  61  88 117 146 195 247 281 336
#
# _framework density 28.965461999999999
#
# number of rings (size 3 to 8) (size 9 to 14) (size 15 to 20)
#    0.000    2.286    1.429    0.000    6.000    2.857 
#    0.000    7.143    0.000    4.286    0.000    0.000 
#    0.000    0.000    0.000    0.000    0.000    0.000 
#
# Total GULP energy -78191.010054 kJ/mol
# GULP energy per Si atom -5585.072147 kJ/mol
# Density = 2.889954 g / cm^3
# Si number density = 28.965462 Si / 1000 Ang^3
#
#
#
# Elastic Constant Matrix: (Units=GPa)
#
#
# Indices 1 2 3 4 5 6 
#
# 1 178.7874 23.3991 13.3864 3.9029 11.4690 11.4397
# 2 23.3991 129.7563 23.1770 31.1360 13.8563 25.3708
# 3 13.3864 23.1770 95.2633 11.5127 22.8086 11.9566
# 4 3.9029 31.1360 11.5127 37.9540 8.9070 -1.3893
# 5 11.4690 13.8563 22.8086 8.9070 33.8924 12.8821
# 6 11.4397 25.3708 11.9566 -1.3893 12.8821 49.5969
#
#
#
# Elastic Compliance Matrix: (Units=1/GPa)
#
#
# Indices 1 2 3 4 5 6 
#
# 1 0.005837 -0.000894 -0.000277 0.000528 -0.001393 -0.000446
# 2 -0.000894 0.011333 -0.001013 -0.009358 0.001045 -0.005880
# 3 -0.000277 -0.001013 0.012821 -0.001275 -0.007565 -0.000580
# 4 0.000528 -0.009358 -0.001275 0.036578 -0.008196 0.008126
# 5 -0.001393 0.001045 -0.007565 -0.008196 0.040242 -0.009072
# 6 -0.000446 -0.005880 -0.000580 0.008126 -0.009072 0.025997
#
#
# Mechanical properties :
#
#
# Convention : Reuss Voigt Hill
#
# Bulk Modulus (GPa) = 39.02777 58.19243 48.61010
# Shear Modulus (GPa) = 34.31327 47.21163 40.76245
#
# Velocity S-wave (km/s) = 3.44558 4.04162 3.75544
# Velocity P-wave (km/s) = 5.41595 6.47406 5.96850
#
# Compressibility (1/GPa) = 0.02562278
#
# Stress axis : x y z
#
# Youngs Moduli (GPa) = 171.31164 88.24117 77.99930
#
# Poissons Ratio (x) = 0.07887 0.02162
# Poissons Ratio (y) = 0.15313 0.07900
# Poissons Ratio (z) = 0.04748 0.08937
#
# Static dielectric constant tensor:
#      x y z
#    x 2.559190 -0.159060 0.013510 
#    y -0.159060 2.403950 -0.125310 
#    z 0.013510 -0.125310 2.368710 
# 
# From -- ./inp_files/568423.got.cif
#   From: 2010.05.17/outbox.cif.g08.bks.cpg/sg2_285_cif.got.tgz:568423.got - 2010.06.03 11:33:40.
