data_PCOD9098979
_publ_section_title
;
Structure prediction by ZEFSAII (Michael W. Deem and Ramdas Pophale) SiO2 
 PCOD9098979
Probable space group: P -1
;
_chemical_formula_sum "Si O2"
_cell_formula_units_Z 14
_cell_length_a 7.020907
_cell_length_b 9.847644
_cell_length_c 18.782914
_cell_angle_alpha 144.898404
_cell_angle_beta 125.912556
_cell_angle_gamma 49.575034
_cell_volume 563.794928
_symmetry_space_group_name_H-M "P -1"
_symmetry_group_IT_number 2
_symmetry_cell_setting 'triclinic'
loop_
_space_group_symop_operation_xyz
x,y,z
-x,-y,-z
loop_
_atom_site_type_symbol
_atom_site_label
_atom_site_fract_x
_atom_site_fract_y
_atom_site_fract_z
Si Si1 0.961303 0.268243 0.429180
Si Si2 0.159809 0.234411 0.595643
Si Si3 0.040203 0.499768 0.833122
Si Si4 0.660168 0.223922 0.645685
Si Si5 0.943904 0.937891 0.168391
Si Si6 0.721422 0.057889 0.029865
Si Si7 0.661039 0.560837 0.983620
O O1 0.916866 0.320047 0.525763
O O2 0.000000 0.500000 0.500000
O O3 0.220427 0.023792 0.384841
O O4 0.819977 0.143135 0.291247
O O5 0.368050 0.328666 0.643959
O O6 0.123752 0.340773 0.711579
O O7 0.269438 0.926074 0.478984
O O8 0.819122 0.399825 0.769556
O O9 0.259748 0.443323 0.917150
O O10 0.887853 0.797329 0.916322
O O11 0.810278 0.732144 0.057228
O O12 0.230848 0.733908 0.141180
O O13 0.891958 0.082632 0.143872
O O14 0.605737 0.285933 0.046880
O O15 0.500000 0.000000 0.000000
#
# Coordination Sequence:
#
# PCOD9098979 Si02
#       7
#     2   2   2   2   2   2   2
#     4  10  20  37  58  89 123 166 201 250 314 365
#     4   9  21  38  58  92 124 163 206 248 308 375
#     4  11  19  38  66  90 127 158 205 260 308 367
#     4   9  20  39  59  88 122 170 197 248 317 363
#     4   9  17  33  59  87 120 160 207 255 302 369
#     4   9  20  32  58  97 116 157 209 256 306 368
#     4   9  17  34  57  93 118 154 211 254 308 363
#
# _framework density 24.831727000000001
#
# number of rings (size 3 to 8) (size 9 to 14) (size 15 to 20)
#    0.857    1.714    1.429    1.286    0.000    2.286 
#    5.143    0.000    0.000   18.000    0.000    0.000 
#    0.000    0.000    0.000    0.000    0.000    0.000 
#
# Total GULP energy -77954.909138 kJ/mol
# GULP energy per Si atom -5568.207796 kJ/mol
# Density = 2.477521 g / cm^3
# Si number density = 24.831727 Si / 1000 Ang^3
#
#
#
# Elastic Constant Matrix: (Units=GPa)
#
#
# Indices 1 2 3 4 5 6 
#
# 1 54.9483 22.7820 24.4866 -7.0060 -11.2032 1.9691
# 2 22.7820 186.5229 60.1756 -4.8356 -16.6079 10.7093
# 3 24.4866 60.1756 163.2766 -19.8006 -22.3718 6.1529
# 4 -7.0060 -4.8356 -19.8006 44.8188 12.4294 -5.6010
# 5 -11.2032 -16.6079 -22.3718 12.4294 35.7783 -3.2598
# 6 1.9691 10.7093 6.1529 -5.6010 -3.2598 25.4893
#
#
#
# Elastic Compliance Matrix: (Units=1/GPa)
#
#
# Indices 1 2 3 4 5 6 
#
# 1 0.020649 -0.001543 -0.001821 0.001113 0.004249 0.000281
# 2 -0.001543 0.006414 -0.001987 -0.001094 0.001435 -0.002153
# 3 -0.001821 -0.001987 0.007754 0.002200 0.002584 -0.000082
# 4 0.001113 -0.001094 0.002200 0.025963 -0.007384 0.004604
# 5 0.004249 0.001435 0.002584 -0.007384 0.034237 0.001201
# 6 0.000281 -0.002153 -0.000082 0.004604 0.001201 0.041300
#
#
# Mechanical properties :
#
#
# Convention : Reuss Voigt Hill
#
# Bulk Modulus (GPa) = 41.47164 68.84844 55.16004
# Shear Modulus (GPa) = 32.24595 41.03752 36.64173
#
# Velocity S-wave (km/s) = 3.60749 4.06966 3.84552
# Velocity P-wave (km/s) = 5.83860 7.06180 6.47913
#
# Compressibility (1/GPa) = 0.02411286
#
# Stress axis : x y z
#
# Youngs Moduli (GPa) = 48.42922 155.90984 128.96487
#
# Poissons Ratio (x) = 0.24063 0.23487
# Poissons Ratio (y) = 0.07475 0.25629
# Poissons Ratio (z) = 0.08820 0.30984
#
# Static dielectric constant tensor:
#      x y z
#    x 2.209190 -0.094640 0.012590 
#    y -0.094640 2.094720 -0.153890 
#    z 0.012590 -0.153890 2.140040 
# 
# From -- ./inp_files/556677.got.cif
#   From: 2010.05.17/outbox.cif.g08.bks.cpg/sg2_279_cif.got.tgz:556677.got - 2010.06.03 11:33:40.
