data_PCOD9098598
_publ_section_title
;
Structure prediction by ZEFSAII (Michael W. Deem and Ramdas Pophale) SiO2 
 PCOD9098598
Probable space group: P -1
;
_chemical_formula_sum "Si O2"
_cell_formula_units_Z 16
_cell_length_a 18.766543
_cell_length_b 5.119890
_cell_length_c 10.459593
_cell_angle_alpha 89.755154
_cell_angle_beta 133.876576
_cell_angle_gamma 112.442453
_cell_volume 616.334188
_symmetry_space_group_name_H-M "P -1"
_symmetry_group_IT_number 2
_symmetry_cell_setting 'triclinic'
loop_
_space_group_symop_operation_xyz
x,y,z
-x,-y,-z
loop_
_atom_site_type_symbol
_atom_site_label
_atom_site_fract_x
_atom_site_fract_y
_atom_site_fract_z
Si Si1 0.004283 0.697188 0.842952
Si Si2 0.448139 0.787914 0.151911
Si Si3 0.127774 0.834577 0.748598
Si Si4 0.674871 0.029175 0.808842
Si Si5 0.373266 0.301641 0.509584
Si Si6 0.693100 0.282529 0.431280
Si Si7 0.201324 0.430350 0.703612
Si Si8 0.131068 0.373573 0.092359
O O1 0.022677 0.749144 0.714676
O O2 0.891081 0.616989 0.783577
O O3 0.034032 0.438368 0.912642
O O4 0.099310 0.033317 0.018749
O O5 0.422511 0.940666 0.240029
O O6 0.500788 0.592823 0.274915
O O7 0.558360 0.057215 0.212884
O O8 0.329351 0.597837 0.928809
O O9 0.130122 0.551934 0.691409
O O10 0.144262 0.072188 0.660062
O O11 0.241351 0.991390 0.982957
O O12 0.756803 0.357915 0.839117
O O13 0.631816 0.778352 0.644726
O O14 0.326815 0.515132 0.491756
O O15 0.291428 0.976203 0.481332
O O16 0.771438 0.457858 0.407777
#
# Coordination Sequence:
#
# PCOD9098598 Si02
#       8
#     2   2   2   2   2   2   2   2
#     4   9  16  32  47  80 103 131 162 196 267 297
#     4   9  22  34  54  74 102 137 170 223 249 297
#     4  10  21  32  56  79 105 131 163 219 254 313
#     4  10  20  37  50  82 105 139 169 199 263 310
#     4  10  23  35  52  72 105 143 170 212 246 308
#     4  10  23  37  51  73  98 144 176 218 250 287
#     4  11  21  36  54  76 100 134 180 215 258 289
#     4   9  18  29  52  71 110 134 157 204 242 326
#
# _framework density 25.959944
#
# number of rings (size 3 to 8) (size 9 to 14) (size 15 to 20)
#    0.750    1.500    0.000    3.750    3.500    5.000 
#    0.000    0.000    0.000    0.000    0.000    5.250 
#    0.000    0.000    0.000    0.000    0.000    0.000 
#
# Total GULP energy -89574.190645 kJ/mol
# GULP energy per Si atom -5598.386915 kJ/mol
# Density = 2.590086 g / cm^3
# Si number density = 25.959944 Si / 1000 Ang^3
#
#
#
# Elastic Constant Matrix: (Units=GPa)
#
#
# Indices 1 2 3 4 5 6 
#
# 1 131.2118 29.1797 2.2054 -8.6182 17.8433 17.0122
# 2 29.1797 133.9673 11.7066 -3.7760 -0.0307 13.0252
# 3 2.2054 11.7066 73.9700 -12.4949 -9.1035 1.8852
# 4 -8.6182 -3.7760 -12.4949 36.0355 13.8009 -7.5247
# 5 17.8433 -0.0307 -9.1035 13.8009 30.0208 -0.0265
# 6 17.0122 13.0252 1.8852 -7.5247 -0.0265 54.4190
#
#
#
# Elastic Compliance Matrix: (Units=1/GPa)
#
#
# Indices 1 2 3 4 5 6 
#
# 1 0.009662 -0.001772 -0.000140 0.004718 -0.007958 -0.001943
# 2 -0.001772 0.008074 -0.001177 -0.000672 0.001012 -0.001430
# 3 -0.000140 -0.001177 0.014706 0.003980 0.002712 0.000368
# 4 0.004718 -0.000672 0.003980 0.038354 -0.019226 0.003842
# 5 -0.007958 0.001012 0.002712 -0.019226 0.047702 -0.000484
# 6 -0.001943 -0.001430 0.000368 0.003842 -0.000484 0.019844
#
#
# Mechanical properties :
#
#
# Convention : Reuss Voigt Hill
#
# Bulk Modulus (GPa) = 38.07829 47.25915 42.66872
# Shear Modulus (GPa) = 32.62102 43.83222 38.22662
#
# Velocity S-wave (km/s) = 3.54869 4.11354 3.84151
# Velocity P-wave (km/s) = 5.61167 6.38794 6.01235
#
# Compressibility (1/GPa) = 0.02626168
#
# Stress axis : x y z
#
# Youngs Moduli (GPa) = 103.50180 123.85881 67.99798
#
# Poissons Ratio (x) = 0.21949 0.00955
# Poissons Ratio (y) = 0.18341 0.08007
# Poissons Ratio (z) = 0.01454 0.14584
#
# Static dielectric constant tensor:
#      x y z
#    x 1.994420 0.023380 0.120150 
#    y 0.023380 1.964920 -0.012060 
#    z 0.120150 -0.012060 2.184810 
# 
# From -- ./inp_files/468172.got.cif
#   From: 2010.05.17/outbox.cif.g08.bks.cpg/sg2_235_cif.got.tgz:468172.got - 2010.06.03 11:33:40.
