data_PCOD9098153
_publ_section_title
;
Structure prediction by ZEFSAII (Michael W. Deem and Ramdas Pophale) SiO2 
 PCOD9098153
Probable space group: P -1
;
_chemical_formula_sum "Si O2"
_cell_formula_units_Z 16
_cell_length_a 8.892758
_cell_length_b 9.633381
_cell_length_c 11.887467
_cell_angle_alpha 77.062264
_cell_angle_beta 98.307961
_cell_angle_gamma 131.114356
_cell_volume 747.754435
_symmetry_space_group_name_H-M "P -1"
_symmetry_group_IT_number 2
_symmetry_cell_setting 'triclinic'
loop_
_space_group_symop_operation_xyz
x,y,z
-x,-y,-z
loop_
_atom_site_type_symbol
_atom_site_label
_atom_site_fract_x
_atom_site_fract_y
_atom_site_fract_z
Si Si1 0.816738 0.852198 0.253584
Si Si2 0.451861 0.631288 0.520598
Si Si3 0.897036 0.381229 0.895995
Si Si4 0.178556 0.456426 0.735168
Si Si5 0.814965 0.802586 0.676756
Si Si6 0.827560 0.011351 0.007476
Si Si7 0.361778 0.600421 0.283217
Si Si8 0.557195 0.667358 0.896000
O O1 0.904199 0.756168 0.235682
O O2 0.583903 0.672849 0.273617
O O3 0.966257 0.995857 0.340268
O O4 0.808160 0.977494 0.144122
O O5 0.500000 0.500000 0.500000
O O6 0.269221 0.531436 0.606925
O O7 0.653405 0.785353 0.584368
O O8 0.396608 0.689769 0.393936
O O9 0.868155 0.197458 0.949224
O O10 0.701319 0.346563 0.840917
O O11 0.021698 0.463955 0.776818
O O12 0.000000 0.500000 0.000000
O O13 0.362907 0.578594 0.818548
O O14 0.795568 0.623978 0.678378
O O15 0.731527 0.752824 0.805894
O O16 0.633465 0.838871 0.952455
O O17 0.000000 0.000000 0.000000
O O18 0.500000 0.500000 0.000000
#
# Coordination Sequence:
#
# PCOD9098153 Si02
#       8
#     2   2   2   2   2   2   2   2
#     4  12  21  37  70  97 128 175 229 273 332 395
#     4   9  19  42  69  97 128 171 235 281 322 398
#     4  12  28  43  63 101 146 176 216 280 349 401
#     4  11  22  40  67  95 129 184 218 273 338 392
#     4  10  20  36  64 100 125 168 228 276 324 402
#     4  12  22  38  65  96 128 179 229 265 327 424
#     4  11  24  44  62  97 141 171 220 286 338 387
#     4  11  18  34  65  93 128 167 226 278 321 385
#
# _framework density 21.397397000000002
#
# number of rings (size 3 to 8) (size 9 to 14) (size 15 to 20)
#    0.000    1.000    7.500    0.750    3.500    1.500 
#    2.250    0.000    0.000    6.750    0.000    0.000 
#    0.000    0.000    0.000    0.000    0.000    0.000 
#
# Total GULP energy -89130.655798 kJ/mol
# GULP energy per Si atom -5570.665987 kJ/mol
# Density = 2.134870 g / cm^3
# Si number density = 21.397397 Si / 1000 Ang^3
#
#
#
# Elastic Constant Matrix: (Units=GPa)
#
#
# Indices 1 2 3 4 5 6 
#
# 1 49.3395 26.3275 19.7816 8.3606 -2.2226 0.0151
# 2 26.3275 117.3227 20.3721 28.6512 17.6550 -2.2475
# 3 19.7816 20.3721 115.9345 22.6351 11.8535 -4.6506
# 4 8.3606 28.6512 22.6351 27.4972 2.2547 6.9776
# 5 -2.2226 17.6550 11.8535 2.2547 32.8352 0.2781
# 6 0.0151 -2.2475 -4.6506 6.9776 0.2781 18.4053
#
#
#
# Elastic Compliance Matrix: (Units=1/GPa)
#
#
# Indices 1 2 3 4 5 6 
#
# 1 0.025538 -0.006912 -0.004703 0.003639 0.006923 -0.003538
# 2 -0.006912 0.015595 0.003415 -0.018774 -0.008882 0.010025
# 3 -0.004703 0.003415 0.012583 -0.014325 -0.005790 0.009118
# 4 0.003639 -0.018774 -0.014325 0.074442 0.010691 -0.034298
# 5 0.006923 -0.008882 -0.005790 0.010691 0.037116 -0.007167
# 6 -0.003538 0.010025 0.009118 -0.034298 -0.007167 0.070974
#
#
# Mechanical properties :
#
#
# Convention : Reuss Voigt Hill
#
# Bulk Modulus (GPa) = 26.79934 46.17323 36.48628
# Shear Modulus (GPa) = 18.86164 30.15524 24.50844
#
# Velocity S-wave (km/s) = 2.97221 3.75813 3.38804
# Velocity P-wave (km/s) = 4.93260 6.36059 5.69156
#
# Compressibility (1/GPa) = 0.03731436
#
# Stress axis : x y z
#
# Youngs Moduli (GPa) = 39.15704 64.12241 79.47471
#
# Poissons Ratio (x) = 0.44325 0.37378
# Poissons Ratio (y) = 0.27067 -0.27139
# Poissons Ratio (z) = 0.18416 -0.21897
#
# Static dielectric constant tensor:
#      x y z
#    x 1.883630 0.045840 -0.066120 
#    y 0.045840 1.776350 -0.015910 
#    z -0.066120 -0.015910 1.870690 
# 
# From -- ./inp_files/382037.got.cif
#   From: 2010.05.17/outbox.cif.g08.bks.cpg/sg2_192_cif.got.tgz:382037.got - 2010.06.03 11:33:40.
