data_PCOD9098560
_publ_section_title
;
Structure prediction by ZEFSAII (Michael W. Deem and Ramdas Pophale) SiO2 
 PCOD9098560
Probable space group: P -1
;
_chemical_formula_sum "Si O2"
_cell_formula_units_Z 16
_cell_length_a 20.028909
_cell_length_b 5.481995
_cell_length_c 23.164834
_cell_angle_alpha 115.096422
_cell_angle_beta 159.745816
_cell_angle_gamma 52.848991
_cell_volume 601.076470
_symmetry_space_group_name_H-M "P -1"
_symmetry_group_IT_number 2
_symmetry_cell_setting 'triclinic'
loop_
_space_group_symop_operation_xyz
x,y,z
-x,-y,-z
loop_
_atom_site_type_symbol
_atom_site_label
_atom_site_fract_x
_atom_site_fract_y
_atom_site_fract_z
Si Si1 0.466191 0.292521 0.541152
Si Si2 0.010682 0.596390 0.584553
Si Si3 0.801778 0.921118 0.880097
Si Si4 0.341535 0.457580 0.122346
Si Si5 0.603094 0.110665 0.421323
Si Si6 0.208519 0.497184 0.846869
Si Si7 0.862041 0.831093 0.138733
Si Si8 0.820960 0.239925 0.432912
O O1 0.725068 0.054708 0.766142
O O2 0.500000 0.000000 0.500000
O O3 0.462240 0.613513 0.553280
O O4 0.176260 0.542537 0.360347
O O5 0.000000 0.500000 0.500000
O O6 0.810969 0.568875 0.449041
O O7 0.244045 0.359795 0.795765
O O8 0.963885 0.960407 0.574575
O O9 0.533006 0.044064 0.694624
O O10 0.857081 0.117873 0.986945
O O11 0.000000 0.500000 0.000000
O O12 0.487475 0.322660 0.288438
O O13 0.545744 0.355498 0.228682
O O14 0.224194 0.279261 0.995256
O O15 0.902726 0.818050 0.633680
O O16 0.280628 0.746815 0.937154
O O17 0.238823 0.245431 0.895326
O O18 0.000000 0.000000 0.500000
#
# Coordination Sequence:
#
# PCOD9098560 Si02
#       8
#     2   2   2   2   2   2   2   2
#     4  10  24  41  58  87 130 175 218 275 335 393
#     4  10  20  36  69 101 125 167 222 271 323 395
#     4  11  25  40  65  94 128 176 234 281 325 400
#     4  11  25  41  65  98 132 176 224 284 333 406
#     4  10  22  40  65  88 123 175 232 266 328 392
#     4  11  21  43  64  97 130 175 221 267 328 411
#     4  11  26  40  65  97 134 179 214 275 347 392
#     4  10  21  38  68 102 126 167 227 272 327 395
#
# _framework density 26.618911000000001
#
# number of rings (size 3 to 8) (size 9 to 14) (size 15 to 20)
#    0.000    1.500    2.500    1.500    7.000    2.500 
#    0.000    0.000    0.000   18.000    0.000    0.000 
#    0.000    0.000    0.000    0.000    0.000    0.000 
#
# Total GULP energy -89163.765295 kJ/mol
# GULP energy per Si atom -5572.735331 kJ/mol
# Density = 2.655833 g / cm^3
# Si number density = 26.618911 Si / 1000 Ang^3
#
#
#
# Elastic Constant Matrix: (Units=GPa)
#
#
# Indices 1 2 3 4 5 6 
#
# 1 96.5695 30.3475 8.1753 6.2077 17.6347 19.3945
# 2 30.3475 100.8163 6.6838 35.3609 13.0868 -1.3550
# 3 8.1753 6.6838 53.9624 8.4328 9.3622 -5.1857
# 4 6.2077 35.3609 8.4328 46.5282 -3.2875 2.9648
# 5 17.6347 13.0868 9.3622 -3.2875 35.2947 3.5554
# 6 19.3945 -1.3550 -5.1857 2.9648 3.5554 55.3502
#
#
#
# Elastic Compliance Matrix: (Units=1/GPa)
#
#
# Indices 1 2 3 4 5 6 
#
# 1 0.013345 -0.003969 -0.001495 0.001512 -0.004182 -0.004725
# 2 -0.003969 0.016325 0.001937 -0.012853 -0.006088 0.003051
# 3 -0.001495 0.001937 0.020822 -0.005702 -0.006352 0.003235
# 4 0.001512 -0.012853 -0.005702 0.032963 0.008967 -0.003720
# 5 -0.004182 -0.006088 -0.006352 0.008967 0.035405 -0.002033
# 6 -0.004725 0.003051 0.003235 -0.003720 -0.002033 0.020430
#
#
# Mechanical properties :
#
#
# Convention : Reuss Voigt Hill
#
# Bulk Modulus (GPa) = 23.02124 37.97349 30.49737
# Shear Modulus (GPa) = 31.09038 41.17740 36.13389
#
# Velocity S-wave (km/s) = 3.42128 3.93736 3.68836
# Velocity P-wave (km/s) = 4.92688 5.91329 5.44248
#
# Compressibility (1/GPa) = 0.04343814
#
# Stress axis : x y z
#
# Youngs Moduli (GPa) = 74.93645 61.25681 48.02647
#
# Poissons Ratio (x) = 0.24313 0.07180
# Poissons Ratio (y) = 0.29742 -0.09305
# Poissons Ratio (z) = 0.11203 -0.11868
#
# Static dielectric constant tensor:
#      x y z
#    x 2.288200 -0.125240 -0.060620 
#    y -0.125240 2.380910 0.038460 
#    z -0.060620 0.038460 2.110420 
# 
# From -- ./inp_files/46967.got.cif
#   From: 2010.05.17/outbox.cif.g08.bks.cpg/sg2_24_cif.got.tgz:46967.got - 2010.06.03 11:33:40.
