data_PCOD9098291
_publ_section_title
;
Structure prediction by ZEFSAII (Michael W. Deem and Ramdas Pophale) SiO2 
 PCOD9098291
Probable space group: P -1
;
_chemical_formula_sum "Si O2"
_cell_formula_units_Z 16
_cell_length_a 11.888852
_cell_length_b 8.581206
_cell_length_c 16.393199
_cell_angle_alpha 59.572808
_cell_angle_beta 148.619756
_cell_angle_gamma 116.057897
_cell_volume 750.837231
_symmetry_space_group_name_H-M "P -1"
_symmetry_group_IT_number 2
_symmetry_cell_setting 'triclinic'
loop_
_space_group_symop_operation_xyz
x,y,z
-x,-y,-z
loop_
_atom_site_type_symbol
_atom_site_label
_atom_site_fract_x
_atom_site_fract_y
_atom_site_fract_z
Si Si1 0.355586 0.228213 0.477817
Si Si2 0.502561 0.700326 0.984317
Si Si3 0.865515 0.976454 0.160211
Si Si4 0.950443 0.706398 0.036641
Si Si5 0.780167 0.041623 0.745368
Si Si6 0.362411 0.544817 0.278561
Si Si7 0.065220 0.925677 0.649260
Si Si8 0.652293 0.369541 0.926692
O O1 0.529731 0.086873 0.589274
O O2 0.312054 0.354534 0.339717
O O3 0.484401 0.347197 0.593580
O O4 0.142603 0.167636 0.410713
O O5 0.273672 0.798338 0.800604
O O6 0.500000 0.500000 0.000000
O O7 0.700479 0.836725 0.050147
O O8 0.517393 0.670499 0.097942
O O9 0.100480 0.972747 0.263994
O O10 0.871686 0.941940 0.270874
O O11 0.770150 0.178068 0.038348
O O12 0.082955 0.795617 0.169258
O O13 0.134987 0.643633 0.105853
O O14 0.811317 0.528151 0.016669
O O15 0.819416 0.862471 0.870180
O O16 0.448362 0.551762 0.238847
O O17 0.000000 0.000000 0.500000
#
# Coordination Sequence:
#
# PCOD9098291 Si02
#       8
#     2   2   2   2   2   2   2   2
#     4  10  24  40  62  97 143 174 213 266 357 391
#     4  11  26  47  72  98 128 179 235 287 326 396
#     4  11  24  44  72 100 132 177 235 275 330 401
#     4  10  20  36  64  95 129 175 221 273 331 380
#     4  10  22  40  64 101 139 171 215 283 328 401
#     4  10  20  37  63  94 130 179 218 275 323 409
#     4  11  26  45  70  97 139 184 219 274 341 409
#     4  11  21  37  69  96 128 171 235 276 325 396
#
# _framework density 21.309546000000001
#
# number of rings (size 3 to 8) (size 9 to 14) (size 15 to 20)
#    0.000    1.500    1.250    4.125    5.250    3.500 
#    2.250    0.625    0.000    0.000    0.000    0.000 
#    0.000    0.000    0.000    0.000    0.000    0.000 
#
# Total GULP energy -89278.921352 kJ/mol
# GULP energy per Si atom -5579.932584 kJ/mol
# Density = 2.126104 g / cm^3
# Si number density = 21.309546 Si / 1000 Ang^3
#
#
#
# Elastic Constant Matrix: (Units=GPa)
#
#
# Indices 1 2 3 4 5 6 
#
# 1 114.8355 19.9138 61.3102 0.0020 -4.9680 10.3704
# 2 19.9138 133.1550 48.4694 13.2540 14.1777 10.9924
# 3 61.3102 48.4694 97.9979 -0.7280 6.6438 0.8850
# 4 0.0020 13.2540 -0.7280 20.9240 5.1609 4.0581
# 5 -4.9680 14.1777 6.6438 5.1609 44.8028 2.7099
# 6 10.3704 10.9924 0.8850 4.0581 2.7099 31.3710
#
#
#
# Elastic Compliance Matrix: (Units=1/GPa)
#
#
# Indices 1 2 3 4 5 6 
#
# 1 0.014334 0.001715 -0.009979 -0.001167 0.002973 -0.005163
# 2 0.001715 0.010503 -0.006192 -0.005919 -0.001340 -0.003191
# 3 -0.009979 -0.006192 0.019695 0.004423 -0.002855 0.004587
# 4 -0.001167 -0.005919 0.004423 0.053703 -0.004845 -0.004194
# 5 0.002973 -0.001340 -0.002855 -0.004845 0.024170 -0.001894
# 6 -0.005163 -0.003191 0.004587 -0.004194 -0.001894 0.035278
#
#
# Mechanical properties :
#
#
# Convention : Reuss Voigt Hill
#
# Bulk Modulus (GPa) = 64.02500 67.26392 65.64446
# Shear Modulus (GPa) = 26.06868 33.83922 29.95395
#
# Velocity S-wave (km/s) = 3.50141 3.98928 3.75328
# Velocity P-wave (km/s) = 6.81593 7.26999 7.04662
#
# Compressibility (1/GPa) = 0.01561890
#
# Stress axis : x y z
#
# Youngs Moduli (GPa) = 69.76650 95.21347 50.77475
#
# Poissons Ratio (x) = -0.16326 0.50669
# Poissons Ratio (y) = -0.11963 0.31438
# Poissons Ratio (z) = 0.69621 0.58953
#
# Static dielectric constant tensor:
#      x y z
#    x 1.791590 -0.028690 -0.009720 
#    y -0.028690 1.832800 0.033210 
#    z -0.009720 0.033210 1.770730 
# 
# From -- ./inp_files/566577.got.cif
#   From: 2010.05.17/outbox.cif.g08.bks.cpg/sg2_284_cif.got.tgz:566577.got - 2010.06.03 11:33:40.
