data_PCOD9098352
_publ_section_title
;
Structure prediction by ZEFSAII (Michael W. Deem and Ramdas Pophale) SiO2 
 PCOD9098352
Probable space group: P -1
;
_chemical_formula_sum "Si O2"
_cell_formula_units_Z 16
_cell_length_a 8.844665
_cell_length_b 11.129932
_cell_length_c 15.114857
_cell_angle_alpha 140.507300
_cell_angle_beta 80.612739
_cell_angle_gamma 121.760711
_cell_volume 718.691405
_symmetry_space_group_name_H-M "P -1"
_symmetry_group_IT_number 2
_symmetry_cell_setting 'triclinic'
loop_
_space_group_symop_operation_xyz
x,y,z
-x,-y,-z
loop_
_atom_site_type_symbol
_atom_site_label
_atom_site_fract_x
_atom_site_fract_y
_atom_site_fract_z
Si Si1 0.391433 0.729402 0.319257
Si Si2 0.814758 0.408706 0.406644
Si Si3 0.126411 0.200772 0.499268
Si Si4 0.692492 0.516484 0.989681
Si Si5 0.591917 0.777947 0.626623
Si Si6 0.082898 0.990731 0.129571
Si Si7 0.719815 0.663561 0.257889
Si Si8 0.997461 0.712417 0.800913
O O1 0.522948 0.639995 0.268734
O O2 0.188703 0.550931 0.293160
O O3 0.500000 0.000000 0.500000
O O4 0.344164 0.680347 0.189669
O O5 0.864527 0.650370 0.497945
O O6 0.598817 0.240161 0.375324
O O7 0.000000 0.500000 0.500000
O O8 0.827061 0.271445 0.247613
O O9 0.268475 0.136863 0.423482
O O10 0.223868 0.375407 0.674463
O O11 0.903264 0.954236 0.392125
O O12 0.724392 0.519864 0.094284
O O13 0.881222 0.778356 0.080556
O O14 0.500000 0.500000 0.000000
O O15 0.500000 0.500000 0.500000
O O16 0.734962 0.930561 0.782411
O O17 0.081190 0.207531 0.222490
O O18 0.079134 0.885906 0.976276
#
# Coordination Sequence:
#
# PCOD9098352 Si02
#       8
#     2   2   2   2   2   2   2   2
#     4  10  21  37  64  95 136 171 215 269 329 391
#     4  11  24  38  61  93 129 166 218 272 332 387
#     4  10  21  38  62  92 125 170 215 269 322 395
#     4   9  19  38  64  97 125 173 214 268 320 390
#     4  10  21  37  62  88 128 166 206 269 322 393
#     4  10  20  40  67  92 130 166 222 266 329 401
#     4  10  20  36  65  89 126 171 223 258 318 397
#     4  10  22  38  64  96 128 169 213 276 326 386
#
# _framework density 22.262684
#
# number of rings (size 3 to 8) (size 9 to 14) (size 15 to 20)
#    0.000    2.000    1.250    2.250    5.250    0.500 
#    0.000    0.000    2.750    3.000    0.000    0.000 
#    0.000    0.000    0.000    0.000    0.000    0.000 
#
# Total GULP energy -89307.709125 kJ/mol
# GULP energy per Si atom -5581.731820 kJ/mol
# Density = 2.221201 g / cm^3
# Si number density = 22.262684 Si / 1000 Ang^3
#
#
#
# Elastic Constant Matrix: (Units=GPa)
#
#
# Indices 1 2 3 4 5 6 
#
# 1 88.8158 26.5669 20.4014 -10.2756 13.8882 21.1462
# 2 26.5669 45.0785 25.2001 -18.4671 5.5880 2.7212
# 3 20.4014 25.2001 121.4705 -24.9841 13.9727 -9.7663
# 4 -10.2756 -18.4671 -24.9841 38.9240 -4.0343 4.5097
# 5 13.8882 5.5880 13.9727 -4.0343 37.0603 -7.1383
# 6 21.1462 2.7212 -9.7663 4.5097 -7.1383 30.0235
#
#
#
# Elastic Compliance Matrix: (Units=1/GPa)
#
#
# Indices 1 2 3 4 5 6 
#
# 1 0.019068 -0.007914 -0.001613 0.001176 -0.008174 -0.015357
# 2 -0.007914 0.033442 -0.003252 0.011752 0.000392 -0.000187
# 3 -0.001613 -0.003252 0.010539 0.004178 -0.001686 0.003831
# 4 0.001176 0.011752 0.004178 0.034839 -0.001159 -0.006043
# 5 -0.008174 0.000392 -0.001686 -0.001159 0.033040 0.013203
# 6 -0.015357 -0.000187 0.003831 -0.006043 0.013203 0.049434
#
#
# Mechanical properties :
#
#
# Convention : Reuss Voigt Hill
#
# Bulk Modulus (GPa) = 26.67245 44.41129 35.54187
# Shear Modulus (GPa) = 22.89206 33.41464 28.15335
#
# Velocity S-wave (km/s) = 3.21014 3.87838 3.55998
# Velocity P-wave (km/s) = 5.07413 6.32834 5.73562
#
# Compressibility (1/GPa) = 0.03749188
#
# Stress axis : x y z
#
# Youngs Moduli (GPa) = 52.44463 29.90213 94.88368
#
# Poissons Ratio (x) = 0.23663 0.15309
# Poissons Ratio (y) = 0.41503 0.30854
# Poissons Ratio (z) = 0.08462 0.09723
#
# Static dielectric constant tensor:
#      x y z
#    x 1.863970 -0.011540 -0.026180 
#    y -0.011540 1.824330 -0.051100 
#    z -0.026180 -0.051100 1.882960 
# 
# From -- ./inp_files/499513.got.cif
#   From: 2010.05.17/outbox.cif.g08.bks.cpg/sg2_250_cif.got.tgz:499513.got - 2010.06.03 11:33:40.
