data_PCOD9098437
_publ_section_title
;
Structure prediction by ZEFSAII (Michael W. Deem and Ramdas Pophale) SiO2 
 PCOD9098437
Probable space group: P -1
;
_chemical_formula_sum "Si O2"
_cell_formula_units_Z 12
_cell_length_a 10.232034
_cell_length_b 16.634363
_cell_length_c 7.503879
_cell_angle_alpha 105.843964
_cell_angle_beta 97.397382
_cell_angle_gamma 30.450162
_cell_volume 607.603019
_symmetry_space_group_name_H-M "P -1"
_symmetry_group_IT_number 2
_symmetry_cell_setting 'triclinic'
loop_
_space_group_symop_operation_xyz
x,y,z
-x,-y,-z
loop_
_atom_site_type_symbol
_atom_site_label
_atom_site_fract_x
_atom_site_fract_y
_atom_site_fract_z
Si Si1 0.837337 0.996549 0.771899
Si Si2 0.328536 0.837036 0.772951
Si Si3 0.725484 0.881268 0.733401
Si Si4 0.141630 0.485844 0.211002
Si Si5 0.594098 0.790166 0.472406
Si Si6 0.186228 0.268072 0.998022
O O1 0.589006 0.138252 0.679891
O O2 0.905678 0.860394 0.699006
O O3 0.767672 0.064052 0.002509
O O4 0.079274 0.921898 0.710982
O O5 0.579378 0.639317 0.736855
O O6 0.450015 0.833853 0.648277
O O7 0.632044 0.867590 0.560392
O O8 0.862274 0.751086 0.834464
O O9 0.456976 0.075045 0.868423
O O10 0.212793 0.353533 0.073956
O O11 0.896112 0.600692 0.367363
O O12 0.035359 0.609771 0.120764
#
# Coordination Sequence:
#
# PCOD9098437 Si02
#       6
#     2   2   2   2   2   2
#     4  11  23  41  62  91 128 164 203 252 308 369
#     4  11  23  41  62  91 128 164 203 252 308 369
#     4  11  20  39  62  97 120 160 209 257 296 367
#     4  11  20  39  62  97 120 160 209 257 296 367
#     4  12  23  38  69  94 120 162 214 252 301 366
#     4  10  20  36  66  90 124 160 214 242 308 358
#
# _framework density 19.749735999999999
#
# number of rings (size 3 to 8) (size 9 to 14) (size 15 to 20)
#    0.000    1.000    5.000    3.500    0.000    0.000 
#    0.000    1.667    0.000    0.000    0.000    0.000 
#    0.000    0.000    0.000    0.000    0.000    0.000 
#
# Total GULP energy -66828.737890 kJ/mol
# GULP energy per Si atom -5569.061491 kJ/mol
# Density = 1.970478 g / cm^3
# Si number density = 19.749736 Si / 1000 Ang^3
#
#
#
# Elastic Constant Matrix: (Units=GPa)
#
#
# Indices 1 2 3 4 5 6 
#
# 1 93.2867 34.9380 36.3667 2.7010 14.3772 -18.4145
# 2 34.9380 100.9232 30.3978 -7.6617 0.3861 5.4462
# 3 36.3667 30.3978 81.7800 -3.5117 2.7173 -8.5150
# 4 2.7010 -7.6617 -3.5117 32.0927 4.1866 -4.1586
# 5 14.3772 0.3861 2.7173 4.1866 26.5079 -1.8264
# 6 -18.4145 5.4462 -8.5150 -4.1586 -1.8264 32.7415
#
#
#
# Elastic Compliance Matrix: (Units=1/GPa)
#
#
# Indices 1 2 3 4 5 6 
#
# 1 0.017553 -0.005181 -0.004722 -0.001007 -0.008187 0.008921
# 2 -0.005181 0.013097 -0.003115 0.002221 0.002209 -0.005497
# 3 -0.004722 -0.003115 0.015752 0.001546 0.000900 0.002205
# 4 -0.001007 0.002221 0.001546 0.032987 -0.004620 0.003398
# 5 -0.008187 0.002209 0.000900 -0.004620 0.042567 -0.002950
# 6 0.008921 -0.005497 0.002205 0.003398 -0.002950 0.037315
#
#
# Mechanical properties :
#
#
# Convention : Reuss Voigt Hill
#
# Bulk Modulus (GPa) = 49.10096 53.26611 51.18353
# Shear Modulus (GPa) = 26.02891 29.88757 27.95824
#
# Velocity S-wave (km/s) = 3.63428 3.89436 3.76656
# Velocity P-wave (km/s) = 6.52121 6.87389 6.69987
#
# Compressibility (1/GPa) = 0.02036620
#
# Stress axis : x y z
#
# Youngs Moduli (GPa) = 56.97119 76.35351 63.48529
#
# Poissons Ratio (x) = 0.39556 0.29979
# Poissons Ratio (y) = 0.29515 0.19774
# Poissons Ratio (z) = 0.26903 0.23782
#
# Static dielectric constant tensor:
#      x y z
#    x 1.720390 -0.016010 0.003240 
#    y -0.016010 1.759200 -0.065670 
#    z 0.003240 -0.065670 1.813660 
# 
# From -- ./inp_files/203176.got.cif
#   From: 2010.05.17/outbox.cif.g08.bks.cpg/sg2_102_cif.got.tgz:203176.got - 2010.06.03 11:33:40.
