data_PCOD9098269
_publ_section_title
;
Structure prediction by ZEFSAII (Michael W. Deem and Ramdas Pophale) SiO2 
 PCOD9098269
Probable space group: P -1
;
_chemical_formula_sum "Si O2"
_cell_formula_units_Z 16
_cell_length_a 8.387867
_cell_length_b 12.009858
_cell_length_c 10.055060
_cell_angle_alpha 124.806900
_cell_angle_beta 72.605338
_cell_angle_gamma 75.681218
_cell_volume 671.304117
_symmetry_space_group_name_H-M "P -1"
_symmetry_group_IT_number 2
_symmetry_cell_setting 'triclinic'
loop_
_space_group_symop_operation_xyz
x,y,z
-x,-y,-z
loop_
_atom_site_type_symbol
_atom_site_label
_atom_site_fract_x
_atom_site_fract_y
_atom_site_fract_z
Si Si1 0.676668 0.896224 0.051408
Si Si2 0.591820 0.658270 0.025602
Si Si3 0.019002 0.666605 0.326578
Si Si4 0.071182 0.853613 0.983478
Si Si5 0.654307 0.273456 0.602379
Si Si6 0.492136 0.572925 0.712264
Si Si7 0.938822 0.936458 0.345328
Si Si8 0.669435 0.753518 0.673548
O O1 0.889046 0.830262 0.015648
O O2 0.539053 0.088286 0.209118
O O3 0.567887 0.826422 0.113248
O O4 0.715207 0.820495 0.841846
O O5 0.822992 0.517183 0.876488
O O6 0.502123 0.617649 0.894202
O O7 0.481687 0.665968 0.192041
O O8 0.154360 0.713804 0.410106
O O9 0.837151 0.698296 0.483616
O O10 0.945733 0.781575 0.294046
O O11 0.276499 0.694755 0.792393
O O12 0.086724 0.899709 0.161997
O O13 0.000000 0.000000 0.000000
O O14 0.545581 0.391916 0.587984
O O15 0.733526 0.086597 0.445375
O O16 0.642376 0.610231 0.628679
O O17 0.000000 0.000000 0.500000
#
# Coordination Sequence:
#
# PCOD9098269 Si02
#       8
#     2   2   2   2   2   2   2   2
#     4  10  23  39  64  90 133 166 215 259 325 379
#     4  10  20  39  64  95 123 169 214 268 314 378
#     4  10  20  37  67  94 126 160 224 261 311 378
#     4  12  24  42  66  96 131 170 212 263 324 376
#     4  10  20  36  64  94 124 165 217 264 313 374
#     4  10  20  38  62  90 130 167 212 257 318 378
#     4  10  22  39  66  95 121 166 217 259 307 381
#     4  10  21  39  62  95 126 175 208 264 314 385
#
# _framework density 23.834202999999999
#
# number of rings (size 3 to 8) (size 9 to 14) (size 15 to 20)
#    0.000    1.750    1.250    4.500    3.500    4.500 
#    0.000    6.875    0.000    0.000    0.000    0.000 
#    0.000    0.000    0.000    0.000    0.000    0.000 
#
# Total GULP energy -89486.968819 kJ/mol
# GULP energy per Si atom -5592.935551 kJ/mol
# Density = 2.377995 g / cm^3
# Si number density = 23.834203 Si / 1000 Ang^3
#
#
#
# Elastic Constant Matrix: (Units=GPa)
#
#
# Indices 1 2 3 4 5 6 
#
# 1 46.8586 17.4534 20.6896 -3.0243 -13.2927 -13.6422
# 2 17.4534 189.2781 58.1868 0.8146 -17.1753 -10.6726
# 3 20.6896 58.1868 121.9810 -21.1679 -23.3163 -7.8903
# 4 -3.0243 0.8146 -21.1679 36.6333 -0.8223 -12.3136
# 5 -13.2927 -17.1753 -23.3163 -0.8223 36.9377 0.6232
# 6 -13.6422 -10.6726 -7.8903 -12.3136 0.6232 25.7428
#
#
#
# Elastic Compliance Matrix: (Units=1/GPa)
#
#
# Indices 1 2 3 4 5 6 
#
# 1 0.031368 -0.000847 0.000264 0.010026 0.010932 0.020884
# 2 -0.000847 0.006397 -0.003077 -0.001855 0.000680 0.000356
# 3 0.000264 -0.003077 0.013342 0.010600 0.007190 0.007850
# 4 0.010026 -0.001855 0.010600 0.044152 0.009936 0.028672
# 5 0.010932 0.000680 0.007190 0.009936 0.035878 0.012163
# 6 0.020884 0.000356 0.007850 0.028672 0.012163 0.065887
#
#
# Mechanical properties :
#
#
# Convention : Reuss Voigt Hill
#
# Bulk Modulus (GPa) = 22.83728 61.19748 42.01738
# Shear Modulus (GPa) = 22.83730 37.31530 30.07630
#
# Velocity S-wave (km/s) = 3.09880 3.96108 3.55617
# Velocity P-wave (km/s) = 4.73349 6.83025 5.87615
#
# Compressibility (1/GPa) = 0.04378806
#
# Stress axis : x y z
#
# Youngs Moduli (GPa) = 31.87950 156.32503 74.94919
#
# Poissons Ratio (x) = 0.13245 -0.01979
# Poissons Ratio (y) = 0.02701 0.23058
# Poissons Ratio (z) = -0.00842 0.48094
#
# Static dielectric constant tensor:
#      x y z
#    x 1.905380 -0.024550 0.044810 
#    y -0.024550 2.039360 -0.053800 
#    z 0.044810 -0.053800 2.020260 
# 
# From -- ./inp_files/189163.got.cif
#   From: 2010.05.17/outbox.cif.g08.bks.cpg/sg2_95_cif.got.tgz:189163.got - 2010.06.03 11:33:40.
