data_PCOD9098518
_publ_section_title
;
Structure prediction by ZEFSAII (Michael W. Deem and Ramdas Pophale) SiO2 
 PCOD9098518
Probable space group: P -1
;
_chemical_formula_sum "Si O2"
_cell_formula_units_Z 16
_cell_length_a 20.207325
_cell_length_b 10.294550
_cell_length_c 9.836980
_cell_angle_alpha 71.442813
_cell_angle_beta 36.676989
_cell_angle_gamma 43.823063
_cell_volume 657.562998
_symmetry_space_group_name_H-M "P -1"
_symmetry_group_IT_number 2
_symmetry_cell_setting 'triclinic'
loop_
_space_group_symop_operation_xyz
x,y,z
-x,-y,-z
loop_
_atom_site_type_symbol
_atom_site_label
_atom_site_fract_x
_atom_site_fract_y
_atom_site_fract_z
Si Si1 0.967895 0.356957 0.233001
Si Si2 0.485606 0.739185 0.289950
Si Si3 0.819328 0.244604 0.022070
Si Si4 0.941351 0.851166 0.122858
Si Si5 0.402806 0.228330 0.156997
Si Si6 0.585928 0.058014 0.372385
Si Si7 0.517847 0.329701 0.161998
Si Si8 0.166905 0.808368 0.435349
O O1 0.792138 0.623260 0.494302
O O2 0.918087 0.258932 0.414798
O O3 0.970345 0.342020 0.069753
O O4 0.185654 0.178617 0.963521
O O5 0.457276 0.864673 0.425743
O O6 0.263707 0.964560 0.524107
O O7 0.604461 0.488813 0.237505
O O8 0.623084 0.649648 0.972580
O O9 0.891649 0.278590 0.004517
O O10 0.982679 0.084982 0.689240
O O11 0.863674 0.054505 0.085224
O O12 0.510518 0.216839 0.095144
O O13 0.500000 0.000000 0.000000
O O14 0.508208 0.261611 0.341348
O O15 0.500000 0.000000 0.500000
O O16 0.327158 0.617622 0.354565
O O17 0.703073 0.240460 0.869443
#
# Coordination Sequence:
#
# PCOD9098518 Si02
#       8
#     2   2   2   2   2   2   2   2
#     4   9  22  44  67  95 134 177 227 275 344 410
#     4  11  24  41  63  99 132 171 227 282 335 393
#     4  10  20  36  67  98 138 168 222 269 343 412
#     4   9  20  40  61  98 137 175 209 272 348 409
#     4  11  24  46  66  95 135 181 230 282 337 400
#     4  11  25  46  66  98 132 183 235 282 330 408
#     4  10  22  42  71  94 143 177 223 277 349 411
#     4   9  20  41  64 107 130 180 213 279 350 416
#
# _framework density 24.332267999999999
#
# number of rings (size 3 to 8) (size 9 to 14) (size 15 to 20)
#    0.000    2.000    0.000    1.875    8.750    0.500 
#   22.500    5.000    0.000    0.000    0.000    0.000 
#    0.000    0.000    0.000    0.000    0.000    0.000 
#
# Total GULP energy -89381.155628 kJ/mol
# GULP energy per Si atom -5586.322227 kJ/mol
# Density = 2.427689 g / cm^3
# Si number density = 24.332268 Si / 1000 Ang^3
#
#
#
# Elastic Constant Matrix: (Units=GPa)
#
#
# Indices 1 2 3 4 5 6 
#
# 1 79.2089 15.0945 46.3518 5.4659 7.1325 10.4652
# 2 15.0945 56.4595 22.9353 1.2739 2.9645 -3.2013
# 3 46.3518 22.9353 171.5642 20.5889 -3.4616 12.1621
# 4 5.4659 1.2739 20.5889 44.5728 10.7690 6.9345
# 5 7.1325 2.9645 -3.4616 10.7690 38.3133 0.1771
# 6 10.4652 -3.2013 12.1621 6.9345 0.1771 26.4163
#
#
#
# Elastic Compliance Matrix: (Units=1/GPa)
#
#
# Indices 1 2 3 4 5 6 
#
# 1 0.016415 -0.002953 -0.003919 0.001601 -0.003606 -0.005453
# 2 -0.002953 0.019724 -0.002238 0.000456 -0.001327 0.004480
# 3 -0.003919 -0.002238 0.007751 -0.003440 0.002576 -0.001402
# 4 0.001601 0.000456 -0.003440 0.026703 -0.008122 -0.005950
# 5 -0.003606 -0.001327 0.002576 -0.008122 0.029381 0.002017
# 6 -0.005453 0.004480 -0.001402 -0.005950 0.002017 0.042752
#
#
# Mechanical properties :
#
#
# Convention : Reuss Voigt Hill
#
# Bulk Modulus (GPa) = 38.95433 52.88843 45.92138
# Shear Modulus (GPa) = 29.49813 36.71722 33.10767
#
# Velocity S-wave (km/s) = 3.48559 3.88879 3.69270
# Velocity P-wave (km/s) = 5.67831 6.47663 6.09056
#
# Compressibility (1/GPa) = 0.02567108
#
# Stress axis : x y z
#
# Youngs Moduli (GPa) = 60.91864 50.70009 129.01947
#
# Poissons Ratio (x) = 0.14971 0.50557
# Poissons Ratio (y) = 0.17988 0.28875
# Poissons Ratio (z) = 0.23871 0.11347
#
# Static dielectric constant tensor:
#      x y z
#    x 1.984580 0.035530 0.002600 
#    y 0.035530 2.004470 0.017830 
#    z 0.002600 0.017830 1.988120 
# 
# From -- ./inp_files/346075.got.cif
#   From: 2010.05.17/outbox.cif.g08.bks.cpg/sg2_174_cif.got.tgz:346075.got - 2010.06.03 11:33:40.
