data_PCOD9098433
_publ_section_title
;
Structure prediction by ZEFSAII (Michael W. Deem and Ramdas Pophale) SiO2 
 PCOD9098433
Probable space group: P -1
;
_chemical_formula_sum "Si O2"
_cell_formula_units_Z 16
_cell_length_a 6.362113
_cell_length_b 15.015829
_cell_length_c 14.278856
_cell_angle_alpha 142.938814
_cell_angle_beta 79.737772
_cell_angle_gamma 111.341320
_cell_volume 750.256157
_symmetry_space_group_name_H-M "P -1"
_symmetry_group_IT_number 2
_symmetry_cell_setting 'triclinic'
loop_
_space_group_symop_operation_xyz
x,y,z
-x,-y,-z
loop_
_atom_site_type_symbol
_atom_site_label
_atom_site_fract_x
_atom_site_fract_y
_atom_site_fract_z
Si Si1 0.689550 0.347597 0.035617
Si Si2 0.196029 0.401655 0.628673
Si Si3 0.506055 0.916255 0.526900
Si Si4 0.935573 0.269660 0.344788
Si Si5 0.968111 0.151179 0.775463
Si Si6 0.241710 0.039540 0.804398
Si Si7 0.648352 0.479366 0.557394
Si Si8 0.687706 0.675130 0.264614
O O1 0.861347 0.284753 0.915279
O O2 0.457519 0.197324 0.945617
O O3 0.810627 0.434082 0.194174
O O4 0.631108 0.486031 0.102082
O O5 0.468747 0.442189 0.624390
O O6 0.137298 0.288099 0.628695
O O7 0.060572 0.336152 0.490611
O O8 0.337560 0.946595 0.641363
O O9 0.483856 0.736216 0.356700
O O10 0.500000 0.000000 0.500000
O O11 0.762076 0.006993 0.623699
O O12 0.852948 0.081399 0.203606
O O13 0.729041 0.333387 0.409728
O O14 0.121052 0.361740 0.328249
O O15 0.182287 0.226874 0.752669
O O16 0.051240 0.089792 0.810635
O O17 0.500000 0.500000 0.500000
#
# Coordination Sequence:
#
# PCOD9098433 Si02
#       8
#     2   2   2   2   2   2   2   2
#     4   9  24  39  54  85 125 161 196 238 294 344
#     4   9  20  37  58  87 115 150 197 239 283 348
#     4  11  22  35  55  85 113 151 205 253 283 332
#     4  10  20  36  66  89 113 151 192 240 300 349
#     4  11  22  39  55  83 125 159 205 238 288 345
#     4  11  23  39  58  88 123 157 193 246 297 342
#     4   9  19  38  62  94 115 140 193 248 294 348
#     4  10  20  39  58  81 119 161 200 244 284 338
#
# _framework density 21.326049000000001
#
# number of rings (size 3 to 8) (size 9 to 14) (size 15 to 20)
#    0.750    1.250    1.250    2.250    1.750    4.500 
#    2.250    0.625    0.000    7.500    0.000    0.000 
#    0.000    0.000    0.000    0.000    0.000    0.000 
#
# Total GULP energy -89231.397778 kJ/mol
# GULP energy per Si atom -5576.962361 kJ/mol
# Density = 2.127751 g / cm^3
# Si number density = 21.326049 Si / 1000 Ang^3
#
#
#
# Elastic Constant Matrix: (Units=GPa)
#
#
# Indices 1 2 3 4 5 6 
#
# 1 51.5909 2.6260 24.7078 9.0462 -17.7058 -19.2570
# 2 2.6260 55.2146 2.1779 25.8936 -5.1019 -10.2847
# 3 24.7078 2.1779 63.9030 21.7196 -22.1931 5.9609
# 4 9.0462 25.8936 21.7196 23.5398 -8.4394 -7.3968
# 5 -17.7058 -5.1019 -22.1931 -8.4394 32.0912 6.6830
# 6 -19.2570 -10.2847 5.9609 -7.3968 6.6830 27.9308
#
#
#
# Elastic Compliance Matrix: (Units=1/GPa)
#
#
# Indices 1 2 3 4 5 6 
#
# 1 0.050088 -0.016146 -0.042060 0.053336 -0.000797 0.051880
# 2 -0.016146 0.075525 0.058847 -0.136956 0.015233 -0.035795
# 3 -0.042060 0.058847 0.100206 -0.154106 0.030942 -0.076930
# 4 0.053336 -0.136956 -0.154106 0.339463 -0.034072 0.117283
# 5 -0.000797 0.015233 0.030942 -0.034072 0.050288 -0.022599
# 6 0.051880 -0.035795 -0.076930 0.117283 -0.022599 0.111276
#
#
# Mechanical properties :
#
#
# Convention : Reuss Voigt Hill
#
# Bulk Modulus (GPa) = 4.40333 25.52576 14.96454
# Shear Modulus (GPa) = 6.24014 26.12546 16.18280
#
# Velocity S-wave (km/s) = 1.71243 3.50387 2.75767
# Velocity P-wave (km/s) = 2.44523 5.32585 4.14390
#
# Compressibility (1/GPa) = 0.22710101
#
# Stress axis : x y z
#
# Youngs Moduli (GPa) = 19.96501 13.24059 9.97948
#
# Poissons Ratio (x) = 0.21378 0.41974
# Poissons Ratio (y) = 0.32236 -0.58727
# Poissons Ratio (z) = 0.83973 -0.77917
#
# Static dielectric constant tensor:
#      x y z
#    x 1.773950 0.025340 -0.008730 
#    y 0.025340 1.808180 0.005700 
#    z -0.008730 0.005700 1.819230 
# 
# From -- ./inp_files/339654.got.cif
#   From: 2010.05.17/outbox.cif.g08.bks.cpg/sg2_170_cif.got.tgz:339654.got - 2010.06.03 11:33:40.
