data_PCOD9098789
_publ_section_title
;
Structure prediction by ZEFSAII (Michael W. Deem and Ramdas Pophale) SiO2 
 PCOD9098789
Probable space group: P -1
;
_chemical_formula_sum "Si O2"
_cell_formula_units_Z 16
_cell_length_a 9.786603
_cell_length_b 19.816793
_cell_length_c 12.122854
_cell_angle_alpha 141.099608
_cell_angle_beta 143.421095
_cell_angle_gamma 65.470277
_cell_volume 728.583878
_symmetry_space_group_name_H-M "P -1"
_symmetry_group_IT_number 2
_symmetry_cell_setting 'triclinic'
loop_
_space_group_symop_operation_xyz
x,y,z
-x,-y,-z
loop_
_atom_site_type_symbol
_atom_site_label
_atom_site_fract_x
_atom_site_fract_y
_atom_site_fract_z
Si Si1 0.255340 0.442479 0.679321
Si Si2 0.595152 0.219626 0.527105
Si Si3 0.586277 0.053743 0.480526
Si Si4 0.031537 0.501133 0.272904
Si Si5 0.933351 0.840107 0.761678
Si Si6 0.920382 0.360528 0.726359
Si Si7 0.388312 0.155141 0.651250
Si Si8 0.524935 0.607755 0.856628
O O1 0.087299 0.290750 0.394411
O O2 0.396205 0.493568 0.718590
O O3 0.078389 0.496506 0.674433
O O4 0.500000 0.500000 0.000000
O O5 0.673247 0.125106 0.510411
O O6 0.289239 0.167637 0.306793
O O7 0.644195 0.248083 0.465152
O O8 0.810536 0.361524 0.901354
O O9 0.617232 0.157845 0.723449
O O10 0.706491 0.973006 0.500030
O O11 0.251538 0.953699 0.129056
O O12 0.063710 0.615518 0.363252
O O13 0.341816 0.544310 0.548819
O O14 0.823326 0.845563 0.575247
O O15 0.000000 0.500000 0.000000
O O16 0.159816 0.342023 0.892626
O O17 0.484517 0.275839 0.947336
#
# Coordination Sequence:
#
# PCOD9098789 Si02
#       8
#     2   2   2   2   2   2   2   2
#     4  12  18  35  61  92 119 146 182 242 307 350
#     4  10  20  38  59  81 118 155 199 241 280 350
#     4  10  22  38  59  87 115 156 197 238 291 344
#     4  11  22  37  59  92 119 148 192 242 304 356
#     4  11  20  37  61  86 117 152 190 241 299 347
#     4  10  22  41  59  83 121 156 195 246 293 349
#     4  10  20  37  57  85 119 146 191 244 286 345
#     4  12  23  37  61  89 120 155 188 244 308 348
#
# _framework density 21.960408999999999
#
# number of rings (size 3 to 8) (size 9 to 14) (size 15 to 20)
#    0.000    1.250    3.750    4.125    0.000    5.000 
#    0.000    8.125    0.000    9.000    0.000    0.000 
#    0.000    0.000    0.000    0.000    0.000    0.000 
#
# Total GULP energy -89286.891612 kJ/mol
# GULP energy per Si atom -5580.430726 kJ/mol
# Density = 2.191043 g / cm^3
# Si number density = 21.960409 Si / 1000 Ang^3
#
#
#
# Elastic Constant Matrix: (Units=GPa)
#
#
# Indices 1 2 3 4 5 6 
#
# 1 49.7698 9.0456 12.0914 9.9762 15.5098 3.6197
# 2 9.0456 92.8767 22.2555 15.6685 14.4701 4.7602
# 3 12.0914 22.2555 73.4894 -0.4874 8.6760 -4.3083
# 4 9.9762 15.6685 -0.4874 44.6643 -2.9862 2.1080
# 5 15.5098 14.4701 8.6760 -2.9862 18.8701 14.6183
# 6 3.6197 4.7602 -4.3083 2.1080 14.6183 31.8237
#
#
#
# Elastic Compliance Matrix: (Units=1/GPa)
#
#
# Indices 1 2 3 4 5 6 
#
# 1 0.037186 0.006309 -0.000692 -0.015019 -0.053016 0.020081
# 2 0.006309 0.015502 -0.002550 -0.008822 -0.023487 0.007992
# 3 -0.000692 -0.002550 0.016216 0.000145 -0.010802 0.007608
# 4 -0.015019 -0.008822 0.000145 0.032012 0.036313 -0.015753
# 5 -0.053016 -0.023487 -0.010802 0.036313 0.187683 -0.080537
# 6 0.020081 0.007992 0.007608 -0.015753 -0.080537 0.067012
#
#
# Mechanical properties :
#
#
# Convention : Reuss Voigt Hill
#
# Bulk Modulus (GPa) = 13.32687 33.65788 23.49237
# Shear Modulus (GPa) = 13.35158 30.58786 21.96972
#
# Velocity S-wave (km/s) = 2.46841 3.73616 3.16638
# Velocity P-wave (km/s) = 3.76906 5.82853 4.90803
#
# Compressibility (1/GPa) = 0.07503640
#
# Stress axis : x y z
#
# Youngs Moduli (GPa) = 26.89216 64.50974 61.66881
#
# Poissons Ratio (x) = -0.40696 0.04268
# Poissons Ratio (y) = -0.16965 0.15723
# Poissons Ratio (z) = 0.01861 0.16447
#
# Static dielectric constant tensor:
#      x y z
#    x 1.926680 -0.035380 -0.025460 
#    y -0.035380 1.918620 -0.051690 
#    z -0.025460 -0.051690 1.863420 
# 
# From -- ./inp_files/405627.got.cif
#   From: 2010.05.17/outbox.cif.g08.bks.cpg/sg2_203_cif.got.tgz:405627.got - 2010.06.03 11:33:40.
