data_PCOD9098864
_publ_section_title
;
Structure prediction by ZEFSAII (Michael W. Deem and Ramdas Pophale) SiO2 
 PCOD9098864
Probable space group: P -1
;
_chemical_formula_sum "Si O2"
_cell_formula_units_Z 16
_cell_length_a 7.230328
_cell_length_b 8.624676
_cell_length_c 16.580569
_cell_angle_alpha 73.806551
_cell_angle_beta 54.356129
_cell_angle_gamma 52.518559
_cell_volume 662.164916
_symmetry_space_group_name_H-M "P -1"
_symmetry_group_IT_number 2
_symmetry_cell_setting 'triclinic'
loop_
_space_group_symop_operation_xyz
x,y,z
-x,-y,-z
loop_
_atom_site_type_symbol
_atom_site_label
_atom_site_fract_x
_atom_site_fract_y
_atom_site_fract_z
Si Si1 0.726783 0.721278 0.533659
Si Si2 0.409162 0.619023 0.744900
Si Si3 0.643234 0.208013 0.707395
Si Si4 0.847247 0.672764 0.899785
Si Si5 0.819668 0.767777 0.072419
Si Si6 0.387907 0.866612 0.851884
Si Si7 0.164100 0.157804 0.361774
Si Si8 0.336344 0.409871 0.589770
O O1 0.492180 0.720064 0.644026
O O2 0.812915 0.841861 0.547213
O O3 0.654656 0.739479 0.455395
O O4 0.000000 0.500000 0.500000
O O5 0.657131 0.385654 0.710874
O O6 0.362663 0.711277 0.832327
O O7 0.117673 0.650194 0.796583
O O8 0.462898 0.193858 0.824430
O O9 0.469806 0.301439 0.654913
O O10 0.891188 0.990134 0.646589
O O11 0.596445 0.768766 0.887966
O O12 0.942297 0.454812 0.932484
O O13 0.785316 0.787826 0.982640
O O14 0.860961 0.921795 0.083308
O O15 0.538748 0.915603 0.738956
O O16 0.967576 0.387692 0.354601
O O17 0.500000 0.500000 0.500000
#
# Coordination Sequence:
#
# PCOD9098864 Si02
#       8
#     2   2   2   2   2   2   2   2
#     4   9  19  36  55  83 115 145 191 239 284 336
#     4  10  20  37  60  87 115 153 197 240 282 349
#     4  10  20  37  58  80 117 145 189 233 284 339
#     4  10  20  38  63  83 119 156 190 238 294 337
#     4   9  20  38  58  89 119 150 192 243 284 346
#     4  10  20  37  61  84 119 155 191 234 294 341
#     4   9  20  36  56  80 113 149 180 237 286 329
#     4  11  20  34  59  80 108 147 189 229 282 339
#
# _framework density 24.163163999999998
#
# number of rings (size 3 to 8) (size 9 to 14) (size 15 to 20)
#    0.000    2.250    1.250    1.875    0.000    1.500 
#    0.000   10.625    5.500    0.000    0.000    0.000 
#    0.000    0.000    0.000    0.000    0.000    0.000 
#
# Total GULP energy -89275.827047 kJ/mol
# GULP energy per Si atom -5579.739190 kJ/mol
# Density = 2.410817 g / cm^3
# Si number density = 24.163164 Si / 1000 Ang^3
#
#
#
# Elastic Constant Matrix: (Units=GPa)
#
#
# Indices 1 2 3 4 5 6 
#
# 1 50.5942 20.2127 31.5072 1.3665 25.7949 6.5666
# 2 20.2127 99.0317 23.2803 29.0678 24.0651 5.7709
# 3 31.5072 23.2803 111.2291 8.5932 29.9986 9.9260
# 4 1.3665 29.0678 8.5932 42.6251 22.0831 11.3009
# 5 25.7949 24.0651 29.9986 22.0831 49.4014 4.6850
# 6 6.5666 5.7709 9.9260 11.3009 4.6850 30.1575
#
#
#
# Elastic Compliance Matrix: (Units=1/GPa)
#
#
# Indices 1 2 3 4 5 6 
#
# 1 0.035006 -0.005638 -0.004007 0.015703 -0.019349 -0.008103
# 2 -0.005638 0.014171 -0.001111 -0.010583 0.001193 0.002662
# 3 -0.004007 -0.001111 0.011842 0.001883 -0.005141 -0.002719
# 4 0.015703 -0.010583 0.001883 0.045992 -0.023264 -0.015634
# 5 -0.019349 0.001193 -0.005141 -0.023264 0.042547 0.007785
# 6 -0.008103 0.002662 -0.002719 -0.015634 0.007785 0.039959
#
#
# Mechanical properties :
#
#
# Convention : Reuss Voigt Hill
#
# Bulk Modulus (GPa) = 25.31229 45.65061 35.48145
# Shear Modulus (GPa) = 22.30192 36.82711 29.56452
#
# Velocity S-wave (km/s) = 3.04134 3.90821 3.50170
# Velocity P-wave (km/s) = 4.77821 6.26890 5.57362
#
# Compressibility (1/GPa) = 0.03950650
#
# Stress axis : x y z
#
# Youngs Moduli (GPa) = 28.56690 70.56792 84.44601
#
# Poissons Ratio (x) = 0.39784 0.33841
# Poissons Ratio (y) = 0.16105 0.09380
# Poissons Ratio (z) = 0.11448 0.07839
#
# Static dielectric constant tensor:
#      x y z
#    x 2.016350 0.061220 -0.026230 
#    y 0.061220 2.080130 0.066040 
#    z -0.026230 0.066040 1.939640 
# 
# From -- ./inp_files/555260.got.cif
#   From: 2010.05.17/outbox.cif.g08.bks.cpg/sg2_278_cif.got.tgz:555260.got - 2010.06.03 11:33:40.
