data_PCOD9098227
_publ_section_title
;
Structure prediction by ZEFSAII (Michael W. Deem and Ramdas Pophale) SiO2 
 PCOD9098227
Probable space group: P -1
;
_chemical_formula_sum "Si O2"
_cell_formula_units_Z 16
_cell_length_a 21.036646
_cell_length_b 18.139840
_cell_length_c 8.096708
_cell_angle_alpha 41.477667
_cell_angle_beta 127.682301
_cell_angle_gamma 158.226368
_cell_volume 712.806859
_symmetry_space_group_name_H-M "P -1"
_symmetry_group_IT_number 2
_symmetry_cell_setting 'triclinic'
loop_
_space_group_symop_operation_xyz
x,y,z
-x,-y,-z
loop_
_atom_site_type_symbol
_atom_site_label
_atom_site_fract_x
_atom_site_fract_y
_atom_site_fract_z
Si Si1 0.344049 0.146082 0.871205
Si Si2 0.962219 0.172857 0.556278
Si Si3 0.206819 0.154125 0.879194
Si Si4 0.467281 0.092684 0.989414
Si Si5 0.839642 0.674608 0.681937
Si Si6 0.620812 0.696362 0.687218
Si Si7 0.651196 0.296414 0.593323
Si Si8 0.302225 0.447777 0.017961
O O1 0.212409 0.052512 0.938869
O O2 0.321331 0.996444 0.000000
O O3 0.380144 0.267555 0.566447
O O4 0.521023 0.350600 0.923857
O O5 0.009941 0.198944 0.400114
O O6 0.142560 0.464682 0.407982
O O7 0.748462 0.940589 0.584444
O O8 0.945149 0.059539 0.865336
O O9 0.194282 0.253305 0.592624
O O10 0.405732 0.413125 0.849906
O O11 0.662819 0.374477 0.897472
O O12 0.512297 0.154668 0.760122
O O13 0.414972 0.900695 0.260963
O O14 0.860536 0.727914 0.817767
O O15 0.719154 0.699143 0.847669
O O16 0.661197 0.409560 0.291489
#
# Coordination Sequence:
#
# PCOD9098227 Si02
#       8
#     2   2   2   2   2   2   2   2
#     4  10  20  39  63  89 118 162 204 243 303 364
#     4  11  26  35  57  92 129 161 198 252 296 359
#     4  11  20  39  59  91 124 155 204 241 308 365
#     4   9  20  41  67  83 121 161 203 253 292 360
#     4  10  20  38  62  90 121 154 201 256 300 348
#     4  11  21  37  60  89 127 161 192 245 312 366
#     4  10  23  41  59  94 121 157 208 250 296 350
#     4  10  20  36  64  91 119 157 201 253 297 362
#
# _framework density 22.446473000000001
#
# number of rings (size 3 to 8) (size 9 to 14) (size 15 to 20)
#    0.000    1.750    3.750    1.500    5.250    5.500 
#    0.000    1.250    0.000    3.000    0.000    0.000 
#    0.000    0.000    0.000    0.000    0.000    0.000 
#
# Total GULP energy -89186.254558 kJ/mol
# GULP energy per Si atom -5574.140910 kJ/mol
# Density = 2.239538 g / cm^3
# Si number density = 22.446473 Si / 1000 Ang^3
#
#
#
# Elastic Constant Matrix: (Units=GPa)
#
#
# Indices 1 2 3 4 5 6 
#
# 1 76.7021 20.7478 6.6369 -0.0227 4.6180 -14.5390
# 2 20.7478 75.6057 35.8462 -8.2462 19.2816 -0.1104
# 3 6.6369 35.8462 79.6121 -1.8976 5.4384 -8.6522
# 4 -0.0227 -8.2462 -1.8976 19.5251 -6.3522 -0.3543
# 5 4.6180 19.2816 5.4384 -6.3522 35.6876 -2.5429
# 6 -14.5390 -0.1104 -8.6522 -0.3543 -2.5429 23.9312
#
#
#
# Elastic Compliance Matrix: (Units=1/GPa)
#
#
# Indices 1 2 3 4 5 6 
#
# 1 0.016514 -0.006224 0.002491 -0.001737 0.001322 0.011020
# 2 -0.006224 0.022551 -0.009741 0.005323 -0.009526 -0.008132
# 3 0.002491 -0.009741 0.017398 -0.001427 0.002606 0.008015
# 4 -0.001737 0.005323 -0.001427 0.055764 0.007497 0.000075
# 5 0.001322 -0.009526 0.002606 0.007497 0.034323 0.005460
# 6 0.011020 -0.008132 0.008015 0.000075 0.005460 0.051923
#
#
# Mechanical properties :
#
#
# Convention : Reuss Voigt Hill
#
# Bulk Modulus (GPa) = 33.87909 39.82019 36.84964
# Shear Modulus (GPa) = 21.25319 27.07472 24.16395
#
# Velocity S-wave (km/s) = 3.08041 3.47679 3.28459
# Velocity P-wave (km/s) = 5.27048 5.82203 5.55311
#
# Compressibility (1/GPa) = 0.02951673
#
# Stress axis : x y z
#
# Youngs Moduli (GPa) = 60.55462 44.34377 57.47696
#
# Poissons Ratio (x) = 0.27597 -0.14320
# Poissons Ratio (y) = 0.37686 0.55990
# Poissons Ratio (z) = -0.15087 0.43196
#
# Static dielectric constant tensor:
#      x y z
#    x 1.935540 0.003730 -0.032020 
#    y 0.003730 1.904500 0.020730 
#    z -0.032020 0.020730 1.793630 
# 
# From -- ./inp_files/355259.got.cif
#   From: 2010.05.17/outbox.cif.g08.bks.cpg/sg2_178_cif.got.tgz:355259.got - 2010.06.03 11:33:40.
