data_PCOD9098766
_publ_section_title
;
Structure prediction by ZEFSAII (Michael W. Deem and Ramdas Pophale) SiO2 
 PCOD9098766
Probable space group: P -1
;
_chemical_formula_sum "Si O2"
_cell_formula_units_Z 16
_cell_length_a 11.831297
_cell_length_b 9.320761
_cell_length_c 11.451177
_cell_angle_alpha 68.531164
_cell_angle_beta 97.179052
_cell_angle_gamma 136.527488
_cell_volume 788.787184
_symmetry_space_group_name_H-M "P -1"
_symmetry_group_IT_number 2
_symmetry_cell_setting 'triclinic'
loop_
_space_group_symop_operation_xyz
x,y,z
-x,-y,-z
loop_
_atom_site_type_symbol
_atom_site_label
_atom_site_fract_x
_atom_site_fract_y
_atom_site_fract_z
Si Si1 0.083386 0.286213 0.544593
Si Si2 0.725060 0.227871 0.558634
Si Si3 0.961201 0.818126 0.155648
Si Si4 0.349636 0.931922 0.660831
Si Si5 0.676503 0.386931 0.092255
Si Si6 0.867771 0.758275 0.835551
Si Si7 0.298221 0.091114 0.185506
Si Si8 0.147395 0.025247 0.596049
O O1 0.141790 0.515534 0.455080
O O2 0.063618 0.256440 0.689516
O O3 0.919538 0.081799 0.509162
O O4 0.202945 0.258794 0.538816
O O5 0.740151 0.218804 0.424368
O O6 0.544504 0.124506 0.592964
O O7 0.723270 0.065059 0.675290
O O8 0.795607 0.602591 0.131738
O O9 0.001617 0.041096 0.109672
O O10 0.143999 0.923019 0.122950
O O11 0.322766 0.785180 0.806335
O O12 0.281960 0.033641 0.648190
O O13 0.485573 0.258877 0.109783
O O14 0.766999 0.511704 0.943933
O O15 0.736844 0.772129 0.807813
O O16 0.982693 0.845935 0.712058
#
# Coordination Sequence:
#
# PCOD9098766 Si02
#       8
#     2   2   2   2   2   2   2   2
#     4  10  20  37  57  82 120 149 188 236 289 350
#     4  10  20  37  57  89 113 143 198 242 288 335
#     4   9  19  34  56  90 106 149 192 237 284 332
#     4  10  22  34  59  86 115 148 191 245 285 343
#     4  11  19  37  60  85 115 151 194 242 286 329
#     4   9  21  38  54  82 119 155 191 229 289 349
#     4   9  21  34  59  86 114 146 192 248 277 334
#     4  10  22  37  54  85 117 159 186 226 299 352
#
# _framework density 20.284305
#
# number of rings (size 3 to 8) (size 9 to 14) (size 15 to 20)
#    0.750    1.500    1.250    1.500    3.500    2.000 
#    0.000    2.500    0.000    1.500    0.000    0.000 
#    0.000    0.000    0.000    0.000    0.000    0.000 
#
# Total GULP energy -89079.553978 kJ/mol
# GULP energy per Si atom -5567.472124 kJ/mol
# Density = 2.023814 g / cm^3
# Si number density = 20.284305 Si / 1000 Ang^3
#
#
#
# Elastic Constant Matrix: (Units=GPa)
#
#
# Indices 1 2 3 4 5 6 
#
# 1 115.2503 8.5566 17.9356 -1.4106 18.0010 -0.6189
# 2 8.5566 47.4233 -3.2464 -1.7852 -2.1114 14.7419
# 3 17.9356 -3.2464 64.9942 -12.8340 4.3492 -4.1337
# 4 -1.4106 -1.7852 -12.8340 19.0343 -1.8125 6.2381
# 5 18.0010 -2.1114 4.3492 -1.8125 23.7398 -0.4857
# 6 -0.6189 14.7419 -4.1337 6.2381 -0.4857 18.2929
#
#
#
# Elastic Compliance Matrix: (Units=1/GPa)
#
#
# Indices 1 2 3 4 5 6 
#
# 1 0.010673 -0.003799 -0.003075 -0.003637 -0.008069 0.003754
# 2 -0.003799 0.032369 0.003425 0.015642 0.005700 -0.030623
# 3 -0.003075 0.003425 0.018942 0.013977 0.000164 -0.003346
# 4 -0.003637 0.015642 0.013977 0.075281 0.006619 -0.035067
# 5 -0.008069 0.005700 0.000164 0.006619 0.049105 -0.005783
# 6 0.003754 -0.030623 -0.003346 -0.035067 -0.005783 0.090520
#
#
# Mechanical properties :
#
#
# Convention : Reuss Voigt Hill
#
# Bulk Modulus (GPa) = 18.15365 30.46217 24.30791
# Shear Modulus (GPa) = 16.54807 25.84152 21.19480
#
# Velocity S-wave (km/s) = 2.85933 3.57314 3.23598
# Velocity P-wave (km/s) = 4.45759 5.66333 5.09624
#
# Compressibility (1/GPa) = 0.05508534
#
# Stress axis : x y z
#
# Youngs Moduli (GPa) = 93.69237 30.89415 52.79362
#
# Poissons Ratio (x) = 0.11738 0.16232
# Poissons Ratio (y) = 0.35598 -0.18082
# Poissons Ratio (z) = 0.28807 -0.10581
#
# Static dielectric constant tensor:
#      x y z
#    x 1.752030 0.009450 0.017740 
#    y 0.009450 1.729330 -0.002600 
#    z 0.017740 -0.002600 1.817650 
# 
# From -- ./inp_files/419187.got.cif
#   From: 2010.05.17/outbox.cif.g08.bks.cpg/sg2_210_cif.got.tgz:419187.got - 2010.06.03 11:33:40.
