data_PCOD9098860
_publ_section_title
;
Structure prediction by ZEFSAII (Michael W. Deem and Ramdas Pophale) SiO2 
 PCOD9098860
Probable space group: P -1
;
_chemical_formula_sum "Si O2"
_cell_formula_units_Z 16
_cell_length_a 7.925075
_cell_length_b 8.017969
_cell_length_c 16.729039
_cell_angle_alpha 83.815001
_cell_angle_beta 82.624179
_cell_angle_gamma 36.913173
_cell_volume 633.144110
_symmetry_space_group_name_H-M "P -1"
_symmetry_group_IT_number 2
_symmetry_cell_setting 'triclinic'
loop_
_space_group_symop_operation_xyz
x,y,z
-x,-y,-z
loop_
_atom_site_type_symbol
_atom_site_label
_atom_site_fract_x
_atom_site_fract_y
_atom_site_fract_z
Si Si1 0.476129 0.327847 0.786074
Si Si2 0.931734 0.708348 0.050138
Si Si3 0.197838 0.199675 0.470734
Si Si4 0.724694 0.343165 0.065845
Si Si5 0.696106 0.515539 0.698464
Si Si6 0.165646 0.977157 0.612627
Si Si7 0.523887 0.782842 0.852829
Si Si8 0.058663 0.208000 0.305280
O O1 0.375001 0.436745 0.876723
O O2 0.597875 0.414854 0.747997
O O3 0.212213 0.498071 0.735433
O O4 0.719361 0.006197 0.767173
O O5 0.186425 0.500767 0.108617
O O6 0.984468 0.827505 0.982969
O O7 0.635504 0.948030 0.101716
O O8 0.000000 0.500000 0.000000
O O9 0.176783 0.206064 0.376437
O O10 0.000000 0.500000 0.500000
O O11 0.112942 0.088971 0.522048
O O12 0.500000 0.000000 0.500000
O O13 0.710635 0.181584 0.124320
O O14 0.500000 0.500000 0.000000
O O15 0.014107 0.233241 0.666605
O O16 0.613237 0.717885 0.758994
O O17 0.495508 0.702639 0.625449
O O18 0.037120 0.899172 0.648505
#
# Coordination Sequence:
#
# PCOD9098860 Si02
#       8
#     2   2   2   2   2   2   2   2
#     4   9  19  35  60  89 115 145 193 245 288 334
#     4  11  22  36  53  80 115 151 190 234 282 339
#     4  12  25  41  60  87 121 155 191 237 288 343
#     4   9  20  37  61  87 114 153 196 238 286 343
#     4   9  18  34  60  88 109 139 191 243 282 331
#     4  10  20  38  62  86 111 147 191 233 280 340
#     4  10  20  37  58  80 110 148 189 236 286 338
#     4  10  21  40  62  85 115 152 194 240 286 342
#
# _framework density 25.270707000000002
#
# number of rings (size 3 to 8) (size 9 to 14) (size 15 to 20)
#    0.000    2.000    0.000    3.375    0.000    8.000 
#    0.000   12.500    0.000    0.000    0.000    0.000 
#    0.000    0.000    0.000    0.000    0.000    0.000 
#
# Total GULP energy -89536.985118 kJ/mol
# GULP energy per Si atom -5596.061570 kJ/mol
# Density = 2.521319 g / cm^3
# Si number density = 25.270707 Si / 1000 Ang^3
#
#
#
# Elastic Constant Matrix: (Units=GPa)
#
#
# Indices 1 2 3 4 5 6 
#
# 1 61.1898 6.4591 21.8312 -1.0169 -2.3724 9.4987
# 2 6.4591 105.6446 -4.6332 10.1598 2.7184 -14.1941
# 3 21.8312 -4.6332 98.4983 9.3369 6.6068 -10.4614
# 4 -1.0169 10.1598 9.3369 31.2017 1.6951 3.0653
# 5 -2.3724 2.7184 6.6068 1.6951 38.6942 3.9434
# 6 9.4987 -14.1941 -10.4614 3.0653 3.9434 33.2734
#
#
#
# Elastic Compliance Matrix: (Units=1/GPa)
#
#
# Indices 1 2 3 4 5 6 
#
# 1 0.020869 -0.003486 -0.006559 0.004605 0.003497 -0.010346
# 2 -0.003486 0.011351 0.002726 -0.005245 -0.002002 0.007415
# 3 -0.006559 0.002726 0.013377 -0.005720 -0.003461 0.008178
# 4 0.004605 -0.005245 -0.005720 0.036435 0.000930 -0.008817
# 5 0.003497 -0.002002 -0.003461 0.000930 0.027388 -0.006272
# 6 -0.010346 0.007415 0.008178 -0.008817 -0.006272 0.040297
#
#
# Mechanical properties :
#
#
# Convention : Reuss Voigt Hill
#
# Bulk Modulus (GPa) = 32.30307 34.73854 33.52081
# Shear Modulus (GPa) = 28.62445 36.74558 32.68502
#
# Velocity S-wave (km/s) = 3.36923 3.81737 3.60028
# Velocity P-wave (km/s) = 5.28642 5.76248 5.52957
#
# Compressibility (1/GPa) = 0.03095681
#
# Stress axis : x y z
#
# Youngs Moduli (GPa) = 47.91822 88.10156 74.75310
#
# Poissons Ratio (x) = 0.30716 0.49032
# Poissons Ratio (y) = 0.16706 -0.20375
# Poissons Ratio (z) = 0.31431 -0.24013
#
# Static dielectric constant tensor:
#      x y z
#    x 2.114970 0.068700 -0.049870 
#    y 0.068700 1.933200 -0.000060 
#    z -0.049870 -0.000060 1.995180 
# 
# From -- ./inp_files/52510.got.cif
#   From: 2010.05.17/outbox.cif.g08.bks.cpg/sg2_27_cif.got.tgz:52510.got - 2010.06.03 11:33:40.
