data_PCOD9098004
_publ_section_title
;
Structure prediction by ZEFSAII (Michael W. Deem and Ramdas Pophale) SiO2 
 PCOD9098004
Probable space group: P -1
;
_chemical_formula_sum "Si O2"
_cell_formula_units_Z 14
_cell_length_a 10.506876
_cell_length_b 8.546907
_cell_length_c 14.883565
_cell_angle_alpha 118.873411
_cell_angle_beta 35.383315
_cell_angle_gamma 118.154793
_cell_volume 669.619199
_symmetry_space_group_name_H-M "P -1"
_symmetry_group_IT_number 2
_symmetry_cell_setting 'triclinic'
loop_
_space_group_symop_operation_xyz
x,y,z
-x,-y,-z
loop_
_atom_site_type_symbol
_atom_site_label
_atom_site_fract_x
_atom_site_fract_y
_atom_site_fract_z
Si Si1 0.238077 0.486005 0.635249
Si Si2 0.811028 0.407697 0.512947
Si Si3 0.510906 0.516507 0.858074
Si Si4 0.122521 0.770845 0.926179
Si Si5 0.265733 0.153699 0.943076
Si Si6 0.127241 0.754753 0.129166
Si Si7 0.102380 0.155876 0.230095
O O1 0.500000 0.500000 0.500000
O O2 0.176169 0.520340 0.576797
O O3 0.169355 0.627139 0.786395
O O4 0.095358 0.301546 0.701466
O O5 0.581516 0.448089 0.700269
O O6 0.000000 0.500000 0.500000
O O7 0.870450 0.204126 0.414657
O O8 0.456850 0.326218 0.889596
O O9 0.714981 0.668506 0.809174
O O10 0.303835 0.624657 0.018554
O O11 0.311617 0.948852 0.857193
O O12 0.106772 0.716808 0.023793
O O13 0.880806 0.815824 0.050155
O O14 0.100815 0.144256 0.120436
O O15 0.182668 0.972507 0.167354
#
# Coordination Sequence:
#
# PCOD9098004 Si02
#       7
#     2   2   2   2   2   2   2
#     4  12  24  40  63  93 127 168 206 258 316 369
#     4  10  23  42  61  89 128 166 211 254 305 373
#     4  11  21  38  64  89 120 163 204 256 306 369
#     4  10  21  38  58  89 120 155 201 251 308 367
#     4  10  20  36  63  86 116 156 206 252 299 364
#     4  11  23  39  63  91 126 159 205 261 311 366
#     4  10  21  41  62  92 120 162 207 255 308 376
#
# _framework density 20.907405000000001
#
# number of rings (size 3 to 8) (size 9 to 14) (size 15 to 20)
#    0.000    1.429    2.857    2.143    2.000    2.286 
#    0.000    4.286    0.000    0.000    0.000    0.000 
#    0.000    0.000    0.000    0.000    0.000    0.000 
#
# Total GULP energy -77947.425149 kJ/mol
# GULP energy per Si atom -5567.673225 kJ/mol
# Density = 2.085982 g / cm^3
# Si number density = 20.907405 Si / 1000 Ang^3
#
#
#
# Elastic Constant Matrix: (Units=GPa)
#
#
# Indices 1 2 3 4 5 6 
#
# 1 64.3136 16.0947 21.4065 -5.7349 5.9999 -0.0801
# 2 16.0947 114.8892 25.0085 -3.5570 4.5926 10.7687
# 3 21.4065 25.0085 77.3271 -5.1671 10.8151 3.9624
# 4 -5.7349 -3.5570 -5.1671 24.8304 7.9603 5.6643
# 5 5.9999 4.5926 10.8151 7.9603 30.6357 -1.3284
# 6 -0.0801 10.7687 3.9624 5.6643 -1.3284 20.9089
#
#
#
# Elastic Compliance Matrix: (Units=1/GPa)
#
#
# Indices 1 2 3 4 5 6 
#
# 1 0.017808 -0.001451 -0.003792 0.004006 -0.002961 0.000261
# 2 -0.001451 0.010025 -0.002233 0.002282 -0.001259 -0.005443
# 3 -0.003792 -0.002233 0.016059 0.004902 -0.006023 -0.003619
# 4 0.004006 0.002282 0.004902 0.051966 -0.017108 -0.017254
# 5 -0.002961 -0.001259 -0.006023 -0.017108 0.040371 0.008978
# 6 0.000261 -0.005443 -0.003619 -0.017254 0.008978 0.056561
#
#
# Mechanical properties :
#
#
# Convention : Reuss Voigt Hill
#
# Bulk Modulus (GPa) = 34.55480 42.39438 38.47459
# Shear Modulus (GPa) = 23.00026 28.20968 25.60497
#
# Velocity S-wave (km/s) = 3.32038 3.67722 3.50335
# Velocity P-wave (km/s) = 5.59136 6.19278 5.89974
#
# Compressibility (1/GPa) = 0.02893954
#
# Stress axis : x y z
#
# Youngs Moduli (GPa) = 56.15483 99.75485 62.26933
#
# Poissons Ratio (x) = 0.14478 0.23612
# Poissons Ratio (y) = 0.08150 0.13903
# Poissons Ratio (z) = 0.21294 0.22273
#
# Static dielectric constant tensor:
#      x y z
#    x 1.781070 0.049160 -0.034470 
#    y 0.049160 1.863450 0.006520 
#    z -0.034470 0.006520 1.807090 
# 
# From -- ./inp_files/173148.got.cif
#   From: 2010.05.17/outbox.cif.g08.bks.cpg/sg2_87_cif.got.tgz:173148.got - 2010.06.03 11:33:40.
