data_PCOD9098905
_publ_section_title
;
Structure prediction by ZEFSAII (Michael W. Deem and Ramdas Pophale) SiO2 
 PCOD9098905
Probable space group: P -1
;
_chemical_formula_sum "Si O2"
_cell_formula_units_Z 16
_cell_length_a 7.641629
_cell_length_b 16.330470
_cell_length_c 15.070525
_cell_angle_alpha 24.953320
_cell_angle_beta 97.787702
_cell_angle_gamma 111.321095
_cell_volume 642.625002
_symmetry_space_group_name_H-M "P -1"
_symmetry_group_IT_number 2
_symmetry_cell_setting 'triclinic'
loop_
_space_group_symop_operation_xyz
x,y,z
-x,-y,-z
loop_
_atom_site_type_symbol
_atom_site_label
_atom_site_fract_x
_atom_site_fract_y
_atom_site_fract_z
Si Si1 0.163814 0.389773 0.941458
Si Si2 0.715423 0.095360 0.860133
Si Si3 0.937091 0.712763 0.150726
Si Si4 0.994331 0.793809 0.383864
Si Si5 0.991305 0.091028 0.528735
Si Si6 0.435996 0.554718 0.036633
Si Si7 0.776586 0.267540 0.246600
Si Si8 0.494560 0.441074 0.660223
O O1 0.371090 0.380671 0.947902
O O2 0.037516 0.364266 0.869151
O O3 0.251286 0.628399 0.766504
O O4 0.020370 0.148500 0.226544
O O5 0.904572 0.233450 0.810580
O O6 0.854394 0.240065 0.637362
O O7 0.500000 0.000000 0.000000
O O8 0.624543 0.837145 0.069336
O O9 0.683608 0.529526 0.338247
O O10 0.997390 0.978182 0.875410
O O11 0.056136 0.849503 0.436155
O O12 0.738981 0.582874 0.570310
O O13 0.818797 0.072428 0.466213
O O14 0.221300 0.317564 0.291173
O O15 0.388680 0.751611 0.818470
O O16 0.500000 0.500000 0.000000
O O17 0.000000 0.500000 0.000000
O O18 0.500000 0.500000 0.500000
#
# Coordination Sequence:
#
# PCOD9098905 Si02
#       8
#     2   2   2   2   2   2   2   2
#     4  10  21  38  61  86 118 156 191 250 295 341
#     4  11  23  37  53  86 123 151 198 252 287 345
#     4  10  20  37  58  84 119 152 202 243 287 352
#     4  10  20  38  60  83 115 160 204 236 288 356
#     4  10  21  38  60  89 118 157 197 240 301 355
#     4   9  19  37  59  87 115 146 193 241 294 364
#     4   9  20  38  59  86 120 147 190 241 289 365
#     4  11  18  36  62  78 107 163 199 233 289 342
#
# _framework density 24.897877999999999
#
# number of rings (size 3 to 8) (size 9 to 14) (size 15 to 20)
#    0.000    2.000    2.500    1.500    0.000    6.500 
#    2.250    8.750    0.000    0.000    0.000    0.000 
#    0.000    0.000    0.000    0.000    0.000    0.000 
#
# Total GULP energy -89178.347014 kJ/mol
# GULP energy per Si atom -5573.646688 kJ/mol
# Density = 2.484121 g / cm^3
# Si number density = 24.897878 Si / 1000 Ang^3
#
#
#
# Elastic Constant Matrix: (Units=GPa)
#
#
# Indices 1 2 3 4 5 6 
#
# 1 78.3269 35.8986 28.8940 10.7088 -27.1789 0.0200
# 2 35.8986 79.0948 34.8328 10.4297 -1.8418 1.1186
# 3 28.8940 34.8328 111.2764 3.8561 -34.0360 10.5620
# 4 10.7088 10.4297 3.8561 40.9586 3.0044 -4.3873
# 5 -27.1789 -1.8418 -34.0360 3.0044 42.9165 -3.5118
# 6 0.0200 1.1186 10.5620 -4.3873 -3.5118 36.9233
#
#
#
# Elastic Compliance Matrix: (Units=1/GPa)
#
#
# Indices 1 2 3 4 5 6 
#
# 1 0.023060 -0.010554 0.002464 -0.004718 0.016485 0.000610
# 2 -0.010554 0.020421 -0.007121 -0.000911 -0.011372 0.000234
# 3 0.002464 -0.007121 0.014856 -0.001495 0.012897 -0.002986
# 4 -0.004718 -0.000911 -0.001495 0.026780 -0.005835 0.003085
# 5 0.016485 -0.011372 0.012897 -0.005835 0.043900 0.000128
# 6 0.000610 0.000234 -0.002986 0.003085 0.000128 0.028309
#
#
# Mechanical properties :
#
#
# Convention : Reuss Voigt Hill
#
# Bulk Modulus (GPa) = 35.82290 51.99433 43.90862
# Shear Modulus (GPa) = 25.37378 35.43119 30.40248
#
# Velocity S-wave (km/s) = 3.19582 3.77644 3.49820
# Velocity P-wave (km/s) = 5.29498 6.32010 5.83012
#
# Compressibility (1/GPa) = 0.02791510
#
# Stress axis : x y z
#
# Youngs Moduli (GPa) = 43.36450 48.96857 67.31288
#
# Poissons Ratio (x) = 0.51682 -0.16585
# Poissons Ratio (y) = 0.45767 0.47933
# Poissons Ratio (z) = -0.10684 0.34870
#
# Static dielectric constant tensor:
#      x y z
#    x 2.127560 -0.052190 -0.046450 
#    y -0.052190 2.005730 0.049140 
#    z -0.046450 0.049140 2.052190 
# 
# From -- ./inp_files/506979.got.cif
#   From: 2010.05.17/outbox.cif.g08.bks.cpg/sg2_254_cif.got.tgz:506979.got - 2010.06.03 11:33:40.
