data_PCOD9098781
_publ_section_title
;
Structure prediction by ZEFSAII (Michael W. Deem and Ramdas Pophale) SiO2 
 PCOD9098781
Probable space group: P -1
;
_chemical_formula_sum "Si O2"
_cell_formula_units_Z 16
_cell_length_a 8.514743
_cell_length_b 14.529408
_cell_length_c 19.235494
_cell_angle_alpha 157.758386
_cell_angle_beta 62.853393
_cell_angle_gamma 105.385724
_cell_volume 709.116128
_symmetry_space_group_name_H-M "P -1"
_symmetry_group_IT_number 2
_symmetry_cell_setting 'triclinic'
loop_
_space_group_symop_operation_xyz
x,y,z
-x,-y,-z
loop_
_atom_site_type_symbol
_atom_site_label
_atom_site_fract_x
_atom_site_fract_y
_atom_site_fract_z
Si Si1 0.926515 0.809783 0.212031
Si Si2 0.750363 0.691606 0.392966
Si Si3 0.382492 0.378740 0.112555
Si Si4 0.973146 0.748178 0.524235
Si Si5 0.637696 0.779045 0.690918
Si Si6 0.627053 0.116493 0.596813
Si Si7 0.846517 0.810372 0.083528
Si Si8 0.437169 0.616429 0.488414
O O1 0.782181 0.845036 0.201075
O O2 0.838657 0.978847 0.418083
O O3 0.060093 0.941171 0.246891
O O4 0.000000 0.500000 0.000000
O O5 0.854542 0.727382 0.466258
O O6 0.573896 0.619565 0.399207
O O7 0.671216 0.974640 0.563614
O O8 0.926427 0.429472 0.135330
O O9 0.458951 0.566121 0.185698
O O10 0.206906 0.557485 0.328084
O O11 0.279580 0.284622 0.006880
O O12 0.537061 0.106332 0.930080
O O13 0.871916 0.670058 0.553244
O O14 0.546680 0.675545 0.573387
O O15 0.583217 0.655255 0.682464
O O16 0.500000 0.000000 0.500000
O O17 0.781826 0.120487 0.288916
#
# Coordination Sequence:
#
# PCOD9098781 Si02
#       8
#     2   2   2   2   2   2   2   2
#     4  11  22  35  55  83 114 152 185 230 280 336
#     4  10  20  37  57  84 115 152 186 231 281 338
#     4   9  21  36  58  86 113 151 190 228 280 344
#     4   9  21  36  56  83 114 147 192 231 279 334
#     4   9  18  37  60  82 114 146 190 241 281 325
#     4  11  23  37  56  84 119 149 185 233 283 345
#     4  10  20  37  57  84 116 148 192 230 283 333
#     4   9  19  36  58  87 111 145 193 239 279 332
#
# _framework density 22.563300999999999
#
# number of rings (size 3 to 8) (size 9 to 14) (size 15 to 20)
#    0.000    2.250    1.250    0.750    3.500    2.500 
#    0.000    8.125    0.000    9.000    0.000    0.000 
#    0.000    0.000    0.000    0.000    0.000    0.000 
#
# Total GULP energy -89188.065283 kJ/mol
# GULP energy per Si atom -5574.254080 kJ/mol
# Density = 2.251195 g / cm^3
# Si number density = 22.563301 Si / 1000 Ang^3
#
#
#
# Elastic Constant Matrix: (Units=GPa)
#
#
# Indices 1 2 3 4 5 6 
#
# 1 30.5003 17.1222 20.4330 5.5956 -4.1549 11.8357
# 2 17.1222 111.1274 48.4173 31.0949 -1.5375 26.5341
# 3 20.4330 48.4173 83.2031 25.8021 1.4531 11.6777
# 4 5.5956 31.0949 25.8021 36.1901 0.3093 6.2877
# 5 -4.1549 -1.5375 1.4531 0.3093 21.8236 -2.0750
# 6 11.8357 26.5341 11.6777 6.2877 -2.0750 25.4985
#
#
#
# Elastic Compliance Matrix: (Units=1/GPa)
#
#
# Indices 1 2 3 4 5 6 
#
# 1 0.046833 0.001109 -0.010482 0.002343 0.007945 -0.018023
# 2 0.001109 0.016775 -0.005609 -0.008278 0.000618 -0.013310
# 3 -0.010482 -0.005609 0.020056 -0.008408 -0.003291 0.003323
# 4 0.002343 -0.008278 -0.008408 0.040119 -0.000005 0.001484
# 5 0.007945 0.000618 -0.003291 -0.000005 0.047698 0.001058
# 6 -0.018023 -0.013310 0.003323 0.001484 0.001058 0.059633
#
#
# Mechanical properties :
#
#
# Convention : Reuss Voigt Hill
#
# Bulk Modulus (GPa) = 18.62276 44.08619 31.35447
# Shear Modulus (GPa) = 17.92257 25.95964 21.94111
#
# Velocity S-wave (km/s) = 2.82143 3.39562 3.12176
# Velocity P-wave (km/s) = 4.34574 5.91227 5.18847
#
# Compressibility (1/GPa) = 0.05369772
#
# Stress axis : x y z
#
# Youngs Moduli (GPa) = 21.35254 59.61324 49.86143
#
# Poissons Ratio (x) = -0.06610 0.52266
# Poissons Ratio (y) = -0.02368 0.27969
# Poissons Ratio (z) = 0.22382 0.33440
#
# Static dielectric constant tensor:
#      x y z
#    x 1.869720 0.017620 -0.036630 
#    y 0.017620 1.931830 -0.038120 
#    z -0.036630 -0.038120 1.911070 
# 
# From -- ./inp_files/201267.got.cif
#   From: 2010.05.17/outbox.cif.g08.bks.cpg/sg2_101_cif.got.tgz:201267.got - 2010.06.03 11:33:40.
