data_PCOD9098559
_publ_section_title
;
Structure prediction by ZEFSAII (Michael W. Deem and Ramdas Pophale) SiO2 
 PCOD9098559
Probable space group: P -1
;
_chemical_formula_sum "Si O2"
_cell_formula_units_Z 16
_cell_length_a 8.689632
_cell_length_b 10.224166
_cell_length_c 10.035630
_cell_angle_alpha 78.912557
_cell_angle_beta 125.396578
_cell_angle_gamma 96.525937
_cell_volume 713.236452
_symmetry_space_group_name_H-M "P -1"
_symmetry_group_IT_number 2
_symmetry_cell_setting 'triclinic'
loop_
_space_group_symop_operation_xyz
x,y,z
-x,-y,-z
loop_
_atom_site_type_symbol
_atom_site_label
_atom_site_fract_x
_atom_site_fract_y
_atom_site_fract_z
Si Si1 0.793028 0.877964 0.110290
Si Si2 0.170455 0.773492 0.230141
Si Si3 0.784453 0.964774 0.374998
Si Si4 0.204135 0.479706 0.269570
Si Si5 0.441469 0.135700 0.254957
Si Si6 0.168972 0.664030 0.976683
Si Si7 0.510897 0.657846 0.967531
Si Si8 0.395600 0.227469 0.497264
O O1 0.744158 0.963225 0.197766
O O2 0.695399 0.730967 0.106246
O O3 0.015961 0.859578 0.210069
O O4 0.699035 0.924363 0.915339
O O5 0.157465 0.616438 0.296364
O O6 0.122136 0.769356 0.048599
O O7 0.388650 0.806703 0.352770
O O8 0.737988 0.821227 0.442431
O O9 0.637655 0.058755 0.359569
O O10 0.000000 0.000000 0.500000
O O11 0.244777 0.539946 0.130202
O O12 0.362056 0.383424 0.424866
O O13 0.017332 0.389009 0.178084
O O14 0.355243 0.151325 0.353551
O O15 0.487396 0.283425 0.191990
O O16 0.329150 0.709082 0.947484
O O17 0.500000 0.500000 0.000000
#
# Coordination Sequence:
#
# PCOD9098559 Si02
#       8
#     2   2   2   2   2   2   2   2
#     4  10  23  44  67  94 131 167 225 266 317 382
#     4  10  20  38  62  96 134 164 208 267 326 400
#     4  12  27  48  64  92 132 174 225 277 318 378
#     4   9  20  35  63  99 132 171 211 259 324 407
#     4  10  25  43  67  94 128 171 226 262 319 387
#     4   9  18  35  63  89 135 165 216 249 319 385
#     4  10  20  36  69 100 129 161 212 273 324 377
#     4  12  23  41  67  92 132 175 210 265 344 377
#
# _framework density 22.432952
#
# number of rings (size 3 to 8) (size 9 to 14) (size 15 to 20)
#    1.500    0.250    0.000    4.875    1.750    0.000 
#    2.250    1.875    0.000    0.000    0.000    0.000 
#    0.000    0.000    0.000    0.000    0.000    0.000 
#
# Total GULP energy -89306.717268 kJ/mol
# GULP energy per Si atom -5581.669829 kJ/mol
# Density = 2.238189 g / cm^3
# Si number density = 22.432952 Si / 1000 Ang^3
#
#
#
# Elastic Constant Matrix: (Units=GPa)
#
#
# Indices 1 2 3 4 5 6 
#
# 1 87.0402 5.4108 18.5066 1.8590 3.8730 6.2072
# 2 5.4108 57.3986 16.5335 -3.5922 4.2586 1.5627
# 3 18.5066 16.5335 66.9792 -0.0872 4.9337 14.9454
# 4 1.8590 -3.5922 -0.0872 27.9305 -1.8370 8.9827
# 5 3.8730 4.2586 4.9337 -1.8370 33.4126 8.2855
# 6 6.2072 1.5627 14.9454 8.9827 8.2855 30.8968
#
#
#
# Elastic Compliance Matrix: (Units=1/GPa)
#
#
# Indices 1 2 3 4 5 6 
#
# 1 0.012264 -0.000215 -0.003169 -0.000758 -0.000851 -0.000472
# 2 -0.000215 0.019050 -0.004805 0.001880 -0.001931 0.001375
# 3 -0.003169 -0.004805 0.019016 0.002671 0.000615 -0.009260
# 4 -0.000758 0.001880 0.002671 0.041162 0.005346 -0.014636
# 5 -0.000851 -0.001931 0.000615 0.005346 0.033068 -0.010451
# 6 -0.000472 0.001375 -0.009260 -0.014636 -0.010451 0.043928
#
#
# Mechanical properties :
#
#
# Convention : Reuss Voigt Hill
#
# Bulk Modulus (GPa) = 29.45288 32.47998 30.96643
# Shear Modulus (GPa) = 25.48637 29.84579 27.66608
#
# Velocity S-wave (km/s) = 3.37428 3.65148 3.51562
# Velocity P-wave (km/s) = 5.32343 5.68224 5.50576
#
# Compressibility (1/GPa) = 0.03395254
#
# Stress axis : x y z
#
# Youngs Moduli (GPa) = 81.54158 52.49376 52.58699
#
# Poissons Ratio (x) = 0.01128 0.16662
# Poissons Ratio (y) = 0.01752 0.25269
# Poissons Ratio (z) = 0.25837 0.25224
#
# Static dielectric constant tensor:
#      x y z
#    x 1.778260 0.001910 -0.004260 
#    y 0.001910 1.889060 -0.009120 
#    z -0.004260 -0.009120 1.830710 
# 
# From -- ./inp_files/387440.got.cif
#   From: 2010.05.17/outbox.cif.g08.bks.cpg/sg2_194_cif.got.tgz:387440.got - 2010.06.03 11:33:40.
