data_PCOD9098744
_publ_section_title
;
Structure prediction by ZEFSAII (Michael W. Deem and Ramdas Pophale) SiO2 
 PCOD9098744
Probable space group: P -1
;
_chemical_formula_sum "Si O2"
_cell_formula_units_Z 16
_cell_length_a 21.362449
_cell_length_b 8.638744
_cell_length_c 19.713673
_cell_angle_alpha 50.942836
_cell_angle_beta 162.761325
_cell_angle_gamma 136.159515
_cell_volume 715.515048
_symmetry_space_group_name_H-M "P -1"
_symmetry_group_IT_number 2
_symmetry_cell_setting 'triclinic'
loop_
_space_group_symop_operation_xyz
x,y,z
-x,-y,-z
loop_
_atom_site_type_symbol
_atom_site_label
_atom_site_fract_x
_atom_site_fract_y
_atom_site_fract_z
Si Si1 0.618424 0.617942 0.517663
Si Si2 0.599038 0.820935 0.157722
Si Si3 0.628115 0.035886 0.421251
Si Si4 0.282550 0.741569 0.328591
Si Si5 0.056211 0.202666 0.593784
Si Si6 0.978265 0.151489 0.875529
Si Si7 0.091835 0.421587 0.711853
Si Si8 0.821504 0.034482 0.962946
O O1 0.500000 0.500000 0.500000
O O2 0.513407 0.778276 0.342652
O O3 0.602516 0.419073 0.509597
O O4 0.910842 0.807693 0.771484
O O5 0.734436 0.799292 0.235964
O O6 0.350555 0.570625 0.978053
O O7 0.813545 0.944322 0.402508
O O8 0.500000 0.000000 0.000000
O O9 0.405444 0.076514 0.190821
O O10 0.737143 0.031782 0.609835
O O11 0.859161 0.231192 0.566012
O O12 0.194830 0.778992 0.154490
O O13 0.060799 0.664855 0.174046
O O14 0.500000 0.000000 0.500000
O O15 0.123975 0.288338 0.717711
O O16 0.983994 0.389471 0.440520
O O17 0.179626 0.165900 0.028110
O O18 0.000000 0.000000 0.000000
#
# Coordination Sequence:
#
# PCOD9098744 Si02
#       8
#     2   2   2   2   2   2   2   2
#     4  11  22  37  58  80 111 152 202 253 304 363
#     4   9  18  37  66  97 126 162 203 249 298 372
#     4  11  22  39  57  86 121 159 204 250 310 368
#     4  11  18  35  58  80 103 142 201 250 300 360
#     4   9  19  38  65  97 123 163 210 241 302 375
#     4   9  20  35  57  81 109 149 200 251 298 358
#     4  10  21  37  64  91 127 168 200 252 309 367
#     4  10  20  37  57  80 109 154 196 251 299 361
#
# _framework density 22.361515000000001
#
# number of rings (size 3 to 8) (size 9 to 14) (size 15 to 20)
#    0.000    2.000    2.500    1.500    0.000    2.000 
#    0.000    5.000    2.750    0.000    0.000    0.000 
#    0.000    0.000    0.000    0.000    0.000    0.000 
#
# Total GULP energy -89138.436998 kJ/mol
# GULP energy per Si atom -5571.152312 kJ/mol
# Density = 2.231062 g / cm^3
# Si number density = 22.361515 Si / 1000 Ang^3
#
#
#
# Elastic Constant Matrix: (Units=GPa)
#
#
# Indices 1 2 3 4 5 6 
#
# 1 78.7947 65.7046 37.2123 9.5998 29.7186 -31.8775
# 2 65.7046 92.9096 38.8408 14.7574 22.9838 -26.7727
# 3 37.2123 38.8408 87.8807 16.3863 26.2158 -11.4403
# 4 9.5998 14.7574 16.3863 36.2389 -4.2753 8.5067
# 5 29.7186 22.9838 26.2158 -4.2753 44.8819 -11.8280
# 6 -31.8775 -26.7727 -11.4403 8.5067 -11.8280 35.2245
#
#
#
# Elastic Compliance Matrix: (Units=1/GPa)
#
#
# Indices 1 2 3 4 5 6 
#
# 1 0.046872 -0.020208 -0.001355 -0.011016 -0.014514 0.024405
# 2 -0.020208 0.027807 -0.002526 -0.005579 0.001068 0.003733
# 3 -0.001355 -0.002526 0.017130 -0.007680 -0.008141 0.001538
# 4 -0.011016 -0.005579 -0.007680 0.043121 0.012724 -0.022845
# 5 -0.014514 0.001068 -0.008141 0.012724 0.035718 -0.006046
# 6 0.024405 0.003733 0.001538 -0.022845 -0.006046 0.057300
#
#
# Mechanical properties :
#
#
# Convention : Reuss Voigt Hill
#
# Bulk Modulus (GPa) = 22.91932 60.34450 41.63191
# Shear Modulus (GPa) = 17.20165 31.12421 24.16293
#
# Velocity S-wave (km/s) = 2.77655 3.73482 3.29075
# Velocity P-wave (km/s) = 4.53328 6.75596 5.75298
#
# Compressibility (1/GPa) = 0.04363131
#
# Stress axis : x y z
#
# Youngs Moduli (GPa) = 21.33474 35.96157 58.37693
#
# Poissons Ratio (x) = 0.72671 0.07913
# Poissons Ratio (y) = 0.43113 0.14744
# Poissons Ratio (z) = 0.02892 0.09083
#
# Static dielectric constant tensor:
#      x y z
#    x 1.873530 -0.046870 0.005340 
#    y -0.046870 1.865450 -0.019580 
#    z 0.005340 -0.019580 1.914340 
# 
# From -- ./inp_files/601165.got.cif
#   From: 2010.05.17/outbox.cif.g08.bks.cpg/sg2_301_cif.got.tgz:601165.got - 2010.06.03 11:33:40.
