data_PCOD9098418
_publ_section_title
;
Structure prediction by ZEFSAII (Michael W. Deem and Ramdas Pophale) SiO2 
 PCOD9098418
Probable space group: P -1
;
_chemical_formula_sum "Si O2"
_cell_formula_units_Z 15
_cell_length_a 11.127482
_cell_length_b 7.943963
_cell_length_c 9.120481
_cell_angle_alpha 81.581735
_cell_angle_beta 121.047355
_cell_angle_gamma 126.437330
_cell_volume 540.523382
_symmetry_space_group_name_H-M "P -1"
_symmetry_group_IT_number 2
_symmetry_cell_setting 'triclinic'
loop_
_space_group_symop_operation_xyz
x,y,z
-x,-y,-z
loop_
_atom_site_type_symbol
_atom_site_label
_atom_site_fract_x
_atom_site_fract_y
_atom_site_fract_z
Si Si1 0.307348 0.874166 0.475480
Si Si2 0.818545 0.961892 0.843244
Si Si3 0.576174 0.491090 0.816341
Si Si4 0.500000 0.500000 0.500000
Si Si5 0.351949 0.819509 0.825223
Si Si6 0.093329 0.705104 0.924324
Si Si7 0.838673 0.615017 0.553298
Si Si8 0.729105 0.606244 0.198014
O O1 0.184936 0.926926 0.318217
O O2 0.325095 0.912934 0.655402
O O3 0.204252 0.616963 0.433599
O O4 0.500000 0.000000 0.500000
O O5 0.646169 0.712800 0.739562
O O6 0.783564 0.079589 0.930011
O O7 0.000000 0.000000 0.000000
O O8 0.568676 0.382652 0.675498
O O9 0.406775 0.351784 0.833766
O O10 0.732242 0.612797 0.023387
O O11 0.664210 0.591910 0.481602
O O12 0.187819 0.684420 0.850794
O O13 0.378914 0.649141 0.805915
O O14 0.500000 0.000000 0.000000
O O15 0.969247 0.744407 0.752571
O O16 0.000000 0.500000 0.000000
O O17 0.884636 0.702365 0.403365
#
# Coordination Sequence:
#
# PCOD9098418 Si02
#       8
#     2   2   2   1   2   2   2   2
#     4  11  23  44  71 101 139 186 236 296 350 425
#     4  12  26  43  66  99 145 185 228 285 364 416
#     4  10  21  39  61  96 135 180 226 279 344 418
#     4  10  20  36  66 100 130 178 230 276 346 418
#     4  11  25  42  71 102 137 183 242 290 355 420
#     4  12  26  45  69 103 138 182 237 295 348 418
#     4  10  22  41  65  99 135 182 237 281 356 418
#     4   9  21  39  64  92 133 176 226 288 340 415
#
# _framework density 27.750879999999999
#
# number of rings (size 3 to 8) (size 9 to 14) (size 15 to 20)
#    0.000    1.333    1.333    4.800    3.733    4.267 
#    0.000    6.667    0.000    0.000    0.000    0.000 
#    0.000    0.000    0.000    0.000    0.000    0.000 
#
# Total GULP energy -83537.107844 kJ/mol
# GULP energy per Si atom -5569.140523 kJ/mol
# Density = 2.768772 g / cm^3
# Si number density = 27.750880 Si / 1000 Ang^3
#
#
#
# Elastic Constant Matrix: (Units=GPa)
#
#
# Indices 1 2 3 4 5 6 
#
# 1 91.1755 7.2821 28.0955 -12.7854 -13.9944 12.6638
# 2 7.2821 35.8147 -14.5379 1.4075 -14.7572 2.8453
# 3 28.0955 -14.5379 222.2960 -31.6448 -36.6865 18.8241
# 4 -12.7854 1.4075 -31.6448 47.2482 6.0959 -6.0509
# 5 -13.9944 -14.7572 -36.6865 6.0959 46.3908 -1.8757
# 6 12.6638 2.8453 18.8241 -6.0509 -1.8757 36.2489
#
#
#
# Elastic Compliance Matrix: (Units=1/GPa)
#
#
# Indices 1 2 3 4 5 6 
#
# 1 0.012444 -0.001738 -0.000723 0.002222 0.002202 -0.003351
# 2 -0.001738 0.037342 0.005555 -0.000451 0.015626 -0.004476
# 3 -0.000723 0.005555 0.006649 0.002916 0.006310 -0.002823
# 4 0.002222 -0.000451 0.002916 0.023987 -0.000249 0.001736
# 5 0.002202 0.015626 0.006310 -0.000249 0.032066 -0.003655
# 6 -0.003351 -0.004476 -0.002823 0.001736 -0.003655 0.030676
#
#
# Mechanical properties :
#
#
# Convention : Reuss Voigt Hill
#
# Bulk Modulus (GPa) = 15.96822 43.44062 29.70442
# Shear Modulus (GPa) = 31.67600 47.87402 39.77501
#
# Velocity S-wave (km/s) = 3.38219 4.15798 3.78999
# Velocity P-wave (km/s) = 4.58463 6.22411 5.46619
#
# Compressibility (1/GPa) = 0.06262439
#
# Stress axis : x y z
#
# Youngs Moduli (GPa) = 80.35744 26.77974 150.40569
#
# Poissons Ratio (x) = 0.04653 0.10874
# Poissons Ratio (y) = 0.13962 -0.83555
# Poissons Ratio (z) = 0.05810 -0.14877
#
# Static dielectric constant tensor:
#      x y z
#    x 4.336450 -0.452170 2.335630 
#    y -0.452170 2.229500 -0.650080 
#    z 2.335630 -0.650080 4.132450 
# 
# From -- ./inp_files/243644.got.cif
#   From: 2010.05.17/outbox.cif.g08.bks.cpg/sg2_122_cif.got.tgz:243644.got - 2010.06.03 11:33:40.
