data_PCOD9098106
_publ_section_title
;
Structure prediction by ZEFSAII (Michael W. Deem and Ramdas Pophale) SiO2 
 PCOD9098106
Probable space group: P -1
;
_chemical_formula_sum "Si O2"
_cell_formula_units_Z 16
_cell_length_a 14.471670
_cell_length_b 8.993513
_cell_length_c 25.782043
_cell_angle_alpha 48.959955
_cell_angle_beta 21.802990
_cell_angle_gamma 39.860679
_cell_volume 776.283029
_symmetry_space_group_name_H-M "P -1"
_symmetry_group_IT_number 2
_symmetry_cell_setting 'triclinic'
loop_
_space_group_symop_operation_xyz
x,y,z
-x,-y,-z
loop_
_atom_site_type_symbol
_atom_site_label
_atom_site_fract_x
_atom_site_fract_y
_atom_site_fract_z
Si Si1 0.527836 0.697163 0.181049
Si Si2 0.739117 0.985355 0.165221
Si Si3 0.837273 0.909599 0.863071
Si Si4 0.498196 0.839977 0.921487
Si Si5 0.831461 0.485769 0.640159
Si Si6 0.909056 0.321765 0.850852
Si Si7 0.859019 0.824889 0.354961
Si Si8 0.163033 0.442253 0.847519
O O1 0.293670 0.668945 0.279121
O O2 0.617528 0.573611 0.218931
O O3 0.425374 0.972433 0.178950
O O4 0.839992 0.545013 0.020176
O O5 0.699339 0.818284 0.186462
O O6 0.841402 0.849992 0.198331
O O7 0.451740 0.249939 0.260407
O O8 0.000000 0.000000 0.000000
O O9 0.075538 0.627849 0.804464
O O10 0.988430 0.040261 0.734855
O O11 0.500000 0.000000 0.000000
O O12 0.778459 0.986879 0.936195
O O13 0.761085 0.605200 0.868521
O O14 0.354976 0.724664 0.989306
O O15 0.000000 0.500000 0.500000
O O16 0.029982 0.379324 0.613053
O O17 0.023111 0.266369 0.744345
O O18 0.500000 0.000000 0.500000
#
# Coordination Sequence:
#
# PCOD9098106 Si02
#       8
#     2   2   2   2   2   2   2   2
#     4  10  21  39  64  99 136 175 221 277 341 399
#     4  12  24  39  68 104 139 173 229 278 340 400
#     4  10  20  36  63  94 129 166 226 277 330 394
#     4   9  19  33  61  94 131 166 216 273 336 383
#     4  12  28  45  68  95 139 185 230 277 343 417
#     4  10  22  37  64  99 140 170 218 284 338 400
#     4  11  25  44  68  93 134 186 226 272 345 416
#     4  10  21  36  66 100 135 169 215 288 342 390
#
# _framework density 20.611039000000002
#
# number of rings (size 3 to 8) (size 9 to 14) (size 15 to 20)
#    0.000    1.500    1.250    3.750   14.000    0.000 
#    0.000    1.875    0.000    3.750    0.000    0.000 
#    0.000    0.000    0.000    0.000    0.000    0.000 
#
# Total GULP energy -89165.593939 kJ/mol
# GULP energy per Si atom -5572.849621 kJ/mol
# Density = 2.056413 g / cm^3
# Si number density = 20.611039 Si / 1000 Ang^3
#
#
#
# Elastic Constant Matrix: (Units=GPa)
#
#
# Indices 1 2 3 4 5 6 
#
# 1 118.4067 50.8214 31.1562 7.0658 -3.7686 -24.4899
# 2 50.8214 138.8676 44.3281 18.9795 -3.8540 -11.4750
# 3 31.1562 44.3281 82.1206 12.4918 1.4415 -8.5813
# 4 7.0658 18.9795 12.4918 23.1313 -1.6238 -3.8491
# 5 -3.7686 -3.8540 1.4415 -1.6238 27.6870 3.5913
# 6 -24.4899 -11.4750 -8.5813 -3.8491 3.5913 36.5263
#
#
#
# Elastic Compliance Matrix: (Units=1/GPa)
#
#
# Indices 1 2 3 4 5 6 
#
# 1 0.011664 -0.003196 -0.002251 0.001373 0.000513 0.006382
# 2 -0.003196 0.010245 -0.003537 -0.005527 0.000906 -0.000427
# 3 -0.002251 -0.003537 0.015811 -0.004962 -0.002013 0.000769
# 4 0.001373 -0.005527 -0.004962 0.050707 0.002242 0.003142
# 5 0.000513 0.000906 -0.002013 0.002242 0.036971 -0.003243
# 6 0.006382 -0.000427 0.000769 0.003142 -0.003243 0.032353
#
#
# Mechanical properties :
#
#
# Convention : Reuss Voigt Hill
#
# Bulk Modulus (GPa) = 50.63012 65.77848 58.20430
# Shear Modulus (GPa) = 27.42673 31.67486 29.55079
#
# Velocity S-wave (km/s) = 3.65181 3.92445 3.79058
# Velocity P-wave (km/s) = 6.51144 7.24697 6.88903
#
# Compressibility (1/GPa) = 0.01975109
#
# Stress axis : x y z
#
# Youngs Moduli (GPa) = 85.73455 97.60571 63.24635
#
# Poissons Ratio (x) = 0.31197 0.14236
# Poissons Ratio (y) = 0.27403 0.22373
# Poissons Ratio (z) = 0.19298 0.34528
#
# Static dielectric constant tensor:
#      x y z
#    x 1.795330 0.022320 -0.036140 
#    y 0.022320 2.009140 -0.187850 
#    z -0.036140 -0.187850 1.825920 
# 
# From -- ./inp_files/619250.got.cif
#   From: 2010.05.17/outbox.cif.g08.bks.cpg/sg2_310_cif.got.tgz:619250.got - 2010.06.03 11:33:40.
