data_PCOD9098626
_publ_section_title
;
Structure prediction by ZEFSAII (Michael W. Deem and Ramdas Pophale) SiO2 
 PCOD9098626
Probable space group: P -1
;
_chemical_formula_sum "Si O2"
_cell_formula_units_Z 16
_cell_length_a 11.640231
_cell_length_b 9.660367
_cell_length_c 8.557671
_cell_angle_alpha 56.459052
_cell_angle_beta 103.827133
_cell_angle_gamma 101.918779
_cell_volume 775.521887
_symmetry_space_group_name_H-M "P -1"
_symmetry_group_IT_number 2
_symmetry_cell_setting 'triclinic'
loop_
_space_group_symop_operation_xyz
x,y,z
-x,-y,-z
loop_
_atom_site_type_symbol
_atom_site_label
_atom_site_fract_x
_atom_site_fract_y
_atom_site_fract_z
Si Si1 0.454709 0.741067 0.226430
Si Si2 0.882295 0.175065 0.750110
Si Si3 0.645797 0.501645 0.377179
Si Si4 0.648398 0.029544 0.199092
Si Si5 0.897563 0.540567 0.565149
Si Si6 0.734495 0.245371 0.357609
Si Si7 0.028525 0.675908 0.812218
Si Si8 0.101232 0.005936 0.823342
O O1 0.548121 0.629469 0.244610
O O2 0.393221 0.623562 0.413925
O O3 0.538118 0.892907 0.233448
O O4 0.370340 0.824082 0.024433
O O5 0.874416 0.347147 0.734689
O O6 0.791418 0.177202 0.576374
O O7 0.862293 0.035451 0.961778
O O8 0.008824 0.144100 0.731199
O O9 0.777639 0.581472 0.415468
O O10 0.661546 0.394338 0.295761
O O11 0.656363 0.106786 0.324510
O O12 0.775435 0.960461 0.248975
O O13 0.000000 0.500000 0.500000
O O14 0.936393 0.659326 0.647581
O O15 0.843021 0.311390 0.238467
O O16 0.031865 0.842183 0.817296
O O17 0.000000 0.500000 0.000000
#
# Coordination Sequence:
#
# PCOD9098626 Si02
#       8
#     2   2   2   2   2   2   2   2
#     4  10  23  41  61  84 114 158 204 244 287 343
#     4  10  20  37  54  90 120 155 187 233 306 348
#     4  10  22  40  62  86 116 155 200 243 290 348
#     4  10  22  39  60  85 113 159 197 248 292 337
#     4  11  20  36  62  87 117 154 185 238 297 356
#     4  10  22  37  62  83 121 152 190 248 289 356
#     4  11  21  34  55  91 118 154 189 231 295 354
#     4  10  22  35  59  83 125 152 192 242 286 363
#
# _framework density 20.631269
#
# number of rings (size 3 to 8) (size 9 to 14) (size 15 to 20)
#    0.000    1.750    3.750    1.500    3.500    4.000 
#    0.000    0.000    0.000    0.000    0.000    0.000 
#    0.000    0.000    0.000    0.000    0.000    0.000 
#
# Total GULP energy -89268.787535 kJ/mol
# GULP energy per Si atom -5579.299221 kJ/mol
# Density = 2.058431 g / cm^3
# Si number density = 20.631269 Si / 1000 Ang^3
#
#
#
# Elastic Constant Matrix: (Units=GPa)
#
#
# Indices 1 2 3 4 5 6 
#
# 1 80.0967 40.8134 -3.1835 4.7491 13.8593 -17.7271
# 2 40.8134 106.4878 33.4653 14.4789 12.8004 -7.8724
# 3 -3.1835 33.4653 50.9511 5.3252 4.0123 0.4551
# 4 4.7491 14.4789 5.3252 28.1298 -7.1638 6.8282
# 5 13.8593 12.8004 4.0123 -7.1638 21.1345 -3.2374
# 6 -17.7271 -7.8724 0.4551 6.8282 -3.2374 34.6788
#
#
#
# Elastic Compliance Matrix: (Units=1/GPa)
#
#
# Indices 1 2 3 4 5 6 
#
# 1 0.021017 -0.007624 0.007780 -0.006189 -0.011350 0.009070
# 2 -0.007624 0.017496 -0.010731 -0.007469 -0.005918 0.001134
# 3 0.007780 -0.010731 0.027769 -0.002503 -0.004532 0.001246
# 4 -0.006189 -0.007469 -0.002503 0.050075 0.024127 -0.012434
# 5 -0.011350 -0.005918 -0.004532 0.024127 0.066520 -0.005627
# 6 0.009070 0.001134 0.001246 -0.012434 -0.005627 0.035636
#
#
# Mechanical properties :
#
#
# Convention : Reuss Voigt Hill
#
# Bulk Modulus (GPa) = 22.15722 42.19178 32.17450
# Shear Modulus (GPa) = 19.63038 27.88466 23.75752
#
# Velocity S-wave (km/s) = 3.08796 3.68036 3.39710
# Velocity P-wave (km/s) = 4.84530 6.20926 5.56920
#
# Compressibility (1/GPa) = 0.04513202
#
# Stress axis : x y z
#
# Youngs Moduli (GPa) = 47.58005 57.15602 36.01181
#
# Poissons Ratio (x) = 0.43575 -0.28018
# Poissons Ratio (y) = 0.36274 0.38646
# Poissons Ratio (z) = -0.37019 0.61336
#
# Static dielectric constant tensor:
#      x y z
#    x 1.755520 0.023860 -0.027900 
#    y 0.023860 1.770400 -0.048200 
#    z -0.027900 -0.048200 1.770400 
# 
# From -- ./inp_files/216766.got.cif
#   From: 2010.05.17/outbox.cif.g08.bks.cpg/sg2_109_cif.got.tgz:216766.got - 2010.06.03 11:33:40.
