data_PCOD9098307
_publ_section_title
;
Structure prediction by ZEFSAII (Michael W. Deem and Ramdas Pophale) SiO2 
 PCOD9098307
Probable space group: P -1
;
_chemical_formula_sum "Si O2"
_cell_formula_units_Z 13
_cell_length_a 11.984337
_cell_length_b 9.465112
_cell_length_c 9.743638
_cell_angle_alpha 112.286311
_cell_angle_beta 40.583165
_cell_angle_gamma 81.695046
_cell_volume 462.797119
_symmetry_space_group_name_H-M "P -1"
_symmetry_group_IT_number 2
_symmetry_cell_setting 'triclinic'
loop_
_space_group_symop_operation_xyz
x,y,z
-x,-y,-z
loop_
_atom_site_type_symbol
_atom_site_label
_atom_site_fract_x
_atom_site_fract_y
_atom_site_fract_z
Si Si1 0.000000 0.000000 0.000000
Si Si2 0.569250 0.514860 0.174265
Si Si3 0.467789 0.313040 0.017534
Si Si4 0.395845 0.271959 0.564773
Si Si5 0.247555 0.154368 0.098579
Si Si6 0.979349 0.377788 0.174402
Si Si7 0.030890 0.978688 0.289402
O O1 0.014113 0.978138 0.812473
O O2 0.023176 0.173668 0.029057
O O3 0.409755 0.479106 0.245807
O O4 0.457226 0.693647 0.467143
O O5 0.622085 0.577898 0.010679
O O6 0.800847 0.277487 0.934925
O O7 0.765401 0.132413 0.662420
O O8 0.379101 0.199149 0.080640
O O9 0.558672 0.032254 0.264845
O O10 0.186013 0.347045 0.890364
O O11 0.269852 0.421245 0.601831
O O12 0.036186 0.364909 0.278377
O O13 0.155398 0.064624 0.232584
#
# Coordination Sequence:
#
# PCOD9098307 Si02
#       7
#     1   2   2   2   2   2   2
#     4  10  20  36  64  96 134 164 214 280 330 386
#     4  11  25  45  70  98 138 185 225 275 342 407
#     4  11  26  48  70  95 140 188 225 272 337 417
#     4  11  22  39  69 101 132 176 230 278 337 401
#     4  11  25  41  71 102 134 174 227 287 335 397
#     4  10  21  38  63  99 137 172 221 277 343 392
#     4  11  25  44  67 102 137 179 225 279 344 398
#
# _framework density 28.090063000000001
#
# number of rings (size 3 to 8) (size 9 to 14) (size 15 to 20)
#    0.000    1.231    3.077    1.846    6.462    3.692 
#    0.000    3.077    0.000    0.000    0.000    0.000 
#    0.000    0.000    0.000    0.000    0.000    0.000 
#
# Total GULP energy -72758.351651 kJ/mol
# GULP energy per Si atom -5596.796281 kJ/mol
# Density = 2.802613 g / cm^3
# Si number density = 28.090063 Si / 1000 Ang^3
#
#
#
# Elastic Constant Matrix: (Units=GPa)
#
#
# Indices 1 2 3 4 5 6 
#
# 1 179.6604 51.7696 33.0118 -1.9720 18.0550 27.7296
# 2 51.7696 136.4702 3.1178 -7.0171 2.6261 -10.7469
# 3 33.0118 3.1178 88.1478 19.3127 22.9189 4.2821
# 4 -1.9720 -7.0171 19.3127 43.2235 4.8415 -0.1103
# 5 18.0550 2.6261 22.9189 4.8415 43.7576 -2.0608
# 6 27.7296 -10.7469 4.2821 -0.1103 -2.0608 80.9597
#
#
#
# Elastic Compliance Matrix: (Units=1/GPa)
#
#
# Indices 1 2 3 4 5 6 
#
# 1 0.007482 -0.002918 -0.002288 0.001103 -0.001971 -0.002877
# 2 -0.002918 0.008642 0.000316 0.001078 0.000501 0.002144
# 3 -0.002288 0.000316 0.015195 -0.006130 -0.006362 -0.000148
# 4 0.001103 0.001078 -0.006130 0.026122 -0.000194 0.000120
# 5 -0.001971 0.000501 -0.006362 -0.000194 0.027073 0.001767
# 6 -0.002877 0.002144 -0.000148 0.000120 0.001767 0.013675
#
#
# Mechanical properties :
#
#
# Convention : Reuss Voigt Hill
#
# Bulk Modulus (GPa) = 46.42711 64.45298 55.44005
# Shear Modulus (GPa) = 43.42270 54.68009 49.05139
#
# Velocity S-wave (km/s) = 3.93598 4.41681 4.18331
# Velocity P-wave (km/s) = 6.10080 7.00042 6.56604
#
# Compressibility (1/GPa) = 0.02153914
#
# Stress axis : x y z
#
# Youngs Moduli (GPa) = 133.66160 115.71610 65.81211
#
# Poissons Ratio (x) = 0.33763 0.15059
# Poissons Ratio (y) = 0.38999 -0.02083
# Poissons Ratio (z) = 0.30584 -0.03662
#
# Static dielectric constant tensor:
#      x y z
#    x 1.843340 0.137500 0.015960 
#    y 0.137500 2.013960 -0.033400 
#    z 0.015960 -0.033400 2.010430 
# 
# From -- ./inp_files/413098.got.cif
#   From: 2010.05.17/outbox.cif.g08.bks.cpg/sg2_207_cif.got.tgz:413098.got - 2010.06.03 11:33:40.
