data_PCOD9098597
_publ_section_title
;
Structure prediction by ZEFSAII (Michael W. Deem and Ramdas Pophale) SiO2 
 PCOD9098597
Probable space group: P -1
;
_chemical_formula_sum "Si O2"
_cell_formula_units_Z 16
_cell_length_a 14.493935
_cell_length_b 15.029254
_cell_length_c 7.849330
_cell_angle_alpha 64.279129
_cell_angle_beta 34.298477
_cell_angle_gamma 62.063716
_cell_volume 847.430012
_symmetry_space_group_name_H-M "P -1"
_symmetry_group_IT_number 2
_symmetry_cell_setting 'triclinic'
loop_
_space_group_symop_operation_xyz
x,y,z
-x,-y,-z
loop_
_atom_site_type_symbol
_atom_site_label
_atom_site_fract_x
_atom_site_fract_y
_atom_site_fract_z
Si Si1 0.268903 0.684909 0.365424
Si Si2 0.922072 0.619710 0.368704
Si Si3 0.401972 0.241537 0.105154
Si Si4 0.933425 0.779329 0.923450
Si Si5 0.359903 0.259234 0.768220
Si Si6 0.566801 0.520437 0.566295
Si Si7 0.788851 0.427813 0.767417
Si Si8 0.616010 0.891431 0.441012
O O1 0.292142 0.575671 0.513180
O O2 0.212596 0.664627 0.278688
O O3 0.447241 0.713134 0.087537
O O4 0.125909 0.770149 0.598221
O O5 0.772808 0.676751 0.672993
O O6 0.921419 0.692530 0.150543
O O7 0.871947 0.514574 0.486262
O O8 0.098789 0.601483 0.211424
O O9 0.392674 0.148306 0.320740
O O10 0.431101 0.223434 0.874735
O O11 0.833785 0.750523 0.935636
O O12 0.812463 0.880040 0.099219
O O13 0.377443 0.373167 0.612909
O O14 0.434306 0.188164 0.553031
O O15 0.500000 0.500000 0.500000
O O16 0.405476 0.529542 0.926765
O O17 0.500000 0.000000 0.500000
#
# Coordination Sequence:
#
# PCOD9098597 Si02
#       8
#     2   2   2   2   2   2   2   2
#     4  12  22  34  56  88 127 158 195 240 288 354
#     4  10  20  37  50  81 120 164 208 233 273 353
#     4  11  21  38  61  89 118 154 197 242 296 359
#     4   9  22  38  57  85 117 155 196 248 294 346
#     4  10  21  38  61  88 122 154 202 231 299 349
#     4  12  21  33  54  88 127 162 193 232 287 346
#     4  11  22  31  54  78 122 169 205 230 282 336
#     4   9  22  44  66  84 112 151 204 256 301 349
#
# _framework density 18.880614999999999
#
# number of rings (size 3 to 8) (size 9 to 14) (size 15 to 20)
#    0.750    0.750    2.500    3.375    0.000    4.500 
#    0.000    0.625    0.000    0.750    0.000    0.000 
#    0.000    0.000    0.000    0.000    0.000    0.000 
#
# Total GULP energy -89193.016231 kJ/mol
# GULP energy per Si atom -5574.563514 kJ/mol
# Density = 1.883764 g / cm^3
# Si number density = 18.880615 Si / 1000 Ang^3
#
#
#
# Elastic Constant Matrix: (Units=GPa)
#
#
# Indices 1 2 3 4 5 6 
#
# 1 60.3586 -1.9509 5.4619 2.7238 -3.5140 -3.3547
# 2 -1.9509 64.6029 11.3698 18.7718 -7.9731 -16.8823
# 3 5.4619 11.3698 49.2708 19.9862 -6.6103 -5.9308
# 4 2.7238 18.7718 19.9862 20.0563 -3.0043 -4.1593
# 5 -3.5140 -7.9731 -6.6103 -3.0043 20.2033 3.4920
# 6 -3.3547 -16.8823 -5.9308 -4.1593 3.4920 20.7189
#
#
#
# Elastic Compliance Matrix: (Units=1/GPa)
#
#
# Indices 1 2 3 4 5 6 
#
# 1 0.017241 0.003017 -0.000265 -0.003650 0.002876 0.003956
# 2 0.003017 0.029018 0.008991 -0.031508 0.006911 0.019217
# 3 -0.000265 0.008991 0.037823 -0.043187 0.008058 0.008082
# 4 -0.003650 -0.031508 -0.043187 0.119003 -0.007165 -0.013530
# 5 0.002876 0.006911 0.008058 -0.007165 0.054685 -0.002251
# 6 0.003956 0.019217 0.008082 -0.013530 -0.002251 0.064541
#
#
# Mechanical properties :
#
#
# Convention : Reuss Voigt Hill
#
# Bulk Modulus (GPa) = 9.29650 22.66599 15.98124
# Shear Modulus (GPa) = 14.93958 22.81911 18.87935
#
# Velocity S-wave (km/s) = 2.81600 3.48026 3.16560
# Velocity P-wave (km/s) = 3.93797 5.30854 4.67377
#
# Compressibility (1/GPa) = 0.10756740
#
# Stress axis : x y z
#
# Youngs Moduli (GPa) = 58.00077 34.46117 26.43902
#
# Poissons Ratio (x) = -0.10396 0.00700
# Poissons Ratio (y) = -0.17497 -0.23771
# Poissons Ratio (z) = 0.01536 -0.30983
#
# Static dielectric constant tensor:
#      x y z
#    x 1.666100 0.005020 0.024550 
#    y 0.005020 1.638350 0.029990 
#    z 0.024550 0.029990 1.692700 
# 
# From -- ./inp_files/214894.got.cif
#   From: 2010.05.17/outbox.cif.g08.bks.cpg/sg2_108_cif.got.tgz:214894.got - 2010.06.03 11:33:40.
