data_PCOD9098324
_publ_section_title
;
Structure prediction by ZEFSAII (Michael W. Deem and Ramdas Pophale) SiO2 
 PCOD9098324
Probable space group: P -1
;
_chemical_formula_sum "Si O2"
_cell_formula_units_Z 14
_cell_length_a 8.476368
_cell_length_b 17.772748
_cell_length_c 10.726433
_cell_angle_alpha 29.403691
_cell_angle_beta 55.934564
_cell_angle_gamma 68.308940
_cell_volume 628.754886
_symmetry_space_group_name_H-M "P -1"
_symmetry_group_IT_number 2
_symmetry_cell_setting 'triclinic'
loop_
_space_group_symop_operation_xyz
x,y,z
-x,-y,-z
loop_
_atom_site_type_symbol
_atom_site_label
_atom_site_fract_x
_atom_site_fract_y
_atom_site_fract_z
Si Si1 0.079219 0.235683 0.795881
Si Si2 0.565108 0.198025 0.922677
Si Si3 0.341032 0.822625 0.820844
Si Si4 0.703523 0.626397 0.273856
Si Si5 0.360752 0.611295 0.869754
Si Si6 0.051123 0.575468 0.646854
Si Si7 0.406213 0.085564 0.810662
O O1 0.240953 0.364789 0.619587
O O2 0.186390 0.101722 0.907338
O O3 0.024073 0.330491 0.567449
O O4 0.882769 0.169357 0.063321
O O5 0.347483 0.208602 0.969860
O O6 0.733447 0.298560 0.606141
O O7 0.610938 0.259885 0.953810
O O8 0.589776 0.023303 0.153861
O O9 0.343057 0.713952 0.854995
O O10 0.500000 0.000000 0.500000
O O11 0.500000 0.500000 0.500000
O O12 0.881502 0.579959 0.196142
O O13 0.458349 0.738934 0.537067
O O14 0.500000 0.500000 0.000000
O O15 0.147591 0.496294 0.083909
O O16 0.500000 0.000000 0.000000
#
# Coordination Sequence:
#
# PCOD9098324 Si02
#       7
#     2   2   2   2   2   2   2
#     4  11  22  40  72  94 136 184 230 272 354 408
#     4  10  23  41  69  98 143 178 229 282 358 412
#     4  11  24  44  69 103 135 183 237 286 339 420
#     4  10  20  36  64  98 132 173 222 280 337 411
#     4  12  25  43  72 103 140 176 240 290 338 407
#     4  10  22  40  67  99 131 181 230 283 337 413
#     4  12  25  45  67 102 143 184 224 290 357 411
#
# _framework density 22.266227000000001
#
# number of rings (size 3 to 8) (size 9 to 14) (size 15 to 20)
#    0.000    1.143    5.714    0.429    4.000    3.429 
#    2.571    2.857    0.000    0.000    0.000    0.000 
#    0.000    0.000    0.000    0.000    0.000    0.000 
#
# Total GULP energy -77999.407930 kJ/mol
# GULP energy per Si atom -5571.386281 kJ/mol
# Density = 2.221555 g / cm^3
# Si number density = 22.266227 Si / 1000 Ang^3
#
#
#
# Elastic Constant Matrix: (Units=GPa)
#
#
# Indices 1 2 3 4 5 6 
#
# 1 104.7169 47.0517 22.8528 -0.4472 10.1359 -26.7990
# 2 47.0517 97.4071 28.7149 -1.7520 6.5057 -35.1872
# 3 22.8528 28.7149 115.7445 4.2973 -3.8362 -19.7995
# 4 -0.4472 -1.7520 4.2973 27.4229 -0.1285 0.6876
# 5 10.1359 6.5057 -3.8362 -0.1285 21.9636 -5.8440
# 6 -26.7990 -35.1872 -19.7995 0.6876 -5.8440 53.5787
#
#
#
# Elastic Compliance Matrix: (Units=1/GPa)
#
#
# Indices 1 2 3 4 5 6 
#
# 1 0.012965 -0.004763 -0.001084 -0.000005 -0.004094 0.002509
# 2 -0.004763 0.015779 -0.001809 0.001029 -0.000869 0.007204
# 3 -0.001084 -0.001809 0.009873 -0.001722 0.003364 0.002307
# 4 -0.000005 0.001029 -0.001722 0.036811 -0.000519 -0.000492
# 5 -0.004094 -0.000869 0.003364 -0.000519 0.049329 0.004012
# 6 0.002509 0.007204 0.002307 -0.000492 0.004012 0.025947
#
#
# Mechanical properties :
#
#
# Convention : Reuss Voigt Hill
#
# Bulk Modulus (GPa) = 42.91111 57.23417 50.07264
# Shear Modulus (GPa) = 28.77132 35.20963 31.99047
#
# Velocity S-wave (km/s) = 3.59855 3.98087 3.79453
# Velocity P-wave (km/s) = 6.04812 6.84763 6.46026
#
# Compressibility (1/GPa) = 0.02330399
#
# Stress axis : x y z
#
# Youngs Moduli (GPa) = 77.13185 63.37519 101.28948
#
# Poissons Ratio (x) = 0.30186 0.10984
# Poissons Ratio (y) = 0.36738 0.18322
# Poissons Ratio (z) = 0.08364 0.11464
#
# Static dielectric constant tensor:
#      x y z
#    x 1.868920 0.013900 -0.012330 
#    y 0.013900 1.900530 -0.045980 
#    z -0.012330 -0.045980 1.900620 
# 
# From -- ./inp_files/239580.got.cif
#   From: 2010.05.17/outbox.cif.g08.bks.cpg/sg2_120_cif.got.tgz:239580.got - 2010.06.03 11:33:40.
