data_PCOD9098224
_publ_section_title
;
Structure prediction by ZEFSAII (Michael W. Deem and Ramdas Pophale) SiO2 
 PCOD9098224
Probable space group: P -1
;
_chemical_formula_sum "Si O2"
_cell_formula_units_Z 16
_cell_length_a 13.010973
_cell_length_b 11.977062
_cell_length_c 9.656410
_cell_angle_alpha 39.548366
_cell_angle_beta 126.137387
_cell_angle_gamma 138.229432
_cell_volume 637.886976
_symmetry_space_group_name_H-M "P -1"
_symmetry_group_IT_number 2
_symmetry_cell_setting 'triclinic'
loop_
_space_group_symop_operation_xyz
x,y,z
-x,-y,-z
loop_
_atom_site_type_symbol
_atom_site_label
_atom_site_fract_x
_atom_site_fract_y
_atom_site_fract_z
Si Si1 0.258246 0.125115 0.359206
Si Si2 0.101245 0.670239 0.787470
Si Si3 0.765923 0.424688 0.420297
Si Si4 0.443327 0.722338 0.367903
Si Si5 0.446016 0.799219 0.998933
Si Si6 0.964166 0.286645 0.826993
Si Si7 0.475194 0.278881 0.155730
Si Si8 0.979304 0.829548 0.759118
O O1 0.406976 0.221177 0.483626
O O2 0.313001 0.126577 0.247132
O O3 0.182746 0.252279 0.216616
O O4 0.140373 0.881433 0.536635
O O5 0.269604 0.728716 0.910279
O O6 0.030334 0.489816 0.787783
O O7 0.001904 0.671590 0.836521
O O8 0.704120 0.448507 0.495801
O O9 0.894860 0.639968 0.237409
O O10 0.613944 0.286440 0.336971
O O11 0.835906 0.289051 0.637380
O O12 0.452006 0.942885 0.158765
O O13 0.451059 0.684457 0.249488
O O14 0.507207 0.746697 0.964902
O O15 0.916579 0.107173 0.078334
O O16 0.500000 0.500000 0.000000
O O17 0.000000 0.000000 0.500000
#
# Coordination Sequence:
#
# PCOD9098224 Si02
#       8
#     2   2   2   2   2   2   2   2
#     4   9  21  37  61  90 124 166 207 262 329 374
#     4  10  20  36  64  91 117 166 214 262 313 379
#     4  10  22  38  61  92 130 162 212 263 315 377
#     4   9  20  38  60  95 123 161 212 272 312 373
#     4  10  20  37  65  93 122 165 218 260 319 374
#     4  11  21  37  63  91 123 170 213 262 313 382
#     4  11  22  40  63  91 131 173 210 265 320 386
#     4  10  21  39  61  89 128 163 210 262 322 381
#
# _framework density 25.082813999999999
#
# number of rings (size 3 to 8) (size 9 to 14) (size 15 to 20)
#    0.000    2.000    1.250    1.875    1.750    2.500 
#    2.250    1.250    0.000    3.750    0.000    0.000 
#    0.000    0.000    0.000    0.000    0.000    0.000 
#
# Total GULP energy -89407.340632 kJ/mol
# GULP energy per Si atom -5587.958789 kJ/mol
# Density = 2.502572 g / cm^3
# Si number density = 25.082814 Si / 1000 Ang^3
#
#
#
# Elastic Constant Matrix: (Units=GPa)
#
#
# Indices 1 2 3 4 5 6 
#
# 1 181.4374 26.6107 53.3929 20.2638 -37.5366 -16.2625
# 2 26.6107 29.5442 11.1532 6.3249 -6.4022 -9.1319
# 3 53.3929 11.1532 123.9718 17.9603 -24.0740 -15.5076
# 4 20.2638 6.3249 17.9603 13.8774 -10.8512 -10.6546
# 5 -37.5366 -6.4022 -24.0740 -10.8512 51.9554 3.6764
# 6 -16.2625 -9.1319 -15.5076 -10.6546 3.6764 27.3678
#
#
#
# Elastic Compliance Matrix: (Units=1/GPa)
#
#
# Indices 1 2 3 4 5 6 
#
# 1 0.007917 -0.004806 -0.001657 -0.004650 0.003396 -0.000105
# 2 -0.004806 0.042099 0.000219 -0.005320 0.000052 0.009237
# 3 -0.001657 0.000219 0.010567 -0.008930 0.001765 0.001362
# 4 -0.004650 -0.005320 -0.008930 0.139275 0.017948 0.042211
# 5 0.003396 0.000052 0.001765 0.017948 0.025809 0.006555
# 6 -0.000105 0.009237 0.001362 0.042211 0.006555 0.055884
#
#
# Mechanical properties :
#
#
# Convention : Reuss Voigt Hill
#
# Bulk Modulus (GPa) = 20.79264 57.47410 39.13337
# Shear Modulus (GPa) = 16.12534 34.89324 25.50929
#
# Velocity S-wave (km/s) = 2.53827 3.73382 3.19251
# Velocity P-wave (km/s) = 4.11072 6.44609 5.40602
#
# Compressibility (1/GPa) = 0.04809394
#
# Stress axis : x y z
#
# Youngs Moduli (GPa) = 126.31791 23.75345 94.63192
#
# Poissons Ratio (x) = 0.11416 0.15683
# Poissons Ratio (y) = 0.60708 -0.02070
# Poissons Ratio (z) = 0.20934 -0.00520
#
# Static dielectric constant tensor:
#      x y z
#    x 2.036710 0.045340 -0.044380 
#    y 0.045340 2.016570 -0.041140 
#    z -0.044380 -0.041140 2.153740 
# 
# From -- ./inp_files/261760.got.cif
#   From: 2010.05.17/outbox.cif.g08.bks.cpg/sg2_131_cif.got.tgz:261760.got - 2010.06.03 11:33:40.
