data_PCOD9098474
_publ_section_title
;
Structure prediction by ZEFSAII (Michael W. Deem and Ramdas Pophale) SiO2 
 PCOD9098474
Probable space group: P -1
;
_chemical_formula_sum "Si O2"
_cell_formula_units_Z 14
_cell_length_a 8.647431
_cell_length_b 7.575962
_cell_length_c 11.284803
_cell_angle_alpha 56.726403
_cell_angle_beta 90.765384
_cell_angle_gamma 67.998778
_cell_volume 549.761735
_symmetry_space_group_name_H-M "P -1"
_symmetry_group_IT_number 2
_symmetry_cell_setting 'triclinic'
loop_
_space_group_symop_operation_xyz
x,y,z
-x,-y,-z
loop_
_atom_site_type_symbol
_atom_site_label
_atom_site_fract_x
_atom_site_fract_y
_atom_site_fract_z
Si Si1 0.347290 0.918408 0.926090
Si Si2 0.097709 0.135154 0.059972
Si Si3 0.500000 0.500000 0.500000
Si Si4 0.771132 0.635200 0.833122
Si Si5 0.981274 0.652529 0.628934
Si Si6 0.627220 0.610603 0.218986
Si Si7 0.916090 0.260609 0.637281
Si Si8 0.500000 0.500000 0.000000
O O1 0.320102 0.765713 0.882301
O O2 0.386393 0.137737 0.825146
O O3 0.526116 0.684018 0.063445
O O4 0.210671 0.998165 0.999479
O O5 0.213587 0.214205 0.113503
O O6 0.059185 0.956828 0.202533
O O7 0.935162 0.375352 0.931714
O O8 0.530417 0.531355 0.344509
O O9 0.709918 0.413157 0.554910
O O10 0.812917 0.751236 0.674628
O O11 0.605218 0.599464 0.866902
O O12 0.984475 0.422044 0.648863
O O13 0.167809 0.559293 0.730479
O O14 0.987182 0.810146 0.461856
#
# Coordination Sequence:
#
# PCOD9098474 Si02
#       8
#     2   2   1   2   2   2   2   1
#     4  11  22  41  66  97 127 172 211 272 323 387
#     4  11  23  44  70  95 132 173 217 262 334 387
#     4  10  20  36  66  96 124 172 222 256 326 388
#     4  11  25  42  65 100 131 170 220 272 317 393
#     4  10  22  41  64  95 132 168 218 264 317 390
#     4  10  20  37  67  92 129 172 212 263 324 383
#     4  10  22  40  65  99 127 176 215 265 324 391
#     4  12  28  38  66 100 134 160 228 272 326 380
#
# _framework density 25.465579000000002
#
# number of rings (size 3 to 8) (size 9 to 14) (size 15 to 20)
#    0.000    1.429    2.857    2.571    4.000    1.714 
#    0.000    0.000    0.000    2.571    0.000    0.000 
#    0.000    0.000    0.000    0.000    0.000    0.000 
#
# Total GULP energy -77960.634160 kJ/mol
# GULP energy per Si atom -5568.616726 kJ/mol
# Density = 2.540762 g / cm^3
# Si number density = 25.465579 Si / 1000 Ang^3
#
#
#
# Elastic Constant Matrix: (Units=GPa)
#
#
# Indices 1 2 3 4 5 6 
#
# 1 121.0451 44.7502 43.6731 30.8814 -20.9010 -32.3166
# 2 44.7502 124.0220 19.7155 8.4042 -18.7032 -8.0768
# 3 43.6731 19.7155 100.1710 35.4796 -21.9305 -22.5719
# 4 30.8814 8.4042 35.4796 31.2392 -10.6216 -16.7546
# 5 -20.9010 -18.7032 -21.9305 -10.6216 58.2985 17.7866
# 6 -32.3166 -8.0768 -22.5719 -16.7546 17.7866 41.4180
#
#
#
# Elastic Compliance Matrix: (Units=1/GPa)
#
#
# Indices 1 2 3 4 5 6 
#
# 1 0.013764 -0.003863 -0.000962 -0.008178 -0.000039 0.006170
# 2 -0.003863 0.009687 -0.000813 0.001979 0.002315 -0.001762
# 3 -0.000962 -0.000813 0.017435 -0.017538 0.002647 0.000361
# 4 -0.008178 0.001979 -0.017538 0.065260 -0.000361 0.011001
# 5 -0.000039 0.002315 0.002647 -0.000361 0.021045 -0.007320
# 6 0.006170 -0.001762 0.000361 0.011001 -0.007320 0.036405
#
#
# Mechanical properties :
#
#
# Convention : Reuss Voigt Hill
#
# Bulk Modulus (GPa) = 33.77422 62.39062 48.08242
# Shear Modulus (GPa) = 27.06474 41.99776 34.53125
#
# Velocity S-wave (km/s) = 3.26359 4.06544 3.68638
# Velocity P-wave (km/s) = 5.24336 6.82570 6.08618
#
# Compressibility (1/GPa) = 0.02960838
#
# Stress axis : x y z
#
# Youngs Moduli (GPa) = 72.65485 103.23574 57.35493
#
# Poissons Ratio (x) = 0.39883 0.05518
# Poissons Ratio (y) = 0.28068 0.04665
# Poissons Ratio (z) = 0.06990 0.08396
#
# Static dielectric constant tensor:
#      x y z
#    x 2.072130 0.147930 0.059200 
#    y 0.147930 2.237680 0.033510 
#    z 0.059200 0.033510 2.067970 
# 
# From -- ./inp_files/214576.got.cif
#   From: 2010.05.17/outbox.cif.g08.bks.cpg/sg2_108_cif.got.tgz:214576.got - 2010.06.03 11:33:40.
