data_PCOD9098276
_publ_section_title
;
Structure prediction by ZEFSAII (Michael W. Deem and Ramdas Pophale) SiO2 
 PCOD9098276
Probable space group: P -1
;
_chemical_formula_sum "Si O2"
_cell_formula_units_Z 14
_cell_length_a 10.294922
_cell_length_b 5.381552
_cell_length_c 14.494584
_cell_angle_alpha 81.598067
_cell_angle_beta 79.516547
_cell_angle_gamma 44.818362
_cell_volume 556.414062
_symmetry_space_group_name_H-M "P -1"
_symmetry_group_IT_number 2
_symmetry_cell_setting 'triclinic'
loop_
_space_group_symop_operation_xyz
x,y,z
-x,-y,-z
loop_
_atom_site_type_symbol
_atom_site_label
_atom_site_fract_x
_atom_site_fract_y
_atom_site_fract_z
Si Si1 0.581867 0.631520 0.746672
Si Si2 0.067660 0.850647 0.621304
Si Si3 0.800473 0.627547 0.204234
Si Si4 0.274237 0.329967 0.993629
Si Si5 0.695612 0.240805 0.932047
Si Si6 0.599452 0.599659 0.529981
Si Si7 0.097986 0.436977 0.298710
O O1 0.665745 0.316405 0.822946
O O2 0.588504 0.570559 0.641636
O O3 0.698763 0.732651 0.739087
O O4 0.374513 0.958472 0.785993
O O5 0.199439 0.584164 0.704384
O O6 0.194280 0.673418 0.524232
O O7 0.924963 0.804807 0.637886
O O8 0.988951 0.224216 0.644302
O O9 0.977129 0.556249 0.215864
O O10 0.778637 0.540841 0.111305
O O11 0.206873 0.640444 0.050666
O O12 0.203174 0.148269 0.035227
O O13 0.500000 0.000000 0.000000
O O14 0.500000 0.500000 0.000000
O O15 0.500000 0.500000 0.500000
O O16 0.500000 0.000000 0.500000
#
# Coordination Sequence:
#
# PCOD9098276 Si02
#       7
#     2   2   2   2   2   2   2
#     4  12  24  46  74  98 138 179 231 281 329 419
#     4  10  23  47  64  98 150 166 226 284 338 392
#     4  10  22  44  71  93 141 177 224 286 330 399
#     4  10  20  36  64  94 127 174 223 266 345 385
#     4  10  22  38  62 101 126 174 226 273 338 393
#     4  12  25  42  72 111 128 181 234 267 340 413
#     4  10  26  44  66 105 134 184 225 272 347 394
#
# _framework density 25.161117000000001
#
# number of rings (size 3 to 8) (size 9 to 14) (size 15 to 20)
#    0.857    0.571    4.286    1.714    2.000    6.857 
#    2.571    1.429    0.000    0.000    0.000    0.000 
#    0.000    0.000    0.000    0.000    0.000    0.000 
#
# Total GULP energy -78362.422378 kJ/mol
# GULP energy per Si atom -5597.315884 kJ/mol
# Density = 2.510385 g / cm^3
# Si number density = 25.161117 Si / 1000 Ang^3
#
#
#
# Elastic Constant Matrix: (Units=GPa)
#
#
# Indices 1 2 3 4 5 6 
#
# 1 112.2242 19.2908 16.1288 4.7303 10.8919 11.8006
# 2 19.2908 103.9370 13.9697 -1.1003 4.9246 35.3152
# 3 16.1288 13.9697 167.3422 -6.1393 21.1979 18.5606
# 4 4.7303 -1.1003 -6.1393 33.0297 2.3643 -4.0092
# 5 10.8919 4.9246 21.1979 2.3643 45.1175 0.5751
# 6 11.8006 35.3152 18.5606 -4.0092 0.5751 47.8836
#
#
#
# Elastic Compliance Matrix: (Units=1/GPa)
#
#
# Indices 1 2 3 4 5 6 
#
# 1 0.009575 -0.001156 -0.000490 -0.001541 -0.001856 -0.001424
# 2 -0.001156 0.013068 0.000191 -0.000432 -0.001094 -0.009451
# 3 -0.000490 0.000191 0.006720 0.001246 -0.003094 -0.002484
# 4 -0.001541 -0.000432 0.001246 0.031191 -0.001837 0.002849
# 5 -0.001856 -0.001094 -0.003094 -0.001837 0.024256 0.002018
# 6 -0.001424 -0.009451 -0.002484 0.002849 0.002018 0.029382
#
#
# Mechanical properties :
#
#
# Convention : Reuss Voigt Hill
#
# Bulk Modulus (GPa) = 37.80023 53.58690 45.69356
# Shear Modulus (GPa) = 39.70825 47.48044 43.59435
#
# Velocity S-wave (km/s) = 3.97691 4.34874 4.16698
# Velocity P-wave (km/s) = 6.01196 6.82342 6.43051
#
# Compressibility (1/GPa) = 0.02645487
#
# Stress axis : x y z
#
# Youngs Moduli (GPa) = 104.44259 76.52086 148.80792
#
# Poissons Ratio (x) = 0.08844 0.07288
# Poissons Ratio (y) = 0.12071 -0.02848
# Poissons Ratio (z) = 0.05115 -0.01465
#
# Static dielectric constant tensor:
#      x y z
#    x 1.802890 -0.067980 -0.051460 
#    y -0.067980 1.976430 -0.050680 
#    z -0.051460 -0.050680 2.231490 
# 
# From -- ./inp_files/509750.got.cif
#   From: 2010.05.17/outbox.cif.g08.bks.cpg/sg2_255_cif.got.tgz:509750.got - 2010.06.03 11:33:40.
