data_PCOD9098020
_publ_section_title
;
Structure prediction by ZEFSAII (Michael W. Deem and Ramdas Pophale) SiO2 
 PCOD9098020
Probable space group: P -1
;
_chemical_formula_sum "Si O2"
_cell_formula_units_Z 16
_cell_length_a 9.124942
_cell_length_b 13.813738
_cell_length_c 13.177469
_cell_angle_alpha 55.949468
_cell_angle_beta 131.499647
_cell_angle_gamma 138.161227
_cell_volume 822.484948
_symmetry_space_group_name_H-M "P -1"
_symmetry_group_IT_number 2
_symmetry_cell_setting 'triclinic'
loop_
_space_group_symop_operation_xyz
x,y,z
-x,-y,-z
loop_
_atom_site_type_symbol
_atom_site_label
_atom_site_fract_x
_atom_site_fract_y
_atom_site_fract_z
Si Si1 0.107772 0.958807 0.384151
Si Si2 0.551065 0.501002 0.378093
Si Si3 0.581347 0.716709 0.727632
Si Si4 0.129849 0.698218 0.516511
Si Si5 0.787789 0.248130 0.713445
Si Si6 0.748354 0.656908 0.032249
Si Si7 0.622395 0.736930 0.396759
Si Si8 0.992189 0.898957 0.138842
O O1 0.891961 0.881889 0.412210
O O2 0.987646 0.929905 0.234476
O O3 0.203708 0.858954 0.483493
O O4 0.298386 0.134398 0.371056
O O5 0.474498 0.418249 0.284658
O O6 0.529098 0.630312 0.317523
O O7 0.391842 0.368892 0.462305
O O8 0.843496 0.582000 0.480391
O O9 0.321576 0.678340 0.665606
O O10 0.750862 0.741523 0.885425
O O11 0.150579 0.686264 0.410805
O O12 0.556595 0.227100 0.667426
O O13 0.776453 0.104156 0.774085
O O14 0.014524 0.338781 0.843187
O O15 0.500000 0.500000 0.000000
O O16 0.762537 0.736806 0.095460
O O17 0.000000 0.000000 0.000000
#
# Coordination Sequence:
#
# PCOD9098020 Si02
#       8
#     2   2   2   2   2   2   2   2
#     4  10  21  37  60  86 121 154 188 239 292 350
#     4  10  22  36  59  85 119 154 194 237 292 343
#     4  12  21  35  61  92 115 144 201 249 283 332
#     4  10  20  36  63  88 112 150 198 245 287 341
#     4   9  19  37  61  82 114 155 193 231 291 346
#     4  10  22  34  61  87 114 143 192 247 288 324
#     4  10  21  39  57  80 120 166 184 226 300 359
#     4   9  18  39  59  82 113 152 193 231 291 340
#
# _framework density 19.453244000000002
#
# number of rings (size 3 to 8) (size 9 to 14) (size 15 to 20)
#    0.750    1.250    2.500    1.500    3.500    0.500 
#    0.000    3.125    2.750    0.000    0.000    0.000 
#    0.000    0.000    0.000    0.000    0.000    0.000 
#
# Total GULP energy -89082.197707 kJ/mol
# GULP energy per Si atom -5567.637357 kJ/mol
# Density = 1.940897 g / cm^3
# Si number density = 19.453244 Si / 1000 Ang^3
#
#
#
# Elastic Constant Matrix: (Units=GPa)
#
#
# Indices 1 2 3 4 5 6 
#
# 1 103.3666 22.9249 21.4777 -0.0733 10.1677 12.1760
# 2 22.9249 77.2570 0.1677 0.1840 -4.6146 5.4686
# 3 21.4777 0.1677 58.9807 2.4126 3.5149 1.2802
# 4 -0.0733 0.1840 2.4126 31.3172 -4.2414 -2.7695
# 5 10.1677 -4.6146 3.5149 -4.2414 16.0160 3.9342
# 6 12.1760 5.4686 1.2802 -2.7695 3.9342 25.7952
#
#
#
# Elastic Compliance Matrix: (Units=1/GPa)
#
#
# Indices 1 2 3 4 5 6 
#
# 1 0.012563 -0.003893 -0.003989 -0.001003 -0.007538 -0.003865
# 2 -0.003893 0.014695 0.000972 0.000600 0.007232 -0.002364
# 3 -0.003989 0.000972 0.018566 -0.001626 -0.001907 0.000872
# 4 -0.001003 0.000600 -0.001626 0.033555 0.009416 0.002594
# 5 -0.007538 0.007232 -0.001907 0.009416 0.074231 -0.008191
# 6 -0.003865 -0.002364 0.000872 0.002594 -0.008191 0.042577
#
#
# Mechanical properties :
#
#
# Convention : Reuss Voigt Hill
#
# Bulk Modulus (GPa) = 31.24876 36.52722 33.88799
# Shear Modulus (GPa) = 22.65764 27.62796 25.14280
#
# Velocity S-wave (km/s) = 3.41651 3.77267 3.59900
# Velocity P-wave (km/s) = 5.62688 6.14777 5.89308
#
# Compressibility (1/GPa) = 0.03200127
#
# Stress axis : x y z
#
# Youngs Moduli (GPa) = 79.60046 68.05063 53.86211
#
# Poissons Ratio (x) = 0.26495 0.21488
# Poissons Ratio (y) = 0.30992 -0.05234
# Poissons Ratio (z) = 0.31757 -0.06613
#
# Static dielectric constant tensor:
#      x y z
#    x 1.693060 -0.032770 -0.006880 
#    y -0.032770 1.761670 -0.036270 
#    z -0.006880 -0.036270 1.742890 
# 
# From -- ./inp_files/502896.got.cif
#   From: 2010.05.17/outbox.cif.g08.bks.cpg/sg2_252_cif.got.tgz:502896.got - 2010.06.03 11:33:40.
