data_PCOD9098038
_publ_section_title
;
Structure prediction by ZEFSAII (Michael W. Deem and Ramdas Pophale) SiO2 
 PCOD9098038
Probable space group: P -1
;
_chemical_formula_sum "Si O2"
_cell_formula_units_Z 16
_cell_length_a 17.341833
_cell_length_b 9.626494
_cell_length_c 11.306317
_cell_angle_alpha 65.691338
_cell_angle_beta 149.205908
_cell_angle_gamma 102.843739
_cell_volume 845.033262
_symmetry_space_group_name_H-M "P -1"
_symmetry_group_IT_number 2
_symmetry_cell_setting 'triclinic'
loop_
_space_group_symop_operation_xyz
x,y,z
-x,-y,-z
loop_
_atom_site_type_symbol
_atom_site_label
_atom_site_fract_x
_atom_site_fract_y
_atom_site_fract_z
Si Si1 0.635302 0.245781 0.287282
Si Si2 0.256355 0.421036 0.399624
Si Si3 0.660191 0.948940 0.300004
Si Si4 0.999080 0.117042 0.847226
Si Si5 0.049383 0.942664 0.451199
Si Si6 0.454837 0.507057 0.133554
Si Si7 0.952520 0.578163 0.094839
Si Si8 0.899680 0.424556 0.306190
O O1 0.819270 0.223171 0.554732
O O2 0.536009 0.347823 0.224432
O O3 0.626071 0.066178 0.326998
O O4 0.577703 0.347715 0.056016
O O5 0.286434 0.237330 0.540881
O O6 0.418451 0.464797 0.616772
O O7 0.117292 0.534070 0.256417
O O8 0.184251 0.431786 0.170861
O O9 0.797918 0.999585 0.395888
O O10 0.500000 0.000000 0.000000
O O11 0.044434 0.026685 0.811373
O O12 0.083895 0.248704 0.952473
O O13 0.000000 0.000000 0.000000
O O14 0.078521 0.755524 0.567734
O O15 0.000000 0.000000 0.500000
O O16 0.287728 0.498387 0.963760
O O17 0.964825 0.446295 0.256357
O O18 0.000000 0.500000 0.500000
#
# Coordination Sequence:
#
# PCOD9098038 Si02
#       8
#     2   2   2   2   2   2   2   2
#     4  10  20  36  63  89 121 166 214 252 318 368
#     4  11  23  40  66  94 124 166 215 265 311 378
#     4  11  20  38  61  92 122 163 206 258 310 376
#     4  11  21  41  67  93 130 165 213 265 315 380
#     4  11  23  40  60  96 128 163 208 263 326 369
#     4  11  21  39  63  91 127 166 210 266 311 378
#     4  11  23  40  64  95 123 164 217 257 320 385
#     4  12  23  40  64  93 128 164 210 259 323 384
#
# _framework density 18.934165
#
# number of rings (size 3 to 8) (size 9 to 14) (size 15 to 20)
#    0.000    1.000    6.250    2.250    1.750    2.500 
#    0.000    0.000    0.000    1.500    0.000    0.000 
#    0.000    0.000    0.000    0.000    0.000    0.000 
#
# Total GULP energy -89182.223430 kJ/mol
# GULP energy per Si atom -5573.888964 kJ/mol
# Density = 1.889107 g / cm^3
# Si number density = 18.934165 Si / 1000 Ang^3
#
#
#
# Elastic Constant Matrix: (Units=GPa)
#
#
# Indices 1 2 3 4 5 6 
#
# 1 74.9559 31.1796 27.6365 13.9812 -17.0880 -13.7406
# 2 31.1796 97.4833 24.8278 19.6423 -0.0573 -15.1159
# 3 27.6365 24.8278 92.0929 29.0407 -12.7481 -9.1752
# 4 13.9812 19.6423 29.0407 41.1705 2.6966 -2.1630
# 5 -17.0880 -0.0573 -12.7481 2.6966 31.7970 -0.9026
# 6 -13.7406 -15.1159 -9.1752 -2.1630 -0.9026 31.2129
#
#
#
# Elastic Compliance Matrix: (Units=1/GPa)
#
#
# Indices 1 2 3 4 5 6 
#
# 1 0.019998 -0.004201 -0.001454 -0.004127 0.010687 0.006365
# 2 -0.004201 0.013240 -0.001017 -0.003821 -0.002206 0.003935
# 3 -0.001454 -0.001017 0.016181 -0.010712 0.006700 0.003075
# 4 -0.004127 -0.003821 -0.010712 0.035459 -0.009658 -0.004638
# 5 0.010687 -0.002206 0.006700 -0.009658 0.040868 0.006118
# 6 0.006365 0.003935 0.003075 -0.004638 0.006118 0.037505
#
#
# Mechanical properties :
#
#
# Convention : Reuss Voigt Hill
#
# Bulk Modulus (GPa) = 27.72037 47.97999 37.85018
# Shear Modulus (GPa) = 26.50864 32.89531 29.70197
#
# Velocity S-wave (km/s) = 3.74577 4.17268 3.96498
# Velocity P-wave (km/s) = 5.77754 6.97212 6.40275
#
# Compressibility (1/GPa) = 0.03607456
#
# Stress axis : x y z
#
# Youngs Moduli (GPa) = 50.00603 75.53026 61.80185
#
# Poissons Ratio (x) = 0.31732 0.08984
# Poissons Ratio (y) = 0.21009 0.06284
# Poissons Ratio (z) = 0.07269 0.07680
#
# Static dielectric constant tensor:
#      x y z
#    x 1.703550 -0.026110 -0.019650 
#    y -0.026110 1.639550 0.019300 
#    z -0.019650 0.019300 1.668780 
# 
# From -- ./inp_files/262312.got.cif
#   From: 2010.05.17/outbox.cif.g08.bks.cpg/sg2_132_cif.got.tgz:262312.got - 2010.06.03 11:33:40.
