data_PCOD9098366
_publ_section_title
;
Structure prediction by ZEFSAII (Michael W. Deem and Ramdas Pophale) SiO2 
 PCOD9098366
Probable space group: P -1
;
_chemical_formula_sum "Si O2"
_cell_formula_units_Z 16
_cell_length_a 7.405069
_cell_length_b 10.951323
_cell_length_c 15.105982
_cell_angle_alpha 50.993698
_cell_angle_beta 51.290741
_cell_angle_gamma 43.727814
_cell_volume 623.965371
_symmetry_space_group_name_H-M "P -1"
_symmetry_group_IT_number 2
_symmetry_cell_setting 'triclinic'
loop_
_space_group_symop_operation_xyz
x,y,z
-x,-y,-z
loop_
_atom_site_type_symbol
_atom_site_label
_atom_site_fract_x
_atom_site_fract_y
_atom_site_fract_z
Si Si1 0.388215 0.786301 0.876009
Si Si2 0.395477 0.588334 0.131849
Si Si3 0.743328 0.145780 0.379399
Si Si4 0.433510 0.053870 0.374723
Si Si5 0.111083 0.088581 0.132102
Si Si6 0.991330 0.335992 0.626251
Si Si7 0.468314 0.474448 0.623532
Si Si8 0.315099 0.301504 0.874802
O O1 0.496696 0.595359 0.875587
O O2 0.091851 0.937373 0.856571
O O3 0.591722 0.851219 0.755037
O O4 0.349351 0.749271 0.004897
O O5 0.145077 0.621946 0.254134
O O6 0.617752 0.578427 0.135760
O O7 0.800330 0.974676 0.503406
O O8 0.630870 0.330696 0.386503
O O9 0.980471 0.122079 0.253579
O O10 0.514022 0.157227 0.375752
O O11 0.704673 0.845135 0.381797
O O12 0.413426 0.905797 0.123864
O O13 0.109037 0.259641 0.006299
O O14 0.771112 0.322596 0.639574
O O15 0.000000 0.500000 0.500000
O O16 0.500000 0.500000 0.500000
O O17 0.270927 0.403660 0.747620
#
# Coordination Sequence:
#
# PCOD9098366 Si02
#       8
#     2   2   2   2   2   2   2   2
#     4  10  21  38  61  94 120 153 201 252 302 350
#     4  10  22  38  60  92 124 152 199 252 299 364
#     4  10  20  37  63  90 116 161 200 244 305 356
#     4  10  20  36  65  92 119 161 201 249 303 361
#     4  10  21  40  65  88 115 161 205 245 301 362
#     4  11  21  37  60  90 120 161 202 245 303 358
#     4  11  23  40  59  91 125 160 201 251 302 360
#     4  10  22  41  62  85 120 162 202 245 304 364
#
# _framework density 25.642448000000002
#
# number of rings (size 3 to 8) (size 9 to 14) (size 15 to 20)
#    0.000    1.750    1.250    6.000    1.750    5.000 
#    4.500    3.750    0.000    0.000    0.000    0.000 
#    0.000    0.000    0.000    0.000    0.000    0.000 
#
# Total GULP energy -89507.415495 kJ/mol
# GULP energy per Si atom -5594.213468 kJ/mol
# Density = 2.558408 g / cm^3
# Si number density = 25.642448 Si / 1000 Ang^3
#
#
#
# Elastic Constant Matrix: (Units=GPa)
#
#
# Indices 1 2 3 4 5 6 
#
# 1 47.9549 7.2164 35.2469 7.9781 1.6463 5.2340
# 2 7.2164 104.0466 61.9572 14.7931 6.6644 6.0085
# 3 35.2469 61.9572 322.5678 -1.2201 -8.9731 14.0610
# 4 7.9781 14.7931 -1.2201 47.8417 9.6750 -7.7694
# 5 1.6463 6.6644 -8.9731 9.6750 34.2919 -0.6941
# 6 5.2340 6.0085 14.0610 -7.7694 -0.6941 20.3649
#
#
#
# Elastic Compliance Matrix: (Units=1/GPa)
#
#
# Indices 1 2 3 4 5 6 
#
# 1 0.024275 0.001073 -0.002599 -0.005425 -0.000662 -0.006854
# 2 0.001073 0.011829 -0.002290 -0.004141 -0.001859 -0.003828
# 3 -0.002599 -0.002290 0.003908 0.000807 0.001345 -0.001001
# 4 -0.005425 -0.004141 0.000807 0.026224 -0.005882 0.011863
# 5 -0.000662 -0.001859 0.001345 -0.005882 0.031538 -0.001379
# 6 -0.006854 -0.003828 -0.001001 0.011863 -0.001379 0.057165
#
#
# Mechanical properties :
#
#
# Convention : Reuss Voigt Hill
#
# Bulk Modulus (GPa) = 30.88184 75.93447 53.40816
# Shear Modulus (GPa) = 28.84108 45.17629 37.00868
#
# Velocity S-wave (km/s) = 3.35735 4.20191 3.80315
# Velocity P-wave (km/s) = 5.20562 7.29510 6.33707
#
# Compressibility (1/GPa) = 0.03238149
#
# Stress axis : x y z
#
# Youngs Moduli (GPa) = 41.19475 84.53775 255.88368
#
# Poissons Ratio (x) = -0.09075 0.66501
# Poissons Ratio (y) = -0.04422 0.58594
# Poissons Ratio (z) = 0.10706 0.19358
#
# Static dielectric constant tensor:
#      x y z
#    x 2.072380 -0.024170 -0.025740 
#    y -0.024170 2.016580 -0.040010 
#    z -0.025740 -0.040010 2.162060 
# 
# From -- ./inp_files/499998.got.cif
#   From: 2010.05.17/outbox.cif.g08.bks.cpg/sg2_250_cif.got.tgz:499998.got - 2010.06.03 11:33:40.
