data_PCOD9098930
_publ_section_title
;
Structure prediction by ZEFSAII (Michael W. Deem and Ramdas Pophale) SiO2 
 PCOD9098930
Probable space group: P -1
;
_chemical_formula_sum "Si O2"
_cell_formula_units_Z 16
_cell_length_a 12.507323
_cell_length_b 15.716599
_cell_length_c 8.401949
_cell_angle_alpha 41.162726
_cell_angle_beta 103.543755
_cell_angle_gamma 127.679613
_cell_volume 775.185691
_symmetry_space_group_name_H-M "P -1"
_symmetry_group_IT_number 2
_symmetry_cell_setting 'triclinic'
loop_
_space_group_symop_operation_xyz
x,y,z
-x,-y,-z
loop_
_atom_site_type_symbol
_atom_site_label
_atom_site_fract_x
_atom_site_fract_y
_atom_site_fract_z
Si Si1 0.040201 0.985946 0.771516
Si Si2 0.816939 0.577623 0.206480
Si Si3 0.582624 0.589872 0.151341
Si Si4 0.092898 0.567976 0.773220
Si Si5 0.323811 0.850522 0.676281
Si Si6 0.210533 0.044573 0.431176
Si Si7 0.183868 0.532599 0.313866
Si Si8 0.273130 0.315472 0.580246
O O1 0.924477 0.008810 0.652927
O O2 0.152683 0.045197 0.581609
O O3 0.143495 0.112068 0.775413
O O4 0.937122 0.775730 0.040967
O O5 0.670601 0.543289 0.163421
O O6 0.885050 0.557092 0.111108
O O7 0.775202 0.444083 0.519174
O O8 0.408658 0.424621 0.347104
O O9 0.653468 0.653545 0.265514
O O10 0.636983 0.760856 0.840508
O O11 0.250540 0.751919 0.620789
O O12 0.989489 0.564681 0.621680
O O13 0.000000 0.500000 0.000000
O O14 0.500000 0.000000 0.500000
O O15 0.245080 0.921434 0.601413
O O16 0.280265 0.709309 0.993617
O O17 0.209537 0.409906 0.427705
#
# Coordination Sequence:
#
# PCOD9098930 Si02
#       8
#     2   2   2   2   2   2   2   2
#     4  10  21  36  60  82 110 142 188 238 270 328
#     4  10  21  39  58  85 112 146 188 232 284 326
#     4   9  21  37  57  82 119 145 178 231 280 338
#     4  10  21  37  58  80 112 149 184 229 278 330
#     4  11  23  38  57  82 114 151 188 227 274 336
#     4  10  21  37  53  82 112 143 186 231 277 324
#     4  10  21  37  59  82 115 149 187 230 274 335
#     4  10  20  37  58  86 111 148 184 224 285 328
#
# _framework density 20.640217
#
# number of rings (size 3 to 8) (size 9 to 14) (size 15 to 20)
#    0.000    2.000    0.000    3.375    0.000   12.000 
#    0.000    0.625    0.000    0.000    0.000    0.000 
#    0.000    0.000    0.000    0.000    0.000    0.000 
#
# Total GULP energy -89339.335578 kJ/mol
# GULP energy per Si atom -5583.708474 kJ/mol
# Density = 2.059324 g / cm^3
# Si number density = 20.640217 Si / 1000 Ang^3
#
#
#
# Elastic Constant Matrix: (Units=GPa)
#
#
# Indices 1 2 3 4 5 6 
#
# 1 112.1782 42.1874 32.2412 -24.8164 -9.0656 -21.1561
# 2 42.1874 58.9925 13.0594 -20.3344 -1.1141 -3.1334
# 3 32.2412 13.0594 98.6857 -8.9664 -7.6303 -9.1767
# 4 -24.8164 -20.3344 -8.9664 20.6806 5.8793 -6.1179
# 5 -9.0656 -1.1141 -7.6303 5.8793 34.7259 -8.5185
# 6 -21.1561 -3.1334 -9.1767 -6.1179 -8.5185 24.8435
#
#
#
# Elastic Compliance Matrix: (Units=1/GPa)
#
#
# Indices 1 2 3 4 5 6 
#
# 1 0.023789 -0.004809 -0.001091 0.029748 0.007969 0.029306
# 2 -0.004809 0.029350 0.000191 0.025563 -0.003423 0.004799
# 3 -0.001091 0.000191 0.011629 0.004753 0.002829 0.005531
# 4 0.029748 0.025563 0.004753 0.129012 0.003295 0.063213
# 5 0.007969 -0.003423 0.002829 0.003295 0.035862 0.020507
# 6 0.029306 0.004799 0.005531 0.063213 0.020507 0.090455
#
#
# Mechanical properties :
#
#
# Convention : Reuss Voigt Hill
#
# Bulk Modulus (GPa) = 18.74422 49.42580 34.08501
# Shear Modulus (GPa) = 14.31444 28.20789 21.26117
#
# Velocity S-wave (km/s) = 2.63634 3.70083 3.21297
# Velocity P-wave (km/s) = 4.28581 6.50076 5.50582
#
# Compressibility (1/GPa) = 0.05334979
#
# Stress axis : x y z
#
# Youngs Moduli (GPa) = 42.03686 34.07161 85.99049
#
# Poissons Ratio (x) = 0.16386 0.09384
# Poissons Ratio (y) = 0.20216 -0.01646
# Poissons Ratio (z) = 0.04587 -0.00652
#
# Static dielectric constant tensor:
#      x y z
#    x 1.738960 0.005940 -0.011190 
#    y 0.005940 1.774100 0.021060 
#    z -0.011190 0.021060 1.764470 
# 
# From -- ./inp_files/271570.got.cif
#   From: 2010.05.17/outbox.cif.g08.bks.cpg/sg2_136_cif.got.tgz:271570.got - 2010.06.03 11:33:40.
