data_PCOD9098784
_publ_section_title
;
Structure prediction by ZEFSAII (Michael W. Deem and Ramdas Pophale) SiO2 
 PCOD9098784
Probable space group: P -1
;
_chemical_formula_sum "Si O2"
_cell_formula_units_Z 14
_cell_length_a 18.502744
_cell_length_b 9.830308
_cell_length_c 7.571876
_cell_angle_alpha 48.376271
_cell_angle_beta 54.981826
_cell_angle_gamma 37.771124
_cell_volume 626.995856
_symmetry_space_group_name_H-M "P -1"
_symmetry_group_IT_number 2
_symmetry_cell_setting 'triclinic'
loop_
_space_group_symop_operation_xyz
x,y,z
-x,-y,-z
loop_
_atom_site_type_symbol
_atom_site_label
_atom_site_fract_x
_atom_site_fract_y
_atom_site_fract_z
Si Si1 0.111283 0.954805 0.797640
Si Si2 0.320839 0.100037 0.025658
Si Si3 0.093314 0.161044 0.292035
Si Si4 0.690835 0.735153 0.463788
Si Si5 0.486653 0.733128 0.835018
Si Si6 0.975737 0.678498 0.128138
Si Si7 0.775066 0.542920 0.870697
O O1 0.092850 0.006325 0.572101
O O2 0.224862 0.674323 0.920420
O O3 0.892205 0.447216 0.891565
O O4 0.000000 0.000000 0.000000
O O5 0.222649 0.077482 0.196193
O O6 0.274250 0.297167 0.761872
O O7 0.328013 0.205035 0.103425
O O8 0.441825 0.850647 0.992941
O O9 0.993707 0.445801 0.245444
O O10 0.069778 0.153764 0.126474
O O11 0.601874 0.688870 0.657921
O O12 0.893021 0.847273 0.263434
O O13 0.618705 0.025022 0.339247
O O14 0.783355 0.582588 0.620926
O O15 0.500000 0.500000 0.000000
#
# Coordination Sequence:
#
# PCOD9098784 Si02
#       7
#     2   2   2   2   2   2   2
#     4  10  22  35  53  84 118 158 204 239 293 351
#     4   9  21  38  60  85 119 154 196 253 297 347
#     4  10  20  37  57  84 117 160 206 244 291 351
#     4   9  21  42  63  87 125 150 193 255 301 360
#     4   9  20  43  66  89 115 158 195 240 318 365
#     4   9  21  37  57  81 119 160 202 245 290 345
#     4  10  21  37  58  87 119 157 197 246 302 345
#
# _framework density 22.328696999999998
#
# number of rings (size 3 to 8) (size 9 to 14) (size 15 to 20)
#    0.857    1.714    0.000    0.429    0.000   15.429 
#    5.143    0.714    0.000    0.000    0.000    0.000 
#    0.000    0.000    0.000    0.000    0.000    0.000 
#
# Total GULP energy -78026.325784 kJ/mol
# GULP energy per Si atom -5573.308985 kJ/mol
# Density = 2.227788 g / cm^3
# Si number density = 22.328697 Si / 1000 Ang^3
#
#
#
# Elastic Constant Matrix: (Units=GPa)
#
#
# Indices 1 2 3 4 5 6 
#
# 1 29.3545 1.2110 10.8755 -0.1426 -0.1613 -1.9725
# 2 1.2110 39.8814 1.5313 2.7816 -12.8856 11.2143
# 3 10.8755 1.5313 113.4410 3.4902 0.3462 -12.1993
# 4 -0.1426 2.7816 3.4902 35.7634 1.8180 -7.2551
# 5 -0.1613 -12.8856 0.3462 1.8180 37.9351 1.5078
# 6 -1.9725 11.2143 -12.1993 -7.2551 1.5078 19.9651
#
#
#
# Elastic Compliance Matrix: (Units=1/GPa)
#
#
# Indices 1 2 3 4 5 6 
#
# 1 0.035525 -0.002306 -0.003037 0.001370 -0.000809 0.003508
# 2 -0.002306 0.038593 -0.003100 -0.009185 0.014691 -0.028247
# 3 -0.003037 -0.003100 0.009984 0.000956 -0.001521 0.008004
# 4 0.001370 -0.009185 0.000956 0.032537 -0.005402 0.018110
# 5 -0.000809 0.014691 -0.001521 -0.005402 0.032163 -0.013653
# 6 0.003508 -0.028247 0.008004 0.018110 -0.013653 0.078803
#
#
# Mechanical properties :
#
#
# Convention : Reuss Voigt Hill
#
# Bulk Modulus (GPa) = 14.87719 23.32362 19.10041
# Shear Modulus (GPa) = 18.73398 30.00334 24.36866
#
# Velocity S-wave (km/s) = 2.89971 3.66964 3.30716
# Velocity P-wave (km/s) = 4.22946 5.33135 4.81205
#
# Compressibility (1/GPa) = 0.06721701
#
# Stress axis : x y z
#
# Youngs Moduli (GPa) = 28.14953 25.91124 100.15916
#
# Poissons Ratio (x) = 0.05974 0.30418
# Poissons Ratio (y) = 0.06490 0.31047
# Poissons Ratio (z) = 0.08549 0.08032
#
# Static dielectric constant tensor:
#      x y z
#    x 1.869220 0.020050 -0.017110 
#    y 0.020050 1.919690 -0.034120 
#    z -0.017110 -0.034120 1.825040 
# 
# From -- ./inp_files/353322.got.cif
#   From: 2010.05.17/outbox.cif.g08.bks.cpg/sg2_177_cif.got.tgz:353322.got - 2010.06.03 11:33:40.
