data_PCOD9098497
_publ_section_title
;
Structure prediction by ZEFSAII (Michael W. Deem and Ramdas Pophale) SiO2 
 PCOD9098497
Probable space group: P -1
;
_chemical_formula_sum "Si O2"
_cell_formula_units_Z 16
_cell_length_a 13.991207
_cell_length_b 9.063640
_cell_length_c 11.176250
_cell_angle_alpha 138.386261
_cell_angle_beta 39.986345
_cell_angle_gamma 119.321076
_cell_volume 593.244741
_symmetry_space_group_name_H-M "P -1"
_symmetry_group_IT_number 2
_symmetry_cell_setting 'triclinic'
loop_
_space_group_symop_operation_xyz
x,y,z
-x,-y,-z
loop_
_atom_site_type_symbol
_atom_site_label
_atom_site_fract_x
_atom_site_fract_y
_atom_site_fract_z
Si Si1 0.219095 0.834537 0.210745
Si Si2 0.052334 0.022847 0.709477
Si Si3 0.744081 0.700795 0.588036
Si Si4 0.606132 0.182992 0.742539
Si Si5 0.150807 0.061708 0.956728
Si Si6 0.072580 0.448970 0.094715
Si Si7 0.438183 0.662986 0.377055
Si Si8 0.582481 0.699876 0.499599
O O1 0.344608 0.725287 0.122713
O O2 0.161946 0.638101 0.076693
O O3 0.914012 0.579112 0.377248
O O4 0.279690 0.031046 0.203170
O O5 0.083854 0.965189 0.506008
O O6 0.220823 0.911659 0.530531
O O7 0.036960 0.278969 0.924249
O O8 0.912081 0.927527 0.840704
O O9 0.635679 0.558659 0.670428
O O10 0.715347 0.678377 0.458472
O O11 0.526714 0.304403 0.776065
O O12 0.528504 0.972489 0.723745
O O13 0.300448 0.870973 0.678754
O O14 0.156939 0.298940 0.032082
O O15 0.000000 0.000000 0.000000
O O16 0.570000 0.675351 0.353535
O O17 0.500000 0.500000 0.500000
#
# Coordination Sequence:
#
# PCOD9098497 Si02
#       8
#     2   2   2   2   2   2   2   2
#     4   9  21  33  51  85 114 149 181 218 290 331
#     4   9  18  33  52  83 115 134 185 222 276 332
#     4  10  19  34  50  77 116 145 183 229 269 327
#     4   9  17  35  52  83 112 133 192 231 262 334
#     4  10  16  31  51  83 108 141 175 230 281 312
#     4  11  18  33  58  78 121 145 174 232 287 325
#     4  11  17  33  58  80 110 151 184 233 273 325
#     4   9  20  32  52  83 109 148 194 220 274 331
#
# _framework density 26.970320999999998
#
# number of rings (size 3 to 8) (size 9 to 14) (size 15 to 20)
#    0.750    1.500    5.000    0.750    0.000    1.000 
#    0.000    0.000    0.000    3.000    0.000    5.250 
#    0.000    0.000    0.000    0.000    0.000    0.000 
#
# Total GULP energy -89333.274643 kJ/mol
# GULP energy per Si atom -5583.329665 kJ/mol
# Density = 2.690894 g / cm^3
# Si number density = 26.970321 Si / 1000 Ang^3
#
#
#
# Elastic Constant Matrix: (Units=GPa)
#
#
# Indices 1 2 3 4 5 6 
#
# 1 123.6323 52.3458 32.2613 20.1711 11.0137 -7.8380
# 2 52.3458 170.4761 44.0828 22.3893 -5.1824 -8.7469
# 3 32.2613 44.0828 100.1347 -5.4132 -14.9329 -6.6675
# 4 20.1711 22.3893 -5.4132 41.9130 -1.7054 3.2525
# 5 11.0137 -5.1824 -14.9329 -1.7054 29.8110 9.2279
# 6 -7.8380 -8.7469 -6.6675 3.2525 9.2279 46.3871
#
#
#
# Elastic Compliance Matrix: (Units=1/GPa)
#
#
# Indices 1 2 3 4 5 6 
#
# 1 0.011885 -0.001845 -0.004349 -0.005867 -0.008177 0.003073
# 2 -0.001845 0.007728 -0.002936 -0.003693 0.000042 0.000974
# 3 -0.004349 -0.002936 0.014253 0.005983 0.009029 -0.001455
# 4 -0.005867 -0.003693 0.005983 0.030084 0.007622 -0.004453
# 5 -0.008177 0.000042 0.009029 0.007622 0.044458 -0.009455
# 6 0.003073 0.000974 -0.001455 -0.004453 -0.009455 0.024245
#
#
# Mechanical properties :
#
#
# Convention : Reuss Voigt Hill
#
# Bulk Modulus (GPa) = 64.07852 72.40254 68.24053
# Shear Modulus (GPa) = 32.02758 41.32576 36.67667
#
# Velocity S-wave (km/s) = 3.44977 3.91867 3.69167
# Velocity P-wave (km/s) = 6.29907 6.88318 6.59759
#
# Compressibility (1/GPa) = 0.01560585
#
# Stress axis : x y z
#
# Youngs Moduli (GPa) = 84.13935 129.39787 70.15964
#
# Poissons Ratio (x) = 0.23877 0.30511
# Poissons Ratio (y) = 0.15526 0.20601
# Poissons Ratio (z) = 0.36590 0.37995
#
# Static dielectric constant tensor:
#      x y z
#    x 2.099720 -0.052710 -0.014600 
#    y -0.052710 2.118910 0.001220 
#    z -0.014600 0.001220 2.217460 
# 
# From -- ./inp_files/529115.got.cif
#   From: 2010.05.17/outbox.cif.g08.bks.cpg/sg2_265_cif.got.tgz:529115.got - 2010.06.03 11:33:40.
