data_PCOD9098590
_publ_section_title
;
Structure prediction by ZEFSAII (Michael W. Deem and Ramdas Pophale) SiO2 
 PCOD9098590
Probable space group: P -1
;
_chemical_formula_sum "Si O2"
_cell_formula_units_Z 14
_cell_length_a 6.750896
_cell_length_b 8.140943
_cell_length_c 11.484057
_cell_angle_alpha 90.283428
_cell_angle_beta 72.662751
_cell_angle_gamma 103.734744
_cell_volume 583.770453
_symmetry_space_group_name_H-M "P -1"
_symmetry_group_IT_number 2
_symmetry_cell_setting 'triclinic'
loop_
_space_group_symop_operation_xyz
x,y,z
-x,-y,-z
loop_
_atom_site_type_symbol
_atom_site_label
_atom_site_fract_x
_atom_site_fract_y
_atom_site_fract_z
Si Si1 0.071043 0.329153 0.465419
Si Si2 0.549489 0.730276 0.145428
Si Si3 0.277758 0.365345 0.192261
Si Si4 0.160875 0.224170 0.703875
Si Si5 0.157557 0.845106 0.699109
Si Si6 0.438536 0.891627 0.856000
Si Si7 0.992611 0.312984 0.956200
O O1 0.258737 0.360683 0.337011
O O2 0.141069 0.266641 0.574290
O O3 0.873525 0.200923 0.431701
O O4 0.000000 0.500000 0.500000
O O5 0.392267 0.554481 0.135165
O O6 0.607015 0.720552 0.273750
O O7 0.487589 0.906876 0.136882
O O8 0.784523 0.735918 0.051704
O O9 0.026452 0.300448 0.208504
O O10 0.407638 0.226854 0.137755
O O11 0.010697 0.306205 0.812049
O O12 0.095136 0.021945 0.728944
O O13 0.376062 0.861531 0.729683
O O14 0.215211 0.820250 0.961844
O O15 0.000000 0.500000 0.000000
#
# Coordination Sequence:
#
# PCOD9098590 Si02
#       7
#     2   2   2   2   2   2   2
#     4  10  23  40  64  93 130 166 212 265 320 378
#     4   9  21  37  64  97 124 166 217 255 320 378
#     4  10  23  40  63  99 128 162 216 270 309 381
#     4   9  20  41  63  91 122 176 211 251 324 380
#     4   9  23  40  65  93 127 166 213 262 320 374
#     4  11  20  44  67  92 128 173 210 260 324 378
#     4  10  20  36  72  90 128 171 211 262 317 382
#
# _framework density 23.982026999999999
#
# number of rings (size 3 to 8) (size 9 to 14) (size 15 to 20)
#    1.714    0.571    1.429    0.857    4.000    1.714 
#    0.000    2.857    3.143    0.000    0.000    0.000 
#    0.000    0.000    0.000    0.000    0.000    0.000 
#
# Total GULP energy -78196.538563 kJ/mol
# GULP energy per Si atom -5585.467040 kJ/mol
# Density = 2.392744 g / cm^3
# Si number density = 23.982027 Si / 1000 Ang^3
#
#
#
# Elastic Constant Matrix: (Units=GPa)
#
#
# Indices 1 2 3 4 5 6 
#
# 1 80.5127 52.6220 20.5286 9.3515 13.9614 -12.6441
# 2 52.6220 163.0686 26.8861 24.2190 8.5829 -11.0222
# 3 20.5286 26.8861 105.6602 8.9313 18.4765 -10.1430
# 4 9.3515 24.2190 8.9313 46.8338 -2.5087 -0.2739
# 5 13.9614 8.5829 18.4765 -2.5087 38.9796 7.0815
# 6 -12.6441 -11.0222 -10.1430 -0.2739 7.0815 32.3545
#
#
#
# Elastic Compliance Matrix: (Units=1/GPa)
#
#
# Indices 1 2 3 4 5 6 
#
# 1 0.017950 -0.004729 -0.000387 -0.001374 -0.006509 0.006695
# 2 -0.004729 0.008325 -0.000848 -0.003199 -0.000072 0.000711
# 3 -0.000387 -0.000848 0.011396 -0.001953 -0.006007 0.004431
# 4 -0.001374 -0.003199 -0.001953 0.023861 0.004195 -0.002955
# 5 -0.006509 -0.000072 -0.006007 0.004195 0.033243 -0.011692
# 6 0.006695 0.000711 0.004431 -0.002955 -0.011692 0.037689
#
#
# Mechanical properties :
#
#
# Convention : Reuss Voigt Hill
#
# Bulk Modulus (GPa) = 38.84665 61.03497 49.94081
# Shear Modulus (GPa) = 32.68513 40.24722 36.46617
#
# Velocity S-wave (km/s) = 3.69575 4.10106 3.90367
# Velocity P-wave (km/s) = 5.86897 6.92318 6.41776
#
# Compressibility (1/GPa) = 0.02574225
#
# Stress axis : x y z
#
# Youngs Moduli (GPa) = 55.71048 120.11503 87.74832
#
# Poissons Ratio (x) = 0.56807 0.03395
# Poissons Ratio (y) = 0.26348 0.07444
# Poissons Ratio (z) = 0.02155 0.10190
#
# Static dielectric constant tensor:
#      x y z
#    x 1.933790 0.025480 0.069010 
#    y 0.025480 1.859020 -0.008770 
#    z 0.069010 -0.008770 2.009590 
# 
# From -- ./inp_files/379873.got.cif
#   From: 2010.05.17/outbox.cif.g08.bks.cpg/sg2_190_cif.got.tgz:379873.got - 2010.06.03 11:33:40.
