data_PCOD9098573
_publ_section_title
;
Structure prediction by ZEFSAII (Michael W. Deem and Ramdas Pophale) SiO2 
 PCOD9098573
Probable space group: P -1
;
_chemical_formula_sum "Si O2"
_cell_formula_units_Z 16
_cell_length_a 7.753941
_cell_length_b 14.597480
_cell_length_c 14.053693
_cell_angle_alpha 152.630439
_cell_angle_beta 79.271990
_cell_angle_gamma 96.076665
_cell_volume 712.261515
_symmetry_space_group_name_H-M "P -1"
_symmetry_group_IT_number 2
_symmetry_cell_setting 'triclinic'
loop_
_space_group_symop_operation_xyz
x,y,z
-x,-y,-z
loop_
_atom_site_type_symbol
_atom_site_label
_atom_site_fract_x
_atom_site_fract_y
_atom_site_fract_z
Si Si1 0.882880 0.392571 0.483990
Si Si2 0.899422 0.936706 0.748610
Si Si3 0.625451 0.174891 0.638650
Si Si4 0.512869 0.611207 0.973110
Si Si5 0.500504 0.430542 0.279105
Si Si6 0.693357 0.115416 0.113238
Si Si7 0.472270 0.104027 0.297038
Si Si8 0.778932 0.911512 0.228627
O O1 0.711895 0.545909 0.669867
O O2 0.813155 0.210736 0.266240
O O3 0.000000 0.500000 0.500000
O O4 0.990121 0.285393 0.462280
O O5 0.724646 0.944726 0.710379
O O6 0.036184 0.088685 0.845013
O O7 0.815881 0.978342 0.901094
O O8 0.544063 0.372413 0.769407
O O9 0.500000 0.000000 0.500000
O O10 0.786831 0.050988 0.450264
O O11 0.629962 0.273509 0.833422
O O12 0.458415 0.647846 0.903526
O O13 0.698336 0.702602 0.059126
O O14 0.600595 0.303245 0.234856
O O15 0.546166 0.656254 0.488991
O O16 0.553207 0.024618 0.112785
O O17 0.618927 0.030106 0.291549
#
# Coordination Sequence:
#
# PCOD9098573 Si02
#       8
#     2   2   2   2   2   2   2   2
#     4  11  22  36  58  85 126 174 218 267 314 362
#     4  12  23  38  60  92 127 174 217 266 317 371
#     4   9  19  40  67  99 122 160 208 262 328 393
#     4  10  20  36  69  95 124 165 210 261 325 391
#     4  11  21  40  60  92 128 170 219 261 316 381
#     4  11  23  38  56  89 133 172 223 260 308 372
#     4  11  22  40  61  88 136 175 215 264 311 369
#     4  11  22  40  64  98 130 163 216 267 322 382
#
# _framework density 22.463659
#
# number of rings (size 3 to 8) (size 9 to 14) (size 15 to 20)
#    0.000    1.250    3.750    4.500    1.750    0.000 
#    2.250    0.000    0.000   12.750    0.000    0.000 
#    0.000    0.000    0.000    0.000    0.000    0.000 
#
# Total GULP energy -89373.031737 kJ/mol
# GULP energy per Si atom -5585.814484 kJ/mol
# Density = 2.241253 g / cm^3
# Si number density = 22.463659 Si / 1000 Ang^3
#
#
#
# Elastic Constant Matrix: (Units=GPa)
#
#
# Indices 1 2 3 4 5 6 
#
# 1 101.6558 31.3691 14.8612 5.1378 -17.3506 15.3308
# 2 31.3691 87.9320 16.1925 5.2597 -8.5433 11.0726
# 3 14.8612 16.1925 84.1221 -0.4702 -0.8603 0.5124
# 4 5.1378 5.2597 -0.4702 52.4274 -1.2018 8.0532
# 5 -17.3506 -8.5433 -0.8603 -1.2018 27.3162 7.0013
# 6 15.3308 11.0726 0.5124 8.0532 7.0013 26.1580
#
#
#
# Elastic Compliance Matrix: (Units=1/GPa)
#
#
# Indices 1 2 3 4 5 6 
#
# 1 0.014265 -0.002403 -0.001878 0.000683 0.010958 -0.010450
# 2 -0.002403 0.013708 -0.002141 -0.000242 0.004057 -0.005364
# 3 -0.001878 -0.002141 0.012597 0.000116 -0.002043 0.002271
# 4 0.000683 -0.000242 0.000116 0.020237 0.003141 -0.007371
# 5 0.010958 0.004057 -0.002043 0.003141 0.050715 -0.022641
# 6 -0.010450 -0.005364 0.002271 -0.007371 -0.022641 0.054909
#
#
# Mechanical properties :
#
#
# Convention : Reuss Voigt Hill
#
# Bulk Modulus (GPa) = 36.06806 44.28393 40.17600
# Shear Modulus (GPa) = 26.52276 35.26613 30.89444
#
# Velocity S-wave (km/s) = 3.43985 3.96652 3.71254
# Velocity P-wave (km/s) = 5.64516 6.38233 6.02503
#
# Compressibility (1/GPa) = 0.02772536
#
# Stress axis : x y z
#
# Youngs Moduli (GPa) = 70.10128 72.94895 79.38190
#
# Poissons Ratio (x) = 0.17533 0.14907
# Poissons Ratio (y) = 0.16849 0.16998
# Poissons Ratio (z) = 0.13164 0.15620
#
# Static dielectric constant tensor:
#      x y z
#    x 1.851100 0.025490 0.038540 
#    y 0.025490 1.866030 -0.030420 
#    z 0.038540 -0.030420 1.891840 
# 
# From -- ./inp_files/505710.got.cif
#   From: 2010.05.17/outbox.cif.g08.bks.cpg/sg2_253_cif.got.tgz:505710.got - 2010.06.03 11:33:40.
