data_PCOD9098027
_publ_section_title
;
Structure prediction by ZEFSAII (Michael W. Deem and Ramdas Pophale) SiO2 
 PCOD9098027
Probable space group: P -1
;
_chemical_formula_sum "Si O2"
_cell_formula_units_Z 16
_cell_length_a 12.610167
_cell_length_b 8.760370
_cell_length_c 9.006597
_cell_angle_alpha 124.285468
_cell_angle_beta 60.164421
_cell_angle_gamma 102.805435
_cell_volume 710.724690
_symmetry_space_group_name_H-M "P -1"
_symmetry_group_IT_number 2
_symmetry_cell_setting 'triclinic'
loop_
_space_group_symop_operation_xyz
x,y,z
-x,-y,-z
loop_
_atom_site_type_symbol
_atom_site_label
_atom_site_fract_x
_atom_site_fract_y
_atom_site_fract_z
Si Si1 0.696661 0.594453 0.899525
Si Si2 0.068342 0.924546 0.762053
Si Si3 0.443567 0.773591 0.280248
Si Si4 0.864211 0.753768 0.616806
Si Si5 0.722562 0.491319 0.135359
Si Si6 0.461421 0.542708 0.384822
Si Si7 0.810027 0.412134 0.334077
Si Si8 0.747297 0.890685 0.474542
O O1 0.629883 0.411636 0.795937
O O2 0.782104 0.691474 0.778140
O O3 0.580424 0.739486 0.101633
O O4 0.772802 0.526937 0.956811
O O5 0.158719 0.760944 0.678172
O O6 0.974921 0.846495 0.667144
O O7 0.147219 0.059361 0.686704
O O8 0.000000 0.000000 0.000000
O O9 0.456599 0.751276 0.437770
O O10 0.363486 0.951394 0.377823
O O11 0.902825 0.565208 0.393410
O O12 0.794900 0.878791 0.605107
O O13 0.583026 0.438267 0.167302
O O14 0.794679 0.369492 0.145780
O O15 0.712339 0.690847 0.333721
O O16 0.500000 0.500000 0.500000
O O17 0.321753 0.495580 0.467817
#
# Coordination Sequence:
#
# PCOD9098027 Si02
#       8
#     2   2   2   2   2   2   2   2
#     4  10  20  38  60  91 125 156 203 246 301 360
#     4  12  25  42  62  89 123 159 209 265 300 343
#     4  10  20  36  63  88 125 161 195 252 302 363
#     4  11  23  41  64  86 121 169 204 246 299 368
#     4   9  21  36  62  92 121 156 196 251 304 364
#     4   9  16  33  60  89 115 151 197 236 291 363
#     4  10  20  41  64  86 116 165 208 241 303 371
#     4  11  23  42  60  90 124 160 207 248 308 363
#
# _framework density 22.512232999999998
#
# number of rings (size 3 to 8) (size 9 to 14) (size 15 to 20)
#    0.000    1.750    2.500    1.500    0.000    3.500 
#    2.250    6.875    0.000    0.000    0.000    0.000 
#    0.000    0.000    0.000    0.000    0.000    0.000 
#
# Total GULP energy -89088.496571 kJ/mol
# GULP energy per Si atom -5568.031036 kJ/mol
# Density = 2.246099 g / cm^3
# Si number density = 22.512233 Si / 1000 Ang^3
#
#
#
# Elastic Constant Matrix: (Units=GPa)
#
#
# Indices 1 2 3 4 5 6 
#
# 1 108.7467 37.1427 23.3551 -15.9380 19.7676 -11.1266
# 2 37.1427 99.1034 16.0270 -33.4778 4.0037 -20.3922
# 3 23.3551 16.0270 44.5283 -25.6005 4.4100 -3.0590
# 4 -15.9380 -33.4778 -25.6005 30.5575 -9.6403 15.6144
# 5 19.7676 4.0037 4.4100 -9.6403 23.7728 -12.1094
# 6 -11.1266 -20.3922 -3.0590 15.6144 -12.1094 42.1008
#
#
#
# Elastic Compliance Matrix: (Units=1/GPa)
#
#
# Indices 1 2 3 4 5 6 
#
# 1 0.015755 -0.009498 -0.014990 -0.020635 -0.016364 0.001420
# 2 -0.009498 0.024736 0.020097 0.044935 0.017932 -0.000576
# 3 -0.014990 0.020097 0.070670 0.088747 0.024310 -0.015015
# 4 -0.020635 0.044935 0.088747 0.175641 0.050105 -0.027971
# 5 -0.016364 0.017932 0.024310 0.050105 0.072779 0.008477
# 6 0.001420 -0.000576 -0.015015 -0.027971 0.008477 0.035570
#
#
# Mechanical properties :
#
#
# Convention : Reuss Voigt Hill
#
# Bulk Modulus (GPa) = 9.76760 45.04754 27.40757
# Shear Modulus (GPa) = 11.41396 31.00981 21.21188
#
# Velocity S-wave (km/s) = 2.25413 3.71545 3.07292
# Velocity P-wave (km/s) = 3.33512 6.20159 4.97910
#
# Compressibility (1/GPa) = 0.10237926
#
# Stress axis : x y z
#
# Youngs Moduli (GPa) = 63.47312 40.42643 14.15027
#
# Poissons Ratio (x) = 0.38396 0.21211
# Poissons Ratio (y) = 0.60285 -0.28438
# Poissons Ratio (z) = 0.95147 -0.81245
#
# Static dielectric constant tensor:
#      x y z
#    x 2.005710 0.001100 0.056270 
#    y 0.001100 1.868310 -0.024930 
#    z 0.056270 -0.024930 2.035400 
# 
# From -- ./inp_files/245345.got.cif
#   From: 2010.05.17/outbox.cif.g08.bks.cpg/sg2_123_cif.got.tgz:245345.got - 2010.06.03 11:33:40.
