data_PCOD9098542
_publ_section_title
;
Structure prediction by ZEFSAII (Michael W. Deem and Ramdas Pophale) SiO2 
 PCOD9098542
Probable space group: P -1
;
_chemical_formula_sum "Si O2"
_cell_formula_units_Z 11
_cell_length_a 5.270855
_cell_length_b 13.061533
_cell_length_c 12.603357
_cell_angle_alpha 46.497499
_cell_angle_beta 55.496221
_cell_angle_gamma 51.067672
_cell_volume 475.598704
_symmetry_space_group_name_H-M "P -1"
_symmetry_group_IT_number 2
_symmetry_cell_setting 'triclinic'
loop_
_space_group_symop_operation_xyz
x,y,z
-x,-y,-z
loop_
_atom_site_type_symbol
_atom_site_label
_atom_site_fract_x
_atom_site_fract_y
_atom_site_fract_z
Si Si1 0.565358 0.969897 0.130525
Si Si2 0.500000 0.000000 0.500000
Si Si3 0.203244 0.585685 0.764770
Si Si4 0.318326 0.866747 0.457979
Si Si5 0.708838 0.255814 0.928128
Si Si6 0.426436 0.707751 0.831898
O O1 0.337971 0.918043 0.297929
O O2 0.937479 0.835688 0.146826
O O3 0.500000 0.000000 0.000000
O O4 0.544013 0.131998 0.063003
O O5 0.601456 0.876020 0.461652
O O6 0.425007 0.872032 0.680913
O O7 0.273701 0.708156 0.586169
O O8 0.470757 0.411632 0.816505
O O9 0.259486 0.645573 0.824213
O O10 0.823409 0.605031 0.825888
O O11 0.000000 0.000000 0.500000
O O12 0.753768 0.288160 0.017166
#
# Coordination Sequence:
#
# PCOD9098542 Si02
#       6
#     2   1   2   2   2   2
#     4  11  27  43  68  96 144 183 229 282 350 415
#     4  10  20  36  68  94 136 166 236 270 334 392
#     4  11  25  41  73 102 137 177 234 286 342 404
#     4  11  22  42  68 100 132 183 232 281 338 410
#     4  11  25  43  63 100 138 183 225 284 351 408
#     4  11  23  40  72 104 136 178 229 290 339 409
#
# _framework density 23.128741999999999
#
# number of rings (size 3 to 8) (size 9 to 14) (size 15 to 20)
#    0.000    1.091    3.636    1.091   10.182    0.727 
#    0.000    0.909    0.000    0.000    0.000    0.000 
#    0.000    0.000    0.000    0.000    0.000    0.000 
#
# Total GULP energy -61289.865819 kJ/mol
# GULP energy per Si atom -5571.805984 kJ/mol
# Density = 2.307610 g / cm^3
# Si number density = 23.128742 Si / 1000 Ang^3
#
#
#
# Elastic Constant Matrix: (Units=GPa)
#
#
# Indices 1 2 3 4 5 6 
#
# 1 71.7685 23.8750 20.1380 5.9610 14.5743 -8.1984
# 2 23.8750 102.6444 63.2732 -27.4356 -1.5055 -24.9378
# 3 20.1380 63.2732 174.9183 -5.7530 4.2849 -11.5956
# 4 5.9610 -27.4356 -5.7530 34.9193 8.2781 15.2049
# 5 14.5743 -1.5055 4.2849 8.2781 21.5670 2.3202
# 6 -8.1984 -24.9378 -11.5956 15.2049 2.3202 37.8942
#
#
#
# Elastic Compliance Matrix: (Units=1/GPa)
#
#
# Indices 1 2 3 4 5 6 
#
# 1 0.018958 -0.005447 0.000100 -0.006542 -0.011115 0.003853
# 2 -0.005447 0.018910 -0.005518 0.012793 0.000714 0.004401
# 3 0.000100 -0.005518 0.007623 -0.002859 -0.000862 -0.000077
# 4 -0.006542 0.012793 -0.002859 0.047216 -0.010934 -0.012147
# 5 -0.011115 0.000714 -0.000862 -0.010934 0.058446 -0.001390
# 6 0.003853 0.004401 -0.000077 -0.012147 -0.001390 0.035055
#
#
# Mechanical properties :
#
#
# Convention : Reuss Voigt Hill
#
# Bulk Modulus (GPa) = 42.08437 62.65595 52.37016
# Shear Modulus (GPa) = 23.16334 35.01240 29.08787
#
# Velocity S-wave (km/s) = 3.16808 3.89499 3.55018
# Velocity P-wave (km/s) = 5.62294 6.88308 6.28467
#
# Compressibility (1/GPa) = 0.02376179
#
# Stress axis : x y z
#
# Youngs Moduli (GPa) = 52.74718 52.88248 131.17376
#
# Poissons Ratio (x) = 0.28805 -0.01315
# Poissons Ratio (y) = 0.28732 0.72384
# Poissons Ratio (z) = -0.00529 0.29181
#
# Static dielectric constant tensor:
#      x y z
#    x 1.935940 -0.025800 0.025960 
#    y -0.025800 1.865150 -0.000620 
#    z 0.025960 -0.000620 1.879000 
# 
# From -- ./inp_files/42798.got.cif
#   From: 2010.05.17/outbox.cif.g08.bks.cpg/sg2_22_cif.got.tgz:42798.got - 2010.06.03 11:33:40.
