data_PCOD9098841
_publ_section_title
;
Structure prediction by ZEFSAII (Michael W. Deem and Ramdas Pophale) SiO2 
 PCOD9098841
Probable space group: P -1
;
_chemical_formula_sum "Si O2"
_cell_formula_units_Z 14
_cell_length_a 18.053506
_cell_length_b 10.053476
_cell_length_c 5.575476
_cell_angle_alpha 124.107586
_cell_angle_beta 106.884906
_cell_angle_gamma 108.739604
_cell_volume 634.661821
_symmetry_space_group_name_H-M "P -1"
_symmetry_group_IT_number 2
_symmetry_cell_setting 'triclinic'
loop_
_space_group_symop_operation_xyz
x,y,z
-x,-y,-z
loop_
_atom_site_type_symbol
_atom_site_label
_atom_site_fract_x
_atom_site_fract_y
_atom_site_fract_z
Si Si1 0.727029 0.233294 0.678915
Si Si2 0.462003 0.199588 0.797170
Si Si3 0.952499 0.882677 0.586489
Si Si4 0.748553 0.616189 0.305259
Si Si5 0.050263 0.507457 0.805979
Si Si6 0.566484 0.493201 0.788135
Si Si7 0.658965 0.366815 0.370192
O O1 0.697106 0.249559 0.397958
O O2 0.638276 0.019174 0.482826
O O3 0.730282 0.411109 0.989147
O O4 0.834865 0.297610 0.875146
O O5 0.480373 0.292789 0.643825
O O6 0.458978 0.354150 0.124206
O O7 0.559509 0.219974 0.971294
O O8 0.840571 0.796576 0.431585
O O9 0.952487 0.689514 0.392966
O O10 0.000000 0.000000 0.500000
O O11 0.000000 0.000000 0.000000
O O12 0.750538 0.575899 0.547255
O O13 0.655543 0.612391 0.187430
O O14 0.000000 0.500000 0.500000
O O15 0.000000 0.500000 0.000000
O O16 0.618058 0.441527 0.599193
#
# Coordination Sequence:
#
# PCOD9098841 Si02
#       7
#     2   2   2   2   2   2   2
#     4  10  23  38  65  86 129 166 225 262 338 398
#     4  10  20  37  57  94 126 167 212 267 330 391
#     4  11  25  43  73 101 132 179 235 286 343 415
#     4   9  22  39  61  86 127 166 217 267 335 391
#     4  11  26  48  71 101 142 180 228 294 353 405
#     4   9  20  36  58  85 132 163 209 268 324 395
#     4  10  20  37  61  91 122 172 211 271 320 404
#
# _framework density 22.058990999999999
#
# number of rings (size 3 to 8) (size 9 to 14) (size 15 to 20)
#    0.000    2.000    0.000    1.714   10.000    8.571 
#    0.000    0.000    0.000    0.000    0.000    0.000 
#    0.000    0.000    0.000    0.000    0.000    0.000 
#
# Total GULP energy -78010.232231 kJ/mol
# GULP energy per Si atom -5572.159445 kJ/mol
# Density = 2.200878 g / cm^3
# Si number density = 22.058991 Si / 1000 Ang^3
#
#
#
# Elastic Constant Matrix: (Units=GPa)
#
#
# Indices 1 2 3 4 5 6 
#
# 1 107.5886 52.4926 31.0079 -4.7214 27.5028 21.3854
# 2 52.4926 137.8912 41.3655 1.3257 34.5137 27.6943
# 3 31.0079 41.3655 71.4329 4.7338 17.6444 14.9845
# 4 -4.7214 1.3257 4.7338 27.3043 3.7619 7.6154
# 5 27.5028 34.5137 17.6444 3.7619 43.0084 -1.9698
# 6 21.3854 27.6943 14.9845 7.6154 -1.9698 46.8187
#
#
#
# Elastic Compliance Matrix: (Units=1/GPa)
#
#
# Indices 1 2 3 4 5 6 
#
# 1 0.014145 -0.001630 -0.002475 0.005642 -0.007487 -0.005937
# 2 -0.001630 0.011953 -0.003205 0.002437 -0.007724 -0.006022
# 3 -0.002475 -0.003205 0.018462 -0.002273 -0.003342 -0.002654
# 4 0.005642 0.002437 -0.002273 0.042013 -0.008787 -0.010495
# 5 -0.007487 -0.007724 -0.003342 -0.008787 0.036929 0.012042
# 6 -0.005937 -0.006022 -0.002654 -0.010495 0.012042 0.030696
#
#
# Mechanical properties :
#
#
# Convention : Reuss Voigt Hill
#
# Bulk Modulus (GPa) = 33.39933 62.96053 48.17993
# Shear Modulus (GPa) = 27.96433 36.22940 32.09687
#
# Velocity S-wave (km/s) = 3.56435 4.05703 3.81865
# Velocity P-wave (km/s) = 5.66685 7.10984 6.42896
#
# Compressibility (1/GPa) = 0.02994072
#
# Stress axis : x y z
#
# Youngs Moduli (GPa) = 70.69623 83.65867 54.16454
#
# Poissons Ratio (x) = 0.13636 0.13407
# Poissons Ratio (y) = 0.11523 0.17358
# Poissons Ratio (z) = 0.17499 0.26811
#
# Static dielectric constant tensor:
#      x y z
#    x 1.816890 0.045530 -0.018090 
#    y 0.045530 1.978310 -0.172020 
#    z -0.018090 -0.172020 2.010390 
# 
# From -- ./inp_files/34668.got.cif
#   From: 2010.05.17/outbox.cif.g08.bks.cpg/sg2_18_cif.got.tgz:34668.got - 2010.06.03 11:33:40.
