data_PCOD9098066
_publ_section_title
;
Structure prediction by ZEFSAII (Michael W. Deem and Ramdas Pophale) SiO2 
 PCOD9098066
Probable space group: P -1
;
_chemical_formula_sum "Si O2"
_cell_formula_units_Z 16
_cell_length_a 14.187000
_cell_length_b 8.675331
_cell_length_c 8.348151
_cell_angle_alpha 97.256310
_cell_angle_beta 52.163284
_cell_angle_gamma 79.950537
_cell_volume 762.182711
_symmetry_space_group_name_H-M "P -1"
_symmetry_group_IT_number 2
_symmetry_cell_setting 'triclinic'
loop_
_space_group_symop_operation_xyz
x,y,z
-x,-y,-z
loop_
_atom_site_type_symbol
_atom_site_label
_atom_site_fract_x
_atom_site_fract_y
_atom_site_fract_z
Si Si1 0.897957 0.509077 0.472554
Si Si2 0.363964 0.050099 0.731079
Si Si3 0.795673 0.129682 0.957065
Si Si4 0.021638 0.822895 0.808063
Si Si5 0.353549 0.221933 0.103821
Si Si6 0.999739 0.716088 0.166694
Si Si7 0.791818 0.996798 0.375950
Si Si8 0.633176 0.135787 0.831188
O O1 0.903080 0.325214 0.403666
O O2 0.764707 0.631639 0.688632
O O3 0.000000 0.500000 0.500000
O O4 0.956772 0.572982 0.265527
O O5 0.269490 0.105552 0.687678
O O6 0.500000 0.000000 0.500000
O O7 0.349021 0.173973 0.912929
O O8 0.320280 0.897495 0.822894
O O9 0.864495 0.265433 0.934868
O O10 0.732711 0.166713 0.853334
O O11 0.906400 0.952967 0.849166
O O12 0.119128 0.911374 0.783531
O O13 0.983365 0.746235 0.997658
O O14 0.359534 0.052395 0.163675
O O15 0.487755 0.244967 0.006732
O O16 0.891876 0.875058 0.374520
O O17 0.681836 0.129449 0.599958
#
# Coordination Sequence:
#
# PCOD9098066 Si02
#       8
#     2   2   2   2   2   2   2   2
#     4  12  26  41  62  90 131 168 202 252 317 377
#     4  11  19  35  63  92 123 152 202 262 302 361
#     4  10  21  38  65  98 123 154 216 259 306 362
#     4  11  23  41  62  93 129 161 204 255 314 376
#     4  10  22  39  58  95 122 162 208 251 309 364
#     4  11  22  40  64  92 123 164 212 259 305 360
#     4  11  20  37  67  95 117 159 211 262 310 349
#     4  10  20  36  63  92 121 155 207 263 304 357
#
# _framework density 20.992343999999999
#
# number of rings (size 3 to 8) (size 9 to 14) (size 15 to 20)
#    0.000    1.250    5.000    2.625    1.750    1.000 
#    0.000    0.625    0.000    0.750    0.000    0.000 
#    0.000    0.000    0.000    0.000    0.000    0.000 
#
# Total GULP energy -89095.334588 kJ/mol
# GULP energy per Si atom -5568.458412 kJ/mol
# Density = 2.094456 g / cm^3
# Si number density = 20.992344 Si / 1000 Ang^3
#
#
#
# Elastic Constant Matrix: (Units=GPa)
#
#
# Indices 1 2 3 4 5 6 
#
# 1 145.8539 21.0857 61.5354 11.8590 -16.6261 1.5159
# 2 21.0857 44.6055 35.9628 8.3364 -10.6061 4.8881
# 3 61.5354 35.9628 133.2218 8.3245 -23.2488 2.5412
# 4 11.8590 8.3364 8.3245 27.7975 -1.6315 2.8607
# 5 -16.6261 -10.6061 -23.2488 -1.6315 31.6401 -1.9668
# 6 1.5159 4.8881 2.5412 2.8607 -1.9668 21.2184
#
#
#
# Elastic Compliance Matrix: (Units=1/GPa)
#
#
# Indices 1 2 3 4 5 6 
#
# 1 0.008795 -0.000518 -0.003460 -0.002497 0.001802 0.000409
# 2 -0.000518 0.030964 -0.006861 -0.006234 0.004433 -0.005023
# 3 -0.003460 -0.006861 0.011723 0.000206 0.004558 0.000818
# 4 -0.002497 -0.006234 0.000206 0.039155 -0.001469 -0.003825
# 5 0.001802 0.004433 0.004558 -0.001469 0.037434 0.001972
# 6 0.000409 -0.005023 0.000818 -0.003825 0.001972 0.048857
#
#
# Mechanical properties :
#
#
# Convention : Reuss Voigt Hill
#
# Bulk Modulus (GPa) = 33.55012 62.31656 47.93334
# Shear Modulus (GPa) = 23.97608 29.80435 26.89022
#
# Velocity S-wave (km/s) = 3.38321 3.77207 3.58292
# Velocity P-wave (km/s) = 5.59270 6.98006 6.32454
#
# Compressibility (1/GPa) = 0.02980615
#
# Stress axis : x y z
#
# Youngs Moduli (GPa) = 113.70141 32.29527 85.29977
#
# Poissons Ratio (x) = 0.01671 0.29513
# Poissons Ratio (y) = 0.05885 0.58522
# Poissons Ratio (z) = 0.39340 0.22157
#
# Static dielectric constant tensor:
#      x y z
#    x 1.802220 -0.007310 0.036670 
#    y -0.007310 1.808860 -0.032450 
#    z 0.036670 -0.032450 1.858840 
# 
# From -- ./inp_files/295733.got.cif
#   From: 2010.05.17/outbox.cif.g08.bks.cpg/sg2_148_cif.got.tgz:295733.got - 2010.06.03 11:33:40.
