data_PCOD9098644
_publ_section_title
;
Structure prediction by ZEFSAII (Michael W. Deem and Ramdas Pophale) SiO2 
 PCOD9098644
Probable space group: P -1
;
_chemical_formula_sum "Si O2"
_cell_formula_units_Z 16
_cell_length_a 6.232702
_cell_length_b 20.929842
_cell_length_c 17.284993
_cell_angle_alpha 157.289215
_cell_angle_beta 80.342667
_cell_angle_gamma 88.021774
_cell_volume 744.569273
_symmetry_space_group_name_H-M "P -1"
_symmetry_group_IT_number 2
_symmetry_cell_setting 'triclinic'
loop_
_space_group_symop_operation_xyz
x,y,z
-x,-y,-z
loop_
_atom_site_type_symbol
_atom_site_label
_atom_site_fract_x
_atom_site_fract_y
_atom_site_fract_z
Si Si1 0.405093 0.107696 0.865529
Si Si2 0.317547 0.451365 0.006304
Si Si3 0.481493 0.470504 0.778162
Si Si4 0.658000 0.223463 0.110998
Si Si5 0.184887 0.882561 0.727102
Si Si6 0.255726 0.255068 0.652893
Si Si7 0.132006 0.560670 0.754945
Si Si8 0.541328 0.793825 0.744747
O O1 0.309560 0.991093 0.794967
O O2 0.589723 0.961348 0.626864
O O3 0.547996 0.176357 0.990208
O O4 0.160256 0.293286 0.056204
O O5 0.287009 0.292370 0.782918
O O6 0.500000 0.500000 0.000000
O O7 0.440387 0.408625 0.036059
O O8 0.038830 0.637010 0.230049
O O9 0.730014 0.308253 0.539868
O O10 0.373629 0.365024 0.721407
O O11 0.275207 0.560883 0.824482
O O12 0.763685 0.357539 0.226637
O O13 0.461459 0.298169 0.275820
O O14 0.892980 0.027380 0.907528
O O15 0.309570 0.826154 0.740628
O O16 0.221065 0.347131 0.480450
O O17 0.500000 0.000000 0.000000
#
# Coordination Sequence:
#
# PCOD9098644 Si02
#       8
#     2   2   2   2   2   2   2   2
#     4  10  20  37  55  81 116 155 187 230 287 340
#     4   9  17  32  58  93 114 141 188 236 277 325
#     4   9  18  35  56  81 115 150 190 233 274 337
#     4  11  21  37  58  81 113 155 189 237 296 332
#     4   9  19  36  56  83 109 145 199 240 274 339
#     4   9  18  33  60  86 115 146 189 232 278 333
#     4  10  24  39  54  83 120 149 194 235 283 347
#     4  11  21  40  59  83 111 150 196 248 286 329
#
# _framework density 21.488932999999999
#
# number of rings (size 3 to 8) (size 9 to 14) (size 15 to 20)
#    0.000    2.250    1.250    1.500    0.000    2.500 
#    6.750    0.625    0.000    7.500    0.000    0.000 
#    0.000    0.000    0.000    0.000    0.000    0.000 
#
# Total GULP energy -89319.393214 kJ/mol
# GULP energy per Si atom -5582.462076 kJ/mol
# Density = 2.144002 g / cm^3
# Si number density = 21.488933 Si / 1000 Ang^3
#
#
#
# Elastic Constant Matrix: (Units=GPa)
#
#
# Indices 1 2 3 4 5 6 
#
# 1 65.7111 7.7043 65.9982 -13.4907 -8.6645 -7.5631
# 2 7.7043 56.0729 56.3615 -16.5437 12.5415 -9.5364
# 3 65.9982 56.3615 153.6845 -25.4212 -18.5619 -37.3343
# 4 -13.4907 -16.5437 -25.4212 28.6749 -3.6996 6.3782
# 5 -8.6645 12.5415 -18.5619 -3.6996 19.5544 -2.0443
# 6 -7.5631 -9.5364 -37.3343 6.3782 -2.0443 31.9271
#
#
#
# Elastic Compliance Matrix: (Units=1/GPa)
#
#
# Indices 1 2 3 4 5 6 
#
# 1 -0.043555 -0.122525 0.106356 0.005695 0.170439 0.087230
# 2 -0.122525 -0.205421 0.204017 0.005196 0.289425 0.165681
# 3 0.106356 0.204017 -0.180413 0.004911 -0.269004 -0.143041
# 4 0.005695 0.005196 0.004911 0.046502 0.012668 0.000165
# 5 0.170439 0.289425 -0.269004 0.012668 -0.334047 -0.211659
# 6 0.087230 0.165681 -0.143041 0.000165 -0.211659 -0.079380
#
#
# Mechanical properties :
#
#
# Convention : Reuss Voigt Hill
#
# Bulk Modulus (GPa) = -18.62439 59.51072 20.44317
# Shear Modulus (GPa) = -4.20200 25.72490 10.76145
#
# Velocity S-wave (km/s) = -1.39988 3.46370 2.24026
# Velocity P-wave (km/s) = 3.36135 6.61438 4.02811
#
# Compressibility (1/GPa) = -0.05369303
#
# Stress axis : x y z
#
# Youngs Moduli (GPa) = -22.95948 -4.86804 -5.54282
#
# Poissons Ratio (x) = -0.59646 0.58951
# Poissons Ratio (y) = -2.81311 1.13083
# Poissons Ratio (z) = 2.44189 0.99316
#
# Static dielectric constant tensor:
#      x y z
#    x 1.760140 0.023170 0.009100 
#    y 0.023170 1.795430 -0.003280 
#    z 0.009100 -0.003280 1.802680 
# 
# From -- ./inp_files/39215.got.cif
#   From: 2010.05.17/outbox.cif.g08.bks.cpg/sg2_20_cif.got.tgz:39215.got - 2010.06.03 11:33:40.
