data_PCOD9098466
_publ_section_title
;
Structure prediction by ZEFSAII (Michael W. Deem and Ramdas Pophale) SiO2 
 PCOD9098466
Probable space group: P -1
;
_chemical_formula_sum "Si O2"
_cell_formula_units_Z 15
_cell_length_a 8.933587
_cell_length_b 10.158827
_cell_length_c 10.411390
_cell_angle_alpha 101.913537
_cell_angle_beta 80.227956
_cell_angle_gamma 136.866815
_cell_volume 631.841328
_symmetry_space_group_name_H-M "P -1"
_symmetry_group_IT_number 2
_symmetry_cell_setting 'triclinic'
loop_
_space_group_symop_operation_xyz
x,y,z
-x,-y,-z
loop_
_atom_site_type_symbol
_atom_site_label
_atom_site_fract_x
_atom_site_fract_y
_atom_site_fract_z
Si Si1 0.872336 0.078086 0.662226
Si Si2 0.153613 0.514811 0.654098
Si Si3 0.805310 0.926943 0.260917
Si Si4 0.449221 0.214586 0.159437
Si Si5 0.489976 0.829972 0.471307
Si Si6 0.080347 0.743194 0.823449
Si Si7 0.500000 0.000000 0.000000
Si Si8 0.737023 0.707069 0.977874
O O1 0.997349 0.287632 0.634722
O O2 0.046757 0.075275 0.672531
O O3 0.716264 0.002597 0.796116
O O4 0.690622 0.918835 0.554701
O O5 0.359811 0.617473 0.740590
O O6 0.268229 0.635038 0.529456
O O7 0.031455 0.565298 0.741384
O O8 0.561988 0.799574 0.325900
O O9 0.803066 0.852045 0.108764
O O10 0.899339 0.136629 0.270708
O O11 0.539231 0.190052 0.021400
O O12 0.296208 0.235964 0.139414
O O13 0.500000 0.000000 0.500000
O O14 0.312337 0.884524 0.889998
O O15 0.907603 0.696227 0.936765
O O16 0.500000 0.500000 0.000000
#
# Coordination Sequence:
#
# PCOD9098466 Si02
#       8
#     2   2   2   2   2   2   1   2
#     4  11  24  44  71  96 136 182 232 291 348 408
#     4  10  24  45  70 105 135 179 236 286 343 424
#     4  12  23  45  70  98 138 188 226 284 353 414
#     4  10  21  40  65  96 140 174 225 282 348 399
#     4  11  25  46  70 100 137 181 233 291 352 409
#     4  11  22  43  71  99 142 184 232 281 352 415
#     4  10  20  36  66  94 132 188 220 270 340 420
#     4  12  25  42  69 108 140 181 233 287 344 424
#
# _framework density 23.740137000000001
#
# number of rings (size 3 to 8) (size 9 to 14) (size 15 to 20)
#    0.000    1.067    4.000    2.400    0.000    3.200 
#    2.400    3.333    0.000    0.000    0.000    0.000 
#    0.000    0.000    0.000    0.000    0.000    0.000 
#
# Total GULP energy -83642.916061 kJ/mol
# GULP energy per Si atom -5576.194404 kJ/mol
# Density = 2.368610 g / cm^3
# Si number density = 23.740137 Si / 1000 Ang^3
#
#
#
# Elastic Constant Matrix: (Units=GPa)
#
#
# Indices 1 2 3 4 5 6 
#
# 1 131.9014 21.7933 24.3434 -5.2915 -17.4812 -12.9774
# 2 21.7933 117.2655 9.8387 -22.5980 -8.8056 2.9331
# 3 24.3434 9.8387 56.3298 -6.3899 -14.4271 1.2961
# 4 -5.2915 -22.5980 -6.3899 20.5950 3.3257 2.0215
# 5 -17.4812 -8.8056 -14.4271 3.3257 32.2563 -3.4057
# 6 -12.9774 2.9331 1.2961 2.0215 -3.4057 30.5091
#
#
#
# Elastic Compliance Matrix: (Units=1/GPa)
#
#
# Indices 1 2 3 4 5 6 
#
# 1 0.009333 -0.001569 -0.003019 -0.001362 0.003925 0.004777
# 2 -0.001569 0.011261 0.000373 0.012170 0.000875 -0.002474
# 3 -0.003019 0.000373 0.021518 0.005294 0.007358 -0.001764
# 4 -0.001362 0.012170 0.005294 0.064219 -0.002355 -0.006493
# 5 0.003925 0.000875 0.007358 -0.002355 0.037494 0.005614
# 6 0.004777 -0.002474 -0.001764 -0.006493 0.005614 0.036179
#
#
# Mechanical properties :
#
#
# Convention : Reuss Voigt Hill
#
# Bulk Modulus (GPa) = 29.68945 46.38306 38.03625
# Shear Modulus (GPa) = 25.04245 33.30684 29.17465
#
# Velocity S-wave (km/s) = 3.25138 3.74970 3.50939
# Velocity P-wave (km/s) = 5.16028 6.19090 5.69893
#
# Compressibility (1/GPa) = 0.03368200
#
# Stress axis : x y z
#
# Youngs Moduli (GPa) = 107.14387 88.80378 46.47331
#
# Poissons Ratio (x) = 0.13930 0.14029
# Poissons Ratio (y) = 0.16807 -0.01731
# Poissons Ratio (z) = 0.32344 -0.03308
#
# Static dielectric constant tensor:
#      x y z
#    x 1.933560 -0.044260 -0.033120 
#    y -0.044260 1.882280 -0.049930 
#    z -0.033120 -0.049930 2.111300 
# 
# From -- ./inp_files/382618.got.cif
#   From: 2010.05.17/outbox.cif.g08.bks.cpg/sg2_192_cif.got.tgz:382618.got - 2010.06.03 11:33:40.
