data_PCOD9098527
_publ_section_title
;
Structure prediction by ZEFSAII (Michael W. Deem and Ramdas Pophale) SiO2 
 PCOD9098527
Probable space group: P -1
;
_chemical_formula_sum "Si O2"
_cell_formula_units_Z 15
_cell_length_a 14.107126
_cell_length_b 11.550303
_cell_length_c 10.041688
_cell_angle_alpha 93.321468
_cell_angle_beta 48.437920
_cell_angle_gamma 51.751977
_cell_volume 580.028914
_symmetry_space_group_name_H-M "P -1"
_symmetry_group_IT_number 2
_symmetry_cell_setting 'triclinic'
loop_
_space_group_symop_operation_xyz
x,y,z
-x,-y,-z
loop_
_atom_site_type_symbol
_atom_site_label
_atom_site_fract_x
_atom_site_fract_y
_atom_site_fract_z
Si Si1 0.701911 0.770807 0.990702
Si Si2 0.459910 0.186630 0.113245
Si Si3 0.610652 0.393267 0.569381
Si Si4 0.524780 0.113901 0.522081
Si Si5 0.007160 0.125831 0.858189
Si Si6 0.029963 0.115958 0.521082
Si Si7 0.500000 0.500000 0.000000
Si Si8 0.213286 0.495707 0.607705
O O1 0.946935 0.643698 0.818294
O O2 0.496852 0.033698 0.144888
O O3 0.745425 0.663298 0.807830
O O4 0.582651 0.788982 0.220596
O O5 0.730743 0.014956 0.782487
O O6 0.408197 0.313419 0.290361
O O7 0.555676 0.426984 0.781717
O O8 0.781033 0.371303 0.382825
O O9 0.202519 0.858979 0.677028
O O10 0.308032 0.637441 0.810219
O O11 0.345224 0.332422 0.603752
O O12 0.500000 0.000000 0.500000
O O13 0.835289 0.899277 0.215119
O O14 0.041889 0.118150 0.666937
O O15 0.745784 0.393047 0.761543
O O16 0.000000 0.000000 0.500000
#
# Coordination Sequence:
#
# PCOD9098527 Si02
#       8
#     2   2   2   2   2   2   1   2
#     4  11  25  46  73 105 148 199 258 312 388 448
#     4  11  23  45  71 110 149 189 255 325 375 458
#     4  11  26  44  74 115 149 198 248 323 390 455
#     4  12  27  53  74 106 151 207 258 312 380 464
#     4  11  26  48  74 111 153 198 255 312 386 462
#     4  11  20  38  69 106 149 189 241 310 383 446
#     4  10  20  36  68 106 152 192 240 306 384 458
#     4  12  27  44  78 106 152 198 258 317 384 465
#
# _framework density 25.860779999999998
#
# number of rings (size 3 to 8) (size 9 to 14) (size 15 to 20)
#    0.000    0.800    4.000    3.200    1.867    3.200 
#    0.000    0.000    0.000    0.000    0.000    0.000 
#    0.000    0.000    0.000    0.000    0.000    0.000 
#
# Total GULP energy -83759.980177 kJ/mol
# GULP energy per Si atom -5583.998678 kJ/mol
# Density = 2.580192 g / cm^3
# Si number density = 25.860780 Si / 1000 Ang^3
#
#
#
# Elastic Constant Matrix: (Units=GPa)
#
#
# Indices 1 2 3 4 5 6 
#
# 1 124.3817 36.5362 31.6816 9.3814 -31.0158 -13.9935
# 2 36.5362 124.3905 47.4407 -7.5043 -5.3950 -29.3772
# 3 31.6816 47.4407 174.4554 -1.4511 -31.7603 -21.7963
# 4 9.3814 -7.5043 -1.4511 40.4322 -17.3043 -1.8339
# 5 -31.0158 -5.3950 -31.7603 -17.3043 49.4764 2.2673
# 6 -13.9935 -29.3772 -21.7963 -1.8339 2.2673 53.0889
#
#
#
# Elastic Compliance Matrix: (Units=1/GPa)
#
#
# Indices 1 2 3 4 5 6 
#
# 1 0.010466 -0.002587 0.000065 -0.000204 0.006200 0.001082
# 2 -0.002587 0.010747 -0.002092 0.002198 -0.001232 0.004535
# 3 0.000065 -0.002092 0.007500 0.002225 0.005324 0.001788
# 4 -0.000204 0.002198 0.002225 0.030571 0.012113 0.002615
# 5 0.006200 -0.001232 0.005324 0.012113 0.031516 0.002211
# 6 0.001082 0.004535 0.001788 0.002615 0.002211 0.022361
#
#
# Mechanical properties :
#
#
# Convention : Reuss Voigt Hill
#
# Bulk Modulus (GPa) = 51.31940 72.72718 62.02329
# Shear Modulus (GPa) = 38.79438 49.10409 43.94924
#
# Velocity S-wave (km/s) = 3.87735 4.36223 4.12692
# Velocity P-wave (km/s) = 6.31923 7.31818 6.83697
#
# Compressibility (1/GPa) = 0.01948581
#
# Stress axis : x y z
#
# Youngs Moduli (GPa) = 95.54597 93.04874 133.32652
#
# Poissons Ratio (x) = 0.24069 -0.00866
# Poissons Ratio (y) = 0.24715 0.27894
# Poissons Ratio (z) = -0.00621 0.19467
#
# Static dielectric constant tensor:
#      x y z
#    x 2.095450 -0.139840 -0.001150 
#    y -0.139840 2.947710 0.421260 
#    z -0.001150 0.421260 2.210030 
# 
# From -- ./inp_files/95296.got.cif
#   From: 2010.05.17/outbox.cif.g08.bks.cpg/sg2_48_cif.got.tgz:95296.got - 2010.06.03 11:33:40.
