data_PCOD9098473
_publ_section_title
;
Structure prediction by ZEFSAII (Michael W. Deem and Ramdas Pophale) SiO2 
 PCOD9098473
Probable space group: P -1
;
_chemical_formula_sum "Si O2"
_cell_formula_units_Z 15
_cell_length_a 9.301930
_cell_length_b 9.608278
_cell_length_c 10.877320
_cell_angle_alpha 79.331587
_cell_angle_beta 110.712168
_cell_angle_gamma 135.221611
_cell_volume 637.289901
_symmetry_space_group_name_H-M "P -1"
_symmetry_group_IT_number 2
_symmetry_cell_setting 'triclinic'
loop_
_space_group_symop_operation_xyz
x,y,z
-x,-y,-z
loop_
_atom_site_type_symbol
_atom_site_label
_atom_site_fract_x
_atom_site_fract_y
_atom_site_fract_z
Si Si1 0.670172 0.119233 0.143075
Si Si2 0.629812 0.619728 0.171248
Si Si3 0.279816 0.948701 0.450514
Si Si4 0.398334 0.203314 0.663295
Si Si5 0.580836 0.778208 0.912172
Si Si6 0.073976 0.825043 0.149050
Si Si7 0.000000 0.500000 0.500000
Si Si8 0.892740 0.475340 0.763318
O O1 0.587098 0.206849 0.173342
O O2 0.917938 0.309194 0.156520
O O3 0.652661 0.970956 0.245989
O O4 0.500000 0.000000 0.000000
O O5 0.697301 0.724489 0.305577
O O6 0.463920 0.383113 0.163700
O O7 0.831517 0.697373 0.138435
O O8 0.536281 0.687281 0.049498
O O9 0.320059 0.112503 0.519194
O O10 0.897043 0.271511 0.511005
O O11 0.500000 0.000000 0.500000
O O12 0.212552 0.944549 0.293921
O O13 0.656155 0.387513 0.715315
O O14 0.816437 0.000020 0.943866
O O15 0.105058 0.680375 0.151475
O O16 0.058981 0.519216 0.367169
#
# Coordination Sequence:
#
# PCOD9098473 Si02
#       8
#     2   2   2   2   2   2   1   2
#     4  12  23  42  68 101 133 169 222 281 322 392
#     4  11  26  44  63  94 137 176 219 274 331 394
#     4  11  21  39  68  98 132 168 219 277 329 393
#     4  12  24  43  67 103 133 167 226 281 326 390
#     4  11  23  45  66  90 133 180 219 269 333 395
#     4  11  23  41  69  94 127 184 218 264 336 403
#     4  10  20  36  66  96 124 172 212 270 330 384
#     4  11  23  39  70  99 129 171 224 269 330 395
#
# _framework density 23.537165999999999
#
# number of rings (size 3 to 8) (size 9 to 14) (size 15 to 20)
#    0.000    0.800    8.000    0.400    0.000    2.133 
#    4.800    0.667    0.000    0.000    0.000    0.000 
#    0.000    0.000    0.000    0.000    0.000    0.000 
#
# Total GULP energy -83673.688135 kJ/mol
# GULP energy per Si atom -5578.245876 kJ/mol
# Density = 2.348359 g / cm^3
# Si number density = 23.537166 Si / 1000 Ang^3
#
#
#
# Elastic Constant Matrix: (Units=GPa)
#
#
# Indices 1 2 3 4 5 6 
#
# 1 42.0814 11.8174 -10.7841 1.4684 -2.3651 2.6428
# 2 11.8174 124.6932 18.2864 1.7685 -6.5833 17.1297
# 3 -10.7841 18.2864 57.6618 13.3481 -13.4800 -2.1750
# 4 1.4684 1.7685 13.3481 36.3367 -1.0615 0.7359
# 5 -2.3651 -6.5833 -13.4800 -1.0615 25.9609 6.3547
# 6 2.6428 17.1297 -2.1750 0.7359 6.3547 30.4619
#
#
#
# Elastic Compliance Matrix: (Units=1/GPa)
#
#
# Indices 1 2 3 4 5 6 
#
# 1 0.027413 -0.003307 0.008469 -0.003855 0.006170 -0.001108
# 2 -0.003307 0.009771 -0.003833 0.001234 0.001671 -0.005860
# 3 0.008469 -0.003833 0.025138 -0.009049 0.012268 0.000875
# 4 -0.003855 0.001234 -0.009049 0.030868 -0.003210 -0.001081
# 5 0.006170 0.001671 0.012268 -0.003210 0.048340 -0.010606
# 6 -0.001108 -0.005860 0.000875 -0.001081 -0.010606 0.038520
#
#
# Mechanical properties :
#
#
# Convention : Reuss Voigt Hill
#
# Bulk Modulus (GPa) = 15.38976 29.23066 22.31021
# Shear Modulus (GPa) = 25.11882 32.22633 28.67257
#
# Velocity S-wave (km/s) = 3.27034 3.70424 3.49403
# Velocity P-wave (km/s) = 4.56211 5.54447 5.07710
#
# Compressibility (1/GPa) = 0.06497828
#
# Stress axis : x y z
#
# Youngs Moduli (GPa) = 36.47858 102.34389 39.78079
#
# Poissons Ratio (x) = 0.33849 -0.33689
# Poissons Ratio (y) = 0.12065 0.15249
# Poissons Ratio (z) = -0.30893 0.39231
#
# Static dielectric constant tensor:
#      x y z
#    x 1.966960 0.018030 -0.006320 
#    y 0.018030 1.900980 0.043180 
#    z -0.006320 0.043180 1.925640 
# 
# From -- ./inp_files/378833.got.cif
#   From: 2010.05.17/outbox.cif.g08.bks.cpg/sg2_190_cif.got.tgz:378833.got - 2010.06.03 11:33:40.
