data_PCOD9098593
_publ_section_title
;
Structure prediction by ZEFSAII (Michael W. Deem and Ramdas Pophale) SiO2 
 PCOD9098593
Probable space group: P -1
;
_chemical_formula_sum "Si O2"
_cell_formula_units_Z 13
_cell_length_a 7.483473
_cell_length_b 9.629480
_cell_length_c 12.952208
_cell_angle_alpha 97.534817
_cell_angle_beta 46.948737
_cell_angle_gamma 64.546815
_cell_volume 471.456643
_symmetry_space_group_name_H-M "P -1"
_symmetry_group_IT_number 2
_symmetry_cell_setting 'triclinic'
loop_
_space_group_symop_operation_xyz
x,y,z
-x,-y,-z
loop_
_atom_site_type_symbol
_atom_site_label
_atom_site_fract_x
_atom_site_fract_y
_atom_site_fract_z
Si Si1 0.627400 0.719811 0.202550
Si Si2 0.041094 0.542674 0.631222
Si Si3 0.007078 0.793757 0.161798
Si Si4 0.000000 0.000000 0.000000
Si Si5 0.679280 0.945737 0.811724
Si Si6 0.261394 0.631653 0.258582
Si Si7 0.804914 0.302691 0.262732
O O1 0.360875 0.699459 0.315328
O O2 0.712873 0.795520 0.264690
O O3 0.466924 0.880764 0.189526
O O4 0.000000 0.500000 0.000000
O O5 0.036697 0.586509 0.364618
O O6 0.396711 0.440717 0.426763
O O7 0.093407 0.577925 0.732928
O O8 0.710276 0.771440 0.742063
O O9 0.077252 0.789297 0.253300
O O10 0.374716 0.580066 0.951522
O O11 0.933349 0.957039 0.136085
O O12 0.973736 0.169299 0.081092
O O13 0.068325 0.816808 0.689553
O O14 0.500000 0.000000 0.000000
#
# Coordination Sequence:
#
# PCOD9098593 Si02
#       7
#     2   2   2   1   2   2   2
#     4  10  22  38  59 104 144 173 233 293 342 406
#     4   9  22  42  69 101 140 186 234 286 358 414
#     4  10  24  36  63 103 139 169 237 293 340 404
#     4  12  22  38  70 102 128 180 240 282 338 424
#     4  10  20  36  73  95 129 186 237 277 341 422
#     4  10  22  40  67  96 137 192 221 281 360 423
#     4   9  22  41  68 104 142 179 237 297 346 414
#
# _framework density 27.574114999999999
#
# number of rings (size 3 to 8) (size 9 to 14) (size 15 to 20)
#    0.923    1.231    0.000    1.846   10.769    1.231 
#    0.000    3.846    0.000    1.846    0.000    0.000 
#    0.000    0.154    0.000    0.000    0.000    0.000 
#
# Total GULP energy -72504.447909 kJ/mol
# GULP energy per Si atom -5577.265224 kJ/mol
# Density = 2.751136 g / cm^3
# Si number density = 27.574115 Si / 1000 Ang^3
#
#
#
# Elastic Constant Matrix: (Units=GPa)
#
#
# Indices 1 2 3 4 5 6 
#
# 1 175.6669 40.7520 30.8044 -29.3023 4.7965 31.7863
# 2 40.7520 157.1544 19.4419 -29.5029 -18.2592 -1.0515
# 3 30.8044 19.4419 53.9257 1.8805 -0.6742 3.1940
# 4 -29.3023 -29.5029 1.8805 21.4310 3.5287 -4.2628
# 5 4.7965 -18.2592 -0.6742 3.5287 37.1310 -7.9441
# 6 31.7863 -1.0515 3.1940 -4.2628 -7.9441 56.7692
#
#
#
# Elastic Compliance Matrix: (Units=1/GPa)
#
#
# Indices 1 2 3 4 5 6 
#
# 1 0.010040 0.000442 -0.006169 0.014536 -0.003573 -0.004675
# 2 0.000442 0.009952 -0.004403 0.014427 0.003770 0.001795
# 3 -0.006169 -0.004403 0.024192 -0.016581 0.000836 0.000884
# 4 0.014536 0.014427 -0.016581 0.088291 -0.003650 -0.000820
# 5 -0.003573 0.003770 0.000836 -0.003650 0.030909 0.006075
# 6 -0.004675 0.001795 0.000884 -0.000820 0.006075 0.021005
#
#
# Mechanical properties :
#
#
# Convention : Reuss Voigt Hill
#
# Bulk Modulus (GPa) = 41.79967 63.19373 52.49670
# Shear Modulus (GPa) = 23.51589 42.78281 33.14935
#
# Velocity S-wave (km/s) = 2.92348 3.94325 3.47102
# Velocity P-wave (km/s) = 5.15632 6.61059 5.92822
#
# Compressibility (1/GPa) = 0.02392363
#
# Stress axis : x y z
#
# Youngs Moduli (GPa) = 99.60127 100.48599 41.33614
#
# Poissons Ratio (x) = -0.04444 0.25502
# Poissons Ratio (y) = -0.04405 0.18200
# Poissons Ratio (z) = 0.61448 0.44242
#
# Static dielectric constant tensor:
#      x y z
#    x 2.143830 -0.009470 -0.048040 
#    y -0.009470 2.254260 0.074960 
#    z -0.048040 0.074960 2.192610 
# 
# From -- ./inp_files/385017.got.cif
#   From: 2010.05.17/outbox.cif.g08.bks.cpg/sg2_193_cif.got.tgz:385017.got - 2010.06.03 11:33:40.
