data_PCOD9098815
_publ_section_title
;
Structure prediction by ZEFSAII (Michael W. Deem and Ramdas Pophale) SiO2 
 PCOD9098815
Probable space group: P -1
;
_chemical_formula_sum "Si O2"
_cell_formula_units_Z 14
_cell_length_a 20.619885
_cell_length_b 10.469138
_cell_length_c 7.824276
_cell_angle_alpha 132.425254
_cell_angle_beta 79.299471
_cell_angle_gamma 136.286844
_cell_volume 694.422823
_symmetry_space_group_name_H-M "P -1"
_symmetry_group_IT_number 2
_symmetry_cell_setting 'triclinic'
loop_
_space_group_symop_operation_xyz
x,y,z
-x,-y,-z
loop_
_atom_site_type_symbol
_atom_site_label
_atom_site_fract_x
_atom_site_fract_y
_atom_site_fract_z
Si Si1 0.949932 0.814337 0.679795
Si Si2 0.284007 0.561131 0.697211
Si Si3 0.403963 0.165414 0.039658
Si Si4 0.647506 0.662244 0.491740
Si Si5 0.801174 0.275049 0.485042
Si Si6 0.881622 0.316724 0.819923
Si Si7 0.828246 0.584755 0.048618
O O1 0.847112 0.711869 0.561670
O O2 0.883953 0.497968 0.485182
O O3 0.000000 0.000000 0.000000
O O4 0.060980 0.055206 0.718645
O O5 0.346003 0.514363 0.591325
O O6 0.265704 0.539179 0.890819
O O7 0.354090 0.874041 0.868883
O O8 0.542619 0.448979 0.214413
O O9 0.378122 0.251836 0.274116
O O10 0.325539 0.048230 0.810828
O O11 0.772019 0.976277 0.636312
O O12 0.866722 0.290874 0.598253
O O13 0.784293 0.413390 0.733883
O O14 0.869706 0.494391 0.035814
O O15 0.000000 0.500000 0.000000
#
# Coordination Sequence:
#
# PCOD9098815 Si02
#       7
#     2   2   2   2   2   2   2
#     4   9  17  32  57  86 115 159 189 232 294 344
#     4  11  20  37  60  85 117 154 198 237 292 348
#     4  10  21  43  59  86 116 155 204 240 286 339
#     4  11  23  37  64  85 117 158 197 240 290 351
#     4   8  19  36  61  81 120 157 190 250 284 339
#     4  10  20  37  57  88 117 151 192 237 296 351
#     4   9  18  35  58  82 120 155 189 236 293 346
#
# _framework density 20.160629
#
# number of rings (size 3 to 8) (size 9 to 14) (size 15 to 20)
#    0.857    1.429    1.429    1.714    0.000    0.571 
#    0.000    7.143    0.000    0.000    0.000    0.000 
#    0.000    0.000    0.000    0.000    0.000    0.000 
#
# Total GULP energy -78016.623582 kJ/mol
# GULP energy per Si atom -5572.615970 kJ/mol
# Density = 2.011474 g / cm^3
# Si number density = 20.160629 Si / 1000 Ang^3
#
#
#
# Elastic Constant Matrix: (Units=GPa)
#
#
# Indices 1 2 3 4 5 6 
#
# 1 81.0109 19.0457 33.3264 22.6303 12.2577 -22.3534
# 2 19.0457 50.9056 20.6812 12.9714 10.3674 -5.1946
# 3 33.3264 20.6812 106.5972 12.2582 33.6479 -0.1106
# 4 22.6303 12.9714 12.2582 7.5652 -1.4655 24.2392
# 5 12.2577 10.3674 33.6479 -1.4655 41.6343 7.4458
# 6 -22.3534 -5.1946 -0.1106 24.2392 7.4458 -0.2165
#
#
#
# Elastic Compliance Matrix: (Units=1/GPa)
#
#
# Indices 1 2 3 4 5 6 
#
# 1 0.010794 -0.005678 -0.004157 0.007689 0.003144 -0.007146
# 2 -0.005678 0.022361 -0.002194 -0.000156 -0.001132 -0.005575
# 3 -0.004157 -0.002194 0.014219 -0.001383 -0.009364 -0.002270
# 4 0.007689 -0.000156 -0.001383 0.009306 -0.006425 0.031567
# 5 0.003144 -0.001132 -0.009364 -0.006425 0.029607 0.006201
# 6 -0.007146 -0.005575 -0.002270 0.031567 0.006201 0.001326
#
#
# Mechanical properties :
#
#
# Convention : Reuss Voigt Hill
#
# Bulk Modulus (GPa) = 42.88868 42.73560 42.81214
# Shear Modulus (GPa) = 41.86108 20.82730 31.34419
#
# Velocity S-wave (km/s) = 4.56167 3.21762 3.94728
# Velocity P-wave (km/s) = 7.00463 5.92011 6.48508
#
# Compressibility (1/GPa) = 0.02331617
#
# Stress axis : x y z
#
# Youngs Moduli (GPa) = 92.64620 44.72020 70.32988
#
# Poissons Ratio (x) = 0.25393 0.29236
# Poissons Ratio (y) = 0.52606 0.15428
# Poissons Ratio (z) = 0.38513 0.09810
#
# Static dielectric constant tensor:
#      x y z
#    x 1.727790 -0.009280 -0.014430 
#    y -0.009280 1.748840 -0.010060 
#    z -0.014430 -0.010060 1.747830 
# 
# From -- ./inp_files/239791.got.cif
#   From: 2010.05.17/outbox.cif.g08.bks.cpg/sg2_120_cif.got.tgz:239791.got - 2010.06.03 11:33:40.
