data_PCOD9098341
_publ_section_title
;
Structure prediction by ZEFSAII (Michael W. Deem and Ramdas Pophale) SiO2 
 PCOD9098341
Probable space group: P -1
;
_chemical_formula_sum "Si O2"
_cell_formula_units_Z 14
_cell_length_a 8.671884
_cell_length_b 12.943689
_cell_length_c 23.064836
_cell_angle_alpha 22.078626
_cell_angle_beta 136.999371
_cell_angle_gamma 125.090519
_cell_volume 607.926092
_symmetry_space_group_name_H-M "P -1"
_symmetry_group_IT_number 2
_symmetry_cell_setting 'triclinic'
loop_
_space_group_symop_operation_xyz
x,y,z
-x,-y,-z
loop_
_atom_site_type_symbol
_atom_site_label
_atom_site_fract_x
_atom_site_fract_y
_atom_site_fract_z
Si Si1 0.682892 0.814316 0.698908
Si Si2 0.362409 0.229918 0.001038
Si Si3 0.028666 0.470343 0.169253
Si Si4 0.853911 0.697745 0.276028
Si Si5 0.322218 0.801176 0.121745
Si Si6 0.921248 0.934043 0.296830
Si Si7 0.808813 0.155276 0.416619
O O1 0.872366 0.506390 0.880229
O O2 0.474851 0.804524 0.689964
O O3 0.500000 0.000000 0.500000
O O4 0.853534 0.966007 0.691973
O O5 0.230220 0.498046 0.778155
O O6 0.227194 0.331587 0.972865
O O7 0.346555 0.934292 0.121659
O O8 0.648802 0.171432 0.113265
O O9 0.221011 0.541930 0.226415
O O10 0.066485 0.120237 0.360514
O O11 0.580143 0.703609 0.208778
O O12 0.911707 0.818531 0.289445
O O13 0.025880 0.349858 0.498654
O O14 0.858061 0.920133 0.111296
O O15 0.000000 0.000000 0.500000
#
# Coordination Sequence:
#
# PCOD9098341 Si02
#       7
#     2   2   2   2   2   2   2
#     4  10  21  35  64  83 115 156 201 239 301 357
#     4  10  22  38  61  87 124 161 199 248 297 349
#     4  10  21  37  59  92 121 157 204 246 291 355
#     4   9  20  36  61  91 116 155 203 253 294 359
#     4  10  20  36  65  86 116 156 212 240 295 358
#     4  10  21  38  58  89 126 156 197 251 308 345
#     4   9  20  38  59  90 115 152 199 244 295 353
#
# _framework density 23.029115000000001
#
# number of rings (size 3 to 8) (size 9 to 14) (size 15 to 20)
#    0.000    2.286    0.000    2.143   10.000    1.143 
#    0.000    0.714    0.000    0.000    0.000    0.000 
#    0.000    0.000    0.000    0.000    0.000    0.000 
#
# Total GULP energy -77944.811984 kJ/mol
# GULP energy per Si atom -5567.486570 kJ/mol
# Density = 2.297670 g / cm^3
# Si number density = 23.029115 Si / 1000 Ang^3
#
#
#
# Elastic Constant Matrix: (Units=GPa)
#
#
# Indices 1 2 3 4 5 6 
#
# 1 102.0109 21.2028 19.5859 1.3199 34.3694 7.8289
# 2 21.2028 79.2060 12.6293 -1.0251 7.0303 24.0048
# 3 19.5859 12.6293 98.0053 -7.4867 7.7595 -6.3205
# 4 1.3199 -1.0251 -7.4867 26.4713 -2.5552 -0.1337
# 5 34.3694 7.0303 7.7595 -2.5552 34.3080 2.6896
# 6 7.8289 24.0048 -6.3205 -0.1337 2.6896 14.2390
#
#
#
# Elastic Compliance Matrix: (Units=1/GPa)
#
#
# Indices 1 2 3 4 5 6 
#
# 1 0.016016 -0.000910 -0.002477 -0.003019 -0.015088 -0.005549
# 2 -0.000910 0.030359 -0.007338 -0.001078 0.000507 -0.054043
# 3 -0.002477 -0.007338 0.013214 0.003650 -0.000275 0.019685
# 4 -0.003019 -0.001078 0.003650 0.039423 0.005001 0.004523
# 5 -0.015088 0.000507 -0.000275 0.005001 0.044677 -0.001073
# 6 -0.005549 -0.054043 0.019685 0.004523 -0.001073 0.173372
#
#
# Mechanical properties :
#
#
# Convention : Reuss Voigt Hill
#
# Bulk Modulus (GPa) = 26.22099 42.89534 34.55817
# Shear Modulus (GPa) = 14.23589 30.05729 22.14659
#
# Velocity S-wave (km/s) = 2.48900 3.61666 3.10446
# Velocity P-wave (km/s) = 4.43519 6.00893 5.28101
#
# Compressibility (1/GPa) = 0.03813739
#
# Stress axis : x y z
#
# Youngs Moduli (GPa) = 62.43768 32.93938 75.67591
#
# Poissons Ratio (x) = 0.02999 0.18747
# Poissons Ratio (y) = 0.05685 0.55531
# Poissons Ratio (z) = 0.15468 0.24171
#
# Static dielectric constant tensor:
#      x y z
#    x 2.010310 0.000240 -0.082700 
#    y 0.000240 1.883690 -0.035920 
#    z -0.082700 -0.035920 1.989190 
# 
# From -- ./inp_files/205503.got.cif
#   From: 2010.05.17/outbox.cif.g08.bks.cpg/sg2_103_cif.got.tgz:205503.got - 2010.06.03 11:33:40.
