data_PCOD9098635
_publ_section_title
;
Structure prediction by ZEFSAII (Michael W. Deem and Ramdas Pophale) SiO2 
 PCOD9098635
Probable space group: P -1
;
_chemical_formula_sum "Si O2"
_cell_formula_units_Z 14
_cell_length_a 13.646724
_cell_length_b 14.910218
_cell_length_c 13.517320
_cell_angle_alpha 117.949153
_cell_angle_beta 158.519085
_cell_angle_gamma 48.327682
_cell_volume 629.117699
_symmetry_space_group_name_H-M "P -1"
_symmetry_group_IT_number 2
_symmetry_cell_setting 'triclinic'
loop_
_space_group_symop_operation_xyz
x,y,z
-x,-y,-z
loop_
_atom_site_type_symbol
_atom_site_label
_atom_site_fract_x
_atom_site_fract_y
_atom_site_fract_z
Si Si1 0.348093 0.788562 0.559337
Si Si2 0.604382 0.443732 0.454867
Si Si3 0.550089 0.106051 0.119138
Si Si4 0.436555 0.872174 0.383937
Si Si5 0.390534 0.889123 0.034336
Si Si6 0.828413 0.899015 0.605485
Si Si7 0.178709 0.397766 0.284973
O O1 0.254884 0.710898 0.492906
O O2 0.572891 0.806755 0.850007
O O3 0.605718 0.683504 0.657201
O O4 0.979946 0.942707 0.249877
O O5 0.500000 0.500000 0.500000
O O6 0.840468 0.476516 0.656433
O O7 0.230810 0.540071 0.085165
O O8 0.450054 0.184262 0.960782
O O9 0.000000 0.000000 0.500000
O O10 0.500000 0.000000 0.000000
O O11 0.739231 0.843423 0.580621
O O12 0.573405 0.723423 0.460827
O O13 0.427960 0.938324 0.512385
O O14 0.000000 0.000000 0.000000
O O15 0.233582 0.839372 0.929084
O O16 0.675825 0.884852 0.357838
#
# Coordination Sequence:
#
# PCOD9098635 Si02
#       7
#     2   2   2   2   2   2   2
#     4  10  20  37  55  77 120 148 180 229 264 330
#     4  10  23  35  52  81 110 155 191 212 269 337
#     4  10  22  34  54  83 109 149 193 220 275 333
#     4  11  23  36  57  84 110 147 186 228 295 337
#     4  11  21  35  55  82 113 148 179 227 283 327
#     4  11  22  34  54  81 112 140 181 225 291 333
#     4  11  23  35  56  80 116 147 185 224 277 333
#
# _framework density 22.253388000000001
#
# number of rings (size 3 to 8) (size 9 to 14) (size 15 to 20)
#    0.000    1.429    2.857    3.429    8.000    5.714 
#    0.000    0.000    0.000    0.000    0.000    6.000 
#    0.000    0.000    0.000    0.000    0.000    0.000 
#
# Total GULP energy -78151.698117 kJ/mol
# GULP energy per Si atom -5582.264151 kJ/mol
# Density = 2.220274 g / cm^3
# Si number density = 22.253388 Si / 1000 Ang^3
#
#
#
# Elastic Constant Matrix: (Units=GPa)
#
#
# Indices 1 2 3 4 5 6 
#
# 1 72.8479 28.2993 -5.9638 7.7245 2.9603 9.9837
# 2 28.2993 104.5792 33.8979 12.3152 0.7729 18.0899
# 3 -5.9638 33.8979 94.0772 23.2349 -6.7434 7.2339
# 4 7.7245 12.3152 23.2349 41.3454 2.9118 -1.5416
# 5 2.9603 0.7729 -6.7434 2.9118 23.9171 4.5371
# 6 9.9837 18.0899 7.2339 -1.5416 4.5371 37.3052
#
#
#
# Elastic Compliance Matrix: (Units=1/GPa)
#
#
# Indices 1 2 3 4 5 6 
#
# 1 0.016803 -0.004845 0.004101 -0.004142 0.000336 -0.003154
# 2 -0.004845 0.013158 -0.004606 -0.000563 -0.000262 -0.004182
# 3 0.004101 -0.004606 0.015252 -0.008459 0.005510 -0.002841
# 4 -0.004142 -0.000563 -0.008459 0.030531 -0.006535 0.005078
# 5 0.000336 -0.000262 0.005510 -0.006535 0.045422 -0.006825
# 6 -0.003154 -0.004182 -0.002841 0.005078 -0.006825 0.031269
#
#
# Mechanical properties :
#
#
# Convention : Reuss Voigt Hill
#
# Bulk Modulus (GPa) = 28.97655 42.66344 35.82000
# Shear Modulus (GPa) = 28.63023 34.86496 31.74759
#
# Velocity S-wave (km/s) = 3.59075 3.96248 3.78119
# Velocity P-wave (km/s) = 5.49916 6.33627 5.93250
#
# Compressibility (1/GPa) = 0.03451066
#
# Stress axis : x y z
#
# Youngs Moduli (GPa) = 59.51327 75.99971 65.56529
#
# Poissons Ratio (x) = 0.36823 -0.26885
# Poissons Ratio (y) = 0.28835 0.30203
# Poissons Ratio (z) = -0.24403 0.35009
#
# Static dielectric constant tensor:
#      x y z
#    x 2.303370 -0.015090 0.214530 
#    y -0.015090 1.857780 -0.016540 
#    z 0.214530 -0.016540 1.951330 
# 
# From -- ./inp_files/533379.got.cif
#   From: 2010.05.17/outbox.cif.g08.bks.cpg/sg2_267_cif.got.tgz:533379.got - 2010.06.03 11:33:40.
