data_PCOD9098663
_publ_section_title
;
Structure prediction by ZEFSAII (Michael W. Deem and Ramdas Pophale) SiO2 
 PCOD9098663
Probable space group: P -1
;
_chemical_formula_sum "Si O2"
_cell_formula_units_Z 16
_cell_length_a 9.126695
_cell_length_b 9.767475
_cell_length_c 11.753069
_cell_angle_alpha 72.942512
_cell_angle_beta 75.358029
_cell_angle_gamma 104.141430
_cell_volume 909.856158
_symmetry_space_group_name_H-M "P -1"
_symmetry_group_IT_number 2
_symmetry_cell_setting 'triclinic'
loop_
_space_group_symop_operation_xyz
x,y,z
-x,-y,-z
loop_
_atom_site_type_symbol
_atom_site_label
_atom_site_fract_x
_atom_site_fract_y
_atom_site_fract_z
Si Si1 0.503067 0.735749 0.944947
Si Si2 0.057871 0.564137 0.598838
Si Si3 0.120604 0.910692 0.522608
Si Si4 0.379527 0.935891 0.266430
Si Si5 0.398279 0.075081 0.578225
Si Si6 0.583543 0.418035 0.419028
Si Si7 0.481529 0.480851 0.826267
Si Si8 0.250599 0.646731 0.195709
O O1 0.497444 0.624926 0.867648
O O2 0.577192 0.909779 0.852181
O O3 0.326062 0.702471 0.043323
O O4 0.588633 0.671607 0.045093
O O5 0.041451 0.728057 0.585273
O O6 0.245689 0.586500 0.570536
O O7 0.000000 0.500000 0.500000
O O8 0.938518 0.440517 0.736485
O O9 0.216142 0.979261 0.603587
O O10 0.249759 0.938487 0.387243
O O11 0.000000 0.000000 0.500000
O O12 0.536391 0.927767 0.306199
O O13 0.308148 0.788616 0.236386
O O14 0.455560 0.247302 0.479961
O O15 0.500000 0.000000 0.500000
O O16 0.500000 0.500000 0.500000
O O17 0.608327 0.502643 0.273017
O O18 0.655529 0.470207 0.760739
#
# Coordination Sequence:
#
# PCOD9098663 Si02
#       8
#     2   2   2   2   2   2   2   2
#     4   9  21  36  65  84 116 163 208 245 286 358
#     4  12  23  40  57  91 128 153 199 251 318 361
#     4  11  25  36  59  91 124 159 192 257 313 358
#     4  11  19  39  62  84 121 155 208 246 288 367
#     4  10  20  37  55  88 114 154 201 238 298 351
#     4  12  23  37  65  90 124 160 197 256 296 366
#     4   9  20  38  59  90 113 158 208 242 291 353
#     4  10  21  38  58  89 115 156 202 246 302 350
#
# _framework density 17.585197000000001
#
# number of rings (size 3 to 8) (size 9 to 14) (size 15 to 20)
#    0.750    0.750    3.750    3.375    5.250    0.000 
#    0.000    0.625    2.750    0.750    0.000    0.000 
#    0.000    0.000    0.000    0.000    0.000    0.000 
#
# Total GULP energy -89116.624314 kJ/mol
# GULP energy per Si atom -5569.789020 kJ/mol
# Density = 1.754517 g / cm^3
# Si number density = 17.585197 Si / 1000 Ang^3
#
#
#
# Elastic Constant Matrix: (Units=GPa)
#
#
# Indices 1 2 3 4 5 6 
#
# 1 59.3602 50.8103 16.5811 4.7736 7.4577 -6.0562
# 2 50.8103 110.7592 48.5526 -6.0541 -13.6091 6.0401
# 3 16.5811 48.5526 86.8864 -9.5146 5.0793 1.3438
# 4 4.7736 -6.0541 -9.5146 25.3162 1.5278 -6.1233
# 5 7.4577 -13.6091 5.0793 1.5278 25.7253 3.7831
# 6 -6.0562 6.0401 1.3438 -6.1233 3.7831 25.1686
#
#
#
# Elastic Compliance Matrix: (Units=1/GPa)
#
#
# Indices 1 2 3 4 5 6 
#
# 1 0.051336 -0.034709 0.010863 -0.005627 -0.038664 0.024545
# 2 -0.034709 0.037693 -0.015984 0.002179 0.036184 -0.021453
# 3 0.010863 -0.015984 0.019754 0.004798 -0.017134 0.009138
# 4 -0.005627 0.002179 0.004798 0.045245 -0.002204 0.009206
# 5 -0.038664 0.036184 -0.017134 -0.002204 0.077029 -0.029187
# 6 0.024545 -0.021453 0.009138 0.009206 -0.029187 0.056925
#
#
# Mechanical properties :
#
#
# Convention : Reuss Voigt Hill
#
# Bulk Modulus (GPa) = 34.33729 54.32153 44.32941
# Shear Modulus (GPa) = 13.25033 24.64615 18.94824
#
# Velocity S-wave (km/s) = 2.74796 3.74776 3.28611
# Velocity P-wave (km/s) = 5.44399 7.04877 6.29771
#
# Compressibility (1/GPa) = 0.02912285
#
# Stress axis : x y z
#
# Youngs Moduli (GPa) = 19.47966 26.53022 50.62278
#
# Poissons Ratio (x) = 0.92083 -0.54992
# Poissons Ratio (y) = 0.67611 0.80916
# Poissons Ratio (z) = -0.21161 0.42406
#
# Static dielectric constant tensor:
#      x y z
#    x 1.615720 0.000510 0.009870 
#    y 0.000510 1.585770 0.008570 
#    z 0.009870 0.008570 1.630890 
# 
# From -- ./inp_files/381726.got.cif
#   From: 2010.05.17/outbox.cif.g08.bks.cpg/sg2_191_cif.got.tgz:381726.got - 2010.06.03 11:33:40.
