data_PCOD9098256
_publ_section_title
;
Structure prediction by ZEFSAII (Michael W. Deem and Ramdas Pophale) SiO2 
 PCOD9098256
Probable space group: P -1
;
_chemical_formula_sum "Si O2"
_cell_formula_units_Z 16
_cell_length_a 17.266065
_cell_length_b 21.973751
_cell_length_c 6.249956
_cell_angle_alpha 127.590815
_cell_angle_beta 126.957756
_cell_angle_gamma 19.031459
_cell_volume 609.925099
_symmetry_space_group_name_H-M "P -1"
_symmetry_group_IT_number 2
_symmetry_cell_setting 'triclinic'
loop_
_space_group_symop_operation_xyz
x,y,z
-x,-y,-z
loop_
_atom_site_type_symbol
_atom_site_label
_atom_site_fract_x
_atom_site_fract_y
_atom_site_fract_z
Si Si1 0.656955 0.078287 0.827186
Si Si2 0.392928 0.007014 0.114190
Si Si3 0.969486 0.810979 0.412038
Si Si4 0.034280 0.595681 0.693166
Si Si5 0.399363 0.578146 0.748430
Si Si6 0.506747 0.668503 0.212786
Si Si7 0.861249 0.027135 0.412104
Si Si8 0.133786 0.367095 0.133660
O O1 0.543887 0.227513 0.820618
O O2 0.789381 0.929578 0.559807
O O3 0.845247 0.984925 0.090035
O O4 0.521363 0.120188 0.850108
O O5 0.162868 0.137956 0.886452
O O6 0.614582 0.851557 0.987976
O O7 0.246681 0.183863 0.356922
O O8 0.228087 0.627035 0.552318
O O9 0.974450 0.895692 0.510436
O O10 0.206753 0.537665 0.768095
O O11 0.145812 0.434831 0.444730
O O12 0.018002 0.588033 0.902123
O O13 0.500000 0.500000 0.500000
O O14 0.500000 0.500000 0.000000
O O15 0.369365 0.692565 0.957460
O O16 0.397708 0.767899 0.476340
O O17 0.000000 0.000000 0.500000
O O18 0.000000 0.500000 0.000000
#
# Coordination Sequence:
#
# PCOD9098256 Si02
#       8
#     2   2   2   2   2   2   2   2
#     4  10  21  38  67  96 137 184 249 303 376 453
#     4  11  24  45  74 108 149 193 254 314 394 474
#     4  10  23  41  65  99 140 195 247 312 372 458
#     4  11  25  45  72 103 150 190 251 318 389 476
#     4  12  29  45  68 105 156 204 264 328 390 465
#     4  11  24  43  69 103 144 205 252 321 389 463
#     4  10  20  36  64  92 133 187 255 308 372 441
#     4  11  25  47  74 109 146 190 247 320 400 476
#
# _framework density 26.23273
#
# number of rings (size 3 to 8) (size 9 to 14) (size 15 to 20)
#    0.000    1.250    0.000    5.625    8.750    4.500 
#    0.000    0.000    0.000    0.000    0.000    0.000 
#    0.000    0.000    0.000    0.000    0.000    0.000 
#
# Total GULP energy -89104.032349 kJ/mol
# GULP energy per Si atom -5569.002022 kJ/mol
# Density = 2.617302 g / cm^3
# Si number density = 26.232730 Si / 1000 Ang^3
#
#
#
# Elastic Constant Matrix: (Units=GPa)
#
#
# Indices 1 2 3 4 5 6 
#
# 1 136.4630 37.5708 36.0135 -6.3761 -21.1585 -5.8382
# 2 37.5708 102.8958 6.6064 19.1669 -11.4618 -4.9315
# 3 36.0135 6.6064 81.1481 -5.1352 -9.1418 -3.5471
# 4 -6.3761 19.1669 -5.1352 38.4534 -6.6276 -1.8958
# 5 -21.1585 -11.4618 -9.1418 -6.6276 49.5039 -1.4914
# 6 -5.8382 -4.9315 -3.5471 -1.8958 -1.4914 45.3035
#
#
#
# Elastic Compliance Matrix: (Units=1/GPa)
#
#
# Indices 1 2 3 4 5 6 
#
# 1 0.009981 -0.003691 -0.003492 0.003637 0.003280 0.000871
# 2 -0.003691 0.012364 0.000293 -0.006623 0.000472 0.000632
# 3 -0.003492 0.000293 0.014133 0.001443 0.001403 0.000795
# 4 0.003637 -0.006623 0.001443 0.030937 0.004468 0.001302
# 5 0.003280 0.000472 0.001403 0.004468 0.022614 0.001515
# 6 0.000871 0.000632 0.000795 0.001302 0.001515 0.022421
#
#
# Mechanical properties :
#
#
# Convention : Reuss Voigt Hill
#
# Bulk Modulus (GPa) = 44.05342 53.43204 48.74273
# Shear Modulus (GPa) = 37.37049 42.67321 40.02185
#
# Velocity S-wave (km/s) = 3.77845 4.03763 3.91019
# Velocity P-wave (km/s) = 5.98877 6.49225 6.24558
#
# Compressibility (1/GPa) = 0.02269972
#
# Stress axis : x y z
#
# Youngs Moduli (GPa) = 100.18759 80.88087 70.75670
#
# Poissons Ratio (x) = 0.29850 0.24705
# Poissons Ratio (y) = 0.36975 -0.02073
# Poissons Ratio (z) = 0.34981 -0.02369
#
# Static dielectric constant tensor:
#      x y z
#    x 2.134630 -0.236490 0.302700 
#    y -0.236490 2.887440 -0.542490 
#    z 0.302700 -0.542490 2.757100 
# 
# From -- ./inp_files/112986.got.cif
#   From: 2010.05.17/outbox.cif.g08.bks.cpg/sg2_57_cif.got.tgz:112986.got - 2010.06.03 11:33:40.
