data_PCOD9098173
_publ_section_title
;
Structure prediction by ZEFSAII (Michael W. Deem and Ramdas Pophale) SiO2 
 PCOD9098173
Probable space group: P -1
;
_chemical_formula_sum "Si O2"
_cell_formula_units_Z 15
_cell_length_a 14.402769
_cell_length_b 7.487144
_cell_length_c 6.679435
_cell_angle_alpha 119.815051
_cell_angle_beta 67.971522
_cell_angle_gamma 98.751027
_cell_volume 578.790264
_symmetry_space_group_name_H-M "P -1"
_symmetry_group_IT_number 2
_symmetry_cell_setting 'triclinic'
loop_
_space_group_symop_operation_xyz
x,y,z
-x,-y,-z
loop_
_atom_site_type_symbol
_atom_site_label
_atom_site_fract_x
_atom_site_fract_y
_atom_site_fract_z
Si Si1 0.671636 0.227302 0.438518
Si Si2 0.500000 0.500000 0.500000
Si Si3 0.879209 0.703548 0.114772
Si Si4 0.373620 0.118690 0.979278
Si Si5 0.222194 0.399894 0.493395
Si Si6 0.922221 0.247068 0.744859
Si Si7 0.925516 0.849360 0.738524
Si Si8 0.592443 0.241980 0.931401
O O1 0.571697 0.336348 0.481653
O O2 0.761004 0.361040 0.356375
O O3 0.668073 0.255229 0.695148
O O4 0.673207 0.991325 0.234304
O O5 0.434049 0.567002 0.795127
O O6 0.868766 0.469714 0.912788
O O7 0.901340 0.846791 0.989039
O O8 0.788659 0.721893 0.357003
O O9 0.979228 0.718951 0.177469
O O10 0.376460 0.946815 0.054840
O O11 0.312819 0.308204 0.234675
O O12 0.486334 0.181232 0.887376
O O13 0.124723 0.352380 0.420827
O O14 0.962161 0.175961 0.454226
O O15 0.876402 0.049871 0.777901
#
# Coordination Sequence:
#
# PCOD9098173 Si02
#       8
#     2   1   2   2   2   2   2   2
#     4  11  23  41  63  87 122 168 210 261 315 371
#     4  10  20  36  64  84 114 152 212 260 296 366
#     4  10  21  40  64  94 127 166 204 260 316 372
#     4  10  23  41  60  89 123 159 215 264 305 380
#     4  11  25  40  56  97 129 154 211 258 320 380
#     4   9  20  40  67  91 125 160 221 250 294 398
#     4  10  21  39  64  95 126 169 201 260 318 372
#     4  10  21  42  64  89 115 167 217 257 316 368
#
# _framework density 25.916122999999999
#
# number of rings (size 3 to 8) (size 9 to 14) (size 15 to 20)
#    0.000    1.867    1.333    1.600    1.867    3.200 
#    0.000    0.000    0.000    0.000    0.000    0.000 
#    0.000    0.000    0.000    0.000    0.000    0.000 
#
# Total GULP energy -83608.857866 kJ/mol
# GULP energy per Si atom -5573.923858 kJ/mol
# Density = 2.585714 g / cm^3
# Si number density = 25.916123 Si / 1000 Ang^3
#
#
#
# Elastic Constant Matrix: (Units=GPa)
#
#
# Indices 1 2 3 4 5 6 
#
# 1 15.4648 0.0040 11.5390 -6.0210 4.6967 5.6468
# 2 0.0040 88.9894 49.4509 -14.8644 1.5151 4.4138
# 3 11.5390 49.4509 155.4604 -13.3541 10.4552 7.3598
# 4 -6.0210 -14.8644 -13.3541 56.7706 -7.8379 0.1515
# 5 4.6967 1.5151 10.4552 -7.8379 20.4386 -2.6554
# 6 5.6468 4.4138 7.3598 0.1515 -2.6554 22.7282
#
#
#
# Elastic Compliance Matrix: (Units=1/GPa)
#
#
# Indices 1 2 3 4 5 6 
#
# 1 0.084739 0.005435 -0.005187 0.006830 -0.017529 -0.022523
# 2 0.005435 0.014517 -0.004676 0.003429 0.001050 -0.002555
# 3 -0.005187 -0.004676 0.008536 -0.000181 -0.003016 -0.000919
# 4 0.006830 0.003429 -0.000181 0.019987 0.005703 -0.001771
# 5 -0.017529 0.001050 -0.003016 0.005703 0.058152 0.011884
# 6 -0.022523 -0.002555 -0.000919 -0.001771 0.011884 0.051788
#
#
# Mechanical properties :
#
#
# Convention : Reuss Voigt Hill
#
# Bulk Modulus (GPa) = 10.10760 42.43360 26.27060
# Shear Modulus (GPa) = 17.88571 33.24885 25.56728
#
# Velocity S-wave (km/s) = 2.62990 3.58570 3.14433
# Velocity P-wave (km/s) = 3.62359 5.79241 4.83127
#
# Compressibility (1/GPa) = 0.09893548
#
# Stress axis : x y z
#
# Youngs Moduli (GPa) = 11.80100 68.88307 117.15325
#
# Poissons Ratio (x) = -0.37437 0.60763
# Poissons Ratio (y) = -0.06414 0.54785
# Poissons Ratio (z) = 0.06121 0.32212
#
# Static dielectric constant tensor:
#      x y z
#    x 2.075570 0.017920 0.003880 
#    y 0.017920 2.017240 0.018190 
#    z 0.003880 0.018190 2.036160 
# 
# From -- ./inp_files/107503.got.cif
#   From: 2010.05.17/outbox.cif.g08.bks.cpg/sg2_54_cif.got.tgz:107503.got - 2010.06.03 11:33:40.
