data_PCOD9098812
_publ_section_title
;
Structure prediction by ZEFSAII (Michael W. Deem and Ramdas Pophale) SiO2 
 PCOD9098812
Probable space group: P -1
;
_chemical_formula_sum "Si O2"
_cell_formula_units_Z 16
_cell_length_a 8.875505
_cell_length_b 5.104894
_cell_length_c 18.236753
_cell_angle_alpha 89.329443
_cell_angle_beta 86.549262
_cell_angle_gamma 124.173149
_cell_volume 681.341384
_symmetry_space_group_name_H-M "P -1"
_symmetry_group_IT_number 2
_symmetry_cell_setting 'triclinic'
loop_
_space_group_symop_operation_xyz
x,y,z
-x,-y,-z
loop_
_atom_site_type_symbol
_atom_site_label
_atom_site_fract_x
_atom_site_fract_y
_atom_site_fract_z
Si Si1 0.154107 0.186204 0.146237
Si Si2 0.762461 0.808042 0.213064
Si Si3 0.233145 0.939185 0.291461
Si Si4 0.223207 0.986377 0.452224
Si Si5 0.562109 0.812050 0.951247
Si Si6 0.778775 0.520447 0.464230
Si Si7 0.448996 0.858732 0.175752
Si Si8 0.179459 0.641192 0.693717
O O1 0.200631 0.107536 0.225140
O O2 0.234098 0.075874 0.081388
O O3 0.268794 0.566709 0.141750
O O4 0.938461 0.010423 0.154905
O O5 0.786527 0.032594 0.280513
O O6 0.589705 0.761438 0.177869
O O7 0.762611 0.516504 0.246553
O O8 0.279892 0.109192 0.367438
O O9 0.385549 0.892602 0.256990
O O10 0.040447 0.601540 0.307072
O O11 0.282138 0.754762 0.474289
O O12 0.001018 0.760109 0.459746
O O13 0.285372 0.258063 0.509225
O O14 0.480291 0.829409 0.875421
O O15 0.500000 0.500000 0.000000
O O16 0.500000 0.000000 0.000000
O O17 0.735813 0.368010 0.385614
#
# Coordination Sequence:
#
# PCOD9098812 Si02
#       8
#     2   2   2   2   2   2   2   2
#     4  10  22  42  66  94 126 160 203 248 301 360
#     4  11  24  38  64  94 124 159 207 256 298 355
#     4   9  20  34  60  89 121 160 207 259 307 356
#     4   9  17  28  50  81 112 153 207 251 300 364
#     4  11  23  43  70  95 127 165 195 240 299 359
#     4   9  17  29  49  79 115 156 202 252 304 365
#     4  11  23  41  68  94 124 160 205 247 302 359
#     4  10  20  37  57  87 125 161 205 259 312 355
#
# _framework density 23.483087000000001
#
# number of rings (size 3 to 8) (size 9 to 14) (size 15 to 20)
#    0.000    2.000    2.500    0.750    5.250    3.000 
#    0.000    1.250    0.000    4.500    0.000    0.000 
#    0.000    0.000    0.000    0.000    0.000    0.000 
#
# Total GULP energy -89365.355411 kJ/mol
# GULP energy per Si atom -5585.334713 kJ/mol
# Density = 2.342964 g / cm^3
# Si number density = 23.483087 Si / 1000 Ang^3
#
#
#
# Elastic Constant Matrix: (Units=GPa)
#
#
# Indices 1 2 3 4 5 6 
#
# 1 98.3599 22.0303 19.4221 -7.8083 -19.4850 -3.7117
# 2 22.0303 60.2244 18.1800 2.3293 -13.7297 -20.4742
# 3 19.4221 18.1800 105.4541 -4.2673 -24.1808 -11.7708
# 4 -7.8083 2.3293 -4.2673 28.1991 -11.5466 -4.8793
# 5 -19.4850 -13.7297 -24.1808 -11.5466 24.7373 9.3959
# 6 -3.7117 -20.4742 -11.7708 -4.8793 9.3959 33.8441
#
#
#
# Elastic Compliance Matrix: (Units=1/GPa)
#
#
# Indices 1 2 3 4 5 6 
#
# 1 0.015101 -0.003409 0.002330 0.012101 0.019129 -0.003162
# 2 -0.003409 0.023452 -0.000684 0.001465 0.005711 0.012201
# 3 0.002330 -0.000684 0.014459 0.011481 0.020647 0.000794
# 4 0.012101 0.001465 0.011481 0.060927 0.049536 0.001238
# 5 0.019129 0.005711 0.020647 0.049536 0.105547 -0.009427
# 6 -0.003162 0.012201 0.000794 0.001238 -0.009427 0.039653
#
#
# Mechanical properties :
#
#
# Convention : Reuss Voigt Hill
#
# Bulk Modulus (GPa) = 20.20867 42.58922 31.39894
# Shear Modulus (GPa) = 17.91078 30.98318 24.44698
#
# Velocity S-wave (km/s) = 2.76472 3.63627 3.23002
# Velocity P-wave (km/s) = 4.33772 5.98377 5.22596
#
# Compressibility (1/GPa) = 0.04948372
#
# Stress axis : x y z
#
# Youngs Moduli (GPa) = 66.21998 42.64119 69.16021
#
# Poissons Ratio (x) = 0.14538 -0.16112
# Poissons Ratio (y) = 0.22577 0.04733
# Poissons Ratio (z) = -0.15427 0.02918
#
# Static dielectric constant tensor:
#      x y z
#    x 1.886620 0.043490 0.007500 
#    y 0.043490 1.930380 0.025790 
#    z 0.007500 0.025790 1.903940 
# 
# From -- ./inp_files/105596.got.cif
#   From: 2010.05.17/outbox.cif.g08.bks.cpg/sg2_53_cif.got.tgz:105596.got - 2010.06.03 11:33:40.
