data_PCOD9098197
_publ_section_title
;
Structure prediction by ZEFSAII (Michael W. Deem and Ramdas Pophale) SiO2 
 PCOD9098197
Probable space group: P -1
;
_chemical_formula_sum "Si O2"
_cell_formula_units_Z 13
_cell_length_a 5.337554
_cell_length_b 11.051551
_cell_length_c 10.233046
_cell_angle_alpha 121.019677
_cell_angle_beta 69.428652
_cell_angle_gamma 115.478030
_cell_volume 460.387999
_symmetry_space_group_name_H-M "P -1"
_symmetry_group_IT_number 2
_symmetry_cell_setting 'triclinic'
loop_
_space_group_symop_operation_xyz
x,y,z
-x,-y,-z
loop_
_atom_site_type_symbol
_atom_site_label
_atom_site_fract_x
_atom_site_fract_y
_atom_site_fract_z
Si Si1 0.432048 0.471916 0.342991
Si Si2 0.234094 0.639457 0.191706
Si Si3 0.500000 0.000000 0.000000
Si Si4 0.897690 0.333233 0.066036
Si Si5 0.675096 0.931107 0.329703
Si Si6 0.897529 0.831172 0.746364
Si Si7 0.794813 0.770033 0.438581
O O1 0.500000 0.500000 0.500000
O O2 0.662304 0.404055 0.202534
O O3 0.138127 0.339730 0.311956
O O4 0.509220 0.641631 0.376133
O O5 0.520239 0.774470 0.205847
O O6 0.192395 0.464341 0.121830
O O7 0.038145 0.693420 0.358916
O O8 0.101224 0.654668 0.083488
O O9 0.212533 0.840240 0.972301
O O10 0.707488 0.899078 0.906436
O O11 0.877526 0.886884 0.371436
O O12 0.500000 0.000000 0.500000
O O13 0.795572 0.054392 0.266669
O O14 0.767933 0.827598 0.620085
#
# Coordination Sequence:
#
# PCOD9098197 Si02
#       7
#     2   2   1   2   2   2   2
#     4   8  17  36  62  82 115 161 204 239 295 359
#     4  10  21  40  61  88 124 154 203 244 302 356
#     4  10  20  36  64  88 114 162 206 234 306 354
#     4   9  19  37  61  86 119 160 192 253 295 353
#     4  12  24  36  62  96 121 154 204 250 296 360
#     4  10  20  38  62  88 120 159 200 247 300 354
#     4  10  20  39  63  85 119 162 198 250 300 346
#
# _framework density 28.237051000000001
#
# number of rings (size 3 to 8) (size 9 to 14) (size 15 to 20)
#    0.000    2.154    1.538    1.385    2.154    0.000 
#    0.000   17.692    0.000    0.000    0.000    0.000 
#    0.000    0.000    0.000    0.000    0.000    0.000 
#
# Total GULP energy -72418.700592 kJ/mol
# GULP energy per Si atom -5570.669276 kJ/mol
# Density = 2.817278 g / cm^3
# Si number density = 28.237051 Si / 1000 Ang^3
#
#
#
# Elastic Constant Matrix: (Units=GPa)
#
#
# Indices 1 2 3 4 5 6 
#
# 1 43.5654 22.6821 20.5579 15.7519 -0.2615 5.3647
# 2 22.6821 246.7145 31.3705 43.6102 31.2581 24.4162
# 3 20.5579 31.3705 84.9271 13.1791 -0.3332 2.6082
# 4 15.7519 43.6102 13.1791 62.8559 24.1888 13.1036
# 5 -0.2615 31.2581 -0.3332 24.1888 34.7939 14.4163
# 6 5.3647 24.4162 2.6082 13.1036 14.4163 47.4893
#
#
#
# Elastic Compliance Matrix: (Units=1/GPa)
#
#
# Indices 1 2 3 4 5 6 
#
# 1 0.029346 -0.001400 -0.005269 -0.007785 0.007899 -0.002556
# 2 -0.001400 0.005113 -0.001298 -0.001498 -0.003148 -0.001030
# 3 -0.005269 -0.001298 0.013777 -0.001590 0.002256 0.000260
# 4 -0.007785 -0.001498 -0.001590 0.025614 -0.016387 -0.000356
# 5 0.007899 -0.003148 0.002256 -0.016387 0.046806 -0.009085
# 6 -0.002556 -0.001030 0.000260 -0.000356 -0.009085 0.024718
#
#
# Mechanical properties :
#
#
# Convention : Reuss Voigt Hill
#
# Bulk Modulus (GPa) = 30.95705 58.26979 44.61342
# Shear Modulus (GPa) = 29.05719 49.06759 39.06239
#
# Velocity S-wave (km/s) = 3.21135 4.17310 3.72341
# Velocity P-wave (km/s) = 4.97368 6.62574 5.85824
#
# Compressibility (1/GPa) = 0.03230282
#
# Stress axis : x y z
#
# Youngs Moduli (GPa) = 34.07590 195.59697 72.58304
#
# Poissons Ratio (x) = 0.27377 0.38245
# Poissons Ratio (y) = 0.04770 0.09420
# Poissons Ratio (z) = 0.17955 0.25386
#
# Static dielectric constant tensor:
#      x y z
#    x 2.360820 0.075580 0.125810 
#    y 0.075580 2.289850 0.052060 
#    z 0.125810 0.052060 2.212800 
# 
# From -- ./inp_files/64196.got.cif
#   From: 2010.05.17/outbox.cif.g08.bks.cpg/sg2_33_cif.got.tgz:64196.got - 2010.06.03 11:33:40.
