data_PCOD9098261
_publ_section_title
;
Structure prediction by ZEFSAII (Michael W. Deem and Ramdas Pophale) SiO2 
 PCOD9098261
Probable space group: P -1
;
_chemical_formula_sum "Si O2"
_cell_formula_units_Z 16
_cell_length_a 12.619662
_cell_length_b 15.324743
_cell_length_c 15.956636
_cell_angle_alpha 28.240976
_cell_angle_beta 38.623165
_cell_angle_gamma 57.870210
_cell_volume 773.111308
_symmetry_space_group_name_H-M "P -1"
_symmetry_group_IT_number 2
_symmetry_cell_setting 'triclinic'
loop_
_space_group_symop_operation_xyz
x,y,z
-x,-y,-z
loop_
_atom_site_type_symbol
_atom_site_label
_atom_site_fract_x
_atom_site_fract_y
_atom_site_fract_z
Si Si1 0.755684 0.580517 0.330958
Si Si2 0.846410 0.221716 0.536185
Si Si3 0.833276 0.668116 0.612646
Si Si4 0.085057 0.997755 0.860004
Si Si5 0.447179 0.802568 0.603203
Si Si6 0.892213 0.610496 0.928545
Si Si7 0.490828 0.229287 0.214960
Si Si8 0.663428 0.737557 0.087653
O O1 0.768987 0.387050 0.443493
O O2 0.716825 0.708108 0.174410
O O3 0.565686 0.461938 0.610974
O O4 0.958123 0.757845 0.101639
O O5 0.999808 0.301190 0.452194
O O6 0.963033 0.245339 0.358141
O O7 0.685932 0.968234 0.864444
O O8 0.685501 0.724414 0.705722
O O9 0.925044 0.835234 0.338396
O O10 0.678480 0.420883 0.887439
O O11 0.317830 0.085452 0.650782
O O12 0.000000 0.000000 0.000000
O O13 0.421408 0.759275 0.755503
O O14 0.398658 0.982884 0.452907
O O15 0.309148 0.581705 0.827569
O O16 0.820114 0.723075 0.943066
O O17 0.000000 0.500000 0.000000
#
# Coordination Sequence:
#
# PCOD9098261 Si02
#       8
#     2   2   2   2   2   2   2   2
#     4  11  24  45  71  93 135 180 226 268 333 400
#     4  12  23  43  70  98 131 177 228 270 328 398
#     4  10  20  36  64  93 126 164 217 258 329 389
#     4  11  23  42  67  94 130 176 215 274 332 388
#     4  10  21  37  64  90 131 165 213 262 335 381
#     4  12  25  41  66 103 138 171 222 278 334 384
#     4   9  19  36  61  93 123 165 208 266 319 395
#     4  11  25  45  66  96 136 182 221 277 326 393
#
# _framework density 20.695595000000001
#
# number of rings (size 3 to 8) (size 9 to 14) (size 15 to 20)
#    0.000    1.250    3.750    2.250    5.250    0.000 
#    0.000    2.500    0.000    0.000    0.000    0.000 
#    0.000    0.000    0.000    0.000    0.000    0.000 
#
# Total GULP energy -89413.235952 kJ/mol
# GULP energy per Si atom -5588.327247 kJ/mol
# Density = 2.064849 g / cm^3
# Si number density = 20.695595 Si / 1000 Ang^3
#
#
#
# Elastic Constant Matrix: (Units=GPa)
#
#
# Indices 1 2 3 4 5 6 
#
# 1 39.9818 -7.4781 25.3114 3.4380 -0.3306 -5.3743
# 2 -7.4781 50.2995 32.2698 3.7598 15.7097 0.3060
# 3 25.3114 32.2698 134.5321 0.4364 15.2343 4.4894
# 4 3.4380 3.7598 0.4364 35.9557 -1.3002 3.6959
# 5 -0.3306 15.7097 15.2343 -1.3002 28.2096 -1.4153
# 6 -5.3743 0.3060 4.4894 3.6959 -1.4153 21.9498
#
#
#
# Elastic Compliance Matrix: (Units=1/GPa)
#
#
# Indices 1 2 3 4 5 6 
#
# 1 0.035623 0.012255 -0.009923 -0.005777 -0.000737 0.011506
# 2 0.012255 0.031569 -0.008552 -0.005283 -0.012842 0.004371
# 3 -0.009923 -0.008552 0.011727 0.002168 -0.001847 -0.005193
# 4 -0.005777 -0.005283 0.002168 0.029668 0.002740 -0.006603
# 5 -0.000737 -0.012842 -0.001847 0.002740 0.043854 0.002743
# 6 0.011506 0.004371 -0.005193 -0.006603 0.002743 0.050665
#
#
# Mechanical properties :
#
#
# Convention : Reuss Voigt Hill
#
# Bulk Modulus (GPa) = 15.04295 36.11329 25.57812
# Shear Modulus (GPa) = 21.03423 28.87038 24.95230
#
# Velocity S-wave (km/s) = 3.19150 3.73902 3.47606
# Velocity P-wave (km/s) = 4.56786 6.01066 5.33823
#
# Compressibility (1/GPa) = 0.06647634
#
# Stress axis : x y z
#
# Youngs Moduli (GPa) = 28.07177 31.67666 85.27259
#
# Poissons Ratio (x) = -0.38818 0.84620
# Poissons Ratio (y) = -0.34401 0.72929
# Poissons Ratio (z) = 0.27857 0.27091
#
# Static dielectric constant tensor:
#      x y z
#    x 1.730760 -0.032910 -0.011380 
#    y -0.032910 1.757480 -0.003060 
#    z -0.011380 -0.003060 1.777090 
# 
# From -- ./inp_files/315980.got.cif
#   From: 2010.05.17/outbox.cif.g08.bks.cpg/sg2_158_cif.got.tgz:315980.got - 2010.06.03 11:33:40.
