data_PCOD9098467
_publ_section_title
;
Structure prediction by ZEFSAII (Michael W. Deem and Ramdas Pophale) SiO2 
 PCOD9098467
Probable space group: P -1
;
_chemical_formula_sum "Si O2"
_cell_formula_units_Z 15
_cell_length_a 14.345144
_cell_length_b 9.215572
_cell_length_c 14.714082
_cell_angle_alpha 101.924665
_cell_angle_beta 29.043468
_cell_angle_gamma 120.133716
_cell_volume 680.364899
_symmetry_space_group_name_H-M "P -1"
_symmetry_group_IT_number 2
_symmetry_cell_setting 'triclinic'
loop_
_space_group_symop_operation_xyz
x,y,z
-x,-y,-z
loop_
_atom_site_type_symbol
_atom_site_label
_atom_site_fract_x
_atom_site_fract_y
_atom_site_fract_z
Si Si1 0.880853 0.961279 0.890589
Si Si2 0.658713 0.665110 0.556196
Si Si3 0.380635 0.689870 0.480807
Si Si4 0.306190 0.667516 0.747651
Si Si5 0.587958 0.072954 0.670710
Si Si6 0.568157 0.492845 0.077686
Si Si7 0.104121 0.403761 0.353964
Si Si8 0.000000 0.000000 0.000000
O O1 0.637277 0.947240 0.092628
O O2 0.759556 0.733790 0.960359
O O3 0.036318 0.056345 0.865514
O O4 0.086634 0.107019 0.655381
O O5 0.735948 0.532717 0.466530
O O6 0.443987 0.588539 0.651676
O O7 0.514696 0.617094 0.768886
O O8 0.335800 0.721794 0.624353
O O9 0.296923 0.764444 0.487403
O O10 0.689542 0.834897 0.225786
O O11 0.444174 0.861491 0.718225
O O12 0.000000 0.500000 0.000000
O O13 0.839736 0.173981 0.529645
O O14 0.303137 0.418788 0.250223
O O15 0.722321 0.476986 0.869574
O O16 0.000000 0.500000 0.500000
#
# Coordination Sequence:
#
# PCOD9098467 Si02
#       8
#     2   2   2   2   2   2   2   1
#     4  11  22  43  70 101 142 188 230 283 351 416
#     4  12  24  44  69 104 139 186 239 286 345 437
#     4  11  23  40  68  97 137 191 228 278 343 429
#     4  12  27  39  61 106 147 181 229 285 348 421
#     4  11  24  44  70 100 142 183 237 293 352 413
#     4  11  25  46  76 102 137 185 239 294 364 417
#     4  11  23  48  76 101 134 184 241 302 357 419
#     4  10  20  36  66  94 136 182 226 264 338 410
#
# _framework density 22.046990999999998
#
# number of rings (size 3 to 8) (size 9 to 14) (size 15 to 20)
#    0.000    0.800    5.333    2.400    5.600    0.000 
#    2.400    6.667    0.000    0.000    0.000    0.000 
#    0.000    0.000    0.000    0.000    0.000    0.000 
#
# Total GULP energy -83623.227362 kJ/mol
# GULP energy per Si atom -5574.881824 kJ/mol
# Density = 2.199681 g / cm^3
# Si number density = 22.046991 Si / 1000 Ang^3
#
#
#
# Elastic Constant Matrix: (Units=GPa)
#
#
# Indices 1 2 3 4 5 6 
#
# 1 71.5601 14.1102 49.9777 -14.2579 -12.8077 2.4798
# 2 14.1102 83.6453 39.9839 4.4410 4.6098 6.2808
# 3 49.9777 39.9839 145.7778 1.5727 17.0377 7.8499
# 4 -14.2579 4.4410 1.5727 31.4583 -1.0805 4.6029
# 5 -12.8077 4.6098 17.0377 -1.0805 43.3146 -0.3176
# 6 2.4798 6.2808 7.8499 4.6029 -0.3176 21.6198
#
#
#
# Elastic Compliance Matrix: (Units=1/GPa)
#
#
# Indices 1 2 3 4 5 6 
#
# 1 0.026089 -0.000762 -0.010203 0.013104 0.012124 -0.001678
# 2 -0.000762 0.013998 -0.003379 -0.001821 -0.000449 -0.002372
# 3 -0.010203 -0.003379 0.012303 -0.004820 -0.007628 -0.001401
# 4 0.013104 -0.001821 -0.004820 0.039566 0.006896 -0.007547
# 5 0.012124 -0.000449 -0.007628 0.006896 0.029895 0.000480
# 6 -0.001678 -0.002372 -0.001401 -0.007547 0.000480 0.049258
#
#
# Mechanical properties :
#
#
# Convention : Reuss Voigt Hill
#
# Bulk Modulus (GPa) = 42.18680 56.56965 49.37823
# Shear Modulus (GPa) = 24.07330 32.40598 28.23964
#
# Velocity S-wave (km/s) = 3.30799 3.83803 3.58283
# Velocity P-wave (km/s) = 5.81093 6.73462 6.28975
#
# Compressibility (1/GPa) = 0.02370409
#
# Stress axis : x y z
#
# Youngs Moduli (GPa) = 38.32966 71.43779 81.27812
#
# Poissons Ratio (x) = 0.05440 0.82932
# Poissons Ratio (y) = 0.02919 0.27460
# Poissons Ratio (z) = 0.39109 0.24136
#
# Static dielectric constant tensor:
#      x y z
#    x 1.828950 -0.008840 0.060950 
#    y -0.008840 1.862760 0.022760 
#    z 0.060950 0.022760 1.819610 
# 
# From -- ./inp_files/291508.got.cif
#   From: 2010.05.17/outbox.cif.g08.bks.cpg/sg2_146_cif.got.tgz:291508.got - 2010.06.03 11:33:40.
