data_PCOD9098062
_publ_section_title
;
Structure prediction by ZEFSAII (Michael W. Deem and Ramdas Pophale) SiO2 
 PCOD9098062
Probable space group: P -1
;
_chemical_formula_sum "Si O2"
_cell_formula_units_Z 15
_cell_length_a 15.698177
_cell_length_b 8.295000
_cell_length_c 8.480245
_cell_angle_alpha 80.784583
_cell_angle_beta 104.225120
_cell_angle_gamma 138.459069
_cell_volume 709.360101
_symmetry_space_group_name_H-M "P -1"
_symmetry_group_IT_number 2
_symmetry_cell_setting 'triclinic'
loop_
_space_group_symop_operation_xyz
x,y,z
-x,-y,-z
loop_
_atom_site_type_symbol
_atom_site_label
_atom_site_fract_x
_atom_site_fract_y
_atom_site_fract_z
Si Si1 0.113499 0.779680 0.057100
Si Si2 0.341578 0.607489 0.467027
Si Si3 0.595607 0.031540 0.327073
Si Si4 0.254008 0.022998 0.387839
Si Si5 0.000000 0.000000 0.000000
Si Si6 0.496962 0.581421 0.748245
Si Si7 0.381786 0.110627 0.948805
Si Si8 0.917173 0.915037 0.629268
O O1 0.063207 0.896448 0.031081
O O2 0.174743 0.815504 0.250058
O O3 0.000000 0.500000 0.000000
O O4 0.233205 0.930715 0.964557
O O5 0.337907 0.723487 0.596266
O O6 0.403443 0.529616 0.583383
O O7 0.201467 0.378330 0.366846
O O8 0.445770 0.818487 0.354566
O O9 0.670664 0.984174 0.452521
O O10 0.604701 0.020386 0.145899
O O11 0.365516 0.270378 0.296835
O O12 0.154459 0.009584 0.423287
O O13 0.001999 0.020455 0.807382
O O14 0.434111 0.339492 0.840065
O O15 0.532735 0.764635 0.871014
O O16 0.000000 0.000000 0.500000
#
# Coordination Sequence:
#
# PCOD9098062 Si02
#       8
#     2   2   2   2   1   2   2   2
#     4  10  23  42  62  88 126 168 209 266 319 381
#     4  10  22  39  58  91 130 159 200 263 323 372
#     4  10  21  37  62  93 121 160 204 261 323 379
#     4   9  20  40  61  87 122 161 204 256 321 373
#     4  10  26  44  62  92 128 176 218 260 322 374
#     4   9  19  38  63  88 122 158 205 263 313 379
#     4  10  20  36  63  92 115 162 214 255 314 385
#     4  11  24  41  63  91 124 170 216 262 313 388
#
# _framework density 21.145818999999999
#
# number of rings (size 3 to 8) (size 9 to 14) (size 15 to 20)
#    0.000    2.133    0.000    1.600    5.600    5.867 
#    0.000    1.333    0.000    0.000    0.000    0.000 
#    0.000    0.000    0.000    0.000    0.000    0.000 
#
# Total GULP energy -83529.688956 kJ/mol
# GULP energy per Si atom -5568.645930 kJ/mol
# Density = 2.109769 g / cm^3
# Si number density = 21.145819 Si / 1000 Ang^3
#
#
#
# Elastic Constant Matrix: (Units=GPa)
#
#
# Indices 1 2 3 4 5 6 
#
# 1 74.6103 5.2948 38.8148 -5.1211 -31.9015 7.4055
# 2 5.2948 40.4995 5.7441 5.3393 -3.8724 12.3175
# 3 38.8148 5.7441 98.0697 1.3425 -30.4470 13.1130
# 4 -5.1211 5.3393 1.3425 15.2644 -7.3236 -4.9409
# 5 -31.9015 -3.8724 -30.4470 -7.3236 40.7853 -2.8039
# 6 7.4055 12.3175 13.1130 -4.9409 -2.8039 20.2658
#
#
#
# Elastic Compliance Matrix: (Units=1/GPa)
#
#
# Indices 1 2 3 4 5 6 
#
# 1 0.026185 -0.005303 -0.004502 0.022764 0.021051 0.005030
# 2 -0.005303 0.037119 0.002497 -0.027332 -0.005709 -0.029692
# 3 -0.004502 0.002497 0.015297 -0.003596 0.006823 -0.009703
# 4 0.022764 -0.027332 -0.003596 0.114408 0.036060 0.043504
# 5 0.021051 -0.005709 0.006823 0.036060 0.052521 0.007421
# 6 0.005030 -0.029692 -0.009703 0.043504 0.007421 0.083465
#
#
# Mechanical properties :
#
#
# Convention : Reuss Voigt Hill
#
# Bulk Modulus (GPa) = 15.62866 34.76519 25.19693
# Shear Modulus (GPa) = 13.70090 26.15149 19.92619
#
# Velocity S-wave (km/s) = 2.54820 3.52052 3.07306
# Velocity P-wave (km/s) = 4.00808 5.74472 4.95310
#
# Compressibility (1/GPa) = 0.06398499
#
# Stress axis : x y z
#
# Youngs Moduli (GPa) = 38.18930 26.94047 65.37134
#
# Poissons Ratio (x) = 0.14286 0.29430
# Poissons Ratio (y) = 0.20251 -0.16321
# Poissons Ratio (z) = 0.17192 -0.06726
#
# Static dielectric constant tensor:
#      x y z
#    x 1.788150 -0.041260 -0.007110 
#    y -0.041260 1.774910 0.046500 
#    z -0.007110 0.046500 1.754690 
# 
# From -- ./inp_files/180249.got.cif
#   From: 2010.05.17/outbox.cif.g08.bks.cpg/sg2_91_cif.got.tgz:180249.got - 2010.06.03 11:33:40.
