data_PCOD9098120
_publ_section_title
;
Structure prediction by ZEFSAII (Michael W. Deem and Ramdas Pophale) SiO2 
 PCOD9098120
Probable space group: P -1
;
_chemical_formula_sum "Si O2"
_cell_formula_units_Z 14
_cell_length_a 14.587857
_cell_length_b 12.522530
_cell_length_c 8.114007
_cell_angle_alpha 66.240291
_cell_angle_beta 115.095297
_cell_angle_gamma 149.644963
_cell_volume 676.141147
_symmetry_space_group_name_H-M "P -1"
_symmetry_group_IT_number 2
_symmetry_cell_setting 'triclinic'
loop_
_space_group_symop_operation_xyz
x,y,z
-x,-y,-z
loop_
_atom_site_type_symbol
_atom_site_label
_atom_site_fract_x
_atom_site_fract_y
_atom_site_fract_z
Si Si1 0.078364 0.420651 0.096394
Si Si2 0.271521 0.811148 0.144886
Si Si3 0.463728 0.213483 0.105695
Si Si4 0.724076 0.289418 0.437262
Si Si5 0.791116 0.671768 0.939494
Si Si6 0.103589 0.749167 0.580547
Si Si7 0.852773 0.996130 0.771742
O O1 0.961598 0.302563 0.249375
O O2 0.243256 0.670961 0.097138
O O3 0.144666 0.359809 0.127205
O O4 0.937780 0.340475 0.907013
O O5 0.331011 0.824987 0.361907
O O6 0.391422 0.037838 0.044146
O O7 0.594073 0.268966 0.296912
O O8 0.287196 0.096166 0.135245
O O9 0.589646 0.434393 0.986612
O O10 0.752166 0.215410 0.368413
O O11 0.922109 0.536627 0.472935
O O12 0.799973 0.813273 0.800182
O O13 0.940707 0.806132 0.118493
O O14 0.165776 0.930698 0.436533
#
# Coordination Sequence:
#
# PCOD9098120 Si02
#       7
#     2   2   2   2   2   2   2
#     4  10  22  40  60  92 129 160 198 248 312 370
#     4  10  21  37  61  92 128 153 197 251 306 365
#     4  12  22  38  67  96 118 157 210 258 296 363
#     4  10  20  36  63  96 122 156 201 255 305 359
#     4  11  24  42  64  87 124 168 206 250 298 360
#     4  10  20  38  65  90 123 162 201 248 309 363
#     4  11  23  43  65  87 120 168 213 248 291 362
#
# _framework density 20.705736000000002
#
# number of rings (size 3 to 8) (size 9 to 14) (size 15 to 20)
#    0.000    1.429    4.286    0.857    6.000    1.143 
#    0.000    0.000    0.000    4.286    0.000    0.000 
#    0.000    0.000    0.000    0.000    0.000    0.000 
#
# Total GULP energy -78207.797637 kJ/mol
# GULP energy per Si atom -5586.271260 kJ/mol
# Density = 2.065861 g / cm^3
# Si number density = 20.705736 Si / 1000 Ang^3
#
#
#
# Elastic Constant Matrix: (Units=GPa)
#
#
# Indices 1 2 3 4 5 6 
#
# 1 78.3007 33.6383 11.1025 -14.8552 9.0173 -24.8645
# 2 33.6383 125.8244 17.7481 -26.6097 -1.4784 -21.7266
# 3 11.1025 17.7481 47.6869 -14.8542 3.0185 -8.9475
# 4 -14.8552 -26.6097 -14.8542 37.0797 -3.6164 7.7827
# 5 9.0173 -1.4784 3.0185 -3.6164 23.9221 -6.2158
# 6 -24.8645 -21.7266 -8.9475 7.7827 -6.2158 39.8765
#
#
#
# Elastic Compliance Matrix: (Units=1/GPa)
#
#
# Indices 1 2 3 4 5 6 
#
# 1 0.017612 -0.002681 -0.000412 0.002833 -0.004188 0.008223
# 2 -0.002681 0.010658 -0.001151 0.005766 0.003545 0.003305
# 3 -0.000412 -0.001151 0.024649 0.008176 -0.001039 0.002889
# 4 0.002833 0.005766 0.008176 0.035812 0.003759 0.000339
# 5 -0.004188 0.003545 -0.001039 0.003759 0.045723 0.005481
# 6 0.008223 0.003305 0.002889 0.000339 0.005481 0.033442
#
#
# Mechanical properties :
#
#
# Convention : Reuss Voigt Hill
#
# Bulk Modulus (GPa) = 22.50657 41.86552 32.18604
# Shear Modulus (GPa) = 26.15127 32.79720 29.47424
#
# Velocity S-wave (km/s) = 3.55772 3.98423 3.77700
# Velocity P-wave (km/s) = 5.26971 6.43650 5.88211
#
# Compressibility (1/GPa) = 0.04443148
#
# Stress axis : x y z
#
# Youngs Moduli (GPa) = 56.77846 93.82446 40.56962
#
# Poissons Ratio (x) = 0.25150 0.01673
# Poissons Ratio (y) = 0.15220 0.04669
# Poissons Ratio (z) = 0.02342 0.10799
#
# Static dielectric constant tensor:
#      x y z
#    x 1.726490 0.016230 -0.013500 
#    y 0.016230 1.807220 -0.000590 
#    z -0.013500 -0.000590 1.741660 
# 
# From -- ./inp_files/272457.got.cif
#   From: 2010.05.17/outbox.cif.g08.bks.cpg/sg2_137_cif.got.tgz:272457.got - 2010.06.03 11:33:40.
