data_PCOD9098900
_publ_section_title
;
Structure prediction by ZEFSAII (Michael W. Deem and Ramdas Pophale) SiO2 
 PCOD9098900
Probable space group: P -1
;
_chemical_formula_sum "Si O2"
_cell_formula_units_Z 16
_cell_length_a 8.333072
_cell_length_b 9.641636
_cell_length_c 14.296571
_cell_angle_alpha 106.795241
_cell_angle_beta 55.286213
_cell_angle_gamma 133.952718
_cell_volume 668.683753
_symmetry_space_group_name_H-M "P -1"
_symmetry_group_IT_number 2
_symmetry_cell_setting 'triclinic'
loop_
_space_group_symop_operation_xyz
x,y,z
-x,-y,-z
loop_
_atom_site_type_symbol
_atom_site_label
_atom_site_fract_x
_atom_site_fract_y
_atom_site_fract_z
Si Si1 0.391791 0.336386 0.425947
Si Si2 0.871520 0.993869 0.138061
Si Si3 0.484925 0.835410 0.520843
Si Si4 0.240655 0.512580 0.398984
Si Si5 0.909547 0.161076 0.880977
Si Si6 0.482648 0.004928 0.860699
Si Si7 0.069104 0.383569 0.233202
Si Si8 0.845462 0.443799 0.167039
O O1 0.500000 0.500000 0.500000
O O2 0.326122 0.151254 0.463332
O O3 0.192831 0.332986 0.429372
O O4 0.639855 0.432145 0.294890
O O5 0.594929 0.931139 0.187823
O O6 0.044207 0.209219 0.167984
O O7 0.888287 0.866748 0.176295
O O8 0.000000 0.000000 0.000000
O O9 0.465448 0.711584 0.418380
O O10 0.212631 0.714270 0.646259
O O11 0.500000 0.000000 0.500000
O O12 0.264704 0.499173 0.277675
O O13 0.000000 0.500000 0.500000
O O14 0.039603 0.379670 0.906714
O O15 0.780143 0.118011 0.813471
O O16 0.665850 0.003957 0.000714
O O17 0.330112 0.778706 0.849755
O O18 0.083590 0.496600 0.161308
#
# Coordination Sequence:
#
# PCOD9098900 Si02
#       8
#     2   2   2   2   2   2   2   2
#     4   9  19  35  57  77 115 151 185 235 291 344
#     4   9  19  36  57  82 116 151 191 242 287 342
#     4   9  18  35  56  80 107 146 188 232 288 343
#     4   9  18  35  55  77 111 152 188 234 292 345
#     4  10  20  37  61  87 113 154 201 236 293 353
#     4   9  20  39  59  83 122 151 186 252 295 339
#     4   9  19  36  53  77 118 145 182 242 288 335
#     4  10  20  37  58  84 114 154 195 235 292 350
#
# _framework density 23.927606000000001
#
# number of rings (size 3 to 8) (size 9 to 14) (size 15 to 20)
#    0.000    2.750    0.000    1.125    1.750    2.000 
#    9.000    2.500    0.000    8.250    0.000    0.000 
#    0.000    0.000    0.000    0.000    0.000    0.000 
#
# Total GULP energy -89160.712357 kJ/mol
# GULP energy per Si atom -5572.544522 kJ/mol
# Density = 2.387315 g / cm^3
# Si number density = 23.927606 Si / 1000 Ang^3
#
#
#
# Elastic Constant Matrix: (Units=GPa)
#
#
# Indices 1 2 3 4 5 6 
#
# 1 176.2582 75.7698 7.8266 20.6600 -20.2198 -38.4041
# 2 75.7698 99.7257 11.1536 19.4315 0.4483 -40.4907
# 3 7.8266 11.1536 79.5526 22.3580 -0.0308 5.9255
# 4 20.6600 19.4315 22.3580 32.9821 4.8546 -1.3020
# 5 -20.2198 0.4483 -0.0308 4.8546 21.3098 13.0584
# 6 -38.4041 -40.4907 5.9255 -1.3020 13.0584 44.8232
#
#
#
# Elastic Compliance Matrix: (Units=1/GPa)
#
#
# Indices 1 2 3 4 5 6 
#
# 1 0.010796 -0.008624 0.001742 -0.004922 0.013248 -0.002774
# 2 -0.008624 0.028166 -0.003812 -0.004186 -0.023281 0.025220
# 3 0.001742 -0.003812 0.016776 -0.011788 0.008773 -0.007067
# 4 -0.004922 -0.004186 -0.011788 0.045965 -0.014538 -0.000870
# 5 0.013248 -0.023281 0.008773 -0.014538 0.085472 -0.036163
# 6 -0.002774 0.025220 -0.007067 -0.000870 -0.036163 0.054160
#
#
# Mechanical properties :
#
#
# Convention : Reuss Voigt Hill
#
# Bulk Modulus (GPa) = 29.11127 60.55962 44.83544
# Shear Modulus (GPa) = 18.23674 37.20880 27.72277
#
# Velocity S-wave (km/s) = 2.76372 3.94770 3.40753
# Velocity P-wave (km/s) = 4.73044 6.79291 5.85323
#
# Compressibility (1/GPa) = 0.03435096
#
# Stress axis : x y z
#
# Youngs Moduli (GPa) = 92.62814 35.50370 59.60871
#
# Poissons Ratio (x) = 0.30618 -0.10384
# Poissons Ratio (y) = 0.79882 0.22721
# Poissons Ratio (z) = -0.16136 0.13533
#
# Static dielectric constant tensor:
#      x y z
#    x 2.069250 -0.008200 0.018650 
#    y -0.008200 1.947230 -0.024020 
#    z 0.018650 -0.024020 1.875630 
# 
# From -- ./inp_files/197427.got.cif
#   From: 2010.05.17/outbox.cif.g08.bks.cpg/sg2_99_cif.got.tgz:197427.got - 2010.06.03 11:33:40.
