data_PCOD9098956
_publ_section_title
;
Structure prediction by ZEFSAII (Michael W. Deem and Ramdas Pophale) SiO2 
 PCOD9098956
Probable space group: P -1
;
_chemical_formula_sum "Si O2"
_cell_formula_units_Z 16
_cell_length_a 9.259023
_cell_length_b 20.105287
_cell_length_c 7.552320
_cell_angle_alpha 44.907573
_cell_angle_beta 49.965850
_cell_angle_gamma 59.482885
_cell_volume 756.379073
_symmetry_space_group_name_H-M "P -1"
_symmetry_group_IT_number 2
_symmetry_cell_setting 'triclinic'
loop_
_space_group_symop_operation_xyz
x,y,z
-x,-y,-z
loop_
_atom_site_type_symbol
_atom_site_label
_atom_site_fract_x
_atom_site_fract_y
_atom_site_fract_z
Si Si1 0.665046 0.052440 0.178999
Si Si2 0.993828 0.784018 0.664672
Si Si3 0.426566 0.435226 0.524235
Si Si4 0.790068 0.747059 0.269295
Si Si5 0.790170 0.524189 0.701006
Si Si6 0.580219 0.226608 0.676493
Si Si7 0.936525 0.890261 0.157947
Si Si8 0.999696 0.582246 0.983110
O O1 0.500000 0.000000 0.500000
O O2 0.779652 0.979244 0.089940
O O3 0.567820 0.146914 0.985594
O O4 0.846636 0.084709 0.085314
O O5 0.209455 0.794403 0.524329
O O6 0.918628 0.862257 0.434013
O O7 0.011937 0.688046 0.714226
O O8 0.885582 0.764106 0.968841
O O9 0.500000 0.500000 0.500000
O O10 0.378978 0.491018 0.272079
O O11 0.536742 0.332042 0.596720
O O12 0.211260 0.414190 0.777660
O O13 0.788376 0.636154 0.530895
O O14 0.572006 0.782071 0.340083
O O15 0.887712 0.806520 0.226610
O O16 0.816597 0.451707 0.978826
O O17 0.000000 0.500000 0.500000
O O18 0.000000 0.500000 0.000000
#
# Coordination Sequence:
#
# PCOD9098956 Si02
#       8
#     2   2   2   2   2   2   2   2
#     4  10  22  43  66  90 131 159 209 263 315 380
#     4  11  21  40  63  87 128 164 207 255 318 367
#     4  10  20  37  58  87 128 159 202 263 301 362
#     4  11  21  41  64  88 131 162 207 264 315 367
#     4   9  18  36  57  82 124 163 203 254 301 367
#     4  10  22  40  61  93 124 161 207 263 307 377
#     4  10  24  41  65  96 118 167 210 256 317 384
#     4  11  20  35  61  85 119 174 210 250 317 365
#
# _framework density 21.153414999999999
#
# number of rings (size 3 to 8) (size 9 to 14) (size 15 to 20)
#    0.000    1.750    3.750    2.250    0.000    4.500 
#    0.000   15.625    0.000    0.000    0.000    0.000 
#    0.000    0.000    0.000    0.000    0.000    0.000 
#
# Total GULP energy -89134.119600 kJ/mol
# GULP energy per Si atom -5570.882475 kJ/mol
# Density = 2.110527 g / cm^3
# Si number density = 21.153415 Si / 1000 Ang^3
#
#
#
# Elastic Constant Matrix: (Units=GPa)
#
#
# Indices 1 2 3 4 5 6 
#
# 1 121.6781 40.8399 32.9291 -19.7861 -12.0297 -1.1197
# 2 40.8399 57.8911 11.1248 -18.7370 6.9267 -3.1196
# 3 32.9291 11.1248 81.8073 -11.7655 -3.3095 -5.3368
# 4 -19.7861 -18.7370 -11.7655 35.6877 -7.2281 -3.7330
# 5 -12.0297 6.9267 -3.3095 -7.2281 34.3534 -7.5848
# 6 -1.1197 -3.1196 -5.3368 -3.7330 -7.5848 38.2410
#
#
#
# Elastic Compliance Matrix: (Units=1/GPa)
#
#
# Indices 1 2 3 4 5 6 
#
# 1 0.013143 -0.008334 -0.003346 0.003293 0.006856 0.000919
# 2 -0.008334 0.026575 0.000839 0.008565 -0.006022 0.001683
# 3 -0.003346 0.000839 0.014236 0.003838 0.001415 0.002613
# 4 0.003293 0.008565 0.003838 0.038230 0.009368 0.006921
# 5 0.006856 -0.006022 0.001415 0.009368 0.036616 0.008084
# 6 0.000919 0.001683 0.002613 0.006921 0.008084 0.028958
#
#
# Mechanical properties :
#
#
# Convention : Reuss Voigt Hill
#
# Bulk Modulus (GPa) = 30.98675 47.90713 39.44694
# Shear Modulus (GPa) = 26.28834 33.42192 29.85513
#
# Velocity S-wave (km/s) = 3.52909 3.97921 3.76089
# Velocity P-wave (km/s) = 5.59342 6.61882 6.12760
#
# Compressibility (1/GPa) = 0.03227186
#
# Stress axis : x y z
#
# Youngs Moduli (GPa) = 76.08725 37.62911 70.24247
#
# Poissons Ratio (x) = 0.31359 0.23503
# Poissons Ratio (y) = 0.63409 -0.05890
# Poissons Ratio (z) = 0.25459 -0.03155
#
# Static dielectric constant tensor:
#      x y z
#    x 1.768570 0.021560 0.006310 
#    y 0.021560 1.797590 0.050090 
#    z 0.006310 0.050090 1.861970 
# 
# From -- ./inp_files/201273.got.cif
#   From: 2010.05.17/outbox.cif.g08.bks.cpg/sg2_101_cif.got.tgz:201273.got - 2010.06.03 11:33:40.
