data_PCOD9098894
_publ_section_title
;
Structure prediction by ZEFSAII (Michael W. Deem and Ramdas Pophale) SiO2 
 PCOD9098894
Probable space group: P -1
;
_chemical_formula_sum "Si O2"
_cell_formula_units_Z 16
_cell_length_a 23.292671
_cell_length_b 18.951290
_cell_length_c 8.260940
_cell_angle_alpha 135.115838
_cell_angle_beta 42.736244
_cell_angle_gamma 165.351483
_cell_volume 625.769900
_symmetry_space_group_name_H-M "P -1"
_symmetry_group_IT_number 2
_symmetry_cell_setting 'triclinic'
loop_
_space_group_symop_operation_xyz
x,y,z
-x,-y,-z
loop_
_atom_site_type_symbol
_atom_site_label
_atom_site_fract_x
_atom_site_fract_y
_atom_site_fract_z
Si Si1 0.763148 0.147405 0.454466
Si Si2 0.585734 0.157367 0.923513
Si Si3 0.385233 0.060409 0.916053
Si Si4 0.967696 0.053380 0.026933
Si Si5 0.912964 0.601663 0.558051
Si Si6 0.457561 0.568742 0.663040
Si Si7 0.209382 0.266571 0.380283
Si Si8 0.749242 0.470582 0.358650
O O1 0.786291 0.140127 0.207553
O O2 0.519475 0.827258 0.502331
O O3 0.725896 0.225448 0.652653
O O4 0.947876 0.321070 0.492110
O O5 0.385734 0.983900 0.940999
O O6 0.730860 0.407684 0.112568
O O7 0.500000 0.000000 0.000000
O O8 0.647761 0.325034 0.728675
O O9 0.375791 0.162480 0.171224
O O10 0.207767 0.320156 0.858304
O O11 0.767994 0.796606 0.898600
O O12 0.952879 0.144962 0.284067
O O13 0.000000 0.000000 0.000000
O O14 0.884297 0.552326 0.345234
O O15 0.500000 0.500000 0.500000
O O16 0.428246 0.536166 0.478170
O O17 0.149771 0.306165 0.484682
O O18 0.000000 0.000000 0.500000
#
# Coordination Sequence:
#
# PCOD9098894 Si02
#       8
#     2   2   2   2   2   2   2   2
#     4  10  23  39  64  92 118 159 212 254 307 370
#     4  10  21  41  65  89 124 162 203 257 312 359
#     4  10  21  42  64  85 127 162 198 260 310 363
#     4  10  20  37  58  84 123 159 198 253 302 360
#     4  10  22  39  61  91 121 161 208 250 308 372
#     4  10  22  37  58  90 121 161 205 246 312 376
#     4  10  20  37  58  83 123 165 200 245 315 366
#     4  10  20  41  62  86 127 161 201 261 310 362
#
# _framework density 25.568505999999999
#
# number of rings (size 3 to 8) (size 9 to 14) (size 15 to 20)
#    0.000    2.000    2.500    0.375    1.750    2.000 
#    0.000    3.750    0.000    0.000    0.000    0.000 
#    0.000    0.000    0.000    0.000    0.000    0.000 
#
# Total GULP energy -89467.389253 kJ/mol
# GULP energy per Si atom -5591.711828 kJ/mol
# Density = 2.551031 g / cm^3
# Si number density = 25.568506 Si / 1000 Ang^3
#
#
#
# Elastic Constant Matrix: (Units=GPa)
#
#
# Indices 1 2 3 4 5 6 
#
# 1 139.7960 11.5428 7.2845 3.3392 6.1546 3.5622
# 2 11.5428 69.2498 -8.5930 -13.1346 5.7826 -8.7621
# 3 7.2845 -8.5930 54.5356 25.7667 10.6624 4.7360
# 4 3.3392 -13.1346 25.7667 32.8402 4.8143 -4.4381
# 5 6.1546 5.7826 10.6624 4.8143 49.2275 10.7474
# 6 3.5622 -8.7621 4.7360 -4.4381 10.7474 43.6726
#
#
#
# Elastic Compliance Matrix: (Units=1/GPa)
#
#
# Indices 1 2 3 4 5 6 
#
# 1 0.007375 -0.001571 -0.000654 -0.000935 -0.000316 -0.000863
# 2 -0.001571 0.017346 -0.001251 0.009382 -0.003713 0.005611
# 3 -0.000654 -0.001251 0.031167 -0.025201 -0.002871 -0.005432
# 4 -0.000935 0.009382 -0.025201 0.056099 -0.003468 0.011246
# 5 -0.000316 -0.003713 -0.002871 -0.003468 0.023161 -0.006460
# 6 -0.000863 0.005611 -0.005432 0.011246 -0.006460 0.027415
#
#
# Mechanical properties :
#
#
# Convention : Reuss Voigt Hill
#
# Bulk Modulus (GPa) = 20.43436 31.56112 25.99774
# Shear Modulus (GPa) = 26.90674 42.03786 34.47230
#
# Velocity S-wave (km/s) = 3.24750 4.05918 3.67581
# Velocity P-wave (km/s) = 4.69798 5.86002 5.31088
#
# Compressibility (1/GPa) = 0.04893718
#
# Stress axis : x y z
#
# Youngs Moduli (GPa) = 135.58778 57.64866 32.08558
#
# Poissons Ratio (x) = 0.09055 0.02098
# Poissons Ratio (y) = 0.21297 0.04014
# Poissons Ratio (z) = 0.08867 0.07211
#
# Static dielectric constant tensor:
#      x y z
#    x 2.028410 0.006100 0.014450 
#    y 0.006100 2.076760 -0.015040 
#    z 0.014450 -0.015040 2.054240 
# 
# From -- ./inp_files/348879.got.cif
#   From: 2010.05.17/outbox.cif.g08.bks.cpg/sg2_175_cif.got.tgz:348879.got - 2010.06.03 11:33:40.
