data_PCOD9098151
_publ_section_title
;
Structure prediction by ZEFSAII (Michael W. Deem and Ramdas Pophale) SiO2 
 PCOD9098151
Probable space group: P -1
;
_chemical_formula_sum "Si O2"
_cell_formula_units_Z 15
_cell_length_a 12.295772
_cell_length_b 22.091193
_cell_length_c 19.370773
_cell_angle_alpha 160.718982
_cell_angle_beta 24.633947
_cell_angle_gamma 144.556205
_cell_volume 687.378800
_symmetry_space_group_name_H-M "P -1"
_symmetry_group_IT_number 2
_symmetry_cell_setting 'triclinic'
loop_
_space_group_symop_operation_xyz
x,y,z
-x,-y,-z
loop_
_atom_site_type_symbol
_atom_site_label
_atom_site_fract_x
_atom_site_fract_y
_atom_site_fract_z
Si Si1 0.035107 0.102689 0.783423
Si Si2 0.000000 0.500000 0.000000
Si Si3 0.930254 0.283511 0.177241
Si Si4 0.740763 0.017447 0.097429
Si Si5 0.831173 0.941530 0.596682
Si Si6 0.347384 0.324973 0.750658
Si Si7 0.233389 0.363392 0.266909
Si Si8 0.478447 0.710245 0.115038
O O1 0.212969 0.223333 0.775260
O O2 0.237314 0.901262 0.480563
O O3 0.863641 0.049689 0.763973
O O4 0.867432 0.226128 0.075952
O O5 0.944688 0.713028 0.295373
O O6 0.849888 0.604493 0.126033
O O7 0.920572 0.116407 0.055868
O O8 0.713870 0.485149 0.546213
O O9 0.236199 0.301087 0.024053
O O10 0.483944 0.007648 0.189064
O O11 0.609188 0.161398 0.391153
O O12 0.865233 0.800165 0.817625
O O13 0.000000 0.000000 0.500000
O O14 0.417902 0.508457 0.938295
O O15 0.000000 0.500000 0.500000
O O16 0.475227 0.267012 0.970127
#
# Coordination Sequence:
#
# PCOD9098151 Si02
#       8
#     2   1   2   2   2   2   2   2
#     4  12  24  43  66 100 133 171 219 278 335 380
#     4  10  20  36  64 100 122 160 224 274 312 378
#     4  11  27  42  62  98 141 171 214 278 333 389
#     4  11  23  41  67  99 128 173 221 272 331 387
#     4  11  21  39  70  98 126 170 222 274 317 397
#     4  11  22  37  72  97 125 172 226 270 322 391
#     4  10  22  41  65  92 128 173 221 263 314 395
#     4  11  22  42  68  95 128 175 227 269 317 399
#
# _framework density 21.822029000000001
#
# number of rings (size 3 to 8) (size 9 to 14) (size 15 to 20)
#    0.000    1.067    6.667    0.400    0.000    6.400 
#    0.000    0.667    0.000    0.000    0.000    0.000 
#    0.000    0.000    0.000    0.000    0.000    0.000 
#
# Total GULP energy -83654.653444 kJ/mol
# GULP energy per Si atom -5576.976896 kJ/mol
# Density = 2.177236 g / cm^3
# Si number density = 21.822029 Si / 1000 Ang^3
#
#
#
# Elastic Constant Matrix: (Units=GPa)
#
#
# Indices 1 2 3 4 5 6 
#
# 1 78.0764 25.1915 33.0651 14.2580 18.3101 5.7218
# 2 25.1915 100.4473 31.7820 45.4212 7.2212 4.9127
# 3 33.0651 31.7820 79.1121 31.9739 22.4189 -12.9135
# 4 14.2580 45.4212 31.9739 39.4512 -3.3048 -0.2738
# 5 18.3101 7.2212 22.4189 -3.3048 37.9452 -4.0105
# 6 5.7218 4.9127 -12.9135 -0.2738 -4.0105 33.1156
#
#
#
# Elastic Compliance Matrix: (Units=1/GPa)
#
#
# Indices 1 2 3 4 5 6 
#
# 1 0.017627 -0.002147 -0.006438 0.000874 -0.004832 -0.005815
# 2 -0.002147 0.025000 0.008495 -0.035915 -0.012057 -0.001782
# 3 -0.006438 0.008495 0.034682 -0.037260 -0.021136 0.010509
# 4 0.000874 -0.035915 -0.037260 0.099624 0.036672 -0.004088
# 5 -0.004832 -0.012057 -0.021136 0.036672 0.046697 0.000340
# 6 -0.005815 -0.001782 0.010509 -0.004088 0.000340 0.035572
#
#
# Mechanical properties :
#
#
# Convention : Reuss Voigt Hill
#
# Bulk Modulus (GPa) = 12.96523 48.63478 30.80001
# Shear Modulus (GPa) = 17.53821 33.27556 25.40689
#
# Velocity S-wave (km/s) = 2.83802 3.90918 3.41585
# Velocity P-wave (km/s) = 4.08576 6.53537 5.44997
#
# Compressibility (1/GPa) = 0.07712934
#
# Stress axis : x y z
#
# Youngs Moduli (GPa) = 56.73150 39.99934 28.83329
#
# Poissons Ratio (x) = 0.08589 0.18563
# Poissons Ratio (y) = 0.12182 -0.24494
# Poissons Ratio (z) = 0.36524 -0.33980
#
# Static dielectric constant tensor:
#      x y z
#    x 1.839860 0.029750 0.000850 
#    y 0.029750 1.824410 -0.006220 
#    z 0.000850 -0.006220 1.827050 
# 
# From -- ./inp_files/570768.got.cif
#   From: 2010.05.17/outbox.cif.g08.bks.cpg/sg2_286_cif.got.tgz:570768.got - 2010.06.03 11:33:40.
