data_PCOD9098906
_publ_section_title
;
Structure prediction by ZEFSAII (Michael W. Deem and Ramdas Pophale) SiO2 
 PCOD9098906
Probable space group: P -1
;
_chemical_formula_sum "Si O2"
_cell_formula_units_Z 16
_cell_length_a 15.216546
_cell_length_b 15.248897
_cell_length_c 14.606859
_cell_angle_alpha 137.233309
_cell_angle_beta 27.940180
_cell_angle_gamma 152.141466
_cell_volume 724.840561
_symmetry_space_group_name_H-M "P -1"
_symmetry_group_IT_number 2
_symmetry_cell_setting 'triclinic'
loop_
_space_group_symop_operation_xyz
x,y,z
-x,-y,-z
loop_
_atom_site_type_symbol
_atom_site_label
_atom_site_fract_x
_atom_site_fract_y
_atom_site_fract_z
Si Si1 0.348549 0.966369 0.705399
Si Si2 0.412540 0.261536 0.381596
Si Si3 0.210904 0.470644 0.931923
Si Si4 0.586692 0.147563 0.266301
Si Si5 0.338604 0.806034 0.120662
Si Si6 0.137744 0.901211 0.239671
Si Si7 0.312091 0.608417 0.270965
Si Si8 0.696323 0.624875 0.048599
O O1 0.506601 0.173845 0.754257
O O2 0.500000 0.000000 0.500000
O O3 0.387215 0.865878 0.661414
O O4 0.020617 0.831494 0.896420
O O5 0.615006 0.405864 0.223942
O O6 0.534272 0.262937 0.362970
O O7 0.185816 0.255307 0.602588
O O8 0.231909 0.049235 0.345646
O O9 0.338170 0.433305 0.857761
O O10 0.194082 0.595715 0.102647
O O11 0.898648 0.274397 0.040926
O O12 0.356765 0.926848 0.272294
O O13 0.220536 0.806894 0.135138
O O14 0.665371 0.950544 0.909323
O O15 0.472982 0.615729 0.211413
O O16 0.000000 0.500000 0.500000
O O17 0.320631 0.509557 0.104797
#
# Coordination Sequence:
#
# PCOD9098906 Si02
#       8
#     2   2   2   2   2   2   2   2
#     4  11  22  42  64  92 125 163 203 267 314 364
#     4   9  17  34  53  86 117 151 194 237 285 350
#     4  10  20  37  58  84 119 155 190 243 291 355
#     4  10  21  36  59  83 114 157 198 233 299 358
#     4   9  17  35  55  76 112 155 193 236 291 341
#     4   8  16  31  53  78 112 153 194 238 283 340
#     4  11  22  43  68  92 122 162 209 261 309 374
#     4  10  23  42  64  96 126 162 209 252 319 369
#
# _framework density 22.073822
#
# number of rings (size 3 to 8) (size 9 to 14) (size 15 to 20)
#    0.000    2.250    1.250    2.250    0.000    0.000 
#   11.250    6.250    0.000    0.000    0.000    0.000 
#    0.000    0.000    0.000    0.000    0.000    0.000 
#
# Total GULP energy -89213.195114 kJ/mol
# GULP energy per Si atom -5575.824695 kJ/mol
# Density = 2.202358 g / cm^3
# Si number density = 22.073822 Si / 1000 Ang^3
#
#
#
# Elastic Constant Matrix: (Units=GPa)
#
#
# Indices 1 2 3 4 5 6 
#
# 1 117.1347 33.8523 55.9485 -16.6544 -27.7608 -28.1412
# 2 33.8523 95.5646 23.4434 -19.4804 -6.1206 0.5608
# 3 55.9485 23.4434 85.3411 -5.6505 -15.9491 -12.0005
# 4 -16.6544 -19.4804 -5.6505 15.8021 2.0460 0.0009
# 5 -27.7608 -6.1206 -15.9491 2.0460 24.8078 -2.2478
# 6 -28.1412 0.5608 -12.0005 0.0009 -2.2478 30.4756
#
#
#
# Elastic Compliance Matrix: (Units=1/GPa)
#
#
# Indices 1 2 3 4 5 6 
#
# 1 0.028193 -0.002258 -0.008081 0.020627 0.026345 0.024835
# 2 -0.002258 0.014889 -0.002458 0.015357 -0.002016 -0.003476
# 3 -0.008081 -0.002458 0.017687 -0.005501 0.002149 -0.000293
# 4 0.020627 0.015357 -0.005501 0.099821 0.016718 0.017829
# 5 0.026345 -0.002016 0.002149 0.016718 0.072062 0.030525
# 6 0.024835 -0.003476 -0.000293 0.017829 0.030525 0.057945
#
#
# Mechanical properties :
#
#
# Convention : Reuss Voigt Hill
#
# Bulk Modulus (GPa) = 28.43025 58.28096 43.35561
# Shear Modulus (GPa) = 15.24778 26.53686 20.89232
#
# Velocity S-wave (km/s) = 2.63109 3.47102 3.07982
# Velocity P-wave (km/s) = 4.70508 6.52105 5.68603
#
# Compressibility (1/GPa) = 0.03517380
#
# Stress axis : x y z
#
# Youngs Moduli (GPa) = 35.46999 67.16473 56.53928
#
# Poissons Ratio (x) = 0.15167 0.45689
# Poissons Ratio (y) = 0.08010 0.13899
# Poissons Ratio (z) = 0.28663 0.16511
#
# Static dielectric constant tensor:
#      x y z
#    x 1.887310 0.055280 0.014540 
#    y 0.055280 1.860540 0.063130 
#    z 0.014540 0.063130 1.867180 
# 
# From -- ./inp_files/534365.got.cif
#   From: 2010.05.17/outbox.cif.g08.bks.cpg/sg2_268_cif.got.tgz:534365.got - 2010.06.03 11:33:40.
