data_PCOD9098625
_publ_section_title
;
Structure prediction by ZEFSAII (Michael W. Deem and Ramdas Pophale) SiO2 
 PCOD9098625
Probable space group: P -1
;
_chemical_formula_sum "Si O2"
_cell_formula_units_Z 12
_cell_length_a 7.804205
_cell_length_b 19.812458
_cell_length_c 12.859034
_cell_angle_alpha 27.532067
_cell_angle_beta 116.161611
_cell_angle_gamma 133.204551
_cell_volume 582.783246
_symmetry_space_group_name_H-M "P -1"
_symmetry_group_IT_number 2
_symmetry_cell_setting 'triclinic'
loop_
_space_group_symop_operation_xyz
x,y,z
-x,-y,-z
loop_
_atom_site_type_symbol
_atom_site_label
_atom_site_fract_x
_atom_site_fract_y
_atom_site_fract_z
Si Si1 0.860180 0.787623 0.703628
Si Si2 0.169761 0.253369 0.481067
Si Si3 0.931440 0.598737 0.561445
Si Si4 0.257635 0.717126 0.214938
Si Si5 0.338199 0.574994 0.741749
Si Si6 0.844360 0.056329 0.014141
O O1 0.948241 0.790703 0.606276
O O2 0.552567 0.679359 0.750581
O O3 0.878329 0.661391 0.958251
O O4 0.000000 0.000000 0.500000
O O5 0.484116 0.385044 0.361625
O O6 0.045537 0.040297 0.789923
O O7 0.151366 0.377093 0.384796
O O8 0.210162 0.660763 0.567876
O O9 0.736197 0.371347 0.768944
O O10 0.981632 0.758863 0.275627
O O11 0.548214 0.867600 0.142655
O O12 0.000000 0.500000 0.500000
O O13 0.188826 0.852161 0.021203
#
# Coordination Sequence:
#
# PCOD9098625 Si02
#       6
#     2   2   2   2   2   2
#     4   9  21  42  62  80 112 156 191 243 297 335
#     4  10  21  39  60  86 121 151 192 242 284 339
#     4  11  22  37  60  91 118 154 190 238 285 345
#     4   9  19  34  57  81 117 162 189 225 286 334
#     4   9  21  40  59  82 117 147 197 241 283 346
#     4  10  20  37  54  89 125 153 190 231 280 357
#
# _framework density 20.590845999999999
#
# number of rings (size 3 to 8) (size 9 to 14) (size 15 to 20)
#    1.000    1.333    0.000    3.500    2.333    1.333 
#    3.000    0.833    0.000    0.000    0.000    0.000 
#    0.000    0.000    0.000    0.000    0.000    0.000 
#
# Total GULP energy -66816.617465 kJ/mol
# GULP energy per Si atom -5568.051455 kJ/mol
# Density = 2.054398 g / cm^3
# Si number density = 20.590846 Si / 1000 Ang^3
#
#
#
# Elastic Constant Matrix: (Units=GPa)
#
#
# Indices 1 2 3 4 5 6 
#
# 1 87.0764 37.1354 13.2496 -3.3312 10.6447 -40.5431
# 2 37.1354 90.0975 39.4506 -17.7282 10.4693 -39.8032
# 3 13.2496 39.4506 63.5921 -4.7928 11.8647 -15.8144
# 4 -3.3312 -17.7282 -4.7928 38.9800 -4.2550 7.4437
# 5 10.6447 10.4693 11.8647 -4.2550 14.8790 -8.2935
# 6 -40.5431 -39.8032 -15.8144 7.4437 -8.2935 42.8220
#
#
#
# Elastic Compliance Matrix: (Units=1/GPa)
#
#
# Indices 1 2 3 4 5 6 
#
# 1 0.021145 -0.000866 0.001829 -0.002686 -0.006051 0.019185
# 2 -0.000866 0.025268 -0.011191 0.007012 0.003835 0.018057
# 3 0.001829 -0.011191 0.024318 -0.003181 -0.014858 -0.002014
# 4 -0.002686 0.007012 -0.003181 0.029191 0.007404 -0.000840
# 5 -0.006051 0.003835 -0.014858 0.007404 0.087241 0.007957
# 6 0.019185 0.018057 -0.002014 -0.000840 0.007957 0.059244
#
#
# Mechanical properties :
#
#
# Convention : Reuss Voigt Hill
#
# Bulk Modulus (GPa) = 19.89073 46.71523 33.30298
# Shear Modulus (GPa) = 17.62913 29.39822 23.51367
#
# Velocity S-wave (km/s) = 2.92920 3.78263 3.38294
# Velocity P-wave (km/s) = 4.59579 6.46640 5.60962
#
# Compressibility (1/GPa) = 0.05027469
#
# Stress axis : x y z
#
# Youngs Moduli (GPa) = 47.29310 39.57592 41.12120
#
# Poissons Ratio (x) = 0.03427 -0.07522
# Poissons Ratio (y) = 0.04096 0.46020
# Poissons Ratio (z) = -0.08651 0.44291
#
# Static dielectric constant tensor:
#      x y z
#    x 1.751260 -0.004880 -0.009030 
#    y -0.004880 1.768790 -0.001510 
#    z -0.009030 -0.001510 1.904330 
# 
# From -- ./inp_files/316615.got.cif
#   From: 2010.05.17/outbox.cif.g08.bks.cpg/sg2_159_cif.got.tgz:316615.got - 2010.06.03 11:33:40.
