data_PCOD9098696
_publ_section_title
;
Structure prediction by ZEFSAII (Michael W. Deem and Ramdas Pophale) SiO2 
 PCOD9098696
Probable space group: P -1
;
_chemical_formula_sum "Si O2"
_cell_formula_units_Z 16
_cell_length_a 11.729575
_cell_length_b 11.176227
_cell_length_c 17.579701
_cell_angle_alpha 47.761155
_cell_angle_beta 80.069968
_cell_angle_gamma 40.049842
_cell_volume 763.936941
_symmetry_space_group_name_H-M "P -1"
_symmetry_group_IT_number 2
_symmetry_cell_setting 'triclinic'
loop_
_space_group_symop_operation_xyz
x,y,z
-x,-y,-z
loop_
_atom_site_type_symbol
_atom_site_label
_atom_site_fract_x
_atom_site_fract_y
_atom_site_fract_z
Si Si1 0.282717 0.304923 0.559151
Si Si2 0.421885 0.390486 0.215036
Si Si3 0.359287 0.501068 0.009942
Si Si4 0.232802 0.589511 0.672050
Si Si5 0.232123 0.427325 0.347730
Si Si6 0.401140 0.450348 0.557373
Si Si7 0.189844 0.791231 0.745598
Si Si8 0.176658 0.315977 0.725319
O O1 0.155622 0.535738 0.399013
O O2 0.488771 0.181547 0.617082
O O3 0.118031 0.459987 0.585821
O O4 0.414161 0.975079 0.661661
O O5 0.262299 0.601206 0.064800
O O6 0.269571 0.541067 0.245415
O O7 0.617861 0.295316 0.240452
O O8 0.560900 0.107785 0.135533
O O9 0.500000 0.500000 0.000000
O O10 0.186912 0.724691 0.859505
O O11 0.437744 0.380013 0.673106
O O12 0.292939 0.546682 0.771009
O O13 0.175440 0.473302 0.711979
O O14 0.000000 0.000000 0.500000
O O15 0.026308 0.563837 0.277356
O O16 0.500000 0.000000 0.500000
O O17 0.500000 0.500000 0.500000
O O18 0.100419 0.816443 0.413964
#
# Coordination Sequence:
#
# PCOD9098696 Si02
#       8
#     2   2   2   2   2   2   2   2
#     4   9  20  32  57  80 114 145 185 227 295 334
#     4   9  20  35  54  85 115 141 187 240 278 330
#     4   9  20  39  59  77 111 155 198 228 274 330
#     4   9  21  35  57  80 117 146 183 229 287 338
#     4  10  21  29  55  88 115 142 180 237 293 332
#     4  10  22  35  55  83 112 142 187 239 284 335
#     4  10  21  37  57  77 111 156 184 229 281 334
#     4  10  20  37  56  83 116 152 187 230 277 338
#
# _framework density 20.944137999999999
#
# number of rings (size 3 to 8) (size 9 to 14) (size 15 to 20)
#    0.000    2.500    0.000    0.375   17.500    3.500 
#    0.000    3.750    0.000    7.500    0.000    0.000 
#    0.000    0.000    0.000    0.000    0.000    0.000 
#
# Total GULP energy -89104.741343 kJ/mol
# GULP energy per Si atom -5569.046334 kJ/mol
# Density = 2.089647 g / cm^3
# Si number density = 20.944138 Si / 1000 Ang^3
#
#
#
# Elastic Constant Matrix: (Units=GPa)
#
#
# Indices 1 2 3 4 5 6 
#
# 1 110.4196 44.0025 6.4354 6.8903 -8.9825 8.2455
# 2 44.0025 57.4064 35.9704 30.3566 5.4522 12.4938
# 3 6.4354 35.9704 80.5859 22.4382 -2.6210 2.8491
# 4 6.8903 30.3566 22.4382 47.2372 5.2270 -4.5119
# 5 -8.9825 5.4522 -2.6210 5.2270 19.0250 3.9210
# 6 8.2455 12.4938 2.8491 -4.5119 3.9210 45.9742
#
#
#
# Elastic Compliance Matrix: (Units=1/GPa)
#
#
# Indices 1 2 3 4 5 6 
#
# 1 0.020195 -0.028136 0.008668 0.009598 0.015515 0.003106
# 2 -0.028136 0.076606 -0.023164 -0.032674 -0.026298 -0.015300
# 3 0.008668 -0.023164 0.021789 0.002114 0.012632 0.002520
# 4 0.009598 -0.032674 0.002114 0.040729 0.000737 0.010961
# 5 0.015515 -0.026298 0.012632 0.000737 0.069429 -0.002268
# 6 0.003106 -0.015300 0.002520 0.010961 -0.002268 0.026465
#
#
# Mechanical properties :
#
#
# Convention : Reuss Voigt Hill
#
# Bulk Modulus (GPa) = 30.00455 46.80317 38.40386
# Shear Modulus (GPa) = 14.22135 33.24752 23.73443
#
# Velocity S-wave (km/s) = 2.60862 3.98859 3.36999
# Velocity P-wave (km/s) = 4.84048 6.60356 5.78953
#
# Compressibility (1/GPa) = 0.03332828
#
# Stress axis : x y z
#
# Youngs Moduli (GPa) = 49.51829 13.05384 45.89404
#
# Poissons Ratio (x) = 0.36728 -0.39783
# Poissons Ratio (y) = 1.39322 1.06307
# Poissons Ratio (z) = -0.42924 0.30237
#
# Static dielectric constant tensor:
#      x y z
#    x 1.713620 0.082720 -0.031090 
#    y 0.082720 1.876860 0.006330 
#    z -0.031090 0.006330 1.808860 
# 
# From -- ./inp_files/568670.got.cif
#   From: 2010.05.17/outbox.cif.g08.bks.cpg/sg2_285_cif.got.tgz:568670.got - 2010.06.03 11:33:40.
