data_PCOD9098608
_publ_section_title
;
Structure prediction by ZEFSAII (Michael W. Deem and Ramdas Pophale) SiO2 
 PCOD9098608
Probable space group: P -1
;
_chemical_formula_sum "Si O2"
_cell_formula_units_Z 16
_cell_length_a 11.694508
_cell_length_b 12.371020
_cell_length_c 14.580051
_cell_angle_alpha 120.195947
_cell_angle_beta 133.977487
_cell_angle_gamma 36.430870
_cell_volume 893.718576
_symmetry_space_group_name_H-M "P -1"
_symmetry_group_IT_number 2
_symmetry_cell_setting 'triclinic'
loop_
_space_group_symop_operation_xyz
x,y,z
-x,-y,-z
loop_
_atom_site_type_symbol
_atom_site_label
_atom_site_fract_x
_atom_site_fract_y
_atom_site_fract_z
Si Si1 0.588021 0.747911 0.936157
Si Si2 0.807801 0.742549 0.404163
Si Si3 0.350389 0.554071 0.202245
Si Si4 0.099122 0.283006 0.765134
Si Si5 0.661124 0.603457 0.384957
Si Si6 0.670790 0.098901 0.513447
Si Si7 0.602184 0.661146 0.711992
Si Si8 0.049581 0.075976 0.760135
O O1 0.682155 0.552174 0.920586
O O2 0.622948 0.745733 0.844829
O O3 0.312215 0.905747 0.866519
O O4 0.724652 0.767227 0.081153
O O5 0.805917 0.746964 0.295252
O O6 0.680589 0.696038 0.356440
O O7 0.077899 0.579296 0.515883
O O8 0.698953 0.934342 0.461175
O O9 0.523998 0.556885 0.261235
O O10 0.455823 0.433797 0.304839
O O11 0.109784 0.757474 0.184529
O O12 0.059062 0.160244 0.712320
O O13 0.852218 0.493863 0.733718
O O14 0.514884 0.745069 0.448722
O O15 0.579998 0.194684 0.404189
O O16 0.914447 0.027136 0.640458
#
# Coordination Sequence:
#
# PCOD9098608 Si02
#       8
#     2   2   2   2   2   2   2   2
#     4  10  20  37  53  82 114 146 178 221 272 328
#     4  11  23  35  58  80 109 153 178 227 269 320
#     4   8  20  35  57  79 109 145 178 225 274 317
#     4  11  21  36  54  83 115 144 186 215 273 327
#     4  10  21  40  55  80 113 140 190 224 269 323
#     4  11  21  37  58  85 113 137 183 225 280 326
#     4   9  20  34  58  82 111 145 168 228 278 322
#     4  10  21  32  57  85 109 146 175 226 275 328
#
# _framework density 17.902726999999999
#
# number of rings (size 3 to 8) (size 9 to 14) (size 15 to 20)
#    0.750    1.250    1.250    2.625    1.750    2.500 
#    0.000    0.625    0.000    3.000    0.000    0.000 
#    0.000    0.000    0.000    0.000    0.000    0.000 
#
# Total GULP energy -89223.301794 kJ/mol
# GULP energy per Si atom -5576.456362 kJ/mol
# Density = 1.786198 g / cm^3
# Si number density = 17.902727 Si / 1000 Ang^3
#
#
#
# Elastic Constant Matrix: (Units=GPa)
#
#
# Indices 1 2 3 4 5 6 
#
# 1 52.8234 -4.6961 2.0218 3.2330 9.5666 7.4068
# 2 -4.6961 42.6623 -6.4940 -5.9183 1.9704 -0.1623
# 3 2.0218 -6.4940 17.2541 -3.8706 5.2314 1.7109
# 4 3.2330 -5.9183 -3.8706 16.4462 -5.2594 2.7055
# 5 9.5666 1.9704 5.2314 -5.2594 11.7778 1.8088
# 6 7.4068 -0.1623 1.7109 2.7055 1.8088 18.2071
#
#
#
# Elastic Compliance Matrix: (Units=1/GPa)
#
#
# Indices 1 2 3 4 5 6 
#
# 1 0.025468 0.003337 0.004799 -0.010200 -0.026919 -0.006592
# 2 0.003337 0.028095 0.015673 0.010789 -0.009050 -0.003284
# 3 0.004799 0.015673 0.077273 0.013381 -0.033683 -0.007716
# 4 -0.010200 0.010789 0.013381 0.085089 0.040636 -0.013692
# 5 -0.026919 -0.009050 -0.033683 0.040636 0.142335 -0.006144
# 6 -0.006592 -0.003284 -0.007716 -0.013692 -0.006144 0.060946
#
#
# Mechanical properties :
#
#
# Convention : Reuss Voigt Hill
#
# Bulk Modulus (GPa) = 5.60368 10.48924 8.04646
# Shear Modulus (GPa) = 11.59898 17.41343 14.50620
#
# Velocity S-wave (km/s) = 2.54813 3.12215 2.84963
# Velocity P-wave (km/s) = 3.43426 4.34382 3.91554
#
# Compressibility (1/GPa) = 0.17845429
#
# Stress axis : x y z
#
# Youngs Moduli (GPa) = 39.26544 35.59328 12.94109
#
# Poissons Ratio (x) = -0.11878 -0.06210
# Poissons Ratio (y) = -0.13103 -0.20283
# Poissons Ratio (z) = -0.18843 -0.55786
#
# Static dielectric constant tensor:
#      x y z
#    x 1.598530 -0.007350 0.001910 
#    y -0.007350 1.642160 0.010850 
#    z 0.001910 0.010850 1.583710 
# 
# From -- ./inp_files/519859.got.cif
#   From: 2010.05.17/outbox.cif.g08.bks.cpg/sg2_260_cif.got.tgz:519859.got - 2010.06.03 11:33:40.
