data_PCOD9098670
_publ_section_title
;
Structure prediction by ZEFSAII (Michael W. Deem and Ramdas Pophale) SiO2 
 PCOD9098670
Probable space group: P -1
;
_chemical_formula_sum "Si O2"
_cell_formula_units_Z 14
_cell_length_a 7.265162
_cell_length_b 7.266031
_cell_length_c 14.212018
_cell_angle_alpha 78.912229
_cell_angle_beta 54.274735
_cell_angle_gamma 99.051593
_cell_volume 562.424708
_symmetry_space_group_name_H-M "P -1"
_symmetry_group_IT_number 2
_symmetry_cell_setting 'triclinic'
loop_
_space_group_symop_operation_xyz
x,y,z
-x,-y,-z
loop_
_atom_site_type_symbol
_atom_site_label
_atom_site_fract_x
_atom_site_fract_y
_atom_site_fract_z
Si Si1 0.530454 0.713167 0.015890
Si Si2 0.911755 0.051197 0.197293
Si Si3 0.384210 0.462414 0.256340
Si Si4 0.996260 0.179214 0.649144
Si Si5 0.853905 0.151690 0.409109
Si Si6 0.545772 0.120597 0.163223
Si Si7 0.345370 0.570965 0.464365
O O1 0.418275 0.828846 0.963930
O O2 0.814953 0.828176 0.924352
O O3 0.500000 0.500000 0.000000
O O4 0.416140 0.646546 0.157678
O O5 0.835923 0.159092 0.299961
O O6 0.737419 0.043360 0.164455
O O7 0.925836 0.852711 0.264324
O O8 0.547210 0.328492 0.190709
O O9 0.431535 0.550241 0.337146
O O10 0.117861 0.302706 0.339088
O O11 0.851359 0.928322 0.448500
O O12 0.078870 0.404478 0.571804
O O13 0.722086 0.040326 0.731571
O O14 0.668071 0.218925 0.518235
O O15 0.500000 0.500000 0.500000
#
# Coordination Sequence:
#
# PCOD9098670 Si02
#       7
#     2   2   2   2   2   2   2
#     4   9  16  33  59  94 129 153 207 262 294 369
#     4   9  17  37  64  95 119 162 209 247 313 365
#     4  10  20  37  55  94 129 160 205 254 304 367
#     4   8  21  41  61  91 128 154 207 257 302 368
#     4   9  20  40  59  92 125 160 205 249 311 359
#     4   9  17  35  64  91 117 167 204 249 316 357
#     4  12  24  40  61  92 125 163 208 252 310 372
#
# _framework density 24.892220999999999
#
# number of rings (size 3 to 8) (size 9 to 14) (size 15 to 20)
#    0.857    1.714    2.857    1.286    0.000    5.143 
#    7.714    0.000    0.000    6.857    7.429    0.000 
#    0.000    0.000    0.000    0.000    0.000    0.000 
#
# Total GULP energy -78329.506133 kJ/mol
# GULP energy per Si atom -5594.964724 kJ/mol
# Density = 2.483556 g / cm^3
# Si number density = 24.892221 Si / 1000 Ang^3
#
#
#
# Elastic Constant Matrix: (Units=GPa)
#
#
# Indices 1 2 3 4 5 6 
#
# 1 158.3293 27.3032 48.4406 -12.1922 38.9296 9.0631
# 2 27.3032 94.4825 26.7702 6.0351 -2.1557 -8.7862
# 3 48.4406 26.7702 105.5606 3.0533 34.8581 9.3518
# 4 -12.1922 6.0351 3.0533 40.0815 -0.1676 0.6216
# 5 38.9296 -2.1557 34.8581 -0.1676 38.8420 3.3725
# 6 9.0631 -8.7862 9.3518 0.6216 3.3725 29.7811
#
#
#
# Elastic Compliance Matrix: (Units=1/GPa)
#
#
# Indices 1 2 3 4 5 6 
#
# 1 0.009759 -0.003426 -0.000357 0.003517 -0.009386 -0.002879
# 2 -0.003426 0.013949 -0.005149 -0.002807 0.008304 0.005893
# 3 -0.000357 -0.005149 0.015953 -0.000531 -0.013826 -0.004843
# 4 0.003517 -0.002807 -0.000531 0.026500 -0.002920 -0.001954
# 5 -0.009386 0.008304 -0.013826 -0.002920 0.047634 0.004315
# 6 -0.002879 0.005893 -0.004843 -0.001954 0.004315 0.037266
#
#
# Mechanical properties :
#
#
# Convention : Reuss Voigt Hill
#
# Bulk Modulus (GPa) = 45.87356 62.60004 54.23680
# Shear Modulus (GPa) = 28.37828 38.79817 33.58822
#
# Velocity S-wave (km/s) = 3.38012 3.95225 3.67733
# Velocity P-wave (km/s) = 5.80538 6.78455 6.31398
#
# Compressibility (1/GPa) = 0.02179905
#
# Stress axis : x y z
#
# Youngs Moduli (GPa) = 102.46630 71.68737 62.68446
#
# Poissons Ratio (x) = 0.24557 0.02238
# Poissons Ratio (y) = 0.35101 0.32275
# Poissons Ratio (z) = 0.03658 0.36910
#
# Static dielectric constant tensor:
#      x y z
#    x 1.976710 -0.013120 -0.005190 
#    y -0.013120 1.969100 0.024000 
#    z -0.005190 0.024000 2.024420 
# 
# From -- ./inp_files/489491.got.cif
#   From: 2010.05.17/outbox.cif.g08.bks.cpg/sg2_245_cif.got.tgz:489491.got - 2010.06.03 11:33:40.
