data_PCOD9098668
_publ_section_title
;
Structure prediction by ZEFSAII (Michael W. Deem and Ramdas Pophale) SiO2 
 PCOD9098668
Probable space group: P -1
;
_chemical_formula_sum "Si O2"
_cell_formula_units_Z 16
_cell_length_a 14.770502
_cell_length_b 11.600681
_cell_length_c 7.443059
_cell_angle_alpha 77.817477
_cell_angle_beta 80.567790
_cell_angle_gamma 135.160729
_cell_volume 782.821955
_symmetry_space_group_name_H-M "P -1"
_symmetry_group_IT_number 2
_symmetry_cell_setting 'triclinic'
loop_
_space_group_symop_operation_xyz
x,y,z
-x,-y,-z
loop_
_atom_site_type_symbol
_atom_site_label
_atom_site_fract_x
_atom_site_fract_y
_atom_site_fract_z
Si Si1 0.872024 0.709207 0.622896
Si Si2 0.177349 0.709632 0.670923
Si Si3 0.738113 0.222570 0.760507
Si Si4 0.624715 0.347559 0.634081
Si Si5 0.347590 0.119728 0.969226
Si Si6 0.797683 0.903477 0.662725
Si Si7 0.630848 0.893348 0.435496
Si Si8 0.876403 0.506148 0.943754
O O1 0.781717 0.556133 0.544667
O O2 0.817499 0.787266 0.644258
O O3 0.846308 0.604682 0.843013
O O4 0.042487 0.881463 0.471116
O O5 0.154499 0.679377 0.476028
O O6 0.046968 0.651799 0.823809
O O7 0.320816 0.927775 0.584031
O O8 0.177815 0.585312 0.812877
O O9 0.626439 0.210571 0.728197
O O10 0.805426 0.344396 0.877883
O O11 0.680611 0.035983 0.882171
O O12 0.538656 0.280954 0.499079
O O13 0.519513 0.304934 0.829548
O O14 0.268796 0.138369 0.106624
O O15 0.298357 0.064956 0.795834
O O16 0.692133 0.865345 0.571178
#
# Coordination Sequence:
#
# PCOD9098668 Si02
#       8
#     2   2   2   2   2   2   2   2
#     4  10  22  42  64  89 119 157 206 255 286 351
#     4  11  20  33  62  90 122 158 193 242 306 362
#     4  11  19  36  58  90 120 158 194 244 304 352
#     4   9  23  39  57  92 127 150 198 255 297 350
#     4  10  21  39  62  88 124 163 194 242 306 359
#     4  11  22  43  68  81 117 169 206 238 299 356
#     4  10  21  40  58  91 120 158 199 242 298 364
#     4  10  20  37  55  92 126 150 194 254 297 354
#
# _framework density 20.438873999999998
#
# number of rings (size 3 to 8) (size 9 to 14) (size 15 to 20)
#    0.750    1.000    3.750    0.750    0.000    2.500 
#    4.500    5.000    0.000    0.000    0.000    0.000 
#    0.000    0.000    0.000    0.000    0.000    0.000 
#
# Total GULP energy -89218.770495 kJ/mol
# GULP energy per Si atom -5576.173156 kJ/mol
# Density = 2.039235 g / cm^3
# Si number density = 20.438874 Si / 1000 Ang^3
#
#
#
# Elastic Constant Matrix: (Units=GPa)
#
#
# Indices 1 2 3 4 5 6 
#
# 1 53.0131 24.3829 -9.4693 -9.7678 3.8944 8.4847
# 2 24.3829 64.0560 3.9815 -3.6840 8.3840 19.0927
# 3 -9.4693 3.9815 43.5757 9.0786 11.9595 0.2249
# 4 -9.7678 -3.6840 9.0786 25.7899 -6.4307 -1.0972
# 5 3.8944 8.3840 11.9595 -6.4307 18.8247 7.3305
# 6 8.4847 19.0927 0.2249 -1.0972 7.3305 26.6871
#
#
#
# Elastic Compliance Matrix: (Units=1/GPa)
#
#
# Indices 1 2 3 4 5 6 
#
# 1 0.025493 -0.009226 0.006061 0.005445 -0.002953 -0.000521
# 2 -0.009226 0.023568 -0.004107 0.000632 -0.000406 -0.013756
# 3 0.006061 -0.004107 0.038004 -0.019728 -0.033886 0.009188
# 4 0.005445 0.000632 -0.019728 0.055898 0.033718 -0.008981
# 5 -0.002953 -0.000406 -0.033886 0.033718 0.096111 -0.023499
# 6 -0.000521 -0.013756 0.009188 -0.008981 -0.023499 0.053486
#
#
# Mechanical properties :
#
#
# Convention : Reuss Voigt Hill
#
# Bulk Modulus (GPa) = 13.78909 22.04835 17.91872
# Shear Modulus (GPa) = 15.09308 23.71031 19.40170
#
# Velocity S-wave (km/s) = 2.72039 3.40966 3.08434
# Velocity P-wave (km/s) = 4.07781 5.12951 4.63360
#
# Compressibility (1/GPa) = 0.07252110
#
# Stress axis : x y z
#
# Youngs Moduli (GPa) = 39.22673 42.43032 26.31302
#
# Poissons Ratio (x) = 0.39145 -0.15949
# Poissons Ratio (y) = 0.36190 0.10808
# Poissons Ratio (z) = -0.23777 0.17428
#
# Static dielectric constant tensor:
#      x y z
#    x 1.735540 0.019230 -0.020660 
#    y 0.019230 1.724840 -0.008320 
#    z -0.020660 -0.008320 1.742690 
# 
# From -- ./inp_files/302840.got.cif
#   From: 2010.05.17/outbox.cif.g08.bks.cpg/sg2_152_cif.got.tgz:302840.got - 2010.06.03 11:33:40.
