data_PCOD9098082
_publ_section_title
;
Structure prediction by ZEFSAII (Michael W. Deem and Ramdas Pophale) SiO2 
 PCOD9098082
Probable space group: P -1
;
_chemical_formula_sum "Si O2"
_cell_formula_units_Z 16
_cell_length_a 11.866706
_cell_length_b 12.119494
_cell_length_c 8.586382
_cell_angle_alpha 134.833739
_cell_angle_beta 81.296558
_cell_angle_gamma 121.339626
_cell_volume 699.065793
_symmetry_space_group_name_H-M "P -1"
_symmetry_group_IT_number 2
_symmetry_cell_setting 'triclinic'
loop_
_space_group_symop_operation_xyz
x,y,z
-x,-y,-z
loop_
_atom_site_type_symbol
_atom_site_label
_atom_site_fract_x
_atom_site_fract_y
_atom_site_fract_z
Si Si1 0.325224 0.747637 0.472299
Si Si2 0.227751 0.806850 0.261760
Si Si3 0.148922 0.370793 0.334216
Si Si4 0.642069 0.680925 0.579130
Si Si5 0.069459 0.747467 0.509998
Si Si6 0.236224 0.166103 0.597221
Si Si7 0.040645 0.088865 0.810555
Si Si8 0.400135 0.999092 0.147264
O O1 0.306080 0.740469 0.283238
O O2 0.261246 0.553522 0.388565
O O3 0.217532 0.801059 0.596296
O O4 0.485209 0.894289 0.632222
O O5 0.076462 0.696218 0.276100
O O6 0.279882 0.028346 0.505120
O O7 0.264781 0.814959 0.080532
O O8 0.231582 0.304365 0.345504
O O9 0.062098 0.406138 0.509314
O O10 0.042893 0.206032 0.070104
O O11 0.500000 0.500000 0.500000
O O12 0.655590 0.666314 0.375445
O O13 0.644071 0.868868 0.777739
O O14 0.060587 0.926097 0.693933
O O15 0.175903 0.223079 0.803593
O O16 0.099777 0.017079 0.368396
O O17 0.500000 0.000000 0.000000
#
# Coordination Sequence:
#
# PCOD9098082 Si02
#       8
#     2   2   2   2   2   2   2   2
#     4  10  22  40  59  84 129 159 198 245 310 352
#     4   8  20  39  64  83 116 165 199 243 300 356
#     4  12  22  38  62  95 125 155 203 251 307 360
#     4  11  23  41  61  88 125 162 196 256 311 348
#     4   9  20  36  62  87 117 160 196 245 298 360
#     4   9  19  39  63  85 122 154 202 246 302 356
#     4  10  20  36  63  93 114 158 203 249 295 361
#     4  11  23  40  65  88 116 163 212 248 288 367
#
# _framework density 22.887688000000001
#
# number of rings (size 3 to 8) (size 9 to 14) (size 15 to 20)
#    0.750    1.250    2.500    1.125    1.750    1.000 
#    2.250    1.250    0.000    0.000    0.000    0.000 
#    0.000    0.000    0.000    0.000    0.000    0.000 
#
# Total GULP energy -89109.837330 kJ/mol
# GULP energy per Si atom -5569.364833 kJ/mol
# Density = 2.283559 g / cm^3
# Si number density = 22.887688 Si / 1000 Ang^3
#
#
#
# Elastic Constant Matrix: (Units=GPa)
#
#
# Indices 1 2 3 4 5 6 
#
# 1 110.1545 27.3461 12.8639 -6.8404 -15.7348 -3.9021
# 2 27.3461 158.0327 27.0596 -39.4819 -18.5502 8.8674
# 3 12.8639 27.0596 43.6571 -18.1662 -10.6798 13.8440
# 4 -6.8404 -39.4819 -18.1662 22.7020 10.3627 -13.1768
# 5 -15.7348 -18.5502 -10.6798 10.3627 17.0568 -7.3051
# 6 -3.9021 8.8674 13.8440 -13.1768 -7.3051 51.7625
#
#
#
# Elastic Compliance Matrix: (Units=1/GPa)
#
#
# Indices 1 2 3 4 5 6 
#
# 1 0.011079 -0.001665 -0.002389 -0.005363 0.011005 0.001947
# 2 -0.001665 0.012105 0.001884 0.024246 -0.000464 0.003403
# 3 -0.002389 0.001884 0.035865 0.027894 0.004333 -0.002383
# 4 -0.005363 0.024246 0.027894 0.132354 -0.034316 0.016831
# 5 0.011005 -0.000464 0.004333 -0.034316 0.093649 0.004231
# 6 0.001947 0.003403 -0.002383 0.016831 0.004231 0.024402
#
#
# Mechanical properties :
#
#
# Convention : Reuss Voigt Hill
#
# Bulk Modulus (GPa) = 18.27912 49.59819 33.93865
# Shear Modulus (GPa) = 15.05885 34.60925 24.83405
#
# Velocity S-wave (km/s) = 2.56783 3.89284 3.29757
# Velocity P-wave (km/s) = 4.09822 6.47479 5.41841
#
# Compressibility (1/GPa) = 0.05470724
#
# Stress axis : x y z
#
# Youngs Moduli (GPa) = 90.26454 82.60800 27.88232
#
# Poissons Ratio (x) = 0.13757 0.06662
# Poissons Ratio (y) = 0.15032 -0.05252
# Poissons Ratio (z) = 0.21566 -0.15560
#
# Static dielectric constant tensor:
#      x y z
#    x 1.855910 0.042100 -0.030200 
#    y 0.042100 1.983290 -0.081030 
#    z -0.030200 -0.081030 1.880810 
# 
# From -- ./inp_files/263454.got.cif
#   From: 2010.05.17/outbox.cif.g08.bks.cpg/sg2_132_cif.got.tgz:263454.got - 2010.06.03 11:33:40.
