data_PCOD9098298
_publ_section_title
;
Structure prediction by ZEFSAII (Michael W. Deem and Ramdas Pophale) SiO2 
 PCOD9098298
Probable space group: P -1
;
_chemical_formula_sum "Si O2"
_cell_formula_units_Z 16
_cell_length_a 11.714829
_cell_length_b 19.643642
_cell_length_c 16.826709
_cell_angle_alpha 36.588149
_cell_angle_beta 159.056428
_cell_angle_gamma 140.100338
_cell_volume 822.293974
_symmetry_space_group_name_H-M "P -1"
_symmetry_group_IT_number 2
_symmetry_cell_setting 'triclinic'
loop_
_space_group_symop_operation_xyz
x,y,z
-x,-y,-z
loop_
_atom_site_type_symbol
_atom_site_label
_atom_site_fract_x
_atom_site_fract_y
_atom_site_fract_z
Si Si1 0.674749 0.565360 0.219249
Si Si2 0.440775 0.983624 0.273630
Si Si3 0.220538 0.325120 0.973126
Si Si4 0.763750 0.637145 0.876780
Si Si5 0.120562 0.758768 0.317599
Si Si6 0.719925 0.966649 0.058043
Si Si7 0.906792 0.133531 0.164622
Si Si8 0.382833 0.888073 0.580734
O O1 0.370987 0.487316 0.127517
O O2 0.000000 0.500000 0.500000
O O3 0.803872 0.693013 0.212441
O O4 0.620246 0.584403 0.071768
O O5 0.187049 0.893892 0.237578
O O6 0.773271 0.921383 0.546073
O O7 0.516225 0.088423 0.284317
O O8 0.333988 0.006160 0.094235
O O9 0.129509 0.373739 0.952401
O O10 0.450474 0.223423 0.231532
O O11 0.925891 0.271225 0.778375
O O12 0.436616 0.702759 0.603571
O O13 0.018467 0.729169 0.916066
O O14 0.001905 0.882295 0.330682
O O15 0.834957 0.079535 0.080137
O O16 0.393277 0.910850 0.935887
O O17 0.500000 0.000000 0.500000
#
# Coordination Sequence:
#
# PCOD9098298 Si02
#       8
#     2   2   2   2   2   2   2   2
#     4   8  17  31  47  71 100 120 161 208 246 286
#     4  10  18  32  51  71 102 134 162 195 248 293
#     4  10  19  30  47  73 102 131 155 197 249 293
#     4  10  16  31  51  72  97 125 157 205 254 284
#     4   8  17  27  44  71  97 121 155 197 233 296
#     4  10  20  34  47  72 103 130 168 203 237 295
#     4   9  19  32  52  72  97 130 168 209 240 283
#     4  11  22  32  47  74 106 136 162 192 242 303
#
# _framework density 19.457761000000001
#
# number of rings (size 3 to 8) (size 9 to 14) (size 15 to 20)
#    0.750    1.750    0.000    4.500    0.000    3.000 
#    0.000    0.000    0.000    0.750    0.000    0.875 
#    0.000    0.000    0.000    0.000    0.000    0.000 
#
# Total GULP energy -89073.753657 kJ/mol
# GULP energy per Si atom -5567.109604 kJ/mol
# Density = 1.941347 g / cm^3
# Si number density = 19.457761 Si / 1000 Ang^3
#
#
#
# Elastic Constant Matrix: (Units=GPa)
#
#
# Indices 1 2 3 4 5 6 
#
# 1 61.5906 25.8689 32.8051 7.6927 -14.3922 0.9103
# 2 25.8689 100.7052 25.7113 19.7244 -4.6397 19.5259
# 3 32.8051 25.7113 75.5222 11.2547 -17.9787 1.6994
# 4 7.6927 19.7244 11.2547 28.7006 1.2253 -4.5861
# 5 -14.3922 -4.6397 -17.9787 1.2253 23.0215 7.9345
# 6 0.9103 19.5259 1.6994 -4.5861 7.9345 22.6689
#
#
#
# Elastic Compliance Matrix: (Units=1/GPa)
#
#
# Indices 1 2 3 4 5 6 
#
# 1 0.023612 -0.003236 -0.006485 -0.002217 0.009684 -0.001513
# 2 -0.003236 0.018950 0.000666 -0.016669 0.011331 -0.023582
# 3 -0.006485 0.000666 0.021394 -0.009355 0.016602 -0.009621
# 4 -0.002217 -0.016669 -0.009355 0.057574 -0.027692 0.036489
# 5 0.009684 0.011331 0.016602 -0.027692 0.081960 -0.045684
# 6 -0.001513 -0.023582 -0.009621 0.036489 -0.045684 0.088580
#
#
# Mechanical properties :
#
#
# Convention : Reuss Voigt Hill
#
# Bulk Modulus (GPa) = 21.81168 45.17652 33.49410
# Shear Modulus (GPa) = 15.36283 25.10703 20.23493
#
# Velocity S-wave (km/s) = 2.81294 3.59602 3.22831
# Velocity P-wave (km/s) = 4.66736 6.36474 5.58096
#
# Compressibility (1/GPa) = 0.04584699
#
# Stress axis : x y z
#
# Youngs Moduli (GPa) = 42.35202 52.76948 46.74192
#
# Poissons Ratio (x) = 0.17076 0.30312
# Poissons Ratio (y) = 0.13705 -0.03115
# Poissons Ratio (z) = 0.27465 -0.03516
#
# Static dielectric constant tensor:
#      x y z
#    x 1.671650 -0.006060 -0.016890 
#    y -0.006060 1.536390 0.122370 
#    z -0.016890 0.122370 1.638490 
# 
# From -- ./inp_files/570587.got.cif
#   From: 2010.05.17/outbox.cif.g08.bks.cpg/sg2_286_cif.got.tgz:570587.got - 2010.06.03 11:33:40.
