data_PCOD9098934
_publ_section_title
;
Structure prediction by ZEFSAII (Michael W. Deem and Ramdas Pophale) SiO2 
 PCOD9098934
Probable space group: P -1
;
_chemical_formula_sum "Si O2"
_cell_formula_units_Z 16
_cell_length_a 11.364299
_cell_length_b 9.346272
_cell_length_c 7.130077
_cell_angle_alpha 71.345710
_cell_angle_beta 92.897067
_cell_angle_gamma 79.004920
_cell_volume 699.272624
_symmetry_space_group_name_H-M "P -1"
_symmetry_group_IT_number 2
_symmetry_cell_setting 'triclinic'
loop_
_space_group_symop_operation_xyz
x,y,z
-x,-y,-z
loop_
_atom_site_type_symbol
_atom_site_label
_atom_site_fract_x
_atom_site_fract_y
_atom_site_fract_z
Si Si1 0.235388 0.758950 0.378369
Si Si2 0.630057 0.984370 0.785892
Si Si3 0.033880 0.816648 0.061880
Si Si4 0.676053 0.730704 0.618823
Si Si5 0.233528 0.663639 0.835933
Si Si6 0.873201 0.612469 0.991787
Si Si7 0.575803 0.445402 0.790075
Si Si8 0.603417 0.760862 0.204651
O O1 0.241280 0.746362 0.606512
O O2 0.338455 0.628751 0.344625
O O3 0.265397 0.920515 0.247144
O O4 0.108123 0.748207 0.282277
O O5 0.628220 0.902286 0.621083
O O6 0.509898 0.109303 0.777750
O O7 0.646080 0.843850 0.994737
O O8 0.128497 0.761324 0.921098
O O9 0.916021 0.749070 0.044942
O O10 0.000000 0.000000 0.000000
O O11 0.796818 0.663604 0.775295
O O12 0.579753 0.625004 0.704406
O O13 0.693689 0.726402 0.400165
O O14 0.199602 0.498312 0.861583
O O15 0.353844 0.628916 0.986838
O O16 0.000000 0.500000 0.000000
O O17 0.453890 0.385291 0.788302
#
# Coordination Sequence:
#
# PCOD9098934 Si02
#       8
#     2   2   2   2   2   2   2   2
#     4  10  21  39  59  81 116 159 193 235 298 352
#     4  10  23  39  58  88 121 154 198 243 288 353
#     4  10  20  37  58  86 117 147 197 248 288 349
#     4  11  21  37  62  88 116 154 197 244 296 350
#     4   9  20  38  60  83 116 156 190 239 297 344
#     4   9  20  40  60  86 119 150 194 245 290 347
#     4   9  21  38  58  87 117 147 197 243 280 351
#     4  10  22  40  60  85 120 161 194 238 296 348
#
# _framework density 22.880918000000001
#
# number of rings (size 3 to 8) (size 9 to 14) (size 15 to 20)
#    0.000    2.250    0.000    2.250    0.000    9.500 
#    0.000    6.250    0.000    0.000    0.000    0.000 
#    0.000    0.000    0.000    0.000    0.000    0.000 
#
# Total GULP energy -89524.646981 kJ/mol
# GULP energy per Si atom -5595.290436 kJ/mol
# Density = 2.282884 g / cm^3
# Si number density = 22.880918 Si / 1000 Ang^3
#
#
#
# Elastic Constant Matrix: (Units=GPa)
#
#
# Indices 1 2 3 4 5 6 
#
# 1 86.5879 29.2520 33.1358 8.6220 20.2233 15.8102
# 2 29.2520 125.4488 3.7827 10.3981 5.9139 23.6926
# 3 33.1358 3.7827 126.0693 16.3513 13.3758 13.7342
# 4 8.6220 10.3981 16.3513 33.0256 -2.4707 -0.4947
# 5 20.2233 5.9139 13.3758 -2.4707 16.5615 6.9468
# 6 15.8102 23.6926 13.7342 -0.4947 6.9468 39.3592
#
#
#
# Elastic Compliance Matrix: (Units=1/GPa)
#
#
# Indices 1 2 3 4 5 6 
#
# 1 0.018686 -0.002627 -0.001881 -0.004667 -0.020327 -0.001739
# 2 -0.002627 0.009808 0.001347 -0.003118 0.000432 -0.005434
# 3 -0.001881 0.001347 0.009996 -0.005368 -0.005986 -0.002554
# 4 -0.004667 -0.003118 -0.005368 0.036321 0.015136 0.003410
# 5 -0.020327 0.000432 -0.005986 0.015136 0.094895 -0.006564
# 6 -0.001739 -0.005434 -0.002554 0.003410 -0.006564 0.031469
#
#
# Mechanical properties :
#
#
# Convention : Reuss Voigt Hill
#
# Bulk Modulus (GPa) = 31.08789 52.27188 41.67988
# Shear Modulus (GPa) = 22.91270 35.91828 29.41549
#
# Velocity S-wave (km/s) = 3.16791 3.96636 3.58940
# Velocity P-wave (km/s) = 5.19588 6.62350 5.95264
#
# Compressibility (1/GPa) = 0.03216687
#
# Stress axis : x y z
#
# Youngs Moduli (GPa) = 53.51567 101.96112 100.04197
#
# Poissons Ratio (x) = 0.26784 0.18819
# Poissons Ratio (y) = 0.14058 -0.13473
# Poissons Ratio (z) = 0.10067 -0.13731
#
# Static dielectric constant tensor:
#      x y z
#    x 1.862120 -0.026700 0.003900 
#    y -0.026700 1.863570 0.005610 
#    z 0.003900 0.005610 1.823920 
# 
# From -- ./inp_files/89936.got.cif
#   From: 2010.05.17/outbox.cif.g08.bks.cpg/sg2_45_cif.got.tgz:89936.got - 2010.06.03 11:33:40.
