data_PCOD9098853
_publ_section_title
;
Structure prediction by ZEFSAII (Michael W. Deem and Ramdas Pophale) SiO2 
 PCOD9098853
Probable space group: P -1
;
_chemical_formula_sum "Si O2"
_cell_formula_units_Z 14
_cell_length_a 4.868403
_cell_length_b 6.736322
_cell_length_c 20.717093
_cell_angle_alpha 57.465990
_cell_angle_beta 84.231610
_cell_angle_gamma 114.269436
_cell_volume 474.277157
_symmetry_space_group_name_H-M "P -1"
_symmetry_group_IT_number 2
_symmetry_cell_setting 'triclinic'
loop_
_space_group_symop_operation_xyz
x,y,z
-x,-y,-z
loop_
_atom_site_type_symbol
_atom_site_label
_atom_site_fract_x
_atom_site_fract_y
_atom_site_fract_z
Si Si1 0.222803 0.855199 0.806142
Si Si2 0.018586 0.959730 0.668782
Si Si3 0.108388 0.327112 0.482767
Si Si4 0.310887 0.402114 0.775237
Si Si5 0.381757 0.767384 0.946585
Si Si6 0.798173 0.501649 0.370201
Si Si7 0.540199 0.679973 0.086241
O O1 0.269899 0.940707 0.714115
O O2 0.451485 0.819902 0.858839
O O3 0.844283 0.580293 0.860940
O O4 0.238189 0.114887 0.796547
O O5 0.694507 0.652059 0.722158
O O6 0.950664 0.171848 0.672692
O O7 0.102871 0.110140 0.570924
O O8 0.862001 0.281026 0.439293
O O9 0.000000 0.500000 0.500000
O O10 0.455382 0.449057 0.415803
O O11 0.170339 0.505647 0.705689
O O12 0.241412 0.368765 0.859300
O O13 0.417908 0.043015 0.930275
O O14 0.608422 0.729233 0.999204
O O15 0.000000 0.500000 0.000000
#
# Coordination Sequence:
#
# PCOD9098853 Si02
#       7
#     2   2   2   2   2   2   2
#     4   8  14  24  39  63  98 138 180 226 275 328
#     4   9  17  30  48  69 100 137 178 227 277 328
#     4  10  20  37  58  79 108 145 184 230 281 331
#     4   9  17  29  46  71 102 140 183 227 276 329
#     4   8  12  19  35  62  98 140 184 226 273 328
#     4  10  21  37  56  79 109 144 184 230 279 332
#     4   8  13  22  38  63 100 142 182 227 275 326
#
# _framework density 29.518609000000001
#
# number of rings (size 3 to 8) (size 9 to 14) (size 15 to 20)
#    0.000    3.143    0.000    1.714    0.000    1.143 
#    0.000    2.857    0.000    0.000    0.000    0.000 
#    0.000   58.286    0.000 1179.714    0.000  866.429 
#
# Total GULP energy -78139.345396 kJ/mol
# GULP energy per Si atom -5581.381814 kJ/mol
# Density = 2.945142 g / cm^3
# Si number density = 29.518609 Si / 1000 Ang^3
#
#
#
# Elastic Constant Matrix: (Units=GPa)
#
#
# Indices 1 2 3 4 5 6 
#
# 1 157.5597 69.6556 78.0497 17.8020 7.8047 15.2017
# 2 69.6556 259.6491 80.9351 9.3297 6.5294 -12.5498
# 3 78.0497 80.9351 194.7068 34.1678 55.6474 30.9780
# 4 17.8020 9.3297 34.1678 42.7055 61.1586 -7.0791
# 5 7.8047 6.5294 55.6474 61.1586 28.8187 24.0140
# 6 15.2017 -12.5498 30.9780 -7.0791 24.0140 49.5828
#
#
#
# Elastic Compliance Matrix: (Units=1/GPa)
#
#
# Indices 1 2 3 4 5 6 
#
# 1 0.007982 -0.001421 -0.002359 0.002348 -0.002409 0.000169
# 2 -0.001421 0.005040 -0.002291 0.000172 0.001109 0.002630
# 3 -0.002359 -0.002291 0.009174 -0.004971 -0.001276 -0.005680
# 4 0.002348 0.000172 -0.004971 -0.001973 0.018980 -0.007045
# 5 -0.002409 0.001109 -0.001276 0.018980 -0.010875 0.009793
# 6 0.000169 0.002630 -0.005680 -0.007045 0.009793 0.018582
#
#
# Mechanical properties :
#
#
# Convention : Reuss Voigt Hill
#
# Bulk Modulus (GPa) = 99.47223 118.79960 109.13591
# Shear Modulus (GPa) = 115.14398 49.77308 82.45853
#
# Velocity S-wave (km/s) = 6.25235 4.11074 5.29104
# Velocity P-wave (km/s) = 9.26789 7.92868 8.62432
#
# Compressibility (1/GPa) = 0.01005306
#
# Stress axis : x y z
#
# Youngs Moduli (GPa) = 125.28910 198.42151 108.99789
#
# Poissons Ratio (x) = 0.28205 0.25715
# Poissons Ratio (y) = 0.17809 0.24968
# Poissons Ratio (z) = 0.29558 0.45453
#
# Static dielectric constant tensor:
#      x y z
#    x 2.375420 0.013030 -0.041070 
#    y 0.013030 2.289590 -0.034720 
#    z -0.041070 -0.034720 2.672450 
# 
# From -- ./inp_files/603786.got.cif
#   From: 2010.05.17/outbox.cif.g08.bks.cpg/sg2_302_cif.got.tgz:603786.got - 2010.06.03 11:33:40.
