data_PCOD9098725
_publ_section_title
;
Structure prediction by ZEFSAII (Michael W. Deem and Ramdas Pophale) SiO2 
 PCOD9098725
Probable space group: P -1
;
_chemical_formula_sum "Si O2"
_cell_formula_units_Z 16
_cell_length_a 11.624647
_cell_length_b 27.292370
_cell_length_c 5.262764
_cell_angle_alpha 106.294279
_cell_angle_beta 83.307465
_cell_angle_gamma 148.038856
_cell_volume 823.725585
_symmetry_space_group_name_H-M "P -1"
_symmetry_group_IT_number 2
_symmetry_cell_setting 'triclinic'
loop_
_space_group_symop_operation_xyz
x,y,z
-x,-y,-z
loop_
_atom_site_type_symbol
_atom_site_label
_atom_site_fract_x
_atom_site_fract_y
_atom_site_fract_z
Si Si1 0.102586 0.454866 0.453719
Si Si2 0.803515 0.161683 0.570521
Si Si3 0.943292 0.820508 0.789706
Si Si4 0.465065 0.544283 0.853417
Si Si5 0.362490 0.985078 0.200447
Si Si6 0.864245 0.635873 0.964203
Si Si7 0.347319 0.285270 0.778613
Si Si8 0.198713 0.587127 0.268465
O O1 0.312731 0.518953 0.666305
O O2 0.053513 0.386018 0.204794
O O3 0.181222 0.534526 0.398038
O O4 0.878258 0.388440 0.557825
O O5 0.748042 0.092075 0.664714
O O6 0.953250 0.195098 0.350975
O O7 0.564229 0.092435 0.433753
O O8 0.942719 0.254600 0.829780
O O9 0.812273 0.788728 0.524847
O O10 0.778456 0.758403 0.982647
O O11 0.163348 0.932897 0.005269
O O12 0.685199 0.598112 0.777705
O O13 0.293638 0.440355 0.872554
O O14 0.557616 0.621037 0.143320
O O15 0.500000 0.000000 0.000000
O O16 0.557464 0.326314 0.789107
O O17 0.000000 0.500000 0.000000
#
# Coordination Sequence:
#
# PCOD9098725 Si02
#       8
#     2   2   2   2   2   2   2   2
#     4  11  22  38  57  78 122 166 215 251 298 346
#     4  10  20  37  56  89 120 162 194 245 308 375
#     4  11  21  36  57  88 117 150 201 247 303 357
#     4  11  22  35  53  85 128 163 202 239 302 356
#     4   9  19  36  60  81 124 152 197 248 306 370
#     4  11  22  36  56  88 126 165 200 242 302 375
#     4  12  22  36  60  87 118 163 203 252 296 354
#     4  11  23  39  56  80 114 169 215 263 290 345
#
# _framework density 19.423943000000001
#
# number of rings (size 3 to 8) (size 9 to 14) (size 15 to 20)
#    0.000    1.250    5.000    1.125    1.750    3.000 
#    0.000    0.000    0.000    0.000    0.000    1.750 
#    0.000    0.500    0.000    0.000    0.000    0.000 
#
# Total GULP energy -89228.640453 kJ/mol
# GULP energy per Si atom -5576.790028 kJ/mol
# Density = 1.937973 g / cm^3
# Si number density = 19.423943 Si / 1000 Ang^3
#
#
#
# Elastic Constant Matrix: (Units=GPa)
#
#
# Indices 1 2 3 4 5 6 
#
# 1 90.1964 41.9797 51.7897 7.7708 -5.6814 20.9375
# 2 41.9797 96.9103 56.6500 4.5412 -5.2161 30.8769
# 3 51.7897 56.6500 113.7638 11.9646 6.9529 21.4426
# 4 7.7708 4.5412 11.9646 39.7252 6.1124 2.1682
# 5 -5.6814 -5.2161 6.9529 6.1124 43.4246 -5.9138
# 6 20.9375 30.8769 21.4426 2.1682 -5.9138 24.5783
#
#
#
# Elastic Compliance Matrix: (Units=1/GPa)
#
#
# Indices 1 2 3 4 5 6 
#
# 1 0.016902 -0.001767 -0.005536 -0.001405 0.002170 -0.006702
# 2 -0.001767 0.020702 -0.005990 0.000757 0.000490 -0.019225
# 3 -0.005536 -0.005990 0.015048 -0.002095 -0.003778 -0.001611
# 4 -0.001405 0.000757 -0.002095 0.026619 -0.003662 -0.001156
# 5 0.002170 0.000490 -0.003778 -0.003662 0.025484 0.007286
# 6 -0.006702 -0.019225 -0.001611 -0.001156 0.007286 0.073808
#
#
# Mechanical properties :
#
#
# Convention : Reuss Voigt Hill
#
# Bulk Modulus (GPa) = 38.36591 66.85659 52.61125
# Shear Modulus (GPa) = 23.38216 31.57569 27.47893
#
# Velocity S-wave (km/s) = 3.47332 4.03626 3.76532
# Velocity P-wave (km/s) = 5.98999 7.49775 6.78588
#
# Compressibility (1/GPa) = 0.02606481
#
# Stress axis : x y z
#
# Youngs Moduli (GPa) = 59.16590 48.30348 66.45322
#
# Poissons Ratio (x) = 0.08538 0.36787
# Poissons Ratio (y) = 0.10457 0.39808
# Poissons Ratio (z) = 0.32753 0.28936
#
# Static dielectric constant tensor:
#      x y z
#    x 1.813540 0.031180 0.033920 
#    y 0.031180 1.736560 -0.024560 
#    z 0.033920 -0.024560 1.773880 
# 
# From -- ./inp_files/85333.got.cif
#   From: 2010.05.17/outbox.cif.g08.bks.cpg/sg2_43_cif.got.tgz:85333.got - 2010.06.03 11:33:40.
