data_PCOD9098604
_publ_section_title
;
Structure prediction by ZEFSAII (Michael W. Deem and Ramdas Pophale) SiO2 
 PCOD9098604
Probable space group: P -1
;
_chemical_formula_sum "Si O2"
_cell_formula_units_Z 14
_cell_length_a 15.907352
_cell_length_b 15.103816
_cell_length_c 11.040031
_cell_angle_alpha 124.302386
_cell_angle_beta 58.001575
_cell_angle_gamma 161.506088
_cell_volume 694.939456
_symmetry_space_group_name_H-M "P -1"
_symmetry_group_IT_number 2
_symmetry_cell_setting 'triclinic'
loop_
_space_group_symop_operation_xyz
x,y,z
-x,-y,-z
loop_
_atom_site_type_symbol
_atom_site_label
_atom_site_fract_x
_atom_site_fract_y
_atom_site_fract_z
Si Si1 0.793180 0.185071 0.316632
Si Si2 0.996980 0.811521 0.910800
Si Si3 0.296563 0.675015 0.476900
Si Si4 0.258292 0.416633 0.435293
Si Si5 0.479645 0.368214 0.844354
Si Si6 0.506870 0.624573 0.647822
Si Si7 0.991742 0.925014 0.249285
O O1 0.858527 0.157109 0.148372
O O2 0.701635 0.210783 0.363307
O O3 0.079112 0.477478 0.387437
O O4 0.577723 0.940504 0.398211
O O5 0.695754 0.511659 0.861926
O O6 0.177183 0.030676 0.830312
O O7 0.029358 0.927964 0.084275
O O8 0.198299 0.473417 0.470511
O O9 0.443720 0.551850 0.292618
O O10 0.405467 0.588485 0.582130
O O11 0.043574 0.104348 0.373328
O O12 0.500000 0.500000 0.000000
O O13 0.500000 0.500000 0.500000
O O14 0.794878 0.925059 0.716273
O O15 0.292943 0.403576 0.747094
#
# Coordination Sequence:
#
# PCOD9098604 Si02
#       7
#     2   2   2   2   2   2   2
#     4  10  20  37  52  84 113 146 181 223 281 338
#     4  12  22  37  57  80 121 147 180 223 289 342
#     4  10  21  34  57  80 114 144 184 227 276 333
#     4  11  21  37  60  80 116 145 186 232 273 331
#     4  12  24  34  53  90 116 147 175 226 290 344
#     4  10  23  39  54  79 110 151 194 226 267 324
#     4  11  24  37  56  80 113 152 186 228 272 331
#
# _framework density 20.145638999999999
#
# number of rings (size 3 to 8) (size 9 to 14) (size 15 to 20)
#    0.000    1.143    4.286    3.000    2.000    4.571 
#    0.000    0.000    0.000    1.714    0.000    0.000 
#    0.000    0.000    0.000    0.000    0.000    0.000 
#
# Total GULP energy -78035.586446 kJ/mol
# GULP energy per Si atom -5573.970460 kJ/mol
# Density = 2.009979 g / cm^3
# Si number density = 20.145639 Si / 1000 Ang^3
#
#
#
# Elastic Constant Matrix: (Units=GPa)
#
#
# Indices 1 2 3 4 5 6 
#
# 1 86.0521 -1.8292 35.8180 0.5765 -18.7119 -0.5735
# 2 -1.8292 53.0376 14.4779 -6.3530 -8.2716 13.3009
# 3 35.8180 14.4779 46.0078 -8.2279 -12.8623 1.8109
# 4 0.5765 -6.3530 -8.2279 27.8258 2.1371 -1.8759
# 5 -18.7119 -8.2716 -12.8623 2.1371 36.6644 0.7781
# 6 -0.5735 13.3009 1.8109 -1.8759 0.7781 25.0785
#
#
#
# Elastic Compliance Matrix: (Units=1/GPa)
#
#
# Indices 1 2 3 4 5 6 
#
# 1 0.019951 0.006132 -0.016480 -0.004498 0.006092 -0.002132
# 2 0.006132 0.026311 -0.010754 0.001395 0.005490 -0.013104
# 3 -0.016480 -0.010754 0.040331 0.009813 0.002675 0.003065
# 4 -0.004498 0.001395 0.009813 0.039414 -0.000866 0.001424
# 5 0.006092 0.005490 0.002675 -0.000866 0.032697 -0.004045
# 6 -0.002132 -0.013104 0.003065 0.001424 -0.004045 0.046787
#
#
# Mechanical properties :
#
#
# Convention : Reuss Voigt Hill
#
# Bulk Modulus (GPa) = 22.52669 31.33675 26.93172
# Shear Modulus (GPa) = 19.04837 27.02246 23.03542
#
# Velocity S-wave (km/s) = 3.07829 3.66643 3.38515
# Velocity P-wave (km/s) = 4.88269 5.78899 5.35505
#
# Compressibility (1/GPa) = 0.04439178
#
# Stress axis : x y z
#
# Youngs Moduli (GPa) = 50.12229 38.00681 24.79466
#
# Poissons Ratio (x) = -0.23308 0.40860
# Poissons Ratio (y) = -0.30737 0.26664
# Poissons Ratio (z) = 0.82599 0.40872
#
# Static dielectric constant tensor:
#      x y z
#    x 1.855210 -0.011240 -0.036430 
#    y -0.011240 1.774350 0.006700 
#    z -0.036430 0.006700 1.790600 
# 
# From -- ./inp_files/101546.got.cif
#   From: 2010.05.17/outbox.cif.g08.bks.cpg/sg2_51_cif.got.tgz:101546.got - 2010.06.03 11:33:40.
