data_PCOD9098450
_publ_section_title
;
Structure prediction by ZEFSAII (Michael W. Deem and Ramdas Pophale) SiO2 
 PCOD9098450
Probable space group: P -1
;
_chemical_formula_sum "Si O2"
_cell_formula_units_Z 16
_cell_length_a 7.985357
_cell_length_b 19.198834
_cell_length_c 19.543731
_cell_angle_alpha 30.057015
_cell_angle_beta 149.003591
_cell_angle_gamma 140.224785
_cell_volume 768.707755
_symmetry_space_group_name_H-M "P -1"
_symmetry_group_IT_number 2
_symmetry_cell_setting 'triclinic'
loop_
_space_group_symop_operation_xyz
x,y,z
-x,-y,-z
loop_
_atom_site_type_symbol
_atom_site_label
_atom_site_fract_x
_atom_site_fract_y
_atom_site_fract_z
Si Si1 0.621088 0.444735 0.403879
Si Si2 0.699834 0.109369 0.527948
Si Si3 0.657570 0.318708 0.061117
Si Si4 0.592220 0.624517 0.767241
Si Si5 0.565886 0.740259 0.115219
Si Si6 0.624109 0.022992 0.340836
Si Si7 0.593288 0.980888 0.128170
Si Si8 0.301478 0.837260 0.270623
O O1 0.559533 0.400473 0.340988
O O2 0.458320 0.587925 0.239219
O O3 0.539254 0.307984 0.537848
O O4 0.000000 0.500000 0.500000
O O5 0.595685 0.265308 0.350702
O O6 0.083728 0.093764 0.678061
O O7 0.500000 0.000000 0.500000
O O8 0.576083 0.065890 0.597004
O O9 0.588073 0.186547 0.197629
O O10 0.030789 0.320758 0.163126
O O11 0.601923 0.473225 0.934347
O O12 0.443279 0.287697 0.944878
O O13 0.940854 0.803200 0.205616
O O14 0.351097 0.860859 0.958815
O O15 0.497480 0.961518 0.276225
O O16 0.000000 0.000000 0.500000
O O17 0.312178 0.891952 0.150158
O O18 0.500000 0.000000 0.000000
#
# Coordination Sequence:
#
# PCOD9098450 Si02
#       8
#     2   2   2   2   2   2   2   2
#     4   9  19  36  67  91 113 156 221 265 301 358
#     4  12  25  41  61  93 135 165 204 262 329 379
#     4  10  20  36  66  93 114 153 222 259 303 362
#     4  10  20  39  61  93 123 158 201 271 311 367
#     4  10  21  39  64  89 119 162 216 261 310 371
#     4  12  21  38  66  93 118 162 221 258 306 380
#     4  12  26  38  58  93 135 169 200 262 329 374
#     4  11  21  40  64  90 121 164 223 260 301 379
#
# _framework density 20.814153000000001
#
# number of rings (size 3 to 8) (size 9 to 14) (size 15 to 20)
#    0.000    1.250    3.750    2.625    3.500    0.000 
#    0.000    2.500    0.000    0.000    0.000    0.000 
#    0.000    0.000    0.000    0.000    0.000    0.000 
#
# Total GULP energy -89281.419096 kJ/mol
# GULP energy per Si atom -5580.088693 kJ/mol
# Density = 2.076678 g / cm^3
# Si number density = 20.814153 Si / 1000 Ang^3
#
#
#
# Elastic Constant Matrix: (Units=GPa)
#
#
# Indices 1 2 3 4 5 6 
#
# 1 37.2224 8.1461 13.9639 -12.8542 -8.1527 -4.1399
# 2 8.1461 93.2749 40.3965 -10.2689 6.2576 -1.9440
# 3 13.9639 40.3965 126.2186 -43.9434 8.0146 -0.5823
# 4 -12.8542 -10.2689 -43.9434 57.3602 -0.8076 -1.8789
# 5 -8.1527 6.2576 8.0146 -0.8076 36.1209 -2.5693
# 6 -4.1399 -1.9440 -0.5823 -1.8789 -2.5693 21.0681
#
#
#
# Elastic Compliance Matrix: (Units=1/GPa)
#
#
# Indices 1 2 3 4 5 6 
#
# 1 0.032779 -0.002031 -0.001270 0.006389 0.008734 0.007854
# 2 -0.002031 0.012693 -0.004226 -0.001434 -0.001729 0.000316
# 3 -0.001270 -0.004226 0.012521 0.008528 -0.002127 0.000208
# 4 0.006389 -0.001434 0.008528 0.025271 0.000626 0.003689
# 5 0.008734 -0.001729 -0.002127 0.000626 0.030819 0.005312
# 6 0.007854 0.000316 0.000208 0.003689 0.005312 0.050020
#
#
# Mechanical properties :
#
#
# Convention : Reuss Voigt Hill
#
# Bulk Modulus (GPa) = 23.28915 42.41432 32.85173
# Shear Modulus (GPa) = 25.84349 35.85715 30.85032
#
# Velocity S-wave (km/s) = 3.52750 4.15508 3.85409
# Velocity P-wave (km/s) = 5.27299 6.59101 5.96849
#
# Compressibility (1/GPa) = 0.04293846
#
# Stress axis : x y z
#
# Youngs Moduli (GPa) = 30.50693 78.78174 79.86728
#
# Poissons Ratio (x) = 0.16004 0.10145
# Poissons Ratio (y) = 0.06197 0.33750
# Poissons Ratio (z) = 0.03875 0.33292
#
# Static dielectric constant tensor:
#      x y z
#    x 1.747120 0.003500 0.038340 
#    y 0.003500 1.789550 0.031750 
#    z 0.038340 0.031750 1.977590 
# 
# From -- ./inp_files/521664.got.cif
#   From: 2010.05.17/outbox.cif.g08.bks.cpg/sg2_261_cif.got.tgz:521664.got - 2010.06.03 11:33:40.
