data_PCOD9098809
_publ_section_title
;
Structure prediction by ZEFSAII (Michael W. Deem and Ramdas Pophale) SiO2 
 PCOD9098809
Probable space group: P -1
;
_chemical_formula_sum "Si O2"
_cell_formula_units_Z 16
_cell_length_a 14.419805
_cell_length_b 18.144060
_cell_length_c 8.729809
_cell_angle_alpha 97.256102
_cell_angle_beta 84.487000
_cell_angle_gamma 22.442205
_cell_volume 715.449975
_symmetry_space_group_name_H-M "P -1"
_symmetry_group_IT_number 2
_symmetry_cell_setting 'triclinic'
loop_
_space_group_symop_operation_xyz
x,y,z
-x,-y,-z
loop_
_atom_site_type_symbol
_atom_site_label
_atom_site_fract_x
_atom_site_fract_y
_atom_site_fract_z
Si Si1 0.875514 0.088557 0.288418
Si Si2 0.382263 0.955259 0.820025
Si Si3 0.649155 0.858134 0.166911
Si Si4 0.423816 0.622537 0.868846
Si Si5 0.723012 0.118239 0.624239
Si Si6 0.523688 0.112342 0.568518
Si Si7 0.123082 0.442620 0.161362
Si Si8 0.729391 0.423696 0.063008
O O1 0.017505 0.050188 0.349202
O O2 0.133243 0.860662 0.079916
O O3 0.620709 0.306292 0.269652
O O4 0.787635 0.096745 0.435281
O O5 0.429499 0.006615 0.865005
O O6 0.377476 0.959965 0.639508
O O7 0.652470 0.705698 0.781515
O O8 0.069355 0.165237 0.983765
O O9 0.423315 0.003097 0.373150
O O10 0.967825 0.625715 0.139198
O O11 0.701433 0.745246 0.028208
O O12 0.429886 0.528970 0.831649
O O13 0.683255 0.453372 0.894126
O O14 0.659810 0.079346 0.624032
O O15 0.436944 0.379194 0.795063
O O16 0.165407 0.384211 0.691457
#
# Coordination Sequence:
#
# PCOD9098809 Si02
#       8
#     2   2   2   2   2   2   2   2
#     4   9  19  37  64  80 112 154 187 237 287 351
#     4  12  21  38  60  87 115 156 192 237 290 334
#     4   9  21  39  59  83 113 154 191 243 280 342
#     4   9  19  41  56  86 112 147 192 237 293 333
#     4  10  20  37  57  87 116 151 191 231 293 336
#     4  10  21  38  56  83 119 151 192 239 277 346
#     4   9  21  39  59  81 115 155 187 244 281 340
#     4  10  22  35  59  84 119 146 191 243 279 353
#
# _framework density 22.363548999999999
#
# number of rings (size 3 to 8) (size 9 to 14) (size 15 to 20)
#    0.750    1.500    0.000    2.625    0.000    2.500 
#    6.750    1.250    0.000    0.000    0.000    0.000 
#    0.000    0.000    0.000    0.000    0.000    0.000 
#
# Total GULP energy -89302.986931 kJ/mol
# GULP energy per Si atom -5581.436683 kJ/mol
# Density = 2.231265 g / cm^3
# Si number density = 22.363549 Si / 1000 Ang^3
#
#
#
# Elastic Constant Matrix: (Units=GPa)
#
#
# Indices 1 2 3 4 5 6 
#
# 1 55.4063 13.9239 4.8559 -4.7311 1.4380 -10.1606
# 2 13.9239 91.1410 2.8489 -12.5684 -18.6632 7.9159
# 3 4.8559 2.8489 56.6604 -4.1775 -4.9624 -5.3547
# 4 -4.7311 -12.5684 -4.1775 17.2647 -1.8370 -10.1924
# 5 1.4380 -18.6632 -4.9624 -1.8370 21.4391 3.1924
# 6 -10.1606 7.9159 -5.3547 -10.1924 3.1924 20.5733
#
#
#
# Elastic Compliance Matrix: (Units=1/GPa)
#
#
# Indices 1 2 3 4 5 6 
#
# 1 0.025520 -0.005480 0.000914 0.016855 -0.008492 0.024618
# 2 -0.005480 0.017199 0.001078 0.008762 0.017443 -0.007410
# 3 0.000914 0.001078 0.019907 0.012729 0.004975 0.010752
# 4 0.016855 0.008762 0.012729 0.108862 0.009734 0.060688
# 5 -0.008492 0.017443 0.004975 0.009734 0.066636 -0.015128
# 6 0.024618 -0.007410 0.010752 0.060688 -0.015128 0.098827
#
#
# Mechanical properties :
#
#
# Convention : Reuss Voigt Hill
#
# Bulk Modulus (GPa) = 17.96944 27.38503 22.67724
# Shear Modulus (GPa) = 13.79397 23.96069 18.87733
#
# Velocity S-wave (km/s) = 2.48625 3.27680 2.90851
# Velocity P-wave (km/s) = 4.03665 5.15641 4.63050
#
# Compressibility (1/GPa) = 0.05565003
#
# Stress axis : x y z
#
# Youngs Moduli (GPa) = 39.18544 58.14206 50.23402
#
# Poissons Ratio (x) = 0.31863 -0.04591
# Poissons Ratio (y) = 0.21474 -0.05417
# Poissons Ratio (z) = -0.03581 -0.06270
#
# Static dielectric constant tensor:
#      x y z
#    x 1.823410 -0.013330 0.030040 
#    y -0.013330 1.823310 -0.029310 
#    z 0.030040 -0.029310 1.849620 
# 
# From -- ./inp_files/319019.got.cif
#   From: 2010.05.17/outbox.cif.g08.bks.cpg/sg2_160_cif.got.tgz:319019.got - 2010.06.03 11:33:40.
