data_PCOD9098395
_publ_section_title
;
Structure prediction by ZEFSAII (Michael W. Deem and Ramdas Pophale) SiO2 
 PCOD9098395
Probable space group: P -1
;
_chemical_formula_sum "Si O2"
_cell_formula_units_Z 14
_cell_length_a 8.828821
_cell_length_b 19.077045
_cell_length_c 12.166038
_cell_angle_alpha 154.073518
_cell_angle_beta 47.864911
_cell_angle_gamma 131.351702
_cell_volume 653.905363
_symmetry_space_group_name_H-M "P -1"
_symmetry_group_IT_number 2
_symmetry_cell_setting 'triclinic'
loop_
_space_group_symop_operation_xyz
x,y,z
-x,-y,-z
loop_
_atom_site_type_symbol
_atom_site_label
_atom_site_fract_x
_atom_site_fract_y
_atom_site_fract_z
Si Si1 0.440971 0.584910 0.258695
Si Si2 0.026577 0.612221 0.391506
Si Si3 0.879320 0.731078 0.214317
Si Si4 0.014155 0.953658 0.277958
Si Si5 0.225111 0.508604 0.458178
Si Si6 0.435158 0.868494 0.940574
Si Si7 0.904285 0.921408 0.823788
O O1 0.240499 0.660375 0.425915
O O2 0.656884 0.701410 0.341865
O O3 0.371068 0.468105 0.231520
O O4 0.500000 0.500000 0.000000
O O5 0.834257 0.586525 0.534503
O O6 0.994310 0.755221 0.528337
O O7 0.042072 0.439315 0.083346
O O8 0.864191 0.809485 0.210407
O O9 0.017833 0.871391 0.415732
O O10 0.033377 0.962689 0.149478
O O11 0.239992 0.925847 0.173539
O O12 0.335688 0.690930 0.693055
O O13 0.000000 0.500000 0.500000
O O14 0.656752 0.872889 0.894038
O O15 0.500000 0.000000 0.000000
O O16 0.000000 0.000000 0.000000
#
# Coordination Sequence:
#
# PCOD9098395 Si02
#       7
#     2   2   2   2   2   2   2
#     4   9  19  33  60  92 122 167 210 263 314 387
#     4  10  22  38  61  96 129 165 215 271 333 378
#     4  10  20  41  68  89 125 170 228 263 319 395
#     4  10  22  40  66  92 123 175 219 268 323 393
#     4  10  20  36  65  95 126 167 223 274 307 394
#     4  10  21  39  64  92 125 175 220 260 325 384
#     4  11  26  39  63  99 140 167 213 278 337 382
#
# _framework density 21.409827
#
# number of rings (size 3 to 8) (size 9 to 14) (size 15 to 20)
#    0.000    2.000    1.429    1.714   10.000    1.143 
#    0.000    0.714    6.286    0.000    0.000    0.000 
#    0.000    0.000    0.000    0.000    0.000    0.000 
#
# Total GULP energy -77981.143582 kJ/mol
# GULP energy per Si atom -5570.081684 kJ/mol
# Density = 2.136110 g / cm^3
# Si number density = 21.409827 Si / 1000 Ang^3
#
#
#
# Elastic Constant Matrix: (Units=GPa)
#
#
# Indices 1 2 3 4 5 6 
#
# 1 82.0150 27.1404 28.4278 4.5674 1.5016 5.4450
# 2 27.1404 132.3747 20.0919 -25.1225 -7.6947 5.8412
# 3 28.4278 20.0919 83.2052 1.4448 5.2317 -5.3446
# 4 4.5674 -25.1225 1.4448 37.3118 -0.3667 3.3158
# 5 1.5016 -7.6947 5.2317 -0.3667 31.6951 3.5777
# 6 5.4450 5.8412 -5.3446 3.3158 3.5777 27.3795
#
#
#
# Elastic Compliance Matrix: (Units=1/GPa)
#
#
# Indices 1 2 3 4 5 6 
#
# 1 0.015135 -0.002963 -0.004550 -0.003427 -0.000409 -0.002797
# 2 -0.002963 0.010282 -0.002038 0.007699 0.003444 -0.003385
# 3 -0.004550 -0.002038 0.014613 -0.001843 -0.003259 0.004841
# 4 -0.003427 0.007699 -0.001843 0.033021 0.003368 -0.005760
# 5 -0.000409 0.003444 -0.003259 0.003368 0.033671 -0.006097
# 6 -0.002797 -0.003385 0.004841 -0.005760 -0.006097 0.040241
#
#
# Mechanical properties :
#
#
# Convention : Reuss Voigt Hill
#
# Bulk Modulus (GPa) = 47.78416 49.87947 48.83182
# Shear Modulus (GPa) = 28.89488 34.07294 31.48391
#
# Velocity S-wave (km/s) = 3.67769 3.99364 3.83892
# Velocity P-wave (km/s) = 6.35619 6.67934 6.51977
#
# Compressibility (1/GPa) = 0.02092744
#
# Stress axis : x y z
#
# Youngs Moduli (GPa) = 66.07397 97.25813 68.43224
#
# Poissons Ratio (x) = 0.28819 0.31135
# Poissons Ratio (y) = 0.19579 0.13947
# Poissons Ratio (z) = 0.30062 0.19822
#
# Static dielectric constant tensor:
#      x y z
#    x 1.738430 -0.001020 -0.012520 
#    y -0.001020 1.811800 -0.027900 
#    z -0.012520 -0.027900 1.818720 
# 
# From -- ./inp_files/403489.got.cif
#   From: 2010.05.17/outbox.cif.g08.bks.cpg/sg2_202_cif.got.tgz:403489.got - 2010.06.03 11:33:40.
