data_PCOD9098826
_publ_section_title
;
Structure prediction by ZEFSAII (Michael W. Deem and Ramdas Pophale) SiO2 
 PCOD9098826
Probable space group: P -1
;
_chemical_formula_sum "Si O2"
_cell_formula_units_Z 16
_cell_length_a 10.941268
_cell_length_b 11.604652
_cell_length_c 11.841143
_cell_angle_alpha 155.591113
_cell_angle_beta 79.960970
_cell_angle_gamma 102.926629
_cell_volume 603.940886
_symmetry_space_group_name_H-M "P -1"
_symmetry_group_IT_number 2
_symmetry_cell_setting 'triclinic'
loop_
_space_group_symop_operation_xyz
x,y,z
-x,-y,-z
loop_
_atom_site_type_symbol
_atom_site_label
_atom_site_fract_x
_atom_site_fract_y
_atom_site_fract_z
Si Si1 0.379790 0.790697 0.787382
Si Si2 0.187062 0.169825 0.059668
Si Si3 0.055779 0.230104 0.356721
Si Si4 0.211311 0.476261 0.094032
Si Si5 0.333268 0.626732 0.892849
Si Si6 0.930394 0.348290 0.062761
Si Si7 0.634671 0.964992 0.395723
Si Si8 0.497742 0.791925 0.552995
O O1 0.323028 0.611355 0.743235
O O2 0.432511 0.637528 0.536016
O O3 0.500000 0.000000 0.000000
O O4 0.286793 0.990741 0.933622
O O5 0.135258 0.318756 0.310336
O O6 0.226125 0.379471 0.136374
O O7 0.075711 0.939370 0.819364
O O8 0.042948 0.470992 0.664137
O O9 0.110651 0.979243 0.189325
O O10 0.063968 0.383453 0.009840
O O11 0.255080 0.807213 0.367942
O O12 0.313026 0.325037 0.877890
O O13 0.189713 0.557341 0.894084
O O14 0.433107 0.421020 0.719708
O O15 0.396084 0.941904 0.196583
O O16 0.500000 0.000000 0.500000
O O17 0.609673 0.071742 0.369698
#
# Coordination Sequence:
#
# PCOD9098826 Si02
#       8
#     2   2   2   2   2   2   2   2
#     4  10  21  36  56  89 130 180 209 242 290 374
#     4  10  20  37  57  89 134 170 214 253 298 366
#     4  10  22  35  55  90 129 180 210 246 297 359
#     4  11  24  41  67  97 123 162 209 270 323 372
#     4  11  23  40  60  92 133 176 208 242 297 381
#     4  11  22  39  62  91 131 170 212 254 307 369
#     4  12  26  47  72  94 121 157 212 281 335 377
#     4  11  24  41  62  89 126 171 216 257 308 371
#
# _framework density 26.492660000000001
#
# number of rings (size 3 to 8) (size 9 to 14) (size 15 to 20)
#    0.000    1.250    2.500    3.750    3.500    6.500 
#    0.000    0.000    0.000    4.500    0.000    0.000 
#    0.000    0.000    0.000    0.000    0.000    0.000 
#
# Total GULP energy -89688.306292 kJ/mol
# GULP energy per Si atom -5605.519143 kJ/mol
# Density = 2.643236 g / cm^3
# Si number density = 26.492660 Si / 1000 Ang^3
#
#
#
# Elastic Constant Matrix: (Units=GPa)
#
#
# Indices 1 2 3 4 5 6 
#
# 1 129.8387 -3.3217 4.4815 -2.3319 -14.4411 3.4103
# 2 -3.3217 66.5190 10.0844 -31.0110 -0.3023 12.4005
# 3 4.4815 10.0844 99.6669 -1.6152 -10.5244 11.5125
# 4 -2.3319 -31.0110 -1.6152 19.1335 7.1198 -13.7511
# 5 -14.4411 -0.3023 -10.5244 7.1198 34.2868 4.6249
# 6 3.4103 12.4005 11.5125 -13.7511 4.6249 42.8271
#
#
#
# Elastic Compliance Matrix: (Units=1/GPa)
#
#
# Indices 1 2 3 4 5 6 
#
# 1 0.008179 -0.002213 0.000652 -0.006621 0.005391 -0.002894
# 2 -0.002213 0.319810 -0.060079 0.704192 -0.185697 0.169884
# 3 0.000652 -0.060079 0.022353 -0.136823 0.039998 -0.036916
# 4 -0.006621 0.704192 -0.136823 1.632587 -0.432122 0.404273
# 5 0.005391 -0.185697 0.039998 -0.432122 0.146919 -0.112026
# 6 -0.002894 0.169884 -0.036916 0.404273 -0.112026 0.126217
#
#
# Mechanical properties :
#
#
# Convention : Reuss Voigt Hill
#
# Bulk Modulus (GPa) = 4.40407 35.39034 19.89720
# Shear Modulus (GPa) = 2.03663 38.23484 20.13574
#
# Velocity S-wave (km/s) = 0.87774 3.80310 2.75989
# Velocity P-wave (km/s) = 1.64110 5.71597 4.20509
#
# Compressibility (1/GPa) = 0.22706294
#
# Stress axis : x y z
#
# Youngs Moduli (GPa) = 122.25784 3.12686 44.73609
#
# Poissons Ratio (x) = 0.00692 -0.02919
# Poissons Ratio (y) = 0.27059 2.68770
# Poissons Ratio (z) = -0.07976 0.18786
#
# Static dielectric constant tensor:
#      x y z
#    x 2.060570 -0.007710 0.001730 
#    y -0.007710 2.190400 -0.063070 
#    z 0.001730 -0.063070 2.021430 
# 
# From -- ./inp_files/459576.got.cif
#   From: 2010.05.17/outbox.cif.g08.bks.cpg/sg2_230_cif.got.tgz:459576.got - 2010.06.03 11:33:40.
