data_PCOD9098770
_publ_section_title
;
Structure prediction by ZEFSAII (Michael W. Deem and Ramdas Pophale) SiO2 
 PCOD9098770
Probable space group: P -1
;
_chemical_formula_sum "Si O2"
_cell_formula_units_Z 16
_cell_length_a 11.580912
_cell_length_b 8.668933
_cell_length_c 9.904861
_cell_angle_alpha 68.732510
_cell_angle_beta 127.644183
_cell_angle_gamma 114.274669
_cell_volume 709.124986
_symmetry_space_group_name_H-M "P -1"
_symmetry_group_IT_number 2
_symmetry_cell_setting 'triclinic'
loop_
_space_group_symop_operation_xyz
x,y,z
-x,-y,-z
loop_
_atom_site_type_symbol
_atom_site_label
_atom_site_fract_x
_atom_site_fract_y
_atom_site_fract_z
Si Si1 0.991710 0.335710 0.233498
Si Si2 0.387288 0.699812 0.658152
Si Si3 0.701605 0.830364 0.748853
Si Si4 0.126723 0.397121 0.598992
Si Si5 0.296559 0.796024 0.272893
Si Si6 0.055438 0.342331 0.984468
Si Si7 0.862997 0.956111 0.309461
Si Si8 0.614268 0.919037 0.363304
O O1 0.097830 0.353189 0.433140
O O2 0.089685 0.384104 0.153247
O O3 0.887391 0.143394 0.201134
O O4 0.902426 0.484160 0.127419
O O5 0.558193 0.696337 0.753282
O O6 0.283472 0.529913 0.702597
O O7 0.322154 0.704893 0.458699
O O8 0.375350 0.877843 0.664780
O O9 0.851216 0.794890 0.927052
O O10 0.687590 0.849350 0.569895
O O11 0.682377 0.009137 0.730346
O O12 0.115325 0.206538 0.709269
O O13 0.000000 0.500000 0.500000
O O14 0.439184 0.809733 0.271676
O O15 0.123505 0.729455 0.131395
O O16 0.708349 0.908235 0.299482
O O17 0.000000 0.000000 0.500000
#
# Coordination Sequence:
#
# PCOD9098770 Si02
#       8
#     2   2   2   2   2   2   2   2
#     4  10  23  38  56  84 117 158 190 234 292 338
#     4   9  17  34  57  89 118 146 196 242 284 333
#     4   9  18  32  59  92 116 150 190 243 294 331
#     4  11  21  37  62  89 111 148 200 246 281 338
#     4   9  18  34  59  88 117 153 193 238 287 339
#     4  11  20  38  58  84 124 154 191 232 288 361
#     4  10  20  37  57  83 112 150 195 234 288 337
#     4   9  18  36  61  87 118 148 191 248 286 333
#
# _framework density 22.563018
#
# number of rings (size 3 to 8) (size 9 to 14) (size 15 to 20)
#    0.000    2.250    1.250    4.875    0.000    1.000 
#    6.750    2.500    0.000    2.250    0.000    0.000 
#    0.000    0.000    0.000    0.000    0.000    0.000 
#
# Total GULP energy -89169.543102 kJ/mol
# GULP energy per Si atom -5573.096444 kJ/mol
# Density = 2.251166 g / cm^3
# Si number density = 22.563018 Si / 1000 Ang^3
#
#
#
# Elastic Constant Matrix: (Units=GPa)
#
#
# Indices 1 2 3 4 5 6 
#
# 1 54.0056 21.6613 16.5017 -2.3076 13.4224 12.5866
# 2 21.6613 108.3206 9.0016 -14.5650 14.5591 26.2567
# 3 16.5017 9.0016 56.7581 -3.1568 15.1351 9.7166
# 4 -2.3076 -14.5650 -3.1568 29.2298 1.8664 -1.3614
# 5 13.4224 14.5591 15.1351 1.8664 26.8196 8.5918
# 6 12.5866 26.2567 9.7166 -1.3614 8.5918 20.1896
#
#
#
# Elastic Compliance Matrix: (Units=1/GPa)
#
#
# Indices 1 2 3 4 5 6 
#
# 1 0.023773 -0.001428 -0.003452 0.000814 -0.006517 -0.008475
# 2 -0.001428 0.015087 0.002442 0.007066 -0.003614 -0.017892
# 3 -0.003452 0.002442 0.022389 0.003676 -0.010175 -0.007221
# 4 0.000814 0.007066 0.003676 0.038376 -0.007114 -0.005851
# 5 -0.006517 -0.003614 -0.010175 -0.007114 0.051553 -0.008759
# 6 -0.008475 -0.017892 -0.007221 -0.005851 -0.008759 0.084891
#
#
# Mechanical properties :
#
#
# Convention : Reuss Voigt Hill
#
# Bulk Modulus (GPa) = 17.73830 34.82374 26.28102
# Shear Modulus (GPa) = 19.25044 26.70910 22.97977
#
# Velocity S-wave (km/s) = 2.92410 3.44431 3.19481
# Velocity P-wave (km/s) = 4.39081 5.59331 5.02814
#
# Compressibility (1/GPa) = 0.05637518
#
# Stress axis : x y z
#
# Youngs Moduli (GPa) = 42.06374 66.28130 44.66510
#
# Poissons Ratio (x) = 0.09462 0.15416
# Poissons Ratio (y) = 0.06005 -0.10907
# Poissons Ratio (z) = 0.14518 -0.16185
#
# Static dielectric constant tensor:
#      x y z
#    x 1.903830 -0.014570 -0.010240 
#    y -0.014570 1.935200 -0.034140 
#    z -0.010240 -0.034140 1.849430 
# 
# From -- ./inp_files/262794.got.cif
#   From: 2010.05.17/outbox.cif.g08.bks.cpg/sg2_132_cif.got.tgz:262794.got - 2010.06.03 11:33:40.
