data_PCOD9098144
_publ_section_title
;
Structure prediction by ZEFSAII (Michael W. Deem and Ramdas Pophale) SiO2 
 PCOD9098144
Probable space group: P -1
;
_chemical_formula_sum "Si O2"
_cell_formula_units_Z 16
_cell_length_a 12.013393
_cell_length_b 9.106895
_cell_length_c 9.445215
_cell_angle_alpha 82.461486
_cell_angle_beta 126.314559
_cell_angle_gamma 117.831605
_cell_volume 720.862768
_symmetry_space_group_name_H-M "P -1"
_symmetry_group_IT_number 2
_symmetry_cell_setting 'triclinic'
loop_
_space_group_symop_operation_xyz
x,y,z
-x,-y,-z
loop_
_atom_site_type_symbol
_atom_site_label
_atom_site_fract_x
_atom_site_fract_y
_atom_site_fract_z
Si Si1 0.827195 0.448260 0.953683
Si Si2 0.048349 0.629584 0.321701
Si Si3 0.127584 0.849357 0.621247
Si Si4 0.106689 0.982348 0.199817
Si Si5 0.634157 0.078349 0.967492
Si Si6 0.546148 0.878211 0.641077
Si Si7 0.175028 0.164386 0.499468
Si Si8 0.281377 0.504327 0.415374
O O1 0.694348 0.251756 0.898459
O O2 0.751724 0.521924 0.774367
O O3 0.000000 0.500000 0.000000
O O4 0.871996 0.519901 0.138632
O O5 0.107129 0.705024 0.513395
O O6 0.131309 0.517236 0.363799
O O7 0.096086 0.800831 0.244326
O O8 0.950285 0.822179 0.495145
O O9 0.236856 0.040718 0.618944
O O10 0.203638 0.861733 0.828684
O O11 0.288318 0.098506 0.288135
O O12 0.070131 0.054908 0.302997
O O13 0.000000 0.000000 0.000000
O O14 0.571402 0.934795 0.817115
O O15 0.500000 0.000000 0.000000
O O16 0.419915 0.686488 0.538429
O O17 0.500000 0.000000 0.500000
O O18 0.294611 0.350988 0.514300
#
# Coordination Sequence:
#
# PCOD9098144 Si02
#       8
#     2   2   2   2   2   2   2   2
#     4  10  20  36  63  98 130 169 232 292 330 395
#     4  10  20  36  67  93 129 174 226 278 334 411
#     4  10  22  42  60  92 140 182 216 269 363 419
#     4  11  22  40  65  95 133 174 230 280 342 401
#     4  12  25  39  65 101 141 175 223 289 354 404
#     4  12  23  43  69  97 133 186 230 282 343 413
#     4  10  23  39  64  92 133 178 222 282 344 408
#     4  11  21  39  66  98 126 170 242 285 327 398
#
# _framework density 22.195627999999999
#
# number of rings (size 3 to 8) (size 9 to 14) (size 15 to 20)
#    0.000    1.250    2.500    4.500    1.750    3.500 
#    0.000    1.875    0.000    0.000    0.000    0.000 
#    0.000    0.000    0.000    0.000    0.000    0.000 
#
# Total GULP energy -89129.640637 kJ/mol
# GULP energy per Si atom -5570.602540 kJ/mol
# Density = 2.214511 g / cm^3
# Si number density = 22.195628 Si / 1000 Ang^3
#
#
#
# Elastic Constant Matrix: (Units=GPa)
#
#
# Indices 1 2 3 4 5 6 
#
# 1 54.8049 2.5740 9.2483 2.4226 -6.4692 3.5588
# 2 2.5740 127.7299 20.1618 2.1886 -0.3998 9.2511
# 3 9.2483 20.1618 124.8971 9.3618 -12.8308 -6.8014
# 4 2.4226 2.1886 9.3618 32.8340 4.6046 -0.1154
# 5 -6.4692 -0.3998 -12.8308 4.6046 23.8846 8.1317
# 6 3.5588 9.2511 -6.8014 -0.1154 8.1317 30.7941
#
#
#
# Elastic Compliance Matrix: (Units=1/GPa)
#
#
# Indices 1 2 3 4 5 6 
#
# 1 0.019548 0.000106 -0.000845 -0.002164 0.006709 -0.004257
# 2 0.000106 0.008272 -0.001442 -0.000219 0.000433 -0.002931
# 3 -0.000845 -0.001442 0.009097 -0.003104 0.004803 0.001260
# 4 -0.002164 -0.000219 -0.003104 0.032834 -0.009344 0.002221
# 5 0.006709 0.000433 0.004803 -0.009344 0.052778 -0.013816
# 6 -0.004257 -0.002931 0.001260 0.002221 -0.013816 0.037781
#
#
# Mechanical properties :
#
#
# Convention : Reuss Voigt Hill
#
# Bulk Modulus (GPa) = 30.71741 41.26669 35.99205
# Shear Modulus (GPa) = 28.48621 35.86572 32.17597
#
# Velocity S-wave (km/s) = 3.58637 4.02418 3.81156
# Velocity P-wave (km/s) = 5.56945 6.34229 5.96839
#
# Compressibility (1/GPa) = 0.03255483
#
# Stress axis : x y z
#
# Youngs Moduli (GPa) = 51.15551 120.89184 109.93042
#
# Poissons Ratio (x) = -0.01280 0.09289
# Poissons Ratio (y) = -0.00542 0.15851
# Poissons Ratio (z) = 0.04322 0.17431
#
# Static dielectric constant tensor:
#      x y z
#    x 1.941320 0.039370 -0.052000 
#    y 0.039370 1.894860 -0.056300 
#    z -0.052000 -0.056300 1.864710 
# 
# From -- ./inp_files/243663.got.cif
#   From: 2010.05.17/outbox.cif.g08.bks.cpg/sg2_122_cif.got.tgz:243663.got - 2010.06.03 11:33:40.
