data_PCOD9098641
_publ_section_title
;
Structure prediction by ZEFSAII (Michael W. Deem and Ramdas Pophale) SiO2 
 PCOD9098641
Probable space group: P -1
;
_chemical_formula_sum "Si O2"
_cell_formula_units_Z 16
_cell_length_a 17.905218
_cell_length_b 23.096840
_cell_length_c 5.205889
_cell_angle_alpha 90.863235
_cell_angle_beta 98.911808
_cell_angle_gamma 21.870837
_cell_volume 742.285601
_symmetry_space_group_name_H-M "P -1"
_symmetry_group_IT_number 2
_symmetry_cell_setting 'triclinic'
loop_
_space_group_symop_operation_xyz
x,y,z
-x,-y,-z
loop_
_atom_site_type_symbol
_atom_site_label
_atom_site_fract_x
_atom_site_fract_y
_atom_site_fract_z
Si Si1 0.031533 0.052446 0.700374
Si Si2 0.204423 0.680065 0.091499
Si Si3 0.359068 0.116660 0.181893
Si Si4 0.518097 0.253328 0.302444
Si Si5 0.525320 0.116413 0.271232
Si Si6 0.572823 0.279485 0.841054
Si Si7 0.188305 0.121144 0.094865
Si Si8 0.654656 0.325619 0.205978
O O1 0.906756 0.195665 0.767029
O O2 0.837818 0.159989 0.451601
O O3 0.219084 0.939024 0.600193
O O4 0.174625 0.920456 0.991723
O O5 0.444886 0.487198 0.275220
O O6 0.243432 0.688944 0.852306
O O7 0.042048 0.743523 0.991169
O O8 0.339561 0.200029 0.171203
O O9 0.500000 0.000000 0.500000
O O10 0.171659 0.203062 0.082763
O O11 0.500000 0.000000 0.000000
O O12 0.441898 0.241879 0.260688
O O13 0.451177 0.334521 0.014363
O O14 0.481843 0.319150 0.534306
O O15 0.670981 0.998453 0.590783
O O16 0.678017 0.997696 0.092402
O O17 0.576277 0.344040 0.921844
#
# Coordination Sequence:
#
# PCOD9098641 Si02
#       8
#     2   2   2   2   2   2   2   2
#     4  10  20  35  56  74 102 137 182 223 266 303
#     4  11  23  36  55  75 111 144 181 221 266 322
#     4   8  16  26  47  75 106 133 160 208 261 322
#     4  10  20  34  56  79 101 138 173 221 272 306
#     4  10  16  31  52  79 107 130 172 211 267 316
#     4  10  23  37  56  76 106 139 183 225 265 309
#     4  10  18  32  49  76 107 140 167 210 271 313
#     4  11  24  38  50  78 106 148 185 222 264 313
#
# _framework density 21.555046999999998
#
# number of rings (size 3 to 8) (size 9 to 14) (size 15 to 20)
#    0.750    1.250    1.250    3.750    1.750    1.000 
#    0.000    0.000    0.000    0.000    0.000    1.750 
#    0.000    0.000    0.000    0.000    0.000    0.000 
#
# Total GULP energy -89236.862206 kJ/mol
# GULP energy per Si atom -5577.303888 kJ/mol
# Density = 2.150599 g / cm^3
# Si number density = 21.555047 Si / 1000 Ang^3
#
#
#
# Elastic Constant Matrix: (Units=GPa)
#
#
# Indices 1 2 3 4 5 6 
#
# 1 163.9563 15.8153 16.5773 10.3455 11.9411 -20.7019
# 2 15.8153 34.3956 8.0487 11.0407 1.3164 4.2686
# 3 16.5773 8.0487 108.3229 26.5514 -3.2330 -5.0374
# 4 10.3455 11.0407 26.5514 16.8367 6.0413 -0.8319
# 5 11.9411 1.3164 -3.2330 6.0413 29.2457 1.5643
# 6 -20.7019 4.2686 -5.0374 -0.8319 1.5643 21.1992
#
#
#
# Elastic Compliance Matrix: (Units=1/GPa)
#
#
# Indices 1 2 3 4 5 6 
#
# 1 0.007984 -0.004971 -0.000999 0.001805 -0.003997 0.008926
# 2 -0.004971 0.044645 0.007494 -0.042488 0.010401 -0.014498
# 3 -0.000999 0.007494 0.017914 -0.035976 0.009501 -0.000341
# 4 0.001805 -0.042488 -0.035976 0.156184 -0.035627 0.010526
# 5 -0.003997 0.010401 0.009501 -0.035627 0.044216 -0.008400
# 6 0.008926 -0.014498 -0.000341 0.010526 -0.008400 0.059759
#
#
# Mechanical properties :
#
#
# Convention : Reuss Voigt Hill
#
# Bulk Modulus (GPa) = 13.58876 43.06194 28.32535
# Shear Modulus (GPa) = 14.19710 31.20524 22.70117
#
# Velocity S-wave (km/s) = 2.56919 3.80899 3.24878
# Velocity P-wave (km/s) = 3.88830 6.27420 5.21941
#
# Compressibility (1/GPa) = 0.07359025
#
# Stress axis : x y z
#
# Youngs Moduli (GPa) = 125.25064 22.39885 55.82355
#
# Poissons Ratio (x) = 0.11135 0.05577
# Poissons Ratio (y) = 0.62267 -0.41835
# Poissons Ratio (z) = 0.12512 -0.16786
#
# Static dielectric constant tensor:
#      x y z
#    x 1.869110 0.025010 -0.001620 
#    y 0.025010 1.761620 -0.002590 
#    z -0.001620 -0.002590 1.821770 
# 
# From -- ./inp_files/112917.got.cif
#   From: 2010.05.17/outbox.cif.g08.bks.cpg/sg2_57_cif.got.tgz:112917.got - 2010.06.03 11:33:40.
