data_PCOD9098445
_publ_section_title
;
Structure prediction by ZEFSAII (Michael W. Deem and Ramdas Pophale) SiO2 
 PCOD9098445
Probable space group: P -1
;
_chemical_formula_sum "Si O2"
_cell_formula_units_Z 16
_cell_length_a 12.202821
_cell_length_b 9.957505
_cell_length_c 15.573533
_cell_angle_alpha 149.491162
_cell_angle_beta 58.328516
_cell_angle_gamma 108.773654
_cell_volume 779.410700
_symmetry_space_group_name_H-M "P -1"
_symmetry_group_IT_number 2
_symmetry_cell_setting 'triclinic'
loop_
_space_group_symop_operation_xyz
x,y,z
-x,-y,-z
loop_
_atom_site_type_symbol
_atom_site_label
_atom_site_fract_x
_atom_site_fract_y
_atom_site_fract_z
Si Si1 0.118937 0.133438 0.536976
Si Si2 0.941013 0.603911 0.987564
Si Si3 0.941497 0.921851 0.819350
Si Si4 0.360774 0.428232 0.318323
Si Si5 0.880556 0.627611 0.511088
Si Si6 0.656381 0.609941 0.162271
Si Si7 0.348434 0.827934 0.939690
Si Si8 0.643568 0.118094 0.572792
O O1 0.161449 0.203994 0.464938
O O2 0.242914 0.943278 0.435615
O O3 0.000000 0.000000 0.500000
O O4 0.044645 0.410071 0.772312
O O5 0.788930 0.585087 0.037997
O O6 0.951593 0.910301 0.138844
O O7 0.000000 0.500000 0.000000
O O8 0.920021 0.808456 0.670373
O O9 0.993061 0.647649 0.704323
O O10 0.795939 0.125432 0.019135
O O11 0.240767 0.476887 0.461370
O O12 0.510607 0.366985 0.262624
O O13 0.336677 0.669688 0.391211
O O14 0.360917 0.137031 0.113767
O O15 0.661334 0.320120 0.046268
O O16 0.509536 0.745452 0.255451
O O17 0.657221 0.827252 0.358711
#
# Coordination Sequence:
#
# PCOD9098445 Si02
#       8
#     2   2   2   2   2   2   2   2
#     4  12  27  39  59  94 131 159 203 266 313 358
#     4  12  21  38  64  91 121 165 209 254 307 370
#     4  10  20  37  66  86 121 164 212 245 305 379
#     4   9  19  34  61  83 117 160 205 241 297 375
#     4  10  23  38  60  92 125 160 201 257 315 364
#     4  10  20  36  66  92 117 161 211 253 297 380
#     4   9  17  32  57  90 110 149 209 251 285 353
#     4  10  21  40  63  93 120 158 211 253 307 367
#
# _framework density 20.52833
#
# number of rings (size 3 to 8) (size 9 to 14) (size 15 to 20)
#    0.000    1.750    2.500    1.500    7.000    0.500 
#    0.000    1.875    0.000   14.250    0.000    0.000 
#    0.000    0.000    0.000    0.000    0.000    0.000 
#
# Total GULP energy -89299.818081 kJ/mol
# GULP energy per Si atom -5581.238630 kJ/mol
# Density = 2.048161 g / cm^3
# Si number density = 20.528330 Si / 1000 Ang^3
#
#
#
# Elastic Constant Matrix: (Units=GPa)
#
#
# Indices 1 2 3 4 5 6 
#
# 1 106.1766 43.1978 32.1992 2.5918 -36.6144 4.3636
# 2 43.1978 88.1474 26.1262 11.8960 -8.3170 4.3208
# 3 32.1992 26.1262 55.6732 15.3154 -21.3313 -1.4374
# 4 2.5918 11.8960 15.3154 26.7919 8.0754 -7.2723
# 5 -36.6144 -8.3170 -21.3313 8.0754 42.0335 4.6319
# 6 4.3636 4.3208 -1.4374 -7.2723 4.6319 32.7859
#
#
#
# Elastic Compliance Matrix: (Units=1/GPa)
#
#
# Indices 1 2 3 4 5 6 
#
# 1 0.017695 -0.006278 -0.000099 -0.004873 0.015588 -0.004815
# 2 -0.006278 0.015893 -0.004426 -0.003227 -0.003770 -0.001636
# 3 -0.000099 -0.004426 0.036955 -0.028443 0.024082 -0.007494
# 4 -0.004873 -0.003227 -0.028443 0.071790 -0.035396 0.020752
# 5 0.015588 -0.003770 0.024082 -0.035396 0.057462 -0.016492
# 6 -0.004815 -0.001636 -0.007494 0.020752 -0.016492 0.037962
#
#
# Mechanical properties :
#
#
# Convention : Reuss Voigt Hill
#
# Bulk Modulus (GPa) = 20.43491 50.33817 35.38654
# Shear Modulus (GPa) = 18.13739 30.22051 24.17895
#
# Velocity S-wave (km/s) = 2.97565 3.84101 3.43568
# Velocity P-wave (km/s) = 4.66713 6.65174 5.74577
#
# Compressibility (1/GPa) = 0.04893587
#
# Stress axis : x y z
#
# Youngs Moduli (GPa) = 56.51447 62.92058 27.06027
#
# Poissons Ratio (x) = 0.39499 0.00268
# Poissons Ratio (y) = 0.35478 0.11978
# Poissons Ratio (z) = 0.00561 0.27851
#
# Static dielectric constant tensor:
#      x y z
#    x 1.775710 0.030950 -0.014520 
#    y 0.030950 1.698010 -0.002350 
#    z -0.014520 -0.002350 1.787400 
# 
# From -- ./inp_files/516372.got.cif
#   From: 2010.05.17/outbox.cif.g08.bks.cpg/sg2_259_cif.got.tgz:516372.got - 2010.06.03 11:33:40.
