data_PCOD9098988
_publ_section_title
;
Structure prediction by ZEFSAII (Michael W. Deem and Ramdas Pophale) SiO2 
 PCOD9098988
Probable space group: P -1
;
_chemical_formula_sum "Si O2"
_cell_formula_units_Z 16
_cell_length_a 10.398636
_cell_length_b 19.805326
_cell_length_c 6.801085
_cell_angle_alpha 55.791527
_cell_angle_beta 107.219106
_cell_angle_gamma 137.442420
_cell_volume 765.768503
_symmetry_space_group_name_H-M "P -1"
_symmetry_group_IT_number 2
_symmetry_cell_setting 'triclinic'
loop_
_space_group_symop_operation_xyz
x,y,z
-x,-y,-z
loop_
_atom_site_type_symbol
_atom_site_label
_atom_site_fract_x
_atom_site_fract_y
_atom_site_fract_z
Si Si1 0.849254 0.997247 0.354480
Si Si2 0.320455 0.645412 0.885475
Si Si3 0.121723 0.748196 0.114112
Si Si4 0.515244 0.195640 0.953440
Si Si5 0.395969 0.255120 0.463633
Si Si6 0.993836 0.806185 0.630887
Si Si7 0.023116 0.452482 0.392779
Si Si8 0.193824 0.921025 0.142050
O O1 0.845039 0.064837 0.403598
O O2 0.664241 0.862695 0.442264
O O3 0.927867 0.071120 0.067012
O O4 0.000000 0.000000 0.500000
O O5 0.447150 0.647705 0.785434
O O6 0.167134 0.621691 0.709912
O O7 0.458982 0.766908 0.871262
O O8 0.197606 0.548815 0.163123
O O9 0.279912 0.752514 0.106258
O O10 0.973886 0.636745 0.372080
O O11 0.238591 0.868040 0.096008
O O12 0.004764 0.734337 0.899039
O O13 0.467728 0.258211 0.706625
O O14 0.361704 0.054725 0.078876
O O15 0.210347 0.234097 0.408269
O O16 0.072656 0.828701 0.412678
O O17 0.000000 0.500000 0.500000
#
# Coordination Sequence:
#
# PCOD9098988 Si02
#       8
#     2   2   2   2   2   2   2   2
#     4   8  17  33  53  82 122 164 205 238 277 353
#     4  11  22  38  69  91 114 157 208 258 307 347
#     4  11  23  40  59  91 125 161 201 256 300 361
#     4  11  22  38  63  93 125 157 210 249 291 364
#     4  10  20  37  58  90 123 158 206 251 290 358
#     4  10  22  36  57  86 130 167 199 239 303 364
#     4  11  23  43  65  91 117 151 210 261 306 358
#     4  10  22  36  58  91 131 169 192 242 309 358
#
# _framework density 20.894044000000001
#
# number of rings (size 3 to 8) (size 9 to 14) (size 15 to 20)
#    0.000    1.750    2.500    1.125    1.750    8.000 
#    0.000    0.625    0.000    3.750    0.000    0.000 
#    0.000    0.000    0.000    0.000    0.000    0.000 
#
# Total GULP energy -89072.895887 kJ/mol
# GULP energy per Si atom -5567.055993 kJ/mol
# Density = 2.084649 g / cm^3
# Si number density = 20.894044 Si / 1000 Ang^3
#
#
#
# Elastic Constant Matrix: (Units=GPa)
#
#
# Indices 1 2 3 4 5 6 
#
# 1 55.3169 14.3008 53.3964 5.8941 1.3568 16.3401
# 2 14.3008 55.8202 36.6165 22.3021 6.4395 -1.4382
# 3 53.3964 36.6165 179.7290 11.2560 4.1100 4.8891
# 4 5.8941 22.3021 11.2560 32.7887 -2.0736 -0.3370
# 5 1.3568 6.4395 4.1100 -2.0736 32.7520 1.4494
# 6 16.3401 -1.4382 4.8891 -0.3370 1.4494 14.8695
#
#
#
# Elastic Compliance Matrix: (Units=1/GPa)
#
#
# Indices 1 2 3 4 5 6 
#
# 1 0.042436 -0.005139 -0.010365 -0.000872 0.002444 -0.043979
# 2 -0.005139 0.030047 -0.003542 -0.018630 -0.006871 0.009966
# 3 -0.010365 -0.003542 0.009074 0.001222 -0.000295 0.008121
# 4 -0.000872 -0.018630 0.001222 0.043298 0.006326 -0.000881
# 5 0.002444 -0.006871 -0.000295 0.006326 0.032497 -0.006278
# 6 -0.043979 0.009966 0.008121 -0.000881 -0.006278 0.114466
#
#
# Mechanical properties :
#
#
# Convention : Reuss Voigt Hill
#
# Bulk Modulus (GPa) = 23.00729 55.49929 39.25329
# Shear Modulus (GPa) = 15.41305 28.51887 21.96596
#
# Velocity S-wave (km/s) = 2.71897 3.69850 3.24590
# Velocity P-wave (km/s) = 4.57082 6.69765 5.73371
#
# Compressibility (1/GPa) = 0.04346448
#
# Stress axis : x y z
#
# Youngs Moduli (GPa) = 23.56500 33.28077 110.20077
#
# Poissons Ratio (x) = 0.17103 1.14227
# Poissons Ratio (y) = 0.12110 0.39033
# Poissons Ratio (z) = 0.24426 0.11788
#
# Static dielectric constant tensor:
#      x y z
#    x 1.729330 -0.015390 0.024420 
#    y -0.015390 1.853420 -0.047890 
#    z 0.024420 -0.047890 1.650990 
# 
# From -- ./inp_files/82482.got.cif
#   From: 2010.05.17/outbox.cif.g08.bks.cpg/sg2_42_cif.got.tgz:82482.got - 2010.06.03 11:33:40.
