data_PCOD9098546
_publ_section_title
;
Structure prediction by ZEFSAII (Michael W. Deem and Ramdas Pophale) SiO2 
 PCOD9098546
Probable space group: P -1
;
_chemical_formula_sum "Si O2"
_cell_formula_units_Z 16
_cell_length_a 11.099421
_cell_length_b 9.033027
_cell_length_c 9.778467
_cell_angle_alpha 54.225364
_cell_angle_beta 113.590658
_cell_angle_gamma 95.150847
_cell_volume 715.111366
_symmetry_space_group_name_H-M "P -1"
_symmetry_group_IT_number 2
_symmetry_cell_setting 'triclinic'
loop_
_space_group_symop_operation_xyz
x,y,z
-x,-y,-z
loop_
_atom_site_type_symbol
_atom_site_label
_atom_site_fract_x
_atom_site_fract_y
_atom_site_fract_z
Si Si1 0.288336 0.392316 0.979908
Si Si2 0.951483 0.206765 0.605960
Si Si3 0.417863 0.337477 0.566101
Si Si4 0.838152 0.587940 0.788546
Si Si5 0.489711 0.966278 0.675482
Si Si6 0.241011 0.808893 0.725711
Si Si7 0.959473 0.195149 0.130273
Si Si8 0.195555 0.394382 0.639534
O O1 0.209492 0.398985 0.082397
O O2 0.408687 0.219142 0.137245
O O3 0.323336 0.596418 0.872448
O O4 0.200345 0.374228 0.816221
O O5 0.873052 0.177293 0.448125
O O6 0.861213 0.387974 0.537503
O O7 0.090814 0.273625 0.603580
O O8 0.976054 0.003841 0.796411
O O9 0.500000 0.500000 0.500000
O O10 0.291701 0.367366 0.388381
O O11 0.513250 0.145282 0.672244
O O12 0.344313 0.336793 0.678367
O O13 0.940187 0.729903 0.757554
O O14 0.912445 0.374189 0.916331
O O15 0.500000 0.000000 0.500000
O O16 0.341326 0.941492 0.662079
O O17 0.168252 0.838455 0.822187
#
# Coordination Sequence:
#
# PCOD9098546 Si02
#       8
#     2   2   2   2   2   2   2   2
#     4  10  23  42  69  93 133 174 223 263 324 390
#     4  10  20  37  65  91 128 171 212 261 325 390
#     4  12  27  42  64  95 138 173 213 278 333 375
#     4  10  22  42  63  98 131 166 219 274 320 382
#     4  12  25  42  71  95 129 176 229 268 320 395
#     4  10  21  38  67  98 128 171 222 271 319 389
#     4  10  20  36  68  95 128 170 221 266 319 389
#     4  10  24  42  62  95 134 170 215 267 330 387
#
# _framework density 22.374137999999999
#
# number of rings (size 3 to 8) (size 9 to 14) (size 15 to 20)
#    0.000    1.500    1.250    3.000    3.500    6.500 
#    0.000    1.250    0.000    0.000    0.000    0.000 
#    0.000    0.000    0.000    0.000    0.000    0.000 
#
# Total GULP energy -89435.127150 kJ/mol
# GULP energy per Si atom -5589.695447 kJ/mol
# Density = 2.232321 g / cm^3
# Si number density = 22.374138 Si / 1000 Ang^3
#
#
#
# Elastic Constant Matrix: (Units=GPa)
#
#
# Indices 1 2 3 4 5 6 
#
# 1 62.1658 19.8991 8.4052 -6.9296 -6.8287 14.3593
# 2 19.8991 123.2871 34.5213 -42.0515 4.5032 3.2527
# 3 8.4052 34.5213 78.3897 -13.7983 11.3632 -4.4372
# 4 -6.9296 -42.0515 -13.7983 34.7578 -8.4167 3.6317
# 5 -6.8287 4.5032 11.3632 -8.4167 30.6457 -3.7499
# 6 14.3593 3.2527 -4.4372 3.6317 -3.7499 34.2643
#
#
#
# Elastic Compliance Matrix: (Units=1/GPa)
#
#
# Indices 1 2 3 4 5 6 
#
# 1 0.019685 -0.001319 -0.002131 0.003639 0.005367 -0.008199
# 2 -0.001319 0.015668 -0.004249 0.018194 0.003607 -0.003018
# 3 -0.002131 -0.004249 0.015649 -0.001000 -0.005583 0.002818
# 4 0.003639 0.018194 -0.001000 0.054993 0.012654 -0.007825
# 5 0.005367 0.003607 -0.005583 0.012654 0.038792 -0.000410
# 6 -0.008199 -0.003018 0.002818 -0.007825 -0.000410 0.034057
#
#
# Mechanical properties :
#
#
# Convention : Reuss Voigt Hill
#
# Bulk Modulus (GPa) = 28.08771 43.27709 35.68240
# Shear Modulus (GPa) = 24.25867 33.33469 28.79668
#
# Velocity S-wave (km/s) = 3.29633 3.86408 3.59144
# Velocity P-wave (km/s) = 5.20276 6.26838 5.76026
#
# Compressibility (1/GPa) = 0.03560276
#
# Stress axis : x y z
#
# Youngs Moduli (GPa) = 50.79917 63.82592 63.89982
#
# Poissons Ratio (x) = 0.08419 0.13619
# Poissons Ratio (y) = 0.06701 0.27154
# Poissons Ratio (z) = 0.10827 0.27122
#
# Static dielectric constant tensor:
#      x y z
#    x 1.817700 -0.027890 0.008350 
#    y -0.027890 1.849900 -0.023920 
#    z 0.008350 -0.023920 1.835540 
# 
# From -- ./inp_files/242685.got.cif
#   From: 2010.05.17/outbox.cif.g08.bks.cpg/sg2_122_cif.got.tgz:242685.got - 2010.06.03 11:33:40.
