data_PCOD9098874
_publ_section_title
;
Structure prediction by ZEFSAII (Michael W. Deem and Ramdas Pophale) SiO2 
 PCOD9098874
Probable space group: P -1
;
_chemical_formula_sum "Si O2"
_cell_formula_units_Z 16
_cell_length_a 13.870348
_cell_length_b 14.229104
_cell_length_c 15.099243
_cell_angle_alpha 153.104514
_cell_angle_beta 33.407499
_cell_angle_gamma 134.598420
_cell_volume 731.420371
_symmetry_space_group_name_H-M "P -1"
_symmetry_group_IT_number 2
_symmetry_cell_setting 'triclinic'
loop_
_space_group_symop_operation_xyz
x,y,z
-x,-y,-z
loop_
_atom_site_type_symbol
_atom_site_label
_atom_site_fract_x
_atom_site_fract_y
_atom_site_fract_z
Si Si1 0.251987 0.494912 0.610813
Si Si2 0.673699 0.540881 0.851910
Si Si3 0.946803 0.812426 0.943452
Si Si4 0.958431 0.251661 0.651015
Si Si5 0.944817 0.135061 0.360685
Si Si6 0.535702 0.200211 0.246602
Si Si7 0.754688 0.610485 0.659306
Si Si8 0.708400 0.095071 0.834069
O O1 0.366384 0.384961 0.513062
O O2 0.314457 0.718817 0.742819
O O3 0.324341 0.371442 0.362720
O O4 0.049310 0.460300 0.746649
O O5 0.811872 0.323512 0.573998
O O6 0.639883 0.588699 0.814573
O O7 0.500000 0.500000 0.000000
O O8 0.770601 0.724514 0.973094
O O9 0.925963 0.917819 0.145392
O O10 0.100408 0.606922 0.643608
O O11 0.000000 0.000000 0.000000
O O12 0.916670 0.164540 0.512916
O O13 0.790915 0.262786 0.853568
O O14 0.122183 0.086833 0.427270
O O15 0.137483 0.198833 0.250170
O O16 0.440548 0.010087 0.190923
O O17 0.631062 0.153178 0.039218
#
# Coordination Sequence:
#
# PCOD9098874 Si02
#       8
#     2   2   2   2   2   2   2   2
#     4   9  19  34  53  76 105 142 177 213 266 318
#     4  11  23  38  55  83 118 139 177 233 276 320
#     4  11  19  38  63  79 103 151 187 220 270 326
#     4   9  19  34  54  78 106 136 177 226 258 308
#     4  10  20  38  59  81 109 147 187 221 269 329
#     4   9  18  34  53  75 109 142 171 214 269 321
#     4  10  20  37  58  82 110 145 187 225 263 329
#     4   9  18  34  53  78 107 137 176 220 263 313
#
# _framework density 21.875243999999999
#
# number of rings (size 3 to 8) (size 9 to 14) (size 15 to 20)
#    0.000    2.250    2.500    0.750    1.750    2.000 
#    2.250    0.000    0.000    0.000    0.000    0.000 
#    0.000    0.000    0.000    0.000    0.000    0.000 
#
# Total GULP energy -89230.709465 kJ/mol
# GULP energy per Si atom -5576.919342 kJ/mol
# Density = 2.182546 g / cm^3
# Si number density = 21.875244 Si / 1000 Ang^3
#
#
#
# Elastic Constant Matrix: (Units=GPa)
#
#
# Indices 1 2 3 4 5 6 
#
# 1 68.8496 45.0041 10.0655 -3.0130 14.0434 18.7249
# 2 45.0041 142.7309 41.8092 -13.5253 15.2446 18.8906
# 3 10.0655 41.8092 42.4169 1.2982 6.7726 13.2235
# 4 -3.0130 -13.5253 1.2982 43.7733 -8.4309 6.0627
# 5 14.0434 15.2446 6.7726 -8.4309 25.3576 9.7266
# 6 18.7249 18.8906 13.2235 6.0627 9.7266 33.7607
#
#
#
# Elastic Compliance Matrix: (Units=1/GPa)
#
#
# Indices 1 2 3 4 5 6 
#
# 1 0.021616 -0.006564 0.004970 -0.000783 -0.006442 -0.008266
# 2 -0.006564 0.012646 -0.011110 0.003798 0.000194 0.000178
# 3 0.004970 -0.011110 0.036935 -0.003574 -0.003542 -0.009345
# 4 -0.000783 0.003798 -0.003574 0.027471 0.011515 -0.008541
# 5 -0.006442 0.000194 -0.003542 0.011515 0.052383 -0.012308
# 6 -0.008266 0.000178 -0.009345 -0.008541 -0.012308 0.042845
#
#
# Mechanical properties :
#
#
# Convention : Reuss Voigt Hill
#
# Bulk Modulus (GPa) = 21.83914 49.75056 35.79485
# Shear Modulus (GPa) = 21.31599 31.05290 26.18445
#
# Velocity S-wave (km/s) = 3.12498 3.77177 3.46351
# Velocity P-wave (km/s) = 4.79852 6.46224 5.69150
#
# Compressibility (1/GPa) = 0.04578936
#
# Stress axis : x y z
#
# Youngs Moduli (GPa) = 46.26173 79.07923 27.07479
#
# Poissons Ratio (x) = 0.51904 -0.13455
# Poissons Ratio (y) = 0.30364 0.30079
# Poissons Ratio (z) = -0.22990 0.87854
#
# Static dielectric constant tensor:
#      x y z
#    x 1.878700 -0.013020 -0.022150 
#    y -0.013020 1.839370 0.027840 
#    z -0.022150 0.027840 1.826790 
# 
# From -- ./inp_files/299639.got.cif
#   From: 2010.05.17/outbox.cif.g08.bks.cpg/sg2_150_cif.got.tgz:299639.got - 2010.06.03 11:33:40.
