data_PCOD9098180
_publ_section_title
;
Structure prediction by ZEFSAII (Michael W. Deem and Ramdas Pophale) SiO2 
 PCOD9098180
Probable space group: P -1
;
_chemical_formula_sum "Si O2"
_cell_formula_units_Z 13
_cell_length_a 9.406527
_cell_length_b 5.307819
_cell_length_c 11.795872
_cell_angle_alpha 75.276081
_cell_angle_beta 71.541852
_cell_angle_gamma 77.925080
_cell_volume 534.957970
_symmetry_space_group_name_H-M "P -1"
_symmetry_group_IT_number 2
_symmetry_cell_setting 'triclinic'
loop_
_space_group_symop_operation_xyz
x,y,z
-x,-y,-z
loop_
_atom_site_type_symbol
_atom_site_label
_atom_site_fract_x
_atom_site_fract_y
_atom_site_fract_z
Si Si1 0.077778 0.898565 0.762182
Si Si2 0.300203 0.647002 0.562930
Si Si3 0.924700 0.239597 0.570798
Si Si4 0.418846 0.188024 0.161837
Si Si5 0.298670 0.765628 0.082353
Si Si6 0.608474 0.941111 0.347327
Si Si7 0.000000 0.000000 0.000000
O O1 0.223709 0.034920 0.750713
O O2 0.013089 0.807675 0.904106
O O3 0.967458 0.119883 0.696432
O O4 0.150273 0.679561 0.679452
O O5 0.243538 0.685233 0.444697
O O6 0.375355 0.891691 0.561807
O O7 0.391181 0.366062 0.599024
O O8 0.000000 0.500000 0.500000
O O9 0.000000 0.000000 0.500000
O O10 0.320720 0.473564 0.163208
O O11 0.329757 0.981851 0.143167
O O12 0.483402 0.077960 0.278391
O O13 0.565027 0.222094 0.044239
O O14 0.144904 0.824887 0.044853
#
# Coordination Sequence:
#
# PCOD9098180 Si02
#       7
#     2   2   2   2   2   2   1
#     4   9  21  31  54  81 120 145 181 232 286 336
#     4   9  17  30  53  82 107 141 183 239 270 318
#     4  10  16  31  50  77 116 139 185 232 290 309
#     4  10  20  38  54  78 105 151 191 232 259 336
#     4  10  22  36  56  74 111 149 191 223 276 324
#     4  10  17  32  55  81 103 138 187 229 273 318
#     4  12  22  44  52  94 116 160 174 238 286 358
#
# _framework density 24.300972999999999
#
# number of rings (size 3 to 8) (size 9 to 14) (size 15 to 20)
#    0.923    1.231    3.077    0.923    0.000    1.846 
#    2.769    0.000    0.000    0.000    0.000    6.462 
#    0.000    0.000    0.000    0.000    0.000    0.000 
#
# Total GULP energy -72367.919401 kJ/mol
# GULP energy per Si atom -5566.763031 kJ/mol
# Density = 2.424566 g / cm^3
# Si number density = 24.300973 Si / 1000 Ang^3
#
#
#
# Elastic Constant Matrix: (Units=GPa)
#
#
# Indices 1 2 3 4 5 6 
#
# 1 170.0903 78.7475 51.0781 -31.2940 72.4768 -21.6970
# 2 78.7475 173.4842 45.2663 -32.5883 29.8093 -5.2773
# 3 51.0781 45.2663 94.6642 -2.8904 48.1566 -4.0721
# 4 -31.2940 -32.5883 -2.8904 32.6731 -8.8935 8.6253
# 5 72.4768 29.8093 48.1566 -8.8935 55.0206 -2.4854
# 6 -21.6970 -5.2773 -4.0721 8.6253 -2.4854 40.7808
#
#
#
# Elastic Compliance Matrix: (Units=1/GPa)
#
#
# Indices 1 2 3 4 5 6 
#
# 1 0.020326 -0.004697 0.006273 0.005492 -0.028474 0.007936
# 2 -0.004697 0.009327 -0.005260 0.006928 0.006729 -0.002873
# 3 0.006273 -0.005260 0.023121 -0.005561 -0.026344 0.004536
# 4 0.005492 0.006928 -0.005561 0.044071 0.000731 -0.006013
# 5 -0.028474 0.006729 -0.026344 0.000731 0.074647 -0.012514
# 6 0.007936 -0.002873 0.004536 -0.006013 -0.012514 0.029334
#
#
# Mechanical properties :
#
#
# Convention : Reuss Voigt Hill
#
# Bulk Modulus (GPa) = 22.02446 87.60251 54.81348
# Shear Modulus (GPa) = 22.38834 43.23802 32.81318
#
# Velocity S-wave (km/s) = 3.03858 4.22272 3.67861
# Velocity P-wave (km/s) = 4.62531 7.73966 6.37557
#
# Compressibility (1/GPa) = 0.04540407
#
# Stress axis : x y z
#
# Youngs Moduli (GPa) = 49.19813 107.21771 43.25080
#
# Poissons Ratio (x) = 0.50364 -0.27131
# Poissons Ratio (y) = 0.23110 0.22751
# Poissons Ratio (z) = -0.30861 0.56400
#
# Static dielectric constant tensor:
#      x y z
#    x 2.015340 -0.007720 -0.162060 
#    y -0.007720 1.809420 0.011570 
#    z -0.162060 0.011570 2.088710 
# 
# From -- ./inp_files/372340.got.cif
#   From: 2010.05.17/outbox.cif.g08.bks.cpg/sg2_187_cif.got.tgz:372340.got - 2010.06.03 11:33:40.
