data_PCOD9098954
_publ_section_title
;
Structure prediction by ZEFSAII (Michael W. Deem and Ramdas Pophale) SiO2 
 PCOD9098954
Probable space group: P -1
;
_chemical_formula_sum "Si O2"
_cell_formula_units_Z 16
_cell_length_a 12.654919
_cell_length_b 16.073852
_cell_length_c 12.617727
_cell_angle_alpha 136.938982
_cell_angle_beta 127.582160
_cell_angle_gamma 23.762270
_cell_volume 689.816416
_symmetry_space_group_name_H-M "P -1"
_symmetry_group_IT_number 2
_symmetry_cell_setting 'triclinic'
loop_
_space_group_symop_operation_xyz
x,y,z
-x,-y,-z
loop_
_atom_site_type_symbol
_atom_site_label
_atom_site_fract_x
_atom_site_fract_y
_atom_site_fract_z
Si Si1 0.632458 0.065111 0.119926
Si Si2 0.818097 0.340331 0.843681
Si Si3 0.572524 0.340011 0.812003
Si Si4 0.700989 0.638921 0.224127
Si Si5 0.866478 0.885457 0.615631
Si Si6 0.129949 0.449304 0.427852
Si Si7 0.398343 0.083175 0.843507
Si Si8 0.072222 0.628125 0.285569
O O1 0.356120 0.352601 0.243750
O O2 0.680425 0.914854 0.090524
O O3 0.579542 0.053937 0.959808
O O4 0.903893 0.921475 0.172686
O O5 0.628624 0.372697 0.771833
O O6 0.863808 0.341844 0.751625
O O7 0.726264 0.530816 0.036226
O O8 0.340353 0.422531 0.758799
O O9 0.825750 0.062507 0.755495
O O10 0.500000 0.500000 0.000000
O O11 0.947304 0.532477 0.299672
O O12 0.413592 0.935560 0.332703
O O13 0.095577 0.621304 0.560875
O O14 0.910910 0.823501 0.460727
O O15 0.000000 0.500000 0.500000
O O16 0.423690 0.161464 0.329452
O O17 0.132299 0.313449 0.827829
#
# Coordination Sequence:
#
# PCOD9098954 Si02
#       8
#     2   2   2   2   2   2   2   2
#     4  10  20  37  58  87 124 161 201 244 295 371
#     4  10  20  40  66  89 116 167 208 244 299 361
#     4   8  19  41  64  82 118 164 206 254 298 353
#     4   9  20  40  62  86 123 160 202 247 301 368
#     4  10  22  39  62  90 125 160 198 252 315 357
#     4  12  22  36  59  95 127 159 199 252 308 370
#     4  10  21  36  56  87 129 160 194 242 306 362
#     4  11  22  36  62  93 124 158 199 254 310 360
#
# _framework density 23.194578
#
# number of rings (size 3 to 8) (size 9 to 14) (size 15 to 20)
#    0.750    1.250    2.500    1.500    0.000    2.500 
#    0.000    1.875    0.000    3.750    0.000    0.000 
#    0.000    0.000    0.000    0.000    0.000    0.000 
#
# Total GULP energy -89128.595411 kJ/mol
# GULP energy per Si atom -5570.537213 kJ/mol
# Density = 2.314179 g / cm^3
# Si number density = 23.194578 Si / 1000 Ang^3
#
#
#
# Elastic Constant Matrix: (Units=GPa)
#
#
# Indices 1 2 3 4 5 6 
#
# 1 83.5860 23.0840 13.7529 -3.2264 -0.8771 14.4343
# 2 23.0840 67.9442 31.6015 9.7815 -6.6453 1.5779
# 3 13.7529 31.6015 100.4780 33.4987 -7.0497 2.7612
# 4 -3.2264 9.7815 33.4987 28.4045 -2.1947 -7.6375
# 5 -0.8771 -6.6453 -7.0497 -2.1947 37.5990 0.9868
# 6 14.4343 1.5779 2.7612 -7.6375 0.9868 26.9849
#
#
#
# Elastic Compliance Matrix: (Units=1/GPa)
#
#
# Indices 1 2 3 4 5 6 
#
# 1 0.014747 -0.004678 -0.001476 0.003239 -0.000399 -0.006533
# 2 -0.004678 0.018895 -0.005037 -0.000470 0.002214 0.001699
# 3 -0.001476 -0.005037 0.020124 -0.024155 0.001645 -0.007872
# 4 0.003239 -0.000470 -0.024155 0.069662 -0.001009 0.020520
# 5 -0.000399 0.002214 0.001645 -0.001009 0.027264 -0.001367
# 6 -0.006533 0.001699 -0.007872 0.020520 -0.001367 0.047116
#
#
# Mechanical properties :
#
#
# Convention : Reuss Voigt Hill
#
# Bulk Modulus (GPa) = 31.86261 43.20943 37.53602
# Shear Modulus (GPa) = 21.67784 30.83566 26.25675
#
# Velocity S-wave (km/s) = 3.06045 3.65010 3.36820
# Velocity P-wave (km/s) = 5.12400 6.03604 5.59863
#
# Compressibility (1/GPa) = 0.03138475
#
# Stress axis : x y z
#
# Youngs Moduli (GPa) = 67.80915 52.92497 49.69290
#
# Poissons Ratio (x) = 0.24756 0.07333
# Poissons Ratio (y) = 0.31719 0.25031
# Poissons Ratio (z) = 0.10006 0.26659
#
# Static dielectric constant tensor:
#      x y z
#    x 1.943200 -0.030570 -0.009060 
#    y -0.030570 1.914470 0.006310 
#    z -0.009060 0.006310 1.883490 
# 
# From -- ./inp_files/535106.got.cif
#   From: 2010.05.17/outbox.cif.g08.bks.cpg/sg2_268_cif.got.tgz:535106.got - 2010.06.03 11:33:40.
