data_PCOD9098704
_publ_section_title
;
Structure prediction by ZEFSAII (Michael W. Deem and Ramdas Pophale) SiO2 
 PCOD9098704
Probable space group: P -1
;
_chemical_formula_sum "Si O2"
_cell_formula_units_Z 16
_cell_length_a 16.806971
_cell_length_b 15.035509
_cell_length_c 8.863446
_cell_angle_alpha 81.415646
_cell_angle_beta 61.828792
_cell_angle_gamma 29.772116
_cell_volume 787.868081
_symmetry_space_group_name_H-M "P -1"
_symmetry_group_IT_number 2
_symmetry_cell_setting 'triclinic'
loop_
_space_group_symop_operation_xyz
x,y,z
-x,-y,-z
loop_
_atom_site_type_symbol
_atom_site_label
_atom_site_fract_x
_atom_site_fract_y
_atom_site_fract_z
Si Si1 0.060735 0.573934 0.653005
Si Si2 0.556340 0.064924 0.248541
Si Si3 0.651243 0.030862 0.824713
Si Si4 0.734577 0.726532 0.054963
Si Si5 0.978650 0.029590 0.257483
Si Si6 0.028787 0.672767 0.973616
Si Si7 0.778625 0.321060 0.096784
Si Si8 0.312050 0.791043 0.264777
O O1 0.307915 0.316355 0.457097
O O2 0.067987 0.639910 0.766248
O O3 0.901363 0.768261 0.625983
O O4 0.903055 0.633968 0.828786
O O5 0.619380 0.901413 0.229964
O O6 0.592075 0.066024 0.044483
O O7 0.765262 0.919186 0.184886
O O8 0.470863 0.133975 0.877719
O O9 0.642758 0.144159 0.776767
O O10 0.882266 0.508874 0.032552
O O11 0.191981 0.882193 0.187253
O O12 0.056060 0.883974 0.107027
O O13 0.819624 0.241029 0.247725
O O14 0.852906 0.094001 0.487853
O O15 0.158139 0.632256 0.953056
O O16 0.541948 0.531647 0.169721
#
# Coordination Sequence:
#
# PCOD9098704 Si02
#       8
#     2   2   2   2   2   2   2   2
#     4  10  21  37  58  84 121 163 200 245 301 355
#     4  10  21  37  58  84 121 163 200 245 301 355
#     4  10  21  38  59  86 120 156 201 249 299 360
#     4  10  20  37  56  84 122 160 198 249 296 356
#     4  10  24  41  66  96 120 160 206 247 320 382
#     4  10  21  38  59  86 120 156 201 249 299 360
#     4  11  22  43  66  92 127 160 201 259 310 370
#     4  11  22  43  66  92 127 160 201 259 310 370
#
# _framework density 20.307970000000001
#
# number of rings (size 3 to 8) (size 9 to 14) (size 15 to 20)
#    0.000    2.000    1.250    5.250    0.000    6.000 
#    2.250    6.250    0.000    0.000    0.000    0.000 
#    0.000    0.000    0.000    0.000    0.000    0.000 
#
# Total GULP energy -89133.955283 kJ/mol
# GULP energy per Si atom -5570.872205 kJ/mol
# Density = 2.026175 g / cm^3
# Si number density = 20.307970 Si / 1000 Ang^3
#
#
#
# Elastic Constant Matrix: (Units=GPa)
#
#
# Indices 1 2 3 4 5 6 
#
# 1 90.0948 17.7180 25.3286 5.7273 -2.5939 -1.9894
# 2 17.7180 105.6031 27.3410 20.9003 -3.5146 -8.6581
# 3 25.3286 27.3410 73.5804 31.2677 -4.1321 -1.5685
# 4 5.7273 20.9003 31.2677 38.8088 -6.8400 -4.4246
# 5 -2.5939 -3.5146 -4.1321 -6.8400 14.3741 1.5089
# 6 -1.9894 -8.6581 -1.5685 -4.4246 1.5089 36.8636
#
#
#
# Elastic Compliance Matrix: (Units=1/GPa)
#
#
# Indices 1 2 3 4 5 6 
#
# 1 0.012681 -0.001359 -0.005212 0.003477 0.002062 0.000476
# 2 -0.001359 0.011155 -0.001915 -0.004076 -0.000216 0.001985
# 3 -0.005212 -0.001915 0.023470 -0.017830 -0.002963 -0.001751
# 4 0.003477 -0.004076 -0.017830 0.044922 0.015543 0.003227
# 5 0.002062 -0.000216 -0.002963 0.015543 0.076573 -0.001334
# 6 0.000476 0.001985 -0.001751 0.003227 -0.001334 0.027986
#
#
# Mechanical properties :
#
#
# Convention : Reuss Voigt Hill
#
# Bulk Modulus (GPa) = 32.96622 45.56149 39.26386
# Shear Modulus (GPa) = 22.33435 31.26869 26.80152
#
# Velocity S-wave (km/s) = 3.31989 3.92819 3.63678
# Velocity P-wave (km/s) = 5.56453 6.56188 6.08367
#
# Compressibility (1/GPa) = 0.03033408
#
# Stress axis : x y z
#
# Youngs Moduli (GPa) = 78.85994 89.64219 42.60847
#
# Poissons Ratio (x) = 0.12180 0.22207
# Poissons Ratio (y) = 0.10715 0.08160
# Poissons Ratio (z) = 0.41101 0.17168
#
# Static dielectric constant tensor:
#      x y z
#    x 1.725570 -0.059840 -0.002660 
#    y -0.059840 1.833620 -0.014410 
#    z -0.002660 -0.014410 1.709580 
# 
# From -- ./inp_files/335274.got.cif
#   From: 2010.05.17/outbox.cif.g08.bks.cpg/sg2_168_cif.got.tgz:335274.got - 2010.06.03 11:33:40.
