data_PCOD9098763
_publ_section_title
;
Structure prediction by ZEFSAII (Michael W. Deem and Ramdas Pophale) SiO2 
 PCOD9098763
Probable space group: P -1
;
_chemical_formula_sum "Si O2"
_cell_formula_units_Z 12
_cell_length_a 9.526303
_cell_length_b 8.826507
_cell_length_c 8.846822
_cell_angle_alpha 45.540046
_cell_angle_beta 120.120708
_cell_angle_gamma 120.619339
_cell_volume 443.977287
_symmetry_space_group_name_H-M "P -1"
_symmetry_group_IT_number 2
_symmetry_cell_setting 'triclinic'
loop_
_space_group_symop_operation_xyz
x,y,z
-x,-y,-z
loop_
_atom_site_type_symbol
_atom_site_label
_atom_site_fract_x
_atom_site_fract_y
_atom_site_fract_z
Si Si1 0.641938 0.447093 0.007085
Si Si2 0.240324 0.780963 0.375331
Si Si3 0.863398 0.684473 0.182842
Si Si4 0.360401 0.776640 0.120025
Si Si5 0.241170 0.975164 0.525906
Si Si6 0.150223 0.061704 0.719772
O O1 0.800880 0.638828 0.010323
O O2 0.679310 0.216257 0.233238
O O3 0.500000 0.500000 0.000000
O O4 0.608916 0.417824 0.831977
O O5 0.187256 0.558389 0.600217
O O6 0.349206 0.751859 0.311364
O O7 0.311462 0.983099 0.386623
O O8 0.059596 0.795524 0.208456
O O9 0.785862 0.813703 0.176494
O O10 0.500000 0.000000 0.000000
O O11 0.182754 0.823666 0.936292
O O12 0.038055 0.914076 0.427898
O O13 0.248274 0.133808 0.563888
#
# Coordination Sequence:
#
# PCOD9098763 Si02
#       6
#     2   2   2   2   2   2
#     4  10  20  37  57  82 117 151 188 235 285 336
#     4   9  19  37  60  85 114 149 188 233 282 336
#     4   9  18  36  60  85 114 146 187 234 283 338
#     4  11  23  38  57  85 119 151 189 234 282 337
#     4   8  17  34  58  83 112 148 188 229 277 339
#     4   9  17  35  60  85 113 147 187 232 280 334
#
# _framework density 27.028410999999998
#
# number of rings (size 3 to 8) (size 9 to 14) (size 15 to 20)
#    0.000    2.667    0.000    2.000    0.000    3.333 
#    0.000   18.333    0.000    0.000    0.000    0.000 
#    0.000    0.000    0.000    0.000    0.000    0.000 
#
# Total GULP energy -66897.650457 kJ/mol
# GULP energy per Si atom -5574.804205 kJ/mol
# Density = 2.696689 g / cm^3
# Si number density = 27.028411 Si / 1000 Ang^3
#
#
#
# Elastic Constant Matrix: (Units=GPa)
#
#
# Indices 1 2 3 4 5 6 
#
# 1 166.5217 68.2177 36.0755 24.3022 -11.4540 -38.5728
# 2 68.2177 135.0263 17.6862 50.2712 -44.9979 -60.1369
# 3 36.0755 17.6862 80.3760 -11.6792 -12.6032 -6.8667
# 4 24.3022 50.2712 -11.6792 46.9713 -25.7537 -16.4453
# 5 -11.4540 -44.9979 -12.6032 -25.7537 60.1854 22.0234
# 6 -38.5728 -60.1369 -6.8667 -16.4453 22.0234 63.1514
#
#
#
# Elastic Compliance Matrix: (Units=1/GPa)
#
#
# Indices 1 2 3 4 5 6 
#
# 1 0.009006 -0.002203 -0.004570 -0.004522 -0.003963 0.003110
# 2 -0.002203 0.023786 -0.005305 -0.018951 0.002711 0.014847
# 3 -0.004570 -0.005305 0.018577 0.015008 0.007080 -0.004384
# 4 -0.004522 -0.018951 0.015008 0.051653 0.014112 -0.010647
# 5 -0.003963 0.002711 0.007080 0.014112 0.027194 -0.004878
# 6 0.003110 0.014847 -0.004384 -0.010647 -0.004878 0.030325
#
#
# Mechanical properties :
#
#
# Convention : Reuss Voigt Hill
#
# Bulk Modulus (GPa) = 36.75027 69.54252 53.14639
# Shear Modulus (GPa) = 25.80415 51.39126 38.59771
#
# Velocity S-wave (km/s) = 3.09318 4.36521 3.78304
# Velocity P-wave (km/s) = 5.13648 7.15486 6.22798
#
# Compressibility (1/GPa) = 0.02721069
#
# Stress axis : x y z
#
# Youngs Moduli (GPa) = 111.04159 42.04233 53.83140
#
# Poissons Ratio (x) = 0.09264 0.24601
# Poissons Ratio (y) = 0.24467 0.28558
# Poissons Ratio (z) = 0.50746 0.22304
#
# Static dielectric constant tensor:
#      x y z
#    x 2.136190 0.000880 0.009670 
#    y 0.000880 2.176180 0.064680 
#    z 0.009670 0.064680 2.297370 
# 
# From -- ./inp_files/153294.got.cif
#   From: 2010.05.17/outbox.cif.g08.bks.cpg/sg2_77_cif.got.tgz:153294.got - 2010.06.03 11:33:40.
