data_PCOD9098210
_publ_section_title
;
Structure prediction by ZEFSAII (Michael W. Deem and Ramdas Pophale) SiO2 
 PCOD9098210
Probable space group: P -1
;
_chemical_formula_sum "Si O2"
_cell_formula_units_Z 15
_cell_length_a 9.569579
_cell_length_b 13.314959
_cell_length_c 11.203372
_cell_angle_alpha 69.051465
_cell_angle_beta 134.086947
_cell_angle_gamma 75.420124
_cell_volume 637.610653
_symmetry_space_group_name_H-M "P -1"
_symmetry_group_IT_number 2
_symmetry_cell_setting 'triclinic'
loop_
_space_group_symop_operation_xyz
x,y,z
-x,-y,-z
loop_
_atom_site_type_symbol
_atom_site_label
_atom_site_fract_x
_atom_site_fract_y
_atom_site_fract_z
Si Si1 0.317457 0.814862 0.488844
Si Si2 0.187373 0.079210 0.749783
Si Si3 0.033129 0.551212 0.314577
Si Si4 0.791705 0.441767 0.318492
Si Si5 0.726313 0.440826 0.920430
Si Si6 0.564870 0.093392 0.250138
Si Si7 0.401360 0.122100 0.495435
Si Si8 0.500000 0.500000 0.500000
O O1 0.565628 0.622760 0.739847
O O2 0.319189 0.888053 0.576712
O O3 0.393858 0.858917 0.404901
O O4 0.002770 0.887706 0.267446
O O5 0.974398 0.257430 0.493538
O O6 0.260208 0.960023 0.744775
O O7 0.500000 0.000000 0.000000
O O8 0.900875 0.485781 0.271358
O O9 0.121274 0.548550 0.502538
O O10 0.295185 0.475895 0.416054
O O11 0.766949 0.736609 0.039230
O O12 0.450796 0.552657 0.085251
O O13 0.656144 0.420841 0.757323
O O14 0.069888 0.296676 0.205217
O O15 0.577410 0.961437 0.341620
O O16 0.500000 0.000000 0.500000
#
# Coordination Sequence:
#
# PCOD9098210 Si02
#       8
#     2   2   2   2   2   2   2   1
#     4  10  23  41  63  92 126 169 207 260 313 376
#     4  11  22  42  63  93 127 165 212 267 311 372
#     4  10  20  39  59  91 120 165 209 255 311 377
#     4   9  21  39  62  87 125 164 209 260 310 367
#     4  10  21  40  65  89 128 162 215 257 310 374
#     4  11  23  40  65  89 130 164 213 257 323 369
#     4  10  22  41  61  95 130 165 207 259 319 373
#     4  10  20  36  64  90 120 162 208 260 306 364
#
# _framework density 23.52533
#
# number of rings (size 3 to 8) (size 9 to 14) (size 15 to 20)
#    0.000    1.867    1.333    2.400    0.000    5.333 
#    7.200    3.333    0.000    0.000    0.000    0.000 
#    0.000    0.000    0.000    0.000    0.000    0.000 
#
# Total GULP energy -83563.425113 kJ/mol
# GULP energy per Si atom -5570.895008 kJ/mol
# Density = 2.347179 g / cm^3
# Si number density = 23.525330 Si / 1000 Ang^3
#
#
#
# Elastic Constant Matrix: (Units=GPa)
#
#
# Indices 1 2 3 4 5 6 
#
# 1 140.0043 3.2648 50.6293 5.0208 28.4836 28.0131
# 2 3.2648 41.0474 9.0822 -2.7859 17.3033 -1.4555
# 3 50.6293 9.0822 80.1858 -1.8901 21.0690 12.1102
# 4 5.0208 -2.7859 -1.8901 14.0996 -1.4786 -1.8677
# 5 28.4836 17.3033 21.0690 -1.4786 31.1406 5.5326
# 6 28.0131 -1.4555 12.1102 -1.8677 5.5326 36.6277
#
#
#
# Elastic Compliance Matrix: (Units=1/GPa)
#
#
# Indices 1 2 3 4 5 6 
#
# 1 0.012126 0.003112 -0.004896 -0.006132 -0.008637 -0.006540
# 2 0.003112 0.033609 -0.000414 0.003554 -0.021520 0.002524
# 3 -0.004896 -0.000414 0.017636 0.003182 -0.006913 -0.000896
# 4 -0.006132 0.003554 0.003182 0.075571 0.003815 0.007056
# 5 -0.008637 -0.021520 -0.006913 0.003815 0.056894 -0.000363
# 6 -0.006540 0.002524 -0.000896 0.007056 -0.000363 0.033115
#
#
# Mechanical properties :
#
#
# Convention : Reuss Voigt Hill
#
# Bulk Modulus (GPa) = 16.95675 43.02111 29.98893
# Shear Modulus (GPa) = 19.76229 29.59099 24.67664
#
# Velocity S-wave (km/s) = 2.90149 3.55045 3.24225
# Velocity P-wave (km/s) = 4.29516 5.92743 5.17604
#
# Compressibility (1/GPa) = 0.05897357
#
# Stress axis : x y z
#
# Youngs Moduli (GPa) = 82.46430 29.75411 56.70092
#
# Poissons Ratio (x) = -0.09259 0.27763
# Poissons Ratio (y) = -0.25662 0.02350
# Poissons Ratio (z) = 0.40378 0.01233
#
# Static dielectric constant tensor:
#      x y z
#    x 1.970630 0.022620 0.030290 
#    y 0.022620 1.938580 0.035280 
#    z 0.030290 0.035280 1.830470 
# 
# From -- ./inp_files/174204.got.cif
#   From: 2010.05.17/outbox.cif.g08.bks.cpg/sg2_88_cif.got.tgz:174204.got - 2010.06.03 11:33:40.
