data_PCOD9098726
_publ_section_title
;
Structure prediction by ZEFSAII (Michael W. Deem and Ramdas Pophale) SiO2 
 PCOD9098726
Probable space group: P -1
;
_chemical_formula_sum "Si O2"
_cell_formula_units_Z 16
_cell_length_a 20.728148
_cell_length_b 14.659533
_cell_length_c 8.737939
_cell_angle_alpha 56.577468
_cell_angle_beta 57.724258
_cell_angle_gamma 19.926228
_cell_volume 754.040203
_symmetry_space_group_name_H-M "P -1"
_symmetry_group_IT_number 2
_symmetry_cell_setting 'triclinic'
loop_
_space_group_symop_operation_xyz
x,y,z
-x,-y,-z
loop_
_atom_site_type_symbol
_atom_site_label
_atom_site_fract_x
_atom_site_fract_y
_atom_site_fract_z
Si Si1 0.950480 0.471211 0.469385
Si Si2 0.657830 0.131963 0.587319
Si Si3 0.280073 0.618904 0.167913
Si Si4 0.352132 0.394389 0.574222
Si Si5 0.236586 0.476990 0.149024
Si Si6 0.386516 0.106770 0.694019
Si Si7 0.407600 0.549181 0.767603
Si Si8 0.899446 0.207833 0.227036
O O1 0.856949 0.501095 0.667141
O O2 0.799317 0.704454 0.315808
O O3 0.000000 0.500000 0.500000
O O4 0.130720 0.183819 0.420791
O O5 0.520757 0.212345 0.638425
O O6 0.595800 0.254509 0.720533
O O7 0.610563 0.299173 0.386224
O O8 0.388045 0.406732 0.355089
O O9 0.183072 0.652895 0.154584
O O10 0.394772 0.538700 0.972702
O O11 0.116331 0.901656 0.196312
O O12 0.338854 0.282154 0.677909
O O13 0.160139 0.694547 0.613330
O O14 0.464022 0.163091 0.155131
O O15 0.164461 0.598874 0.960224
O O16 0.500000 0.000000 0.500000
O O17 0.233942 0.714232 0.746505
#
# Coordination Sequence:
#
# PCOD9098726 Si02
#       8
#     2   2   2   2   2   2   2   2
#     4  11  21  35  65  86 117 153 196 237 299 356
#     4  10  20  37  56  89 121 159 189 236 295 353
#     4  11  19  36  62  88 117 155 197 243 287 347
#     4  11  22  36  61  88 122 150 196 246 289 350
#     4  10  20  38  64  85 117 152 201 243 284 351
#     4  10  20  38  59  89 109 156 194 244 289 337
#     4   9  20  35  58  83 120 158 193 233 291 346
#     4  10  21  36  60  93 113 155 199 242 294 342
#
# _framework density 21.219028000000002
#
# number of rings (size 3 to 8) (size 9 to 14) (size 15 to 20)
#    0.000    1.750    2.500    4.875    0.000    1.000 
#    2.250    1.250    0.000    7.500    0.000    0.000 
#    0.000    0.000    0.000    0.000    0.000    0.000 
#
# Total GULP energy -89327.266197 kJ/mol
# GULP energy per Si atom -5582.954137 kJ/mol
# Density = 2.117073 g / cm^3
# Si number density = 21.219028 Si / 1000 Ang^3
#
#
#
# Elastic Constant Matrix: (Units=GPa)
#
#
# Indices 1 2 3 4 5 6 
#
# 1 56.7769 28.8274 -2.3263 11.0455 -2.2078 13.2801
# 2 28.8274 130.6096 26.8620 8.2842 5.9555 15.1975
# 3 -2.3263 26.8620 83.1174 11.0456 5.9540 10.6833
# 4 11.0455 8.2842 11.0456 26.7017 3.2307 1.9429
# 5 -2.2078 5.9555 5.9540 3.2307 21.7616 6.1990
# 6 13.2801 15.1975 10.6833 1.9429 6.1990 22.6664
#
#
#
# Elastic Compliance Matrix: (Units=1/GPa)
#
#
# Indices 1 2 3 4 5 6 
#
# 1 0.026688 -0.004740 0.005294 -0.011649 0.008959 -0.016405
# 2 -0.004740 0.009564 -0.002935 0.000564 -0.001869 -0.001789
# 3 0.005294 -0.002935 0.015017 -0.006985 0.000474 -0.007743
# 4 -0.011649 0.000564 -0.006985 0.045418 -0.008495 0.008170
# 5 0.008959 -0.001869 0.000474 -0.008495 0.053681 -0.018172
# 6 -0.016405 -0.001789 -0.007743 0.008170 -0.018172 0.062849
#
#
# Mechanical properties :
#
#
# Convention : Reuss Voigt Hill
#
# Bulk Modulus (GPa) = 21.50181 41.91446 31.70814
# Shear Modulus (GPa) = 21.41507 28.70199 25.05853
#
# Velocity S-wave (km/s) = 3.18030 3.68183 3.44022
# Velocity P-wave (km/s) = 4.86220 6.15391 5.54579
#
# Compressibility (1/GPa) = 0.04650771
#
# Stress axis : x y z
#
# Youngs Moduli (GPa) = 37.46984 104.56118 66.58989
#
# Poissons Ratio (x) = 0.49561 -0.35251
# Poissons Ratio (y) = 0.17761 0.19541
# Poissons Ratio (z) = -0.19836 0.30684
#
# Static dielectric constant tensor:
#      x y z
#    x 1.773570 -0.004590 0.010620 
#    y -0.004590 1.796010 0.000630 
#    z 0.010620 0.000630 1.797350 
# 
# From -- ./inp_files/347172.got.cif
#   From: 2010.05.17/outbox.cif.g08.bks.cpg/sg2_174_cif.got.tgz:347172.got - 2010.06.03 11:33:40.
