data_PCOD9098638
_publ_section_title
;
Structure prediction by ZEFSAII (Michael W. Deem and Ramdas Pophale) SiO2 
 PCOD9098638
Probable space group: P -1
;
_chemical_formula_sum "Si O2"
_cell_formula_units_Z 14
_cell_length_a 8.121137
_cell_length_b 21.196427
_cell_length_c 9.399743
_cell_angle_alpha 52.218751
_cell_angle_beta 31.554733
_cell_angle_gamma 47.049181
_cell_volume 617.601517
_symmetry_space_group_name_H-M "P -1"
_symmetry_group_IT_number 2
_symmetry_cell_setting 'triclinic'
loop_
_space_group_symop_operation_xyz
x,y,z
-x,-y,-z
loop_
_atom_site_type_symbol
_atom_site_label
_atom_site_fract_x
_atom_site_fract_y
_atom_site_fract_z
Si Si1 0.578039 0.713885 0.936230
Si Si2 0.129622 0.499445 0.248894
Si Si3 0.605590 0.154871 0.870212
Si Si4 0.915608 0.683539 0.134370
Si Si5 0.760065 0.403389 0.488550
Si Si6 0.485695 0.745655 0.626264
Si Si7 0.034848 0.088977 0.386206
O O1 0.397588 0.803515 0.032133
O O2 0.527624 0.744280 0.766144
O O3 0.994580 0.665023 0.713090
O O4 0.416847 0.646540 0.211728
O O5 0.000000 0.500000 0.500000
O O6 0.907149 0.593279 0.219774
O O7 0.053726 0.427509 0.318466
O O8 0.500000 0.500000 0.000000
O O9 0.406862 0.090616 0.092364
O O10 0.365249 0.240345 0.845996
O O11 0.940075 0.115299 0.584223
O O12 0.825427 0.707718 0.333253
O O13 0.281612 0.684092 0.831206
O O14 0.500000 0.500000 0.500000
O O15 0.235897 0.837650 0.617199
O O16 0.000000 0.000000 0.500000
#
# Coordination Sequence:
#
# PCOD9098638 Si02
#       7
#     2   2   2   2   2   2   2
#     4  12  23  41  60  89 125 162 211 256 307 375
#     4  12  23  36  56  83 115 158 210 262 303 344
#     4  10  22  38  62  86 116 158 195 242 305 372
#     4  10  20  37  55  79 113 156 205 244 295 363
#     4  12  26  40  59  88 127 171 212 267 317 353
#     4  10  21  37  61  85 116 158 195 247 305 357
#     4  10  21  41  65  92 119 151 196 246 304 376
#
# _framework density 22.668337999999999
#
# number of rings (size 3 to 8) (size 9 to 14) (size 15 to 20)
#    0.000    1.143    0.000    7.714    0.000    3.429 
#    0.000    1.429    0.000    0.000    0.000    0.000 
#    0.000    0.000    0.000    0.000    0.000    0.000 
#
# Total GULP energy -78173.886180 kJ/mol
# GULP energy per Si atom -5583.849013 kJ/mol
# Density = 2.261674 g / cm^3
# Si number density = 22.668338 Si / 1000 Ang^3
#
#
#
# Elastic Constant Matrix: (Units=GPa)
#
#
# Indices 1 2 3 4 5 6 
#
# 1 60.3403 13.9640 14.5097 -2.7613 13.9607 9.6584
# 2 13.9640 75.9499 18.6750 -26.6328 9.5573 13.5662
# 3 14.5097 18.6750 132.0478 -2.8847 -3.4399 -4.8193
# 4 -2.7613 -26.6328 -2.8847 41.1628 3.9751 -3.6146
# 5 13.9607 9.5573 -3.4399 3.9751 34.2228 6.8494
# 6 9.6584 13.5662 -4.8193 -3.6146 6.8494 24.2628
#
#
#
# Elastic Compliance Matrix: (Units=1/GPa)
#
#
# Indices 1 2 3 4 5 6 
#
# 1 0.019969 -0.000861 -0.002453 0.000781 -0.007074 -0.005842
# 2 -0.000861 0.020834 -0.003020 0.013016 -0.005604 -0.008385
# 3 -0.002453 -0.003020 0.008423 -0.001427 0.002152 0.003518
# 4 0.000781 0.013016 -0.001427 0.033363 -0.007834 -0.000690
# 5 -0.007074 -0.005604 0.002152 -0.007834 0.035776 -0.004890
# 6 -0.005842 -0.008385 0.003518 -0.000690 -0.004890 0.050206
#
#
# Mechanical properties :
#
#
# Convention : Reuss Voigt Hill
#
# Bulk Modulus (GPa) = 27.35268 40.29284 33.82276
# Shear Modulus (GPa) = 25.84980 34.67562 30.26271
#
# Velocity S-wave (km/s) = 3.38057 3.91537 3.65776
# Velocity P-wave (km/s) = 5.22784 6.18496 5.72643
#
# Compressibility (1/GPa) = 0.03655949
#
# Stress axis : x y z
#
# Youngs Moduli (GPa) = 50.07721 47.99740 118.72431
#
# Poissons Ratio (x) = 0.04132 0.29122
# Poissons Ratio (y) = 0.04312 0.35850
# Poissons Ratio (z) = 0.12283 0.14493
#
# Static dielectric constant tensor:
#      x y z
#    x 1.932990 0.002680 0.020630 
#    y 0.002680 1.904250 0.038650 
#    z 0.020630 0.038650 1.861540 
# 
# From -- ./inp_files/223111.got.cif
#   From: 2010.05.17/outbox.cif.g08.bks.cpg/sg2_112_cif.got.tgz:223111.got - 2010.06.03 11:33:40.
