data_PCOD9098765
_publ_section_title
;
Structure prediction by ZEFSAII (Michael W. Deem and Ramdas Pophale) SiO2 
 PCOD9098765
Probable space group: P -1
;
_chemical_formula_sum "Si O2"
_cell_formula_units_Z 16
_cell_length_a 20.939955
_cell_length_b 5.346545
_cell_length_c 8.026201
_cell_angle_alpha 62.257342
_cell_angle_beta 121.730088
_cell_angle_gamma 95.341817
_cell_volume 662.540806
_symmetry_space_group_name_H-M "P -1"
_symmetry_group_IT_number 2
_symmetry_cell_setting 'triclinic'
loop_
_space_group_symop_operation_xyz
x,y,z
-x,-y,-z
loop_
_atom_site_type_symbol
_atom_site_label
_atom_site_fract_x
_atom_site_fract_y
_atom_site_fract_z
Si Si1 0.517990 0.291447 0.862412
Si Si2 0.290520 0.011622 0.990032
Si Si3 0.325012 0.630171 0.840757
Si Si4 0.024758 0.234603 0.336153
Si Si5 0.924591 0.088575 0.979091
Si Si6 0.125499 0.341181 0.717770
Si Si7 0.433717 0.822338 0.421872
Si Si8 0.831819 0.131576 0.530036
O O1 0.447884 0.555235 0.650311
O O2 0.548652 0.244642 0.728590
O O3 0.585038 0.371107 0.043634
O O4 0.500000 0.000000 0.000000
O O5 0.312666 0.314541 0.866184
O O6 0.199101 0.092553 0.854425
O O7 0.308458 0.736951 0.977475
O O8 0.343269 0.958452 0.244990
O O9 0.258318 0.868664 0.588917
O O10 0.059558 0.418243 0.463517
O O11 0.100905 0.124751 0.361658
O O12 0.000000 0.000000 0.500000
O O13 0.951986 0.290217 0.095329
O O14 0.855797 0.212630 0.722546
O O15 0.907832 0.796955 0.128481
O O16 0.000000 0.000000 0.000000
O O17 0.159976 0.626453 0.672623
O O18 0.500000 0.000000 0.500000
#
# Coordination Sequence:
#
# PCOD9098765 Si02
#       8
#     2   2   2   2   2   2   2   2
#     4  10  22  40  63  97 129 174 218 264 324 392
#     4  10  20  38  67  91 126 172 215 262 322 387
#     4  10  20  39  65  91 129 170 212 265 325 379
#     4   9  18  34  58  81 113 149 200 248 307 379
#     4   9  20  36  56  88 117 151 206 263 301 387
#     4  10  20  37  59  85 115 165 204 251 325 375
#     4  10  20  40  63  91 130 167 216 269 322 375
#     4  10  20  37  57  82 119 156 202 259 315 367
#
# _framework density 24.149456000000001
#
# number of rings (size 3 to 8) (size 9 to 14) (size 15 to 20)
#    0.000    2.250    2.500    0.000    0.000    5.500 
#    2.250    6.250    0.000    0.000    0.000    0.000 
#    0.000    0.000    0.000    0.000    0.000    0.000 
#
# Total GULP energy -89073.914657 kJ/mol
# GULP energy per Si atom -5567.119666 kJ/mol
# Density = 2.409449 g / cm^3
# Si number density = 24.149456 Si / 1000 Ang^3
#
#
#
# Elastic Constant Matrix: (Units=GPa)
#
#
# Indices 1 2 3 4 5 6 
#
# 1 34.6878 6.6855 45.3521 2.1544 -8.1430 4.9728
# 2 6.6855 63.3485 30.2706 14.8492 -11.0231 11.5950
# 3 45.3521 30.2706 169.9031 16.4328 20.7990 19.3395
# 4 2.1544 14.8492 16.4328 48.9419 12.4061 3.6529
# 5 -8.1430 -11.0231 20.7990 12.4061 44.7492 -1.2260
# 6 4.9728 11.5950 19.3395 3.6529 -1.2260 30.5203
#
#
#
# Elastic Compliance Matrix: (Units=1/GPa)
#
#
# Indices 1 2 3 4 5 6 
#
# 1 0.058188 0.007901 -0.019462 -0.004301 0.022808 0.001280
# 2 0.007901 0.022747 -0.006371 -0.007831 0.012051 -0.004471
# 3 -0.019462 -0.006371 0.014010 0.001456 -0.012134 -0.003948
# 4 -0.004301 -0.007831 0.001456 0.025194 -0.010392 -0.000679
# 5 0.022808 0.012051 -0.012134 -0.010392 0.038046 0.002167
# 6 0.001280 -0.004471 -0.003948 -0.000679 0.002167 0.036925
#
#
# Mechanical properties :
#
#
# Convention : Reuss Voigt Hill
#
# Bulk Modulus (GPa) = 16.92538 48.06177 32.49358
# Shear Modulus (GPa) = 19.94689 37.21770 28.58230
#
# Velocity S-wave (km/s) = 2.87710 3.92999 3.44402
# Velocity P-wave (km/s) = 4.24979 6.36696 5.41290
#
# Compressibility (1/GPa) = 0.05908287
#
# Stress axis : x y z
#
# Youngs Moduli (GPa) = 17.18556 43.96197 71.37989
#
# Poissons Ratio (x) = -0.34736 1.38917
# Poissons Ratio (y) = -0.13579 0.45474
# Poissons Ratio (z) = 0.33446 0.28007
#
# Static dielectric constant tensor:
#      x y z
#    x 2.016530 -0.050490 0.065940 
#    y -0.050490 2.051500 0.002180 
#    z 0.065940 0.002180 1.998370 
# 
# From -- ./inp_files/104525.got.cif
#   From: 2010.05.17/outbox.cif.g08.bks.cpg/sg2_53_cif.got.tgz:104525.got - 2010.06.03 11:33:40.
