data_PCOD9098164
_publ_section_title
;
Structure prediction by ZEFSAII (Michael W. Deem and Ramdas Pophale) SiO2 
 PCOD9098164
Probable space group: P -1
;
_chemical_formula_sum "Si O2"
_cell_formula_units_Z 16
_cell_length_a 21.196252
_cell_length_b 24.302495
_cell_length_c 5.770405
_cell_angle_alpha 67.385656
_cell_angle_beta 57.142849
_cell_angle_gamma 19.787471
_cell_volume 757.816261
_symmetry_space_group_name_H-M "P -1"
_symmetry_group_IT_number 2
_symmetry_cell_setting 'triclinic'
loop_
_space_group_symop_operation_xyz
x,y,z
-x,-y,-z
loop_
_atom_site_type_symbol
_atom_site_label
_atom_site_fract_x
_atom_site_fract_y
_atom_site_fract_z
Si Si1 0.909426 0.866110 0.430566
Si Si2 0.607008 0.060795 0.111866
Si Si3 0.046648 0.275044 0.714581
Si Si4 0.402807 0.098101 0.283553
Si Si5 0.398279 0.408477 0.612579
Si Si6 0.259038 0.825518 0.317019
Si Si7 0.596172 0.488929 0.919321
Si Si8 0.449609 0.795539 0.711808
O O1 0.940245 0.772280 0.471741
O O2 0.735668 0.028572 0.345669
O O3 0.155424 0.709227 0.152288
O O4 0.793599 0.957780 0.761107
O O5 0.766212 0.900690 0.218546
O O6 0.455165 0.224610 0.276468
O O7 0.460523 0.124873 0.144506
O O8 0.142159 0.270056 0.518478
O O9 0.796369 0.454661 0.028726
O O10 0.500000 0.000000 0.500000
O O11 0.500000 0.000000 0.000000
O O12 0.648968 0.228213 0.521518
O O13 0.576269 0.350384 0.820459
O O14 0.388048 0.359844 0.539898
O O15 0.639695 0.503524 0.602247
O O16 0.000000 0.000000 0.500000
O O17 0.324871 0.835359 0.028308
O O18 0.500000 0.500000 0.000000
#
# Coordination Sequence:
#
# PCOD9098164 Si02
#       8
#     2   2   2   2   2   2   2   2
#     4  11  20  39  64  91 124 162 215 265 319 385
#     4  10  20  38  63  96 127 164 216 262 329 386
#     4  10  20  37  64  95 124 170 211 269 324 392
#     4  10  20  36  64 104 137 168 217 283 335 397
#     4  11  23  44  61  89 130 173 210 262 334 394
#     4  11  26  43  60  87 125 171 213 262 328 394
#     4  11  26  38  64  96 122 160 216 276 323 383
#     4  10  25  39  63  87 127 173 214 258 328 395
#
# _framework density 21.113295999999998
#
# number of rings (size 3 to 8) (size 9 to 14) (size 15 to 20)
#    0.000    1.500    3.750    0.750    5.250    1.500 
#    0.000    0.625    0.000    3.000    0.000    0.000 
#    0.000    0.000    0.000    0.000    0.000    0.000 
#
# Total GULP energy -89211.912677 kJ/mol
# GULP energy per Si atom -5575.744542 kJ/mol
# Density = 2.106524 g / cm^3
# Si number density = 21.113296 Si / 1000 Ang^3
#
#
#
# Elastic Constant Matrix: (Units=GPa)
#
#
# Indices 1 2 3 4 5 6 
#
# 1 145.4744 12.5639 25.9988 24.6830 10.4152 17.1407
# 2 12.5639 29.9556 12.0329 6.0914 -1.4761 7.3365
# 3 25.9988 12.0329 52.9183 8.4549 17.5178 6.0457
# 4 24.6830 6.0914 8.4549 18.5250 -5.4231 3.1842
# 5 10.4152 -1.4761 17.5178 -5.4231 26.6413 6.2513
# 6 17.1407 7.3365 6.0457 3.1842 6.2513 28.8051
#
#
#
# Elastic Compliance Matrix: (Units=1/GPa)
#
#
# Indices 1 2 3 4 5 6 
#
# 1 0.010245 -0.000899 -0.000057 -0.014695 -0.006339 -0.002856
# 2 -0.000899 0.041960 -0.011750 -0.001854 0.012413 -0.010175
# 3 -0.000057 -0.011750 0.033552 -0.020248 -0.027811 0.004258
# 4 -0.014695 -0.001854 -0.020248 0.096084 0.039878 -0.005810
# 5 -0.006339 0.012413 -0.027811 0.039878 0.070203 -0.013196
# 6 -0.002856 -0.010175 0.004258 -0.005810 -0.013196 0.041619
#
#
# Mechanical properties :
#
#
# Convention : Reuss Voigt Hill
#
# Bulk Modulus (GPa) = 16.57107 36.61550 26.59329
# Shear Modulus (GPa) = 14.74102 26.64444 20.69273
#
# Velocity S-wave (km/s) = 2.64519 3.55628 3.13402
# Velocity P-wave (km/s) = 4.14669 5.85174 5.07139
#
# Compressibility (1/GPa) = 0.06034612
#
# Stress axis : x y z
#
# Youngs Moduli (GPa) = 97.60468 23.83209 29.80475
#
# Poissons Ratio (x) = 0.02143 0.00169
# Poissons Ratio (y) = 0.08778 0.35020
# Poissons Ratio (z) = 0.00552 0.28002
#
# Static dielectric constant tensor:
#      x y z
#    x 1.824480 -0.035490 0.047430 
#    y -0.035490 1.817250 -0.062140 
#    z 0.047430 -0.062140 1.791020 
# 
# From -- ./inp_files/120653.got.cif
#   From: 2010.05.17/outbox.cif.g08.bks.cpg/sg2_61_cif.got.tgz:120653.got - 2010.06.03 11:33:40.
