data_PCOD9098403
_publ_section_title
;
Structure prediction by ZEFSAII (Michael W. Deem and Ramdas Pophale) SiO2 
 PCOD9098403
Probable space group: P -1
;
_chemical_formula_sum "Si O2"
_cell_formula_units_Z 16
_cell_length_a 18.100188
_cell_length_b 19.678931
_cell_length_c 8.403683
_cell_angle_alpha 149.240232
_cell_angle_beta 39.777749
_cell_angle_gamma 151.405448
_cell_volume 731.500817
_symmetry_space_group_name_H-M "P -1"
_symmetry_group_IT_number 2
_symmetry_cell_setting 'triclinic'
loop_
_space_group_symop_operation_xyz
x,y,z
-x,-y,-z
loop_
_atom_site_type_symbol
_atom_site_label
_atom_site_fract_x
_atom_site_fract_y
_atom_site_fract_z
Si Si1 0.708134 0.106131 0.192766
Si Si2 0.365965 0.230560 0.763520
Si Si3 0.100214 0.442817 0.734591
Si Si4 0.279651 0.440317 0.150314
Si Si5 0.911052 0.056335 0.193318
Si Si6 0.655407 0.217974 0.834385
Si Si7 0.996549 0.145231 0.865534
Si Si8 0.676430 0.096024 0.889196
O O1 0.702766 0.189713 0.531083
O O2 0.531207 0.910002 0.098416
O O3 0.853439 0.118565 0.982376
O O4 0.738763 0.203709 0.168961
O O5 0.546405 0.376540 0.794522
O O6 0.266526 0.124069 0.870393
O O7 0.321318 0.061410 0.405325
O O8 0.307122 0.316931 0.943285
O O9 0.194449 0.472890 0.481108
O O10 0.977586 0.230581 0.537316
O O11 0.236578 0.570728 0.893335
O O12 0.000000 0.500000 0.000000
O O13 0.170219 0.338953 0.973696
O O14 0.959035 0.114850 0.053181
O O15 0.000000 0.000000 0.000000
O O16 0.705920 0.164897 0.796636
O O17 0.000000 0.000000 0.500000
O O18 0.500000 0.000000 0.000000
#
# Coordination Sequence:
#
# PCOD9098403 Si02
#       8
#     2   2   2   2   2   2   2   2
#     4  10  21  37  64  97 134 176 217 276 338 394
#     4  11  20  39  67  97 125 175 232 274 327 406
#     4  11  21  39  68  99 134 174 227 278 333 398
#     4  10  22  37  65  96 132 172 227 275 333 400
#     4  11  23  43  69  95 129 179 226 270 340 407
#     4  10  21  40  66  96 130 175 223 276 332 397
#     4  11  22  40  62  94 138 172 216 279 341 398
#     4  10  20  36  65  96 128 172 222 267 332 401
#
# _framework density 21.872838999999999
#
# number of rings (size 3 to 8) (size 9 to 14) (size 15 to 20)
#    0.000    1.500    2.500    5.250    0.000    1.000 
#    0.000    0.625   13.750   13.500    0.000    0.000 
#    0.000    0.000    0.000    0.000    0.000    0.000 
#
# Total GULP energy -89098.761280 kJ/mol
# GULP energy per Si atom -5568.672580 kJ/mol
# Density = 2.182306 g / cm^3
# Si number density = 21.872839 Si / 1000 Ang^3
#
#
#
# Elastic Constant Matrix: (Units=GPa)
#
#
# Indices 1 2 3 4 5 6 
#
# 1 110.6083 33.1450 40.2851 1.5273 10.4050 17.6952
# 2 33.1450 146.9632 43.5940 20.8106 2.3178 35.3083
# 3 40.2851 43.5940 112.1876 5.5835 4.9410 14.7224
# 4 1.5273 20.8106 5.5835 32.7177 5.5662 0.9610
# 5 10.4050 2.3178 4.9410 5.5662 43.7294 -2.8783
# 6 17.6952 35.3083 14.7224 0.9610 -2.8783 45.9168
#
#
#
# Elastic Compliance Matrix: (Units=1/GPa)
#
#
# Indices 1 2 3 4 5 6 
#
# 1 0.011174 -0.001068 -0.003198 0.001218 -0.002570 -0.002646
# 2 -0.001068 0.010144 -0.002432 -0.005850 0.000310 -0.006467
# 3 -0.003198 -0.002432 0.011092 -0.000118 -0.000380 -0.000475
# 4 0.001218 -0.005850 -0.000118 0.034874 -0.004203 0.003074
# 5 -0.002570 0.000310 -0.000380 -0.004203 0.024204 0.002479
# 6 -0.002646 -0.006467 -0.000475 0.003074 0.002479 0.028015
#
#
# Mechanical properties :
#
#
# Convention : Reuss Voigt Hill
#
# Bulk Modulus (GPa) = 52.59091 67.08970 59.84030
# Shear Modulus (GPa) = 35.91041 41.32179 38.61610
#
# Velocity S-wave (km/s) = 4.05629 4.35119 4.20632
# Velocity P-wave (km/s) = 6.78484 7.48218 7.14203
#
# Compressibility (1/GPa) = 0.01901469
#
# Stress axis : x y z
#
# Youngs Moduli (GPa) = 89.49502 98.58098 90.15560
#
# Poissons Ratio (x) = 0.10525 0.28828
# Poissons Ratio (y) = 0.09555 0.21927
# Poissons Ratio (z) = 0.28617 0.23977
#
# Static dielectric constant tensor:
#      x y z
#    x 1.776110 0.008190 -0.002030 
#    y 0.008190 1.889280 -0.010340 
#    z -0.002030 -0.010340 1.874860 
# 
# From -- ./inp_files/338231.got.cif
#   From: 2010.05.17/outbox.cif.g08.bks.cpg/sg2_170_cif.got.tgz:338231.got - 2010.06.03 11:33:40.
