data_PCOD9098078
_publ_section_title
;
Structure prediction by ZEFSAII (Michael W. Deem and Ramdas Pophale) SiO2 
 PCOD9098078
Probable space group: P -1
;
_chemical_formula_sum "Si O2"
_cell_formula_units_Z 14
_cell_length_a 11.310577
_cell_length_b 11.852139
_cell_length_c 7.061979
_cell_angle_alpha 72.107235
_cell_angle_beta 111.337017
_cell_angle_gamma 54.086236
_cell_volume 516.803192
_symmetry_space_group_name_H-M "P -1"
_symmetry_group_IT_number 2
_symmetry_cell_setting 'triclinic'
loop_
_space_group_symop_operation_xyz
x,y,z
-x,-y,-z
loop_
_atom_site_type_symbol
_atom_site_label
_atom_site_fract_x
_atom_site_fract_y
_atom_site_fract_z
Si Si1 0.978838 0.528227 0.701562
Si Si2 0.309264 0.739343 0.955710
Si Si3 0.054631 0.810597 0.492520
Si Si4 0.119206 0.176549 0.966030
Si Si5 0.291230 0.803705 0.345370
Si Si6 0.551938 0.967011 0.268665
Si Si7 0.586265 0.674789 0.881285
O O1 0.769295 0.743536 0.535547
O O2 0.000000 0.500000 0.500000
O O3 0.993642 0.381691 0.861664
O O4 0.178839 0.457132 0.909253
O O5 0.331929 0.724801 0.200815
O O6 0.500135 0.308402 0.375451
O O7 0.514137 0.635145 0.024089
O O8 0.145007 0.963397 0.696516
O O9 0.196582 0.777697 0.444117
O O10 0.193737 0.709646 0.815544
O O11 0.956670 0.780765 0.319810
O O12 0.131380 0.032743 0.123055
O O13 0.355794 0.042740 0.198020
O O14 0.500000 0.000000 0.000000
O O15 0.537349 0.112223 0.252943
#
# Coordination Sequence:
#
# PCOD9098078 Si02
#       7
#     2   2   2   2   2   2   2
#     4  11  23  37  63  97 129 163 215 259 310 381
#     4   9  17  33  64  94 123 163 206 260 312 365
#     4   9  18  33  61  97 123 165 214 251 314 374
#     4  10  20  36  63  92 131 168 204 261 315 369
#     4  10  20  37  64  98 127 165 212 258 310 378
#     4  11  20  38  61  94 127 165 210 260 313 375
#     4  10  22  39  64  96 128 165 209 256 315 377
#
# _framework density 27.089615999999999
#
# number of rings (size 3 to 8) (size 9 to 14) (size 15 to 20)
#    0.000    2.000    2.857    3.429    0.000    2.286 
#    0.000    2.857    0.000   13.714    0.000    0.000 
#    0.000    0.000    0.000    0.000    0.000    0.000 
#
# Total GULP energy -78443.716599 kJ/mol
# GULP energy per Si atom -5603.122614 kJ/mol
# Density = 2.702796 g / cm^3
# Si number density = 27.089616 Si / 1000 Ang^3
#
#
#
# Elastic Constant Matrix: (Units=GPa)
#
#
# Indices 1 2 3 4 5 6 
#
# 1 81.6169 59.9307 51.0739 1.7513 17.3863 21.6540
# 2 59.9307 136.0565 89.9328 19.3830 28.0997 2.2612
# 3 51.0739 89.9328 178.7140 -9.9204 21.6270 12.9730
# 4 1.7513 19.3830 -9.9204 72.3284 1.4617 2.7496
# 5 17.3863 28.0997 21.6270 1.4617 53.5420 11.7630
# 6 21.6540 2.2612 12.9730 2.7496 11.7630 39.6421
#
#
#
# Elastic Compliance Matrix: (Units=1/GPa)
#
#
# Indices 1 2 3 4 5 6 
#
# 1 0.023039 -0.010051 -0.000580 0.002507 0.000636 -0.012184
# 2 -0.010051 0.017678 -0.006323 -0.005579 -0.005169 0.008472
# 3 -0.000580 -0.006323 0.009275 0.003076 0.000258 -0.002648
# 4 0.002507 -0.005579 0.003076 0.015791 0.001212 -0.003513
# 5 0.000636 -0.005169 0.000258 0.001212 0.022565 -0.006917
# 6 -0.012184 0.008472 -0.002648 -0.003513 -0.006917 0.034561
#
#
# Mechanical properties :
#
#
# Convention : Reuss Voigt Hill
#
# Bulk Modulus (GPa) = 62.17087 88.69581 75.43334
# Shear Modulus (GPa) = 30.83046 46.13249 38.48147
#
# Velocity S-wave (km/s) = 3.37722 4.13117 3.77307
# Velocity P-wave (km/s) = 6.18121 7.45440 6.84746
#
# Compressibility (1/GPa) = 0.01608470
#
# Stress axis : x y z
#
# Youngs Moduli (GPa) = 43.40481 56.56728 107.82122
#
# Poissons Ratio (x) = 0.56857 0.06249
# Poissons Ratio (y) = 0.43627 0.68172
# Poissons Ratio (z) = 0.02516 0.35766
#
# Static dielectric constant tensor:
#      x y z
#    x 2.133910 0.032010 -0.060720 
#    y 0.032010 2.101340 -0.012500 
#    z -0.060720 -0.012500 2.152080 
# 
# From -- ./inp_files/431083.got.cif
#   From: 2010.05.17/outbox.cif.g08.bks.cpg/sg2_216_cif.got.tgz:431083.got - 2010.06.03 11:33:40.
