data_PCOD9098157
_publ_section_title
;
Structure prediction by ZEFSAII (Michael W. Deem and Ramdas Pophale) SiO2 
 PCOD9098157
Probable space group: P -1
;
_chemical_formula_sum "Si O2"
_cell_formula_units_Z 15
_cell_length_a 12.385928
_cell_length_b 7.728982
_cell_length_c 9.396082
_cell_angle_alpha 61.505381
_cell_angle_beta 44.540639
_cell_angle_gamma 72.092235
_cell_volume 553.715885
_symmetry_space_group_name_H-M "P -1"
_symmetry_group_IT_number 2
_symmetry_cell_setting 'triclinic'
loop_
_space_group_symop_operation_xyz
x,y,z
-x,-y,-z
loop_
_atom_site_type_symbol
_atom_site_label
_atom_site_fract_x
_atom_site_fract_y
_atom_site_fract_z
Si Si1 0.620620 0.683845 0.336087
Si Si2 0.167047 0.130992 0.153784
Si Si3 0.601841 0.008174 0.606732
Si Si4 0.500000 0.500000 0.000000
Si Si5 0.106487 0.428209 0.674680
Si Si6 0.926944 0.146273 0.124747
Si Si7 0.221454 0.319404 0.319830
Si Si8 0.314900 0.773577 0.267476
O O1 0.500000 0.500000 0.500000
O O2 0.540604 0.887322 0.366583
O O3 0.747293 0.652849 0.348752
O O4 0.715159 0.712562 0.091825
O O5 0.151062 0.190140 0.310433
O O6 0.021167 0.125430 0.190283
O O7 0.253271 0.927459 0.153054
O O8 0.752881 0.084600 0.349310
O O9 0.612708 0.104274 0.716425
O O10 0.623256 0.775581 0.712806
O O11 0.318393 0.509426 0.100348
O O12 0.434916 0.624873 0.152596
O O13 0.104720 0.347487 0.546617
O O14 0.162454 0.653397 0.515746
O O15 0.962755 0.359157 0.933724
O O16 0.000000 0.000000 0.000000
#
# Coordination Sequence:
#
# PCOD9098157 Si02
#       8
#     2   2   2   1   2   2   2   2
#     4  11  22  41  67 103 131 176 223 280 338 408
#     4  10  24  44  73  97 135 181 227 269 357 400
#     4  11  22  41  72  94 137 175 235 271 341 396
#     4  10  20  36  64 100 148 158 210 282 342 380
#     4  10  22  43  68  98 142 170 228 280 339 396
#     4  11  24  48  68  96 136 184 227 281 334 409
#     4  10  21  38  67 101 134 175 220 282 330 400
#     4  10  21  41  66 102 132 176 220 283 332 402
#
# _framework density 27.089704000000001
#
# number of rings (size 3 to 8) (size 9 to 14) (size 15 to 20)
#    0.000    1.600    2.667    1.600    1.867    5.333 
#    4.800    0.667    0.000    0.000    0.000    0.000 
#    0.000    0.000    0.000    0.000    0.000    0.000 
#
# Total GULP energy -83830.002740 kJ/mol
# GULP energy per Si atom -5588.666849 kJ/mol
# Density = 2.702805 g / cm^3
# Si number density = 27.089704 Si / 1000 Ang^3
#
#
#
# Elastic Constant Matrix: (Units=GPa)
#
#
# Indices 1 2 3 4 5 6 
#
# 1 114.7174 45.4363 47.7963 9.1329 6.4450 -4.7379
# 2 45.4363 91.8253 13.7008 26.2662 18.5915 8.2017
# 3 47.7963 13.7008 129.0285 5.8237 8.2539 -12.3088
# 4 9.1329 26.2662 5.8237 49.2006 5.3488 5.7023
# 5 6.4450 18.5915 8.2539 5.3488 30.5955 7.2052
# 6 -4.7379 8.2017 -12.3088 5.7023 7.2052 41.0222
#
#
#
# Elastic Compliance Matrix: (Units=1/GPa)
#
#
# Indices 1 2 3 4 5 6 
#
# 1 0.012905 -0.006626 -0.004161 0.001301 0.001958 0.001042
# 2 -0.006626 0.017886 0.001269 -0.007407 -0.008168 -0.001496
# 3 -0.004161 0.001269 0.009666 -0.001054 -0.002986 0.002837
# 4 0.001301 -0.007407 -0.001054 0.024334 0.000776 -0.002204
# 5 0.001958 -0.008168 -0.002986 0.000776 0.039331 -0.006053
# 6 0.001042 -0.001496 0.002837 -0.002204 -0.006053 0.027017
#
#
# Mechanical properties :
#
#
# Convention : Reuss Voigt Hill
#
# Bulk Modulus (GPa) = 46.68403 61.04866 53.86635
# Shear Modulus (GPa) = 31.78351 39.40618 35.59485
#
# Velocity S-wave (km/s) = 3.42902 3.81813 3.62879
# Velocity P-wave (km/s) = 5.74004 6.48245 6.12251
#
# Compressibility (1/GPa) = 0.02142060
#
# Stress axis : x y z
#
# Youngs Moduli (GPa) = 77.49086 55.91070 103.45402
#
# Poissons Ratio (x) = 0.37047 0.43050
# Poissons Ratio (y) = 0.51346 -0.13133
# Poissons Ratio (z) = 0.32246 -0.07098
#
# Static dielectric constant tensor:
#      x y z
#    x 2.146340 -0.077500 0.035110 
#    y -0.077500 1.935020 0.288220 
#    z 0.035110 0.288220 1.777140 
# 
# From -- ./inp_files/237431.got.cif
#   From: 2010.05.17/outbox.cif.g08.bks.cpg/sg2_119_cif.got.tgz:237431.got - 2010.06.03 11:33:40.
