data_PCOD9098846
_publ_section_title
;
Structure prediction by ZEFSAII (Michael W. Deem and Ramdas Pophale) SiO2 
 PCOD9098846
Probable space group: P -1
;
_chemical_formula_sum "Si O2"
_cell_formula_units_Z 12
_cell_length_a 11.857291
_cell_length_b 17.349585
_cell_length_c 8.105679
_cell_angle_alpha 154.563998
_cell_angle_beta 143.297071
_cell_angle_gamma 43.497905
_cell_volume 428.037957
_symmetry_space_group_name_H-M "P -1"
_symmetry_group_IT_number 2
_symmetry_cell_setting 'triclinic'
loop_
_space_group_symop_operation_xyz
x,y,z
-x,-y,-z
loop_
_atom_site_type_symbol
_atom_site_label
_atom_site_fract_x
_atom_site_fract_y
_atom_site_fract_z
Si Si1 0.902833 0.375449 0.957749
Si Si2 0.683626 0.303357 0.231899
Si Si3 0.975963 0.784520 0.723646
Si Si4 0.407695 0.776684 0.500157
Si Si5 0.767626 0.847748 0.921574
Si Si6 0.654991 0.732001 0.020907
O O1 0.802087 0.292057 0.519427
O O2 0.746929 0.368830 0.908769
O O3 0.947571 0.577251 0.347342
O O4 0.086987 0.268129 0.023297
O O5 0.672684 0.517049 0.597386
O O6 0.478861 0.239222 0.920996
O O7 0.805332 0.204147 0.044797
O O8 0.875922 0.885528 0.950722
O O9 0.854060 0.807489 0.458276
O O10 0.562567 0.749261 0.485901
O O11 0.545861 0.801601 0.869121
O O12 0.287914 0.958363 0.699007
#
# Coordination Sequence:
#
# PCOD9098846 Si02
#       6
#     2   2   2   2   2   2
#     4  10  20  37  58  77 104 142 179 215 261 316
#     4   9  18  34  58  81 104 137 177 221 262 308
#     4  11  21  33  57  86 106 131 176 231 265 297
#     4  10  22  39  55  73 108 151 177 206 262 326
#     4  11  23  36  53  80 111 141 175 217 265 314
#     4   9  18  35  56  79 106 139 177 214 263 316
#
# _framework density 28.034894999999999
#
# number of rings (size 3 to 8) (size 9 to 14) (size 15 to 20)
#    0.000    2.000    0.000    6.000    0.000    2.667 
#    0.000    3.333    0.000    0.000    0.000    0.000 
#    0.000    0.000    0.000    0.000    0.000    0.000 
#
# Total GULP energy -67302.715837 kJ/mol
# GULP energy per Si atom -5608.559653 kJ/mol
# Density = 2.797109 g / cm^3
# Si number density = 28.034895 Si / 1000 Ang^3
#
#
#
# Elastic Constant Matrix: (Units=GPa)
#
#
# Indices 1 2 3 4 5 6 
#
# 1 180.6056 26.9777 22.8277 1.4942 -1.1421 -49.2380
# 2 26.9777 156.6319 55.9221 3.8799 -8.4480 -12.7973
# 3 22.8277 55.9221 41.8269 -2.9578 -2.2789 -10.7480
# 4 1.4942 3.8799 -2.9578 44.9649 0.7664 9.9026
# 5 -1.1421 -8.4480 -2.2789 0.7664 37.4678 -10.1121
# 6 -49.2380 -12.7973 -10.7480 9.9026 -10.1121 60.0318
#
#
#
# Elastic Compliance Matrix: (Units=1/GPa)
#
#
# Indices 1 2 3 4 5 6 
#
# 1 0.007661 0.000524 -0.003254 -0.001970 0.001939 0.006464
# 2 0.000524 0.012594 -0.016968 -0.002439 0.002098 0.000832
# 3 -0.003254 -0.016968 0.049082 0.004443 -0.000580 0.001671
# 4 -0.001970 -0.002439 0.004443 0.024107 -0.002376 -0.005718
# 5 0.001939 0.002098 -0.000580 -0.002376 0.029190 0.007242
# 6 0.006464 0.000832 0.001671 -0.005718 0.007242 0.024599
#
#
# Mechanical properties :
#
#
# Convention : Reuss Voigt Hill
#
# Bulk Modulus (GPa) = 33.40001 65.61327 49.50664
# Shear Modulus (GPa) = 25.43113 46.71536 36.07324
#
# Velocity S-wave (km/s) = 3.01512 4.08650 3.59099
# Velocity P-wave (km/s) = 4.90518 6.76172 5.90685
#
# Compressibility (1/GPa) = 0.02994011
#
# Stress axis : x y z
#
# Youngs Moduli (GPa) = 130.53455 79.40409 20.37409
#
# Poissons Ratio (x) = -0.04159 0.06630
# Poissons Ratio (y) = -0.06838 0.34571
# Poissons Ratio (z) = 0.42476 1.34733
#
# Static dielectric constant tensor:
#      x y z
#    x 2.265360 0.033700 0.001320 
#    y 0.033700 2.097910 -0.002780 
#    z 0.001320 -0.002780 2.191530 
# 
# From -- ./inp_files/149008.got.cif
#   From: 2010.05.17/outbox.cif.g08.bks.cpg/sg2_75_cif.got.tgz:149008.got - 2010.06.03 11:33:40.
