data_PCOD9098674
_publ_section_title
;
Structure prediction by ZEFSAII (Michael W. Deem and Ramdas Pophale) SiO2 
 PCOD9098674
Probable space group: P -1
;
_chemical_formula_sum "Si O2"
_cell_formula_units_Z 16
_cell_length_a 9.358840
_cell_length_b 15.515187
_cell_length_c 5.036904
_cell_angle_alpha 101.291724
_cell_angle_beta 70.134124
_cell_angle_gamma 81.811805
_cell_volume 656.998970
_symmetry_space_group_name_H-M "P -1"
_symmetry_group_IT_number 2
_symmetry_cell_setting 'triclinic'
loop_
_space_group_symop_operation_xyz
x,y,z
-x,-y,-z
loop_
_atom_site_type_symbol
_atom_site_label
_atom_site_fract_x
_atom_site_fract_y
_atom_site_fract_z
Si Si1 0.069035 0.179716 0.373685
Si Si2 0.498333 0.223356 0.580760
Si Si3 0.949650 0.617830 0.660109
Si Si4 0.735411 0.897707 0.293292
Si Si5 0.102846 0.958130 0.659118
Si Si6 0.367116 0.706899 0.936380
Si Si7 0.330315 0.398892 0.531124
Si Si8 0.144439 0.578283 0.021555
O O1 0.045663 0.279826 0.346362
O O2 0.138441 0.160219 0.613452
O O3 0.910271 0.144680 0.416062
O O4 0.201230 0.123781 0.057631
O O5 0.621139 0.223170 0.264694
O O6 0.356631 0.309371 0.645479
O O7 0.421088 0.137909 0.594331
O O8 0.573475 0.251066 0.816294
O O9 0.000391 0.596177 0.916555
O O10 0.786631 0.609281 0.636392
O O11 0.082978 0.563758 0.343688
O O12 0.743897 0.001439 0.409320
O O13 0.000000 0.000000 0.500000
O O14 0.000000 0.000000 0.000000
O O15 0.498789 0.617474 0.715324
O O16 0.214549 0.667617 0.031781
O O17 0.266985 0.490828 0.783626
#
# Coordination Sequence:
#
# PCOD9098674 Si02
#       8
#     2   2   2   2   2   2   2   2
#     4  10  18  32  50  76 115 145 169 212 280 328
#     4  10  20  33  61  78 105 138 183 226 275 313
#     4  12  24  37  57  82 114 145 180 225 279 326
#     4  10  16  31  52  83 108 134 180 223 269 312
#     4   8  16  26  47  76 109 139 166 214 268 324
#     4  10  23  39  58  77 106 148 189 227 276 313
#     4  10  24  38  61  78 109 141 193 228 278 312
#     4  12  26  39  54  81 112 148 184 230 271 328
#
# _framework density 24.353159000000002
#
# number of rings (size 3 to 8) (size 9 to 14) (size 15 to 20)
#    0.750    1.000    1.250    4.125    3.500    0.500 
#    0.000    0.000    0.000    0.000    0.000    5.250 
#    0.000    0.000    0.000    0.000    0.000    0.000 
#
# Total GULP energy -89434.803019 kJ/mol
# GULP energy per Si atom -5589.675189 kJ/mol
# Density = 2.429773 g / cm^3
# Si number density = 24.353159 Si / 1000 Ang^3
#
#
#
# Elastic Constant Matrix: (Units=GPa)
#
#
# Indices 1 2 3 4 5 6 
#
# 1 83.2270 35.4118 32.6634 -3.0042 2.7885 22.0138
# 2 35.4118 99.5676 -10.6618 -10.9702 3.5631 43.0424
# 3 32.6634 -10.6618 96.9605 -17.8790 25.8564 14.4730
# 4 -3.0042 -10.9702 -17.8790 31.4463 3.6231 -2.8356
# 5 2.7885 3.5631 25.8564 3.6231 31.3456 0.5753
# 6 22.0138 43.0424 14.4730 -2.8356 0.5753 43.4426
#
#
#
# Elastic Compliance Matrix: (Units=1/GPa)
#
#
# Indices 1 2 3 4 5 6 
#
# 1 0.022045 -0.015678 -0.017231 -0.014137 0.015504 0.008975
# 2 -0.015678 0.039209 0.028133 0.028063 -0.028814 -0.038063
# 3 -0.017231 0.028133 0.039626 0.032342 -0.037544 -0.029735
# 4 -0.014137 0.028063 0.032342 0.060233 -0.035077 -0.027019
# 5 0.015504 -0.028814 -0.037544 -0.035077 0.068271 0.030006
# 6 0.008975 -0.038063 -0.029735 -0.027019 0.030006 0.063928
#
#
# Mechanical properties :
#
#
# Convention : Reuss Voigt Hill
#
# Bulk Modulus (GPa) = 10.94966 43.84243 27.39605
# Shear Modulus (GPa) = 15.00120 36.06970 25.53545
#
# Velocity S-wave (km/s) = 2.48460 3.85269 3.24164
# Velocity P-wave (km/s) = 3.56888 6.15084 5.02841
#
# Compressibility (1/GPa) = 0.09132701
#
# Stress axis : x y z
#
# Youngs Moduli (GPa) = 45.36195 25.50431 25.23616
#
# Poissons Ratio (x) = 0.39985 0.43485
# Poissons Ratio (y) = 0.71118 -0.70996
# Poissons Ratio (z) = 0.78164 -0.71751
#
# Static dielectric constant tensor:
#      x y z
#    x 1.883730 -0.010450 -0.045820 
#    y -0.010450 2.006980 0.018310 
#    z -0.045820 0.018310 1.920710 
# 
# From -- ./inp_files/48192.got.cif
#   From: 2010.05.17/outbox.cif.g08.bks.cpg/sg2_25_cif.got.tgz:48192.got - 2010.06.03 11:33:40.
