data_PCOD9098695
_publ_section_title
;
Structure prediction by ZEFSAII (Michael W. Deem and Ramdas Pophale) SiO2 
 PCOD9098695
Probable space group: P -1
;
_chemical_formula_sum "Si O2"
_cell_formula_units_Z 14
_cell_length_a 20.023173
_cell_length_b 12.656465
_cell_length_c 17.781395
_cell_angle_alpha 40.095683
_cell_angle_beta 166.094778
_cell_angle_gamma 137.872734
_cell_volume 697.457692
_symmetry_space_group_name_H-M "P -1"
_symmetry_group_IT_number 2
_symmetry_cell_setting 'triclinic'
loop_
_space_group_symop_operation_xyz
x,y,z
-x,-y,-z
loop_
_atom_site_type_symbol
_atom_site_label
_atom_site_fract_x
_atom_site_fract_y
_atom_site_fract_z
Si Si1 0.123008 0.606804 0.277378
Si Si2 0.613431 0.389771 0.880251
Si Si3 0.374949 0.749336 0.862821
Si Si4 0.815097 0.027533 0.857152
Si Si5 0.313117 0.961213 0.888866
Si Si6 0.659486 0.421641 0.302828
Si Si7 0.086935 0.252594 0.760821
O O1 0.254712 0.630119 0.491427
O O2 0.824641 0.528963 0.009148
O O3 0.865574 0.211669 0.842253
O O4 0.312472 0.473182 0.514331
O O5 0.687354 0.320707 0.082784
O O6 0.642893 0.231967 0.944500
O O7 0.549747 0.605467 0.092478
O O8 0.097072 0.783889 0.493424
O O9 0.567585 0.910157 0.991155
O O10 0.500000 0.000000 0.500000
O O11 0.000000 0.000000 0.000000
O O12 0.000000 0.000000 0.500000
O O13 0.500000 0.000000 0.000000
O O14 0.397809 0.311786 0.053486
O O15 0.105320 0.101841 0.921030
O O16 0.917260 0.393730 0.544542
#
# Coordination Sequence:
#
# PCOD9098695 Si02
#       7
#     2   2   2   2   2   2   2
#     4  11  20  36  58  81 109 148 188 231 268 323
#     4  10  21  36  58  83 109 142 184 233 284 324
#     4  10  23  36  58  84 118 145 184 226 285 340
#     4  12  22  39  57  79 113 150 197 228 263 327
#     4  10  20  37  56  83 111 144 184 230 277 334
#     4  11  21  35  53  83 116 147 182 221 278 339
#     4  12  23  37  54  82 116 154 180 228 276 329
#
# _framework density 20.072901999999999
#
# number of rings (size 3 to 8) (size 9 to 14) (size 15 to 20)
#    0.000    1.143    2.857    6.000    0.000    5.714 
#    0.000    0.000    0.000    1.714    0.000    0.000 
#    0.000    0.000    0.000    0.000    0.000    0.000 
#
# Total GULP energy -78270.815003 kJ/mol
# GULP energy per Si atom -5590.772500 kJ/mol
# Density = 2.002722 g / cm^3
# Si number density = 20.072902 Si / 1000 Ang^3
#
#
#
# Elastic Constant Matrix: (Units=GPa)
#
#
# Indices 1 2 3 4 5 6 
#
# 1 37.0639 22.1752 13.0096 -2.9075 6.0865 13.2883
# 2 22.1752 112.2199 2.6089 2.3039 -6.5966 4.0154
# 3 13.0096 2.6089 60.6578 11.0320 15.9359 8.6043
# 4 -2.9075 2.3039 11.0320 35.6867 3.2308 0.7117
# 5 6.0865 -6.5966 15.9359 3.2308 33.8654 4.5072
# 6 13.2883 4.0154 8.6043 0.7117 4.5072 14.2290
#
#
#
# Elastic Compliance Matrix: (Units=1/GPa)
#
#
# Indices 1 2 3 4 5 6 
#
# 1 0.049262 -0.008554 -0.004912 0.007204 -0.003593 -0.039844
# 2 -0.008554 0.010676 0.000344 -0.001852 0.003116 0.003873
# 3 -0.004912 0.000344 0.021531 -0.006256 -0.007821 -0.005739
# 4 0.007204 -0.001852 -0.006256 0.030840 -0.001176 -0.003592
# 5 -0.003593 0.003116 -0.007821 -0.001176 0.035086 -0.003850
# 6 -0.039844 0.003873 -0.005739 -0.003592 -0.003850 0.111266
#
#
# Mechanical properties :
#
#
# Convention : Reuss Voigt Hill
#
# Bulk Modulus (GPa) = 18.10730 31.72544 24.91637
# Shear Modulus (GPa) = 16.48455 28.23274 22.35864
#
# Velocity S-wave (km/s) = 2.86883 3.75442 3.34109
# Velocity P-wave (km/s) = 4.47369 5.88503 5.22721
#
# Compressibility (1/GPa) = 0.05522634
#
# Stress axis : x y z
#
# Youngs Moduli (GPa) = 20.29944 93.66861 46.44383
#
# Poissons Ratio (x) = 0.80121 0.22814
# Poissons Ratio (y) = 0.17364 -0.01598
# Poissons Ratio (z) = 0.09971 -0.03223
#
# Static dielectric constant tensor:
#      x y z
#    x 1.728660 -0.027380 0.002930 
#    y -0.027380 1.765460 -0.011120 
#    z 0.002930 -0.011120 1.709800 
# 
# From -- ./inp_files/614402.got.cif
#   From: 2010.05.17/outbox.cif.g08.bks.cpg/sg2_308_cif.got.tgz:614402.got - 2010.06.03 11:33:40.
