data_PCOD9098516
_publ_section_title
;
Structure prediction by ZEFSAII (Michael W. Deem and Ramdas Pophale) SiO2 
 PCOD9098516
Probable space group: P -1
;
_chemical_formula_sum "Si O2"
_cell_formula_units_Z 14
_cell_length_a 14.413325
_cell_length_b 14.886387
_cell_length_c 6.266716
_cell_angle_alpha 125.214497
_cell_angle_beta 77.970574
_cell_angle_gamma 143.734064
_cell_volume 550.729238
_symmetry_space_group_name_H-M "P -1"
_symmetry_group_IT_number 2
_symmetry_cell_setting 'triclinic'
loop_
_space_group_symop_operation_xyz
x,y,z
-x,-y,-z
loop_
_atom_site_type_symbol
_atom_site_label
_atom_site_fract_x
_atom_site_fract_y
_atom_site_fract_z
Si Si1 0.770901 0.847851 0.224805
Si Si2 0.117257 0.456843 0.817398
Si Si3 0.124699 0.916830 0.881166
Si Si4 0.356288 0.810920 0.482209
Si Si5 0.630849 0.906894 0.618406
Si Si6 0.861650 0.710492 0.103431
Si Si7 0.809827 0.292407 0.183092
O O1 0.727768 0.678076 0.062386
O O2 0.831106 0.929844 0.064918
O O3 0.638854 0.814864 0.321412
O O4 0.949881 0.053240 0.563009
O O5 0.193228 0.425796 0.864342
O O6 0.225926 0.630227 0.818008
O O7 0.934101 0.231585 0.473729
O O8 0.158250 0.588482 0.162825
O O9 0.303659 0.073681 0.157361
O O10 0.946773 0.744993 0.890093
O O11 0.331144 0.863776 0.767685
O O12 0.500000 0.000000 0.500000
O O13 0.443172 0.785912 0.504463
O O14 0.784296 0.158722 0.867279
O O15 0.000000 0.500000 0.500000
#
# Coordination Sequence:
#
# PCOD9098516 Si02
#       7
#     2   2   2   2   2   2   2
#     4   9  20  37  66  94 135 171 222 277 327 390
#     4  11  23  40  67  93 133 174 221 270 327 394
#     4  10  20  36  67  98 133 172 225 273 325 394
#     4  12  28  44  65  98 141 178 215 274 339 396
#     4  11  24  41  64 100 132 170 222 271 335 392
#     4   9  19  39  62 101 129 172 224 277 325 385
#     4  12  26  43  71  99 133 176 228 273 329 397
#
# _framework density 25.420839999999998
#
# number of rings (size 3 to 8) (size 9 to 14) (size 15 to 20)
#    0.000    1.429    2.857    1.714    6.000    2.857 
#    0.000    0.714    0.000    2.571    0.000    0.000 
#    0.000    0.000    0.000    0.000    0.000    0.000 
#
# Total GULP energy -77997.034034 kJ/mol
# GULP energy per Si atom -5571.216717 kJ/mol
# Density = 2.536298 g / cm^3
# Si number density = 25.420840 Si / 1000 Ang^3
#
#
#
# Elastic Constant Matrix: (Units=GPa)
#
#
# Indices 1 2 3 4 5 6 
#
# 1 120.1992 44.5716 37.2029 -35.8257 -14.2152 -25.8498
# 2 44.5716 107.7300 39.1453 -26.8295 -3.3155 -33.1540
# 3 37.2029 39.1453 100.7320 -14.3033 28.0204 -0.0046
# 4 -35.8257 -26.8295 -14.3033 44.0339 7.0032 9.1933
# 5 -14.2152 -3.3155 28.0204 7.0032 27.7235 11.1874
# 6 -25.8498 -33.1540 -0.0046 9.1933 11.1874 41.0350
#
#
#
# Elastic Compliance Matrix: (Units=1/GPa)
#
#
# Indices 1 2 3 4 5 6 
#
# 1 0.015422 0.000295 -0.008319 0.006989 0.012586 0.004955
# 2 0.000295 0.016506 -0.006510 0.005335 0.002678 0.011595
# 3 -0.008319 -0.006510 0.023667 0.002121 -0.028171 -0.003292
# 4 0.006989 0.005335 0.002121 0.032828 -0.007599 0.003430
# 5 0.012586 0.002678 -0.028171 -0.007599 0.076943 -0.009186
# 6 0.004955 0.011595 -0.003292 0.003430 -0.009186 0.038595
#
#
# Mechanical properties :
#
#
# Convention : Reuss Voigt Hill
#
# Bulk Modulus (GPa) = 37.69744 63.38900 50.54322
# Shear Modulus (GPa) = 20.67228 36.40792 28.54010
#
# Velocity S-wave (km/s) = 2.85476 3.78856 3.35431
# Velocity P-wave (km/s) = 5.07225 6.64286 5.90996
#
# Compressibility (1/GPa) = 0.02652700
#
# Stress axis : x y z
#
# Youngs Moduli (GPa) = 64.84264 60.58586 42.25326
#
# Poissons Ratio (x) = -0.01787 0.35149
# Poissons Ratio (y) = -0.01913 0.27507
# Poissons Ratio (z) = 0.53940 0.39441
#
# Static dielectric constant tensor:
#      x y z
#    x 2.098340 0.022060 -0.055460 
#    y 0.022060 2.095410 0.029990 
#    z -0.055460 0.029990 2.021690 
# 
# From -- ./inp_files/97345.got.cif
#   From: 2010.05.17/outbox.cif.g08.bks.cpg/sg2_49_cif.got.tgz:97345.got - 2010.06.03 11:33:40.
