data_PCOD9098504
_publ_section_title
;
Structure prediction by ZEFSAII (Michael W. Deem and Ramdas Pophale) SiO2 
 PCOD9098504
Probable space group: P -1
;
_chemical_formula_sum "Si O2"
_cell_formula_units_Z 16
_cell_length_a 11.591800
_cell_length_b 8.772539
_cell_length_c 18.555498
_cell_angle_alpha 54.935248
_cell_angle_beta 29.422480
_cell_angle_gamma 58.414765
_cell_volume 757.414276
_symmetry_space_group_name_H-M "P -1"
_symmetry_group_IT_number 2
_symmetry_cell_setting 'triclinic'
loop_
_space_group_symop_operation_xyz
x,y,z
-x,-y,-z
loop_
_atom_site_type_symbol
_atom_site_label
_atom_site_fract_x
_atom_site_fract_y
_atom_site_fract_z
Si Si1 0.193053 0.268540 0.407219
Si Si2 0.763644 0.032214 0.427818
Si Si3 0.048720 0.944725 0.071249
Si Si4 0.807854 0.668686 0.043641
Si Si5 0.532949 0.702458 0.895658
Si Si6 0.714969 0.857935 0.898931
Si Si7 0.301908 0.563599 0.394031
Si Si8 0.673216 0.748131 0.425083
O O1 0.320505 0.311151 0.253076
O O2 0.264308 0.416977 0.388910
O O3 0.912710 0.285550 0.542446
O O4 0.271625 0.066519 0.450049
O O5 0.597055 0.218461 0.461367
O O6 0.035181 0.054560 0.260511
O O7 0.695269 0.886273 0.443646
O O8 0.085841 0.137777 0.041406
O O9 0.844326 0.827521 0.250281
O O10 0.287430 0.816459 0.983581
O O11 0.000000 0.000000 0.000000
O O12 0.562250 0.635713 0.226445
O O13 0.739657 0.693473 0.989621
O O14 0.000000 0.500000 0.000000
O O15 0.667035 0.801275 0.859383
O O16 0.500000 0.500000 0.000000
O O17 0.500000 0.000000 0.000000
O O18 0.270965 0.454557 0.515971
#
# Coordination Sequence:
#
# PCOD9098504 Si02
#       8
#     2   2   2   2   2   2   2   2
#     4  10  22  40  67  97 133 174 221 281 345 402
#     4  10  20  36  67  91 125 176 223 270 331 404
#     4  12  27  46  68 101 141 181 226 287 341 409
#     4  12  26  44  72 101 136 180 234 279 339 407
#     4  12  26  44  70 100 139 181 227 285 349 404
#     4  12  23  44  69 101 137 177 231 287 337 404
#     4  10  22  42  69  97 132 175 229 279 334 410
#     4  10  20  41  64  92 131 175 224 264 336 405
#
# _framework density 21.124502
#
# number of rings (size 3 to 8) (size 9 to 14) (size 15 to 20)
#    0.000    1.000    2.500    3.750    7.000    2.500 
#    2.250    0.625    0.000    0.000    0.000    0.000 
#    0.000    0.000    0.000    0.000    0.000    0.000 
#
# Total GULP energy -89450.265475 kJ/mol
# GULP energy per Si atom -5590.641592 kJ/mol
# Density = 2.107642 g / cm^3
# Si number density = 21.124502 Si / 1000 Ang^3
#
#
#
# Elastic Constant Matrix: (Units=GPa)
#
#
# Indices 1 2 3 4 5 6 
#
# 1 99.9295 35.8412 42.3398 1.3171 15.4739 -37.9881
# 2 35.8412 64.7076 11.8054 5.7948 2.6027 -29.7889
# 3 42.3398 11.8054 122.8127 -5.9520 13.5285 -17.0229
# 4 1.3171 5.7948 -5.9520 29.7589 -10.2597 0.2858
# 5 15.4739 2.6027 13.5285 -10.2597 47.6346 -3.7286
# 6 -37.9881 -29.7889 -17.0229 0.2858 -3.7286 32.0031
#
#
#
# Elastic Compliance Matrix: (Units=1/GPa)
#
#
# Indices 1 2 3 4 5 6 
#
# 1 0.020806 -0.000224 -0.003755 -0.003462 -0.004706 0.021974
# 2 -0.000224 0.028074 0.000834 -0.005854 -0.000904 0.026256
# 3 -0.003755 0.000834 0.009747 0.001542 -0.001156 0.001355
# 4 -0.003462 -0.005854 0.001542 0.038252 0.008613 -0.008076
# 5 -0.004706 -0.000904 -0.001156 0.008613 0.024420 -0.004273
# 6 0.021974 0.026256 0.001355 -0.008076 -0.004273 0.082065
#
#
# Mechanical properties :
#
#
# Convention : Reuss Voigt Hill
#
# Bulk Modulus (GPa) = 19.10724 51.93583 35.52153
# Shear Modulus (GPa) = 22.01680 35.04355 28.53017
#
# Velocity S-wave (km/s) = 3.23188 4.07739 3.67900
# Velocity P-wave (km/s) = 4.79493 6.84147 5.90750
#
# Compressibility (1/GPa) = 0.05233618
#
# Stress axis : x y z
#
# Youngs Moduli (GPa) = 48.06300 35.62006 102.59886
#
# Poissons Ratio (x) = 0.00798 0.38526
# Poissons Ratio (y) = 0.01077 -0.08555
# Poissons Ratio (z) = 0.18048 -0.02970
#
# Static dielectric constant tensor:
#      x y z
#    x 1.715430 -0.014890 0.028560 
#    y -0.014890 1.734610 -0.016570 
#    z 0.028560 -0.016570 1.698640 
# 
# From -- ./inp_files/559821.got.cif
#   From: 2010.05.17/outbox.cif.g08.bks.cpg/sg2_280_cif.got.tgz:559821.got - 2010.06.03 11:33:40.
