data_PCOD9098116
_publ_section_title
;
Structure prediction by ZEFSAII (Michael W. Deem and Ramdas Pophale) SiO2 
 PCOD9098116
Probable space group: P -1
;
_chemical_formula_sum "Si O2"
_cell_formula_units_Z 16
_cell_length_a 13.948890
_cell_length_b 25.771881
_cell_length_c 16.477841
_cell_angle_alpha 22.955795
_cell_angle_beta 147.924827
_cell_angle_gamma 160.778878
_cell_volume 749.219188
_symmetry_space_group_name_H-M "P -1"
_symmetry_group_IT_number 2
_symmetry_cell_setting 'triclinic'
loop_
_space_group_symop_operation_xyz
x,y,z
-x,-y,-z
loop_
_atom_site_type_symbol
_atom_site_label
_atom_site_fract_x
_atom_site_fract_y
_atom_site_fract_z
Si Si1 0.740118 0.510961 0.893209
Si Si2 0.441139 0.646931 0.823849
Si Si3 0.296037 0.092335 0.064621
Si Si4 0.710063 0.282156 0.949748
Si Si5 0.474826 0.623872 0.579328
Si Si6 0.164823 0.339202 0.921115
Si Si7 0.945974 0.337129 0.481775
Si Si8 0.532160 0.077315 0.823336
O O1 0.640030 0.410422 0.057250
O O2 0.538047 0.313623 0.970358
O O3 0.068841 0.646440 0.926787
O O4 0.690100 0.641174 0.666750
O O5 0.239447 0.437244 0.922348
O O6 0.327200 0.724870 0.602826
O O7 0.775091 0.785044 0.853929
O O8 0.414812 0.155769 0.965902
O O9 0.207621 0.892325 0.316579
O O10 0.000000 0.000000 0.000000
O O11 0.865601 0.485286 0.712534
O O12 0.648438 0.118151 0.086033
O O13 0.405348 0.524310 0.761267
O O14 0.182547 0.460987 0.546622
O O15 0.560851 0.824784 0.373294
O O16 0.875940 0.242400 0.817849
O O17 0.500000 0.000000 0.000000
#
# Coordination Sequence:
#
# PCOD9098116 Si02
#       8
#     2   2   2   2   2   2   2   2
#     4  10  23  47  65  97 139 172 229 292 328 397
#     4   9  20  37  63  93 134 170 216 282 330 388
#     4  12  26  45  76  98 129 182 238 281 340 399
#     4  11  26  44  69 102 140 178 225 282 341 398
#     4  11  21  39  70  97 134 177 221 276 334 406
#     4  10  20  36  63  95 131 177 222 269 330 406
#     4  11  22  45  66 102 133 175 225 282 336 401
#     4  12  22  38  64  99 138 177 215 269 344 412
#
# _framework density 21.355564999999999
#
# number of rings (size 3 to 8) (size 9 to 14) (size 15 to 20)
#    0.000    1.250    3.750    2.250    3.500    3.000 
#    2.250    0.000    0.000    0.000    0.000    0.000 
#    0.000    0.000    0.000    0.000    0.000    0.000 
#
# Total GULP energy -89177.320580 kJ/mol
# GULP energy per Si atom -5573.582536 kJ/mol
# Density = 2.130696 g / cm^3
# Si number density = 21.355565 Si / 1000 Ang^3
#
#
#
# Elastic Constant Matrix: (Units=GPa)
#
#
# Indices 1 2 3 4 5 6 
#
# 1 96.4809 18.8316 47.9361 -4.7480 18.6462 3.2102
# 2 18.8316 47.4689 28.8933 2.9414 8.9735 -9.5645
# 3 47.9361 28.8933 110.1638 2.6023 24.1227 5.9430
# 4 -4.7480 2.9414 2.6023 32.2161 2.9596 2.5302
# 5 18.6462 8.9735 24.1227 2.9596 31.1979 9.6497
# 6 3.2102 -9.5645 5.9430 2.5302 9.6497 22.9041
#
#
#
# Elastic Compliance Matrix: (Units=1/GPa)
#
#
# Indices 1 2 3 4 5 6 
#
# 1 0.014121 -0.002123 -0.004675 0.003072 -0.004472 -0.000108
# 2 -0.002123 0.031442 -0.006439 -0.003388 -0.008348 0.018990
# 3 -0.004675 -0.006439 0.014129 -0.000496 -0.005157 -0.003472
# 4 0.003072 -0.003388 -0.000496 0.032388 -0.002200 -0.004368
# 5 -0.004472 -0.008348 -0.005157 -0.002200 0.047971 -0.021489
# 6 -0.000108 0.018990 -0.003472 -0.004368 -0.021489 0.062042
#
#
# Mechanical properties :
#
#
# Convention : Reuss Voigt Hill
#
# Bulk Modulus (GPa) = 30.10440 49.49284 39.79862
# Shear Modulus (GPa) = 20.86462 27.82714 24.34588
#
# Velocity S-wave (km/s) = 3.12911 3.61368 3.38009
# Velocity P-wave (km/s) = 5.21368 6.37476 5.82323
#
# Compressibility (1/GPa) = 0.03321773
#
# Stress axis : x y z
#
# Youngs Moduli (GPa) = 70.81617 31.80420 70.77693
#
# Poissons Ratio (x) = 0.06752 0.33090
# Poissons Ratio (y) = 0.15034 0.45574
# Poissons Ratio (z) = 0.33108 0.20479
#
# Static dielectric constant tensor:
#      x y z
#    x 2.036500 0.334600 0.110240 
#    y 0.334600 2.105260 0.160930 
#    z 0.110240 0.160930 1.806860 
# 
# From -- ./inp_files/515851.got.cif
#   From: 2010.05.17/outbox.cif.g08.bks.cpg/sg2_258_cif.got.tgz:515851.got - 2010.06.03 11:33:40.
