data_PCOD9098989
_publ_section_title
;
Structure prediction by ZEFSAII (Michael W. Deem and Ramdas Pophale) SiO2 
 PCOD9098989
Probable space group: P -1
;
_chemical_formula_sum "Si O2"
_cell_formula_units_Z 16
_cell_length_a 9.730702
_cell_length_b 23.109604
_cell_length_c 11.140899
_cell_angle_alpha 151.580570
_cell_angle_beta 65.281571
_cell_angle_gamma 131.919178
_cell_volume 779.086948
_symmetry_space_group_name_H-M "P -1"
_symmetry_group_IT_number 2
_symmetry_cell_setting 'triclinic'
loop_
_space_group_symop_operation_xyz
x,y,z
-x,-y,-z
loop_
_atom_site_type_symbol
_atom_site_label
_atom_site_fract_x
_atom_site_fract_y
_atom_site_fract_z
Si Si1 0.251199 0.867707 0.830647
Si Si2 0.874267 0.516003 0.425351
Si Si3 0.945809 0.053137 0.784832
Si Si4 0.293566 0.087378 0.623847
Si Si5 0.228244 0.407462 0.188325
Si Si6 0.881767 0.248587 0.845698
Si Si7 0.626951 0.476498 0.230122
Si Si8 0.955263 0.329772 0.697417
O O1 0.196243 0.799685 0.590182
O O2 0.113411 0.692306 0.635848
O O3 0.160915 0.947296 0.059649
O O4 0.500000 0.000000 0.000000
O O5 0.801852 0.485138 0.532281
O O6 0.733345 0.531243 0.423235
O O7 0.841687 0.363317 0.110558
O O8 0.119967 0.043760 0.702576
O O9 0.779428 0.924839 0.508256
O O10 0.077169 0.233495 0.001778
O O11 0.506349 0.280049 0.911193
O O12 0.281215 0.937177 0.375318
O O13 0.457461 0.482070 0.263550
O O14 0.117609 0.350457 0.996040
O O15 0.877792 0.241248 0.691583
O O16 0.817719 0.593866 0.283148
O O17 0.000000 0.500000 0.000000
#
# Coordination Sequence:
#
# PCOD9098989 Si02
#       8
#     2   2   2   2   2   2   2   2
#     4  10  21  37  63  84 115 171 210 235 297 383
#     4  10  20  37  58  90 125 152 200 266 301 345
#     4   8  17  35  57  86 117 152 205 253 286 356
#     4   9  19  35  61  89 117 156 201 247 302 354
#     4   9  19  36  60  89 114 155 206 253 303 352
#     4  11  21  38  59  89 130 156 196 256 308 352
#     4  10  20  37  64  85 118 167 203 239 300 377
#     4  11  23  42  58  88 129 161 197 253 309 360
#
# _framework density 20.536860000000001
#
# number of rings (size 3 to 8) (size 9 to 14) (size 15 to 20)
#    0.000    2.250    2.500    1.500    1.750    2.000 
#    0.000    3.125    0.000    0.000    0.000    0.000 
#    0.000    0.000    0.000    0.000    0.000    0.000 
#
# Total GULP energy -89163.877497 kJ/mol
# GULP energy per Si atom -5572.742344 kJ/mol
# Density = 2.049012 g / cm^3
# Si number density = 20.536860 Si / 1000 Ang^3
#
#
#
# Elastic Constant Matrix: (Units=GPa)
#
#
# Indices 1 2 3 4 5 6 
#
# 1 79.1912 22.4073 35.0658 -4.8116 12.2548 7.7284
# 2 22.4073 45.0897 42.6599 -17.6236 12.5024 0.9969
# 3 35.0658 42.6599 112.9840 -9.9626 18.3852 13.7858
# 4 -4.8116 -17.6236 -9.9626 32.6718 3.1375 1.3521
# 5 12.2548 12.5024 18.3852 3.1375 33.7994 4.1815
# 6 7.7284 0.9969 13.7858 1.3521 4.1815 23.6325
#
#
#
# Elastic Compliance Matrix: (Units=1/GPa)
#
#
# Indices 1 2 3 4 5 6 
#
# 1 0.015711 -0.005543 -0.002155 -0.001009 -0.001980 -0.003239
# 2 -0.005543 0.050875 -0.014591 0.022968 -0.012119 0.009008
# 3 -0.002155 -0.014591 0.015902 -0.002904 -0.001266 -0.007566
# 4 -0.001009 0.022968 -0.002904 0.042961 -0.010597 0.000472
# 5 -0.001980 -0.012119 -0.001266 -0.010597 0.036958 -0.004036
# 6 -0.003239 0.009008 -0.007566 0.000472 -0.004036 0.048094
#
#
# Mechanical properties :
#
#
# Convention : Reuss Voigt Hill
#
# Bulk Modulus (GPa) = 26.37718 48.61453 37.49585
# Shear Modulus (GPa) = 18.67651 27.16289 22.91970
#
# Velocity S-wave (km/s) = 3.01892 3.64076 3.34432
# Velocity P-wave (km/s) = 5.00235 6.43403 5.76282
#
# Compressibility (1/GPa) = 0.03791156
#
# Stress axis : x y z
#
# Youngs Moduli (GPa) = 63.64817 19.65590 62.88608
#
# Poissons Ratio (x) = 0.10895 0.13552
# Poissons Ratio (y) = 0.35278 0.91756
# Poissons Ratio (z) = 0.13716 0.28679
#
# Static dielectric constant tensor:
#      x y z
#    x 1.813940 0.026530 -0.020060 
#    y 0.026530 1.728160 -0.062150 
#    z -0.020060 -0.062150 1.786060 
# 
# From -- ./inp_files/406771.got.cif
#   From: 2010.05.17/outbox.cif.g08.bks.cpg/sg2_204_cif.got.tgz:406771.got - 2010.06.03 11:33:40.
