data_PCOD9098511
_publ_section_title
;
Structure prediction by ZEFSAII (Michael W. Deem and Ramdas Pophale) SiO2 
 PCOD9098511
Probable space group: P -1
;
_chemical_formula_sum "Si O2"
_cell_formula_units_Z 16
_cell_length_a 14.281577
_cell_length_b 8.183914
_cell_length_c 8.376505
_cell_angle_alpha 109.714677
_cell_angle_beta 133.773741
_cell_angle_gamma 89.139541
_cell_volume 630.233323
_symmetry_space_group_name_H-M "P -1"
_symmetry_group_IT_number 2
_symmetry_cell_setting 'triclinic'
loop_
_space_group_symop_operation_xyz
x,y,z
-x,-y,-z
loop_
_atom_site_type_symbol
_atom_site_label
_atom_site_fract_x
_atom_site_fract_y
_atom_site_fract_z
Si Si1 0.753062 0.877653 0.916633
Si Si2 0.907688 0.666086 0.697990
Si Si3 0.653059 0.606103 0.158363
Si Si4 0.066406 0.770658 0.599235
Si Si5 0.196460 0.459830 0.983459
Si Si6 0.170670 0.853705 0.192721
Si Si7 0.537764 0.843651 0.898871
Si Si8 0.760751 0.288237 0.476245
O O1 0.879706 0.017104 0.213288
O O2 0.755318 0.670488 0.877767
O O3 0.762267 0.976012 0.788146
O O4 0.611751 0.884750 0.831347
O O5 0.766450 0.664312 0.450064
O O6 0.872376 0.483710 0.699485
O O7 0.002882 0.670769 0.655866
O O8 0.008060 0.817701 0.977306
O O9 0.704999 0.502289 0.044075
O O10 0.500000 0.500000 0.000000
O O11 0.640403 0.780279 0.107648
O O12 0.202864 0.746120 0.674372
O O13 0.947047 0.680988 0.301385
O O14 0.195067 0.659952 0.105914
O O15 0.218049 0.865163 0.434001
O O16 0.387649 0.695730 0.663463
O O17 0.500000 0.000000 0.000000
#
# Coordination Sequence:
#
# PCOD9098511 Si02
#       8
#     2   2   2   2   2   2   2   2
#     4  10  23  42  62  94 130 167 223 266 314 378
#     4  10  21  38  65  97 126 163 216 267 321 375
#     4  10  21  36  63  96 120 158 219 271 304 372
#     4  10  20  36  67  95 124 165 216 276 312 365
#     4  10  22  39  64  95 128 170 216 262 326 375
#     4  11  25  41  68  92 134 181 202 262 332 391
#     4  11  23  39  66  93 127 165 213 276 316 373
#     4  12  22  39  65  98 128 171 219 254 325 396
#
# _framework density 25.387425
#
# number of rings (size 3 to 8) (size 9 to 14) (size 15 to 20)
#    0.000    1.500    3.750    1.125    7.000    1.500 
#    0.000    4.375    0.000    0.000    0.000    0.000 
#    0.000    0.000    0.000    0.000    0.000    0.000 
#
# Total GULP energy -89341.213370 kJ/mol
# GULP energy per Si atom -5583.825836 kJ/mol
# Density = 2.532964 g / cm^3
# Si number density = 25.387425 Si / 1000 Ang^3
#
#
#
# Elastic Constant Matrix: (Units=GPa)
#
#
# Indices 1 2 3 4 5 6 
#
# 1 141.1976 60.1642 42.8741 8.3404 15.2214 22.8337
# 2 60.1642 143.0477 30.2484 -18.1011 -9.4635 17.7291
# 3 42.8741 30.2484 73.2273 -15.2862 12.4386 11.1348
# 4 8.3404 -18.1011 -15.2862 46.6787 -3.2616 -7.7733
# 5 15.2214 -9.4635 12.4386 -3.2616 30.6872 13.0744
# 6 22.8337 17.7291 11.1348 -7.7733 13.0744 46.5670
#
#
#
# Elastic Compliance Matrix: (Units=1/GPa)
#
#
# Indices 1 2 3 4 5 6 
#
# 1 0.012024 -0.004795 -0.005185 -0.006472 -0.004956 -0.002519
# 2 -0.004795 0.010831 -0.001643 0.004604 0.008104 -0.002886
# 3 -0.005185 -0.001643 0.019505 0.006477 -0.005652 0.001172
# 4 -0.006472 0.004604 0.006477 0.027303 0.003430 0.003466
# 5 -0.004956 0.008104 -0.005652 0.003430 0.045047 -0.011379
# 6 -0.002519 -0.002886 0.001172 0.003466 -0.011379 0.027302
#
#
# Mechanical properties :
#
#
# Convention : Reuss Voigt Hill
#
# Bulk Modulus (GPa) = 52.32103 69.33846 60.82975
# Shear Modulus (GPa) = 29.13245 39.73231 34.43238
#
# Velocity S-wave (km/s) = 3.39117 3.96035 3.68676
# Velocity P-wave (km/s) = 5.99893 6.94866 6.49119
#
# Compressibility (1/GPa) = 0.01911277
#
# Stress axis : x y z
#
# Youngs Moduli (GPa) = 83.16792 92.32424 51.26995
#
# Poissons Ratio (x) = 0.44271 0.26585
# Poissons Ratio (y) = 0.39880 0.08424
# Poissons Ratio (z) = 0.43125 0.15170
#
# Static dielectric constant tensor:
#      x y z
#    x 2.104150 -0.034140 -0.030390 
#    y -0.034140 2.050220 0.027530 
#    z -0.030390 0.027530 2.101890 
# 
# From -- ./inp_files/298948.got.cif
#   From: 2010.05.17/outbox.cif.g08.bks.cpg/sg2_150_cif.got.tgz:298948.got - 2010.06.03 11:33:40.
