data_PCOD9098552
_publ_section_title
;
Structure prediction by ZEFSAII (Michael W. Deem and Ramdas Pophale) SiO2 
 PCOD9098552
Probable space group: P -1
;
_chemical_formula_sum "Si O2"
_cell_formula_units_Z 12
_cell_length_a 10.007246
_cell_length_b 9.079089
_cell_length_c 17.522590
_cell_angle_alpha 155.705359
_cell_angle_beta 138.024495
_cell_angle_gamma 50.369778
_cell_volume 433.483218
_symmetry_space_group_name_H-M "P -1"
_symmetry_group_IT_number 2
_symmetry_cell_setting 'triclinic'
loop_
_space_group_symop_operation_xyz
x,y,z
-x,-y,-z
loop_
_atom_site_type_symbol
_atom_site_label
_atom_site_fract_x
_atom_site_fract_y
_atom_site_fract_z
Si Si1 0.162343 0.373424 0.750686
Si Si2 0.397384 0.889926 0.685731
Si Si3 0.515934 0.600022 0.233165
Si Si4 0.736587 0.751326 0.558193
Si Si5 0.136477 0.220908 0.962221
Si Si6 0.207149 0.311664 0.214656
O O1 0.318057 0.437108 0.777466
O O2 0.012377 0.668951 0.833922
O O3 0.295268 0.250510 0.818618
O O4 0.000000 0.000000 0.500000
O O5 0.331064 0.677045 0.478455
O O6 0.638067 0.959776 0.824121
O O7 0.324876 0.603720 0.585439
O O8 0.652520 0.698898 0.412673
O O9 0.347163 0.262901 0.026338
O O10 0.378824 0.915324 0.306137
O O11 0.978297 0.856641 0.717765
O O12 0.187509 0.324570 0.121057
O O13 0.000000 0.500000 0.000000
#
# Coordination Sequence:
#
# PCOD9098552 Si02
#       6
#     2   2   2   2   2   2
#     4  10  22  37  69 100 126 173 224 268 330 390
#     4  10  20  38  69  99 127 173 217 275 329 384
#     4  10  20  39  65  93 132 175 218 268 326 394
#     4  10  20  36  68  96 125 179 220 261 332 394
#     4  10  22  37  68  97 128 179 221 262 331 399
#     4  10  20  40  67  97 131 171 223 267 329 396
#
# _framework density 27.682732000000001
#
# number of rings (size 3 to 8) (size 9 to 14) (size 15 to 20)
#    0.000    2.000    1.667    3.000    9.333    0.667 
#    0.000    6.667    7.333    5.000    0.000    0.000 
#    0.000    0.000    0.000    0.000    0.000    0.000 
#
# Total GULP energy -67232.900012 kJ/mol
# GULP energy per Si atom -5602.741668 kJ/mol
# Density = 2.761973 g / cm^3
# Si number density = 27.682732 Si / 1000 Ang^3
#
#
#
# Elastic Constant Matrix: (Units=GPa)
#
#
# Indices 1 2 3 4 5 6 
#
# 1 246.7656 76.3060 89.7689 -19.1336 30.1170 -20.3879
# 2 76.3060 209.7042 44.1415 -13.1411 -3.6043 -26.0296
# 3 89.7689 44.1415 152.4359 -38.1981 12.5077 -14.0936
# 4 -19.1336 -13.1411 -38.1981 51.4814 -12.4948 -4.1367
# 5 30.1170 -3.6043 12.5077 -12.4948 56.1635 -21.2607
# 6 -20.3879 -26.0296 -14.0936 -4.1367 -21.2607 51.2171
#
#
#
# Elastic Compliance Matrix: (Units=1/GPa)
#
#
# Indices 1 2 3 4 5 6 
#
# 1 0.005965 -0.001754 -0.003181 -0.001449 -0.003250 -0.000858
# 2 -0.001754 0.006094 -0.000173 0.001872 0.003244 0.003849
# 3 -0.003181 -0.000173 0.010399 0.007241 0.002114 0.002970
# 4 -0.001449 0.001872 0.007241 0.027438 0.008452 0.008092
# 5 -0.003250 0.003244 0.002114 0.008452 0.025839 0.012345
# 6 -0.000858 0.003849 0.002970 0.008092 0.012345 0.027735
#
#
# Mechanical properties :
#
#
# Convention : Reuss Voigt Hill
#
# Bulk Modulus (GPa) = 81.67987 114.37095 98.02541
# Shear Modulus (GPa) = 42.45674 58.35169 50.40421
#
# Velocity S-wave (km/s) = 3.92048 4.59614 4.27169
# Velocity P-wave (km/s) = 7.07555 8.34090 7.73414
#
# Compressibility (1/GPa) = 0.01224292
#
# Stress axis : x y z
#
# Youngs Moduli (GPa) = 167.63225 164.09105 96.16370
#
# Poissons Ratio (x) = 0.28787 0.30586
# Poissons Ratio (y) = 0.29409 0.01662
# Poissons Ratio (z) = 0.53318 0.02836
#
# Static dielectric constant tensor:
#      x y z
#    x 2.177400 -0.035350 0.111550 
#    y -0.035350 2.274970 0.084190 
#    z 0.111550 0.084190 2.314210 
# 
# From -- ./inp_files/172356.got.cif
#   From: 2010.05.17/outbox.cif.g08.bks.cpg/sg2_87_cif.got.tgz:172356.got - 2010.06.03 11:33:40.
