data_PCOD9098880
_publ_section_title
;
Structure prediction by ZEFSAII (Michael W. Deem and Ramdas Pophale) SiO2 
 PCOD9098880
Probable space group: P -1
;
_chemical_formula_sum "Si O2"
_cell_formula_units_Z 16
_cell_length_a 8.488349
_cell_length_b 6.933306
_cell_length_c 20.486045
_cell_angle_alpha 59.493355
_cell_angle_beta 113.319662
_cell_angle_gamma 84.013641
_cell_volume 880.047227
_symmetry_space_group_name_H-M "P -1"
_symmetry_group_IT_number 2
_symmetry_cell_setting 'triclinic'
loop_
_space_group_symop_operation_xyz
x,y,z
-x,-y,-z
loop_
_atom_site_type_symbol
_atom_site_label
_atom_site_fract_x
_atom_site_fract_y
_atom_site_fract_z
Si Si1 0.506584 0.339524 0.467166
Si Si2 0.518602 0.663513 0.294559
Si Si3 0.217291 0.209625 0.907404
Si Si4 0.516269 0.224762 0.053995
Si Si5 0.786803 0.791693 0.625151
Si Si6 0.498758 0.822431 0.786059
Si Si7 0.786369 0.461659 0.803892
Si Si8 0.782097 0.405089 0.267331
O O1 0.500000 0.500000 0.500000
O O2 0.554544 0.460338 0.390465
O O3 0.306219 0.329484 0.421362
O O4 0.657211 0.072770 0.551479
O O5 0.332252 0.680963 0.222490
O O6 0.681087 0.569261 0.283973
O O7 0.500271 0.918335 0.278205
O O8 0.235025 0.417560 0.827305
O O9 0.001635 0.291347 0.875964
O O10 0.303438 0.961263 0.922687
O O11 0.344857 0.192941 0.993922
O O12 0.515889 0.168038 0.139884
O O13 0.500000 0.500000 0.000000
O O14 0.774269 0.670108 0.713365
O O15 0.001383 0.737820 0.658386
O O16 0.680668 0.601989 0.826772
O O17 0.327244 0.767498 0.737882
#
# Coordination Sequence:
#
# PCOD9098880 Si02
#       8
#     2   2   2   2   2   2   2   2
#     4  10  20  37  58  82 115 149 188 234 281 333
#     4  10  21  37  57  84 116 150 185 238 285 331
#     4  10  21  39  59  83 116 149 190 235 287 332
#     4  11  22  37  60  86 113 151 188 237 285 337
#     4   9  20  38  58  83 113 151 190 231 279 334
#     4  11  21  37  59  85 116 148 196 232 280 338
#     4   9  21  38  59  84 114 153 189 233 282 334
#     4  10  20  38  59  82 114 151 189 234 283 332
#
# _framework density 18.180841999999998
#
# number of rings (size 3 to 8) (size 9 to 14) (size 15 to 20)
#    0.000    2.000    2.500    0.750    0.000    4.000 
#    2.250    2.500    0.000    0.000    0.000    0.000 
#    0.000    0.000    0.000    0.000    0.000    0.000 
#
# Total GULP energy -89290.871308 kJ/mol
# GULP energy per Si atom -5580.679457 kJ/mol
# Density = 1.813946 g / cm^3
# Si number density = 18.180842 Si / 1000 Ang^3
#
#
#
# Elastic Constant Matrix: (Units=GPa)
#
#
# Indices 1 2 3 4 5 6 
#
# 1 102.1922 48.1941 29.5788 0.9834 32.9977 -10.3338
# 2 48.1941 128.4706 34.4669 2.9279 18.8601 -1.5714
# 3 29.5788 34.4669 64.2592 0.3689 25.3705 -8.2578
# 4 0.9834 2.9279 0.3689 24.8029 -1.2440 -12.5942
# 5 32.9977 18.8601 25.3705 -1.2440 23.8771 -7.4166
# 6 -10.3338 -1.5714 -8.2578 -12.5942 -7.4166 22.0581
#
#
#
# Elastic Compliance Matrix: (Units=1/GPa)
#
#
# Indices 1 2 3 4 5 6 
#
# 1 0.019945 -0.004420 0.004724 -0.001843 -0.029212 -0.000077
# 2 -0.004420 0.010536 -0.004623 -0.003239 0.001126 -0.004522
# 3 0.004724 -0.004623 0.029364 -0.001466 -0.033960 0.000621
# 4 -0.001843 -0.003239 -0.001466 0.063472 0.023133 0.042375
# 5 -0.029212 0.001126 -0.033960 0.023133 0.127941 0.029907
# 6 -0.000077 -0.004522 0.000621 0.042375 0.029907 0.079459
#
#
# Mechanical properties :
#
#
# Convention : Reuss Voigt Hill
#
# Bulk Modulus (GPa) = 19.52928 57.71130 38.62029
# Shear Modulus (GPa) = 14.02824 26.32642 20.17733
#
# Velocity S-wave (km/s) = 2.78077 3.80943 3.33500
# Velocity P-wave (km/s) = 4.59078 7.15268 6.00983
#
# Compressibility (1/GPa) = 0.05120517
#
# Stress axis : x y z
#
# Youngs Moduli (GPa) = 50.13792 94.91572 34.05571
#
# Poissons Ratio (x) = 0.41953 -0.16087
# Poissons Ratio (y) = 0.22161 0.15745
# Poissons Ratio (z) = -0.23685 0.43884
#
# Static dielectric constant tensor:
#      x y z
#    x 1.623500 0.020230 -0.027150 
#    y 0.020230 1.608430 -0.018350 
#    z -0.027150 -0.018350 1.639310 
# 
# From -- ./inp_files/43317.got.cif
#   From: 2010.05.17/outbox.cif.g08.bks.cpg/sg2_22_cif.got.tgz:43317.got - 2010.06.03 11:33:40.
