data_PCOD9098507
_publ_section_title
;
Structure prediction by ZEFSAII (Michael W. Deem and Ramdas Pophale) SiO2 
 PCOD9098507
Probable space group: P -1
;
_chemical_formula_sum "Si O2"
_cell_formula_units_Z 14
_cell_length_a 9.009101
_cell_length_b 13.705501
_cell_length_c 12.477652
_cell_angle_alpha 58.919002
_cell_angle_beta 48.874670
_cell_angle_gamma 40.460388
_cell_volume 752.707542
_symmetry_space_group_name_H-M "P -1"
_symmetry_group_IT_number 2
_symmetry_cell_setting 'triclinic'
loop_
_space_group_symop_operation_xyz
x,y,z
-x,-y,-z
loop_
_atom_site_type_symbol
_atom_site_label
_atom_site_fract_x
_atom_site_fract_y
_atom_site_fract_z
Si Si1 0.560316 0.310625 0.767132
Si Si2 0.259653 0.836592 0.756269
Si Si3 0.991297 0.499239 0.133420
Si Si4 0.625154 0.831250 0.752524
Si Si5 0.650781 0.035489 0.978685
Si Si6 0.382872 0.537727 0.915349
Si Si7 0.929715 0.940100 0.469720
O O1 0.308494 0.417093 0.749733
O O2 0.541546 0.195618 0.897133
O O3 0.535179 0.405970 0.826877
O O4 0.820099 0.202952 0.633694
O O5 0.446961 0.834954 0.748000
O O6 0.362711 0.669163 0.797778
O O7 0.235296 0.919171 0.613246
O O8 0.960820 0.929492 0.882376
O O9 0.175800 0.336371 0.194533
O O10 0.000000 0.500000 0.000000
O O11 0.107615 0.580721 0.050664
O O12 0.776497 0.885527 0.609856
O O13 0.432442 0.947129 0.870250
O O14 0.500000 0.000000 0.000000
O O15 0.500000 0.500000 0.000000
O O16 0.000000 0.000000 0.500000
#
# Coordination Sequence:
#
# PCOD9098507 Si02
#       7
#     2   2   2   2   2   2   2
#     4  10  22  41  63  95 126 167 213 266 317 376
#     4  11  24  41  65  95 131 164 214 271 322 382
#     4  10  20  36  67  93 128 159 215 267 318 367
#     4  12  22  42  64  95 130 173 211 272 322 374
#     4  11  21  38  68  97 124 168 221 264 317 377
#     4  11  20  39  67 100 126 159 208 265 327 378
#     4  11  27  45  65  89 129 177 221 261 319 388
#
# _framework density 18.599520999999999
#
# number of rings (size 3 to 8) (size 9 to 14) (size 15 to 20)
#    0.000    1.143    4.286    3.429    6.000    1.714 
#    0.000    2.143    0.000    0.000    0.000    0.000 
#    0.000    0.000    0.000    0.000    0.000    0.000 
#
# Total GULP energy -77983.509489 kJ/mol
# GULP energy per Si atom -5570.250678 kJ/mol
# Density = 1.855719 g / cm^3
# Si number density = 18.599521 Si / 1000 Ang^3
#
#
#
# Elastic Constant Matrix: (Units=GPa)
#
#
# Indices 1 2 3 4 5 6 
#
# 1 170.8990 74.1081 58.7094 -14.6748 1.8282 8.9531
# 2 74.1081 106.6137 47.3784 -19.8257 4.0371 15.4485
# 3 58.7094 47.3784 118.1881 -21.5839 -7.7968 11.7797
# 4 -14.6748 -19.8257 -21.5839 32.7278 3.9884 1.0157
# 5 1.8282 4.0371 -7.7968 3.9884 31.2316 -7.4399
# 6 8.9531 15.4485 11.7797 1.0157 -7.4399 35.6977
#
#
#
# Elastic Compliance Matrix: (Units=1/GPa)
#
#
# Indices 1 2 3 4 5 6 
#
# 1 0.008934 -0.005383 -0.002555 -0.000954 -0.000121 0.000934
# 2 -0.005383 0.016533 -0.002412 0.006784 -0.004766 -0.006195
# 3 -0.002555 -0.002412 0.011967 0.005059 0.002346 -0.001920
# 4 -0.000954 0.006784 0.005059 0.038523 -0.006081 -0.006729
# 5 -0.000121 -0.004766 0.002346 -0.006081 0.036155 0.009027
# 6 0.000934 -0.006195 -0.001920 -0.006729 0.009027 0.033166
#
#
# Mechanical properties :
#
#
# Convention : Reuss Voigt Hill
#
# Bulk Modulus (GPa) = 59.75766 84.01030 71.88398
# Shear Modulus (GPa) = 29.14513 34.29840 31.72176
#
# Velocity S-wave (km/s) = 3.96281 4.29890 4.13427
# Velocity P-wave (km/s) = 7.28950 8.36102 7.84358
#
# Compressibility (1/GPa) = 0.01673426
#
# Stress axis : x y z
#
# Youngs Moduli (GPa) = 111.93477 60.48640 83.56115
#
# Poissons Ratio (x) = 0.32557 0.21354
# Poissons Ratio (y) = 0.60250 0.20153
# Poissons Ratio (z) = 0.28604 0.14588
#
# Static dielectric constant tensor:
#      x y z
#    x 1.451370 -0.044800 0.015970 
#    y -0.044800 1.673810 0.026890 
#    z 0.015970 0.026890 1.629610 
# 
# From -- ./inp_files/153950.got.cif
#   From: 2010.05.17/outbox.cif.g08.bks.cpg/sg2_77_cif.got.tgz:153950.got - 2010.06.03 11:33:40.
