data_PCOD9098743
_publ_section_title
;
Structure prediction by ZEFSAII (Michael W. Deem and Ramdas Pophale) SiO2 
 PCOD9098743
Probable space group: P -1
;
_chemical_formula_sum "Si O2"
_cell_formula_units_Z 16
_cell_length_a 5.359837
_cell_length_b 9.427184
_cell_length_c 22.826967
_cell_angle_alpha 143.102314
_cell_angle_beta 58.485094
_cell_angle_gamma 123.699522
_cell_volume 568.869946
_symmetry_space_group_name_H-M "P -1"
_symmetry_group_IT_number 2
_symmetry_cell_setting 'triclinic'
loop_
_space_group_symop_operation_xyz
x,y,z
-x,-y,-z
loop_
_atom_site_type_symbol
_atom_site_label
_atom_site_fract_x
_atom_site_fract_y
_atom_site_fract_z
Si Si1 0.351763 0.806807 0.596815
Si Si2 0.305906 0.161952 0.546331
Si Si3 0.253891 0.229105 0.898041
Si Si4 0.958506 0.129192 0.689863
Si Si5 0.284537 0.670169 0.951504
Si Si6 0.074345 0.308617 0.292374
Si Si7 0.436802 0.937211 0.860969
Si Si8 0.822235 0.554109 0.799265
O O1 0.659230 0.928551 0.636008
O O2 0.160864 0.004314 0.665533
O O3 0.473917 0.706363 0.489810
O O4 0.115131 0.627886 0.609843
O O5 0.181792 0.253367 0.650373
O O6 0.500000 0.000000 0.500000
O O7 0.000000 0.000000 0.500000
O O8 0.267971 0.443104 0.922197
O O9 0.522156 0.156953 0.875153
O O10 0.102573 0.967855 0.798619
O O11 0.048489 0.290729 0.996881
O O12 0.820871 0.363144 0.789170
O O13 0.491193 0.606750 0.854526
O O14 0.462476 0.920407 0.044574
O O15 0.115467 0.489213 0.291756
O O16 0.396330 0.259204 0.248962
O O17 0.085168 0.796284 0.861479
#
# Coordination Sequence:
#
# PCOD9098743 Si02
#       8
#     2   2   2   2   2   2   2   2
#     4  10  21  39  67  90 120 159 200 244 294 354
#     4   8  16  35  61  92 118 148 196 246 292 343
#     4   9  20  38  57  80 108 146 208 253 295 350
#     4  10  22  39  65  94 119 155 201 250 293 353
#     4  10  20  37  57  80 107 153 202 255 295 350
#     4  10  23  37  55  82 122 155 196 244 302 356
#     4  10  22  37  54  78 115 158 195 243 303 360
#     4  11  24  36  55  85 123 152 198 245 306 355
#
# _framework density 28.125934999999998
#
# number of rings (size 3 to 8) (size 9 to 14) (size 15 to 20)
#    0.000    2.250    0.000    1.500    7.000    5.500 
#    0.000    0.625    0.000    0.750    0.000    0.000 
#    0.000    0.000    0.000    0.000    0.000    0.000 
#
# Total GULP energy -89319.242203 kJ/mol
# GULP energy per Si atom -5582.452638 kJ/mol
# Density = 2.806192 g / cm^3
# Si number density = 28.125935 Si / 1000 Ang^3
#
#
#
# Elastic Constant Matrix: (Units=GPa)
#
#
# Indices 1 2 3 4 5 6 
#
# 1 105.1784 25.9394 12.0214 10.4379 -14.4706 -10.4331
# 2 25.9394 89.2644 19.9126 -13.5745 -5.7246 -22.4755
# 3 12.0214 19.9126 60.8803 -38.4265 -11.6363 7.3936
# 4 10.4379 -13.5745 -38.4265 62.5233 -0.0363 -4.7432
# 5 -14.4706 -5.7246 -11.6363 -0.0363 43.9042 14.2024
# 6 -10.4331 -22.4755 7.3936 -4.7432 14.2024 48.9427
#
#
#
# Elastic Compliance Matrix: (Units=1/GPa)
#
#
# Indices 1 2 3 4 5 6 
#
# 1 0.011569 -0.002885 -0.004258 -0.005122 0.002083 0.000684
# 2 -0.002885 0.015252 -0.005223 0.001200 -0.002985 0.008161
# 3 -0.004258 -0.005223 0.034941 0.020329 0.010299 -0.009603
# 4 -0.005122 0.001200 0.020329 0.029449 0.004553 -0.002079
# 5 0.002083 -0.002985 0.010299 0.004553 0.029210 -0.010518
# 6 0.000684 0.008161 -0.009603 -0.002079 -0.010518 0.028627
#
#
# Mechanical properties :
#
#
# Convention : Reuss Voigt Hill
#
# Bulk Modulus (GPa) = 27.00611 41.23000 34.11806
# Shear Modulus (GPa) = 26.86409 44.23736 35.55073
#
# Velocity S-wave (km/s) = 3.09388 3.97020 3.55911
# Velocity P-wave (km/s) = 4.73133 5.97558 5.38948
#
# Compressibility (1/GPa) = 0.03702866
#
# Stress axis : x y z
#
# Youngs Moduli (GPa) = 86.44153 65.56544 28.61979
#
# Poissons Ratio (x) = 0.18915 0.12188
# Poissons Ratio (y) = 0.24937 0.14948
# Poissons Ratio (z) = 0.36811 0.34245
#
# Static dielectric constant tensor:
#      x y z
#    x 2.279320 0.029670 -0.047380 
#    y 0.029670 2.207950 -0.082910 
#    z -0.047380 -0.082910 2.363550 
# 
# From -- ./inp_files/44424.got.cif
#   From: 2010.05.17/outbox.cif.g08.bks.cpg/sg2_23_cif.got.tgz:44424.got - 2010.06.03 11:33:40.
