data_PCOD9098299
_publ_section_title
;
Structure prediction by ZEFSAII (Michael W. Deem and Ramdas Pophale) SiO2 
 PCOD9098299
Probable space group: P -1
;
_chemical_formula_sum "Si O2"
_cell_formula_units_Z 14
_cell_length_a 7.310109
_cell_length_b 9.369888
_cell_length_c 11.693341
_cell_angle_alpha 78.476686
_cell_angle_beta 67.621748
_cell_angle_gamma 106.695827
_cell_volume 664.780355
_symmetry_space_group_name_H-M "P -1"
_symmetry_group_IT_number 2
_symmetry_cell_setting 'triclinic'
loop_
_space_group_symop_operation_xyz
x,y,z
-x,-y,-z
loop_
_atom_site_type_symbol
_atom_site_label
_atom_site_fract_x
_atom_site_fract_y
_atom_site_fract_z
Si Si1 0.826793 0.932172 0.404418
Si Si2 0.020259 0.026383 0.125370
Si Si3 0.326334 0.341527 0.123357
Si Si4 0.327693 0.088064 0.319961
Si Si5 0.256928 0.434024 0.523847
Si Si6 0.663914 0.113389 0.851185
Si Si7 0.852255 0.471155 0.711978
O O1 0.662228 0.931413 0.543675
O O2 0.814034 0.753981 0.440035
O O3 0.818004 0.987036 0.266826
O O4 0.071694 0.045521 0.364821
O O5 0.195962 0.202634 0.086545
O O6 0.115021 0.900105 0.164356
O O7 0.000000 0.000000 0.000000
O O8 0.430057 0.259578 0.205306
O O9 0.161412 0.399132 0.219328
O O10 0.500000 0.500000 0.000000
O O11 0.384850 0.964495 0.250465
O O12 0.500000 0.500000 0.500000
O O13 0.234042 0.499745 0.394476
O O14 0.090059 0.474388 0.636228
O O15 0.696666 0.294091 0.817011
O O16 0.500000 0.000000 0.000000
#
# Coordination Sequence:
#
# PCOD9098299 Si02
#       7
#     2   2   2   2   2   2   2
#     4   9  17  36  59  83 116 162 212 251 314 380
#     4  10  22  40  62  86 125 171 206 264 329 383
#     4  10  20  36  64  96 122 169 215 257 328 392
#     4   9  17  34  60  88 117 167 208 251 318 387
#     4  11  23  37  63  97 132 164 208 274 327 380
#     4  10  20  37  61  92 123 167 214 253 319 396
#     4  11  21  40  64  95 127 166 217 264 322 384
#
# _framework density 21.059587000000001
#
# number of rings (size 3 to 8) (size 9 to 14) (size 15 to 20)
#    0.000    2.286    4.286    1.714    0.000    2.286 
#    0.000    2.143    0.000    5.143    0.000    0.000 
#    0.000    0.000    0.000    0.000    0.000    0.000 
#
# Total GULP energy -78025.519631 kJ/mol
# GULP energy per Si atom -5573.251402 kJ/mol
# Density = 2.101165 g / cm^3
# Si number density = 21.059587 Si / 1000 Ang^3
#
#
#
# Elastic Constant Matrix: (Units=GPa)
#
#
# Indices 1 2 3 4 5 6 
#
# 1 69.2017 17.6820 28.8561 3.2283 3.4614 4.0419
# 2 17.6820 124.4162 52.2703 -3.2269 8.9868 -3.8584
# 3 28.8561 52.2703 156.3525 9.7643 11.7815 21.8179
# 4 3.2283 -3.2269 9.7643 54.1104 -1.7149 -6.7973
# 5 3.4614 8.9868 11.7815 -1.7149 19.0111 1.5347
# 6 4.0419 -3.8584 21.8179 -6.7973 1.5347 6.3463
#
#
#
# Elastic Compliance Matrix: (Units=1/GPa)
#
#
# Indices 1 2 3 4 5 6 
#
# 1 0.016365 -0.004502 0.002875 -0.005384 -0.000809 -0.028614
# 2 -0.004502 0.030405 -0.036073 0.031022 -0.002873 0.179288
# 3 0.002875 -0.036073 0.061172 -0.049416 -0.002724 -0.286332
# 4 -0.005384 0.031022 -0.049416 0.062062 0.001692 0.258240
# 5 -0.000809 -0.002873 -0.002724 0.001692 0.056242 -0.003656
# 6 -0.028614 0.179288 -0.286332 0.258240 -0.003656 1.546649
#
#
# Mechanical properties :
#
#
# Convention : Reuss Voigt Hill
#
# Bulk Modulus (GPa) = 30.73055 60.84302 45.78678
# Shear Modulus (GPa) = 2.68941 32.63768 17.66355
#
# Velocity S-wave (km/s) = 1.13129 3.94099 2.89925
# Velocity P-wave (km/s) = 4.04108 7.04714 5.74423
#
# Compressibility (1/GPa) = 0.03254091
#
# Stress axis : x y z
#
# Youngs Moduli (GPa) = 61.10603 32.88970 16.34744
#
# Poissons Ratio (x) = 0.14808 -0.04700
# Poissons Ratio (y) = 0.27511 0.58970
# Poissons Ratio (z) = -0.17568 1.18643
#
# Static dielectric constant tensor:
#      x y z
#    x 1.803280 -0.004150 -0.040820 
#    y -0.004150 1.771880 0.030080 
#    z -0.040820 0.030080 1.916610 
# 
# From -- ./inp_files/376074.got.cif
#   From: 2010.05.17/outbox.cif.g08.bks.cpg/sg2_189_cif.got.tgz:376074.got - 2010.06.03 11:33:40.
