data_PCOD9098915
_publ_section_title
;
Structure prediction by ZEFSAII (Michael W. Deem and Ramdas Pophale) SiO2 
 PCOD9098915
Probable space group: P -1
;
_chemical_formula_sum "Si O2"
_cell_formula_units_Z 16
_cell_length_a 17.467671
_cell_length_b 7.009962
_cell_length_c 18.233877
_cell_angle_alpha 100.027503
_cell_angle_beta 159.829355
_cell_angle_gamma 86.687057
_cell_volume 720.478924
_symmetry_space_group_name_H-M "P -1"
_symmetry_group_IT_number 2
_symmetry_cell_setting 'triclinic'
loop_
_space_group_symop_operation_xyz
x,y,z
-x,-y,-z
loop_
_atom_site_type_symbol
_atom_site_label
_atom_site_fract_x
_atom_site_fract_y
_atom_site_fract_z
Si Si1 0.098773 0.634290 0.360176
Si Si2 0.270541 0.038319 0.241501
Si Si3 0.370270 0.128270 0.180857
Si Si4 0.728475 0.442233 0.334699
Si Si5 0.330595 0.654397 0.332684
Si Si6 0.756586 0.887792 0.092307
Si Si7 0.123356 0.470436 0.991657
Si Si8 0.956022 0.172176 0.421178
O O1 0.358815 0.732633 0.567376
O O2 0.139409 0.537568 0.466892
O O3 0.984961 0.813483 0.286173
O O4 0.930326 0.490791 0.138236
O O5 0.331793 0.994693 0.210402
O O6 0.410816 0.278536 0.396979
O O7 0.301193 0.881108 0.319331
O O8 0.000000 0.000000 0.000000
O O9 0.193390 0.262952 0.037007
O O10 0.311189 0.032671 0.040790
O O11 0.825962 0.300144 0.360076
O O12 0.804399 0.665173 0.381847
O O13 0.457688 0.317109 0.095738
O O14 0.316532 0.596365 0.231153
O O15 0.113296 0.535499 0.178513
O O16 0.801690 0.056066 0.206766
O O17 0.000000 0.000000 0.500000
#
# Coordination Sequence:
#
# PCOD9098915 Si02
#       8
#     2   2   2   2   2   2   2   2
#     4  10  20  41  61  85 129 166 208 262 312 380
#     4  11  21  37  55  85 119 157 206 261 313 378
#     4  10  21  37  61  85 121 168 202 257 320 376
#     4  10  23  42  67 100 130 168 217 257 317 391
#     4  10  22  34  56  85 114 153 207 258 316 372
#     4  10  22  41  65  92 129 172 212 259 322 377
#     4  10  20  37  58  85 114 158 205 258 314 370
#     4  11  22  43  69 100 132 166 209 265 317 382
#
# _framework density 22.207450000000001
#
# number of rings (size 3 to 8) (size 9 to 14) (size 15 to 20)
#    0.000    1.750    3.750    0.375    0.000    3.000 
#    2.250    6.250    0.000    0.000    0.000    0.000 
#    0.000    0.000    0.000    0.000    0.000    0.000 
#
# Total GULP energy -89217.758279 kJ/mol
# GULP energy per Si atom -5576.109892 kJ/mol
# Density = 2.215690 g / cm^3
# Si number density = 22.207450 Si / 1000 Ang^3
#
#
#
# Elastic Constant Matrix: (Units=GPa)
#
#
# Indices 1 2 3 4 5 6 
#
# 1 123.5754 26.3487 50.2940 9.6567 -21.0904 9.7716
# 2 26.3487 48.9285 10.9553 2.9363 -5.2494 13.5026
# 3 50.2940 10.9553 91.5913 10.7257 -20.0116 -0.9349
# 4 9.6567 2.9363 10.7257 22.8509 -12.7338 2.3742
# 5 -21.0904 -5.2494 -20.0116 -12.7338 46.6974 4.6137
# 6 9.7716 13.5026 -0.9349 2.3742 4.6137 25.6500
#
#
#
# Elastic Compliance Matrix: (Units=1/GPa)
#
#
# Indices 1 2 3 4 5 6 
#
# 1 0.011914 -0.004014 -0.005460 -0.000016 0.002896 -0.003144
# 2 -0.004014 0.026552 -0.000714 0.001389 0.002535 -0.013059
# 3 -0.005460 -0.000714 0.015018 -0.003460 0.002665 0.002844
# 4 -0.000016 0.001389 -0.003460 0.054016 0.014226 -0.008410
# 5 0.002896 0.002535 0.002665 0.014226 0.028904 -0.008857
# 6 -0.003144 -0.013059 0.002844 -0.008410 -0.008857 0.049534
#
#
# Mechanical properties :
#
#
# Convention : Reuss Voigt Hill
#
# Bulk Modulus (GPa) = 30.20317 48.81014 39.50665
# Shear Modulus (GPa) = 23.00444 30.80613 26.90529
#
# Velocity S-wave (km/s) = 3.22201 3.72855 3.48450
# Velocity P-wave (km/s) = 5.24136 6.36891 5.83245
#
# Compressibility (1/GPa) = 0.03310911
#
# Stress axis : x y z
#
# Youngs Moduli (GPa) = 83.93264 37.66208 66.58714
#
# Poissons Ratio (x) = 0.15118 0.36354
# Poissons Ratio (y) = 0.33692 0.04753
# Poissons Ratio (z) = 0.45824 0.02688
#
# Static dielectric constant tensor:
#      x y z
#    x 1.859170 0.056290 -0.041240 
#    y 0.056290 1.897290 -0.064910 
#    z -0.041240 -0.064910 2.084260 
# 
# From -- ./inp_files/575427.got.cif
#   From: 2010.05.17/outbox.cif.g08.bks.cpg/sg2_288_cif.got.tgz:575427.got - 2010.06.03 11:33:40.
