data_PCOD9098270
_publ_section_title
;
Structure prediction by ZEFSAII (Michael W. Deem and Ramdas Pophale) SiO2 
 PCOD9098270
Probable space group: P -1
;
_chemical_formula_sum "Si O2"
_cell_formula_units_Z 14
_cell_length_a 15.207805
_cell_length_b 8.854722
_cell_length_c 7.285947
_cell_angle_alpha 111.171098
_cell_angle_beta 101.516010
_cell_angle_gamma 131.092808
_cell_volume 539.989242
_symmetry_space_group_name_H-M "P -1"
_symmetry_group_IT_number 2
_symmetry_cell_setting 'triclinic'
loop_
_space_group_symop_operation_xyz
x,y,z
-x,-y,-z
loop_
_atom_site_type_symbol
_atom_site_label
_atom_site_fract_x
_atom_site_fract_y
_atom_site_fract_z
Si Si1 0.377770 0.848346 0.648396
Si Si2 0.980968 0.498431 0.207411
Si Si3 0.615814 0.728333 0.496567
Si Si4 0.819540 0.730118 0.601499
Si Si5 0.299716 0.070620 0.746793
Si Si6 0.889553 0.015455 0.126550
Si Si7 0.699776 0.206348 0.831334
O O1 0.302259 0.585232 0.590432
O O2 0.349100 0.969500 0.804612
O O3 0.299694 0.748908 0.367564
O O4 0.551793 0.074892 0.787496
O O5 0.948547 0.276237 0.190180
O O6 0.133070 0.788308 0.477740
O O7 0.846679 0.435930 0.116825
O O8 0.000000 0.500000 0.000000
O O9 0.500000 0.500000 0.500000
O O10 0.741101 0.777168 0.515316
O O11 0.578781 0.728397 0.274049
O O12 0.679208 0.982447 0.723325
O O13 0.976364 0.882825 0.668954
O O14 0.847459 0.833043 0.866234
O O15 0.260580 0.157600 0.904640
#
# Coordination Sequence:
#
# PCOD9098270 Si02
#       7
#     2   2   2   2   2   2   2
#     4  10  20  37  66  94 120 171 214 258 319 382
#     4  12  19  38  66  95 122 171 216 257 314 385
#     4  11  21  39  66  90 128 172 215 257 324 386
#     4  11  21  38  66  91 127 174 214 257 325 388
#     4  11  24  42  66  96 132 169 213 273 317 372
#     4  11  24  39  63  98 133 166 217 269 322 376
#     4  10  20  36  64  94 124 165 219 255 313 396
#
# _framework density 25.926444
#
# number of rings (size 3 to 8) (size 9 to 14) (size 15 to 20)
#    0.000    1.143    7.143    0.429    0.000    1.714 
#    0.000    1.429    3.143    0.000    0.000    0.000 
#    0.000    0.000    0.000    0.000    0.000    0.000 
#
# Total GULP energy -78257.672225 kJ/mol
# GULP energy per Si atom -5589.833730 kJ/mol
# Density = 2.586743 g / cm^3
# Si number density = 25.926444 Si / 1000 Ang^3
#
#
#
# Elastic Constant Matrix: (Units=GPa)
#
#
# Indices 1 2 3 4 5 6 
#
# 1 164.2580 36.4408 24.5904 12.3443 6.1791 0.6854
# 2 36.4408 88.5818 16.6571 -3.8482 -3.8232 17.6669
# 3 24.5904 16.6571 64.1936 5.3169 4.8653 5.4105
# 4 12.3443 -3.8482 5.3169 15.9015 7.3198 7.3394
# 5 6.1791 -3.8232 4.8653 7.3198 40.3135 -9.0732
# 6 0.6854 17.6669 5.4105 7.3394 -9.0732 36.2008
#
#
#
# Elastic Compliance Matrix: (Units=1/GPa)
#
#
# Indices 1 2 3 4 5 6 
#
# 1 0.007865 -0.004115 -0.001643 -0.009065 0.001204 0.004245
# 2 -0.004115 0.016177 -0.002684 0.014236 -0.002559 -0.010943
# 3 -0.001643 -0.002684 0.017430 -0.004115 -0.001543 -0.000816
# 4 -0.009065 0.014236 -0.004115 0.099592 -0.022020 -0.031871
# 5 0.001204 -0.002559 -0.001543 -0.022020 0.031683 0.013862
# 6 0.004245 -0.010943 -0.000816 -0.031871 0.013862 0.042942
#
#
# Mechanical properties :
#
#
# Convention : Reuss Voigt Hill
#
# Bulk Modulus (GPa) = 40.67042 52.49000 46.58021
# Shear Modulus (GPa) = 20.76670 34.43950 27.60310
#
# Velocity S-wave (km/s) = 2.83324 3.64861 3.26647
# Velocity P-wave (km/s) = 5.14042 6.16762 5.67730
#
# Compressibility (1/GPa) = 0.02458790
#
# Stress axis : x y z
#
# Youngs Moduli (GPa) = 127.14269 61.81584 57.37088
#
# Poissons Ratio (x) = 0.25437 0.09428
# Poissons Ratio (y) = 0.52319 0.15399
# Poissons Ratio (z) = 0.20893 0.16592
#
# Static dielectric constant tensor:
#      x y z
#    x 2.117610 -0.024490 0.061830 
#    y -0.024490 2.116210 -0.028920 
#    z 0.061830 -0.028920 2.134390 
# 
# From -- ./inp_files/204065.got.cif
#   From: 2010.05.17/outbox.cif.g08.bks.cpg/sg2_103_cif.got.tgz:204065.got - 2010.06.03 11:33:40.
