data_PCOD9098693
_publ_section_title
;
Structure prediction by ZEFSAII (Michael W. Deem and Ramdas Pophale) SiO2 
 PCOD9098693
Probable space group: P -1
;
_chemical_formula_sum "Si O2"
_cell_formula_units_Z 16
_cell_length_a 6.370542
_cell_length_b 8.539028
_cell_length_c 16.980350
_cell_angle_alpha 125.591633
_cell_angle_beta 64.122555
_cell_angle_gamma 112.196532
_cell_volume 666.083118
_symmetry_space_group_name_H-M "P -1"
_symmetry_group_IT_number 2
_symmetry_cell_setting 'triclinic'
loop_
_space_group_symop_operation_xyz
x,y,z
-x,-y,-z
loop_
_atom_site_type_symbol
_atom_site_label
_atom_site_fract_x
_atom_site_fract_y
_atom_site_fract_z
Si Si1 0.252193 0.061267 0.080940
Si Si2 0.561757 0.323276 0.768087
Si Si3 0.080614 0.930157 0.342306
Si Si4 0.273664 0.532369 0.483257
Si Si5 0.507816 0.626799 0.743690
Si Si6 0.033833 0.379387 0.124302
Si Si7 0.264973 0.251939 0.524943
Si Si8 0.034568 0.266618 0.865275
O O1 0.323653 0.211604 0.185417
O O2 0.137058 0.178569 0.065459
O O3 0.095583 0.862248 0.080532
O O4 0.500000 0.000000 0.000000
O O5 0.662987 0.125565 0.696882
O O6 0.520763 0.415696 0.718220
O O7 0.774169 0.472995 0.814787
O O8 0.313962 0.304545 0.847029
O O9 0.020185 0.875870 0.245502
O O10 0.877267 0.795935 0.386541
O O11 0.113485 0.130608 0.444649
O O12 0.380136 0.387034 0.363525
O O13 0.270825 0.470194 0.556602
O O14 0.452070 0.740580 0.508599
O O15 0.000000 0.500000 0.500000
O O16 0.235371 0.655356 0.808153
O O17 0.027036 0.521401 0.089536
#
# Coordination Sequence:
#
# PCOD9098693 Si02
#       8
#     2   2   2   2   2   2   2   2
#     4  11  25  42  65  97 124 156 206 255 308 374
#     4   9  18  36  62  86 114 160 207 246 301 366
#     4  10  20  37  56  82 119 158 203 256 299 355
#     4  11  22  36  56  85 120 161 204 250 302 360
#     4  10  21  41  63  87 124 167 204 249 312 365
#     4   9  21  41  64  89 123 161 203 256 303 363
#     4  10  22  34  52  83 117 154 205 254 298 353
#     4  10  21  39  64  89 119 163 202 243 311 367
#
# _framework density 24.021028000000001
#
# number of rings (size 3 to 8) (size 9 to 14) (size 15 to 20)
#    0.000    2.000    0.000    3.750    0.000    9.000 
#    0.000    8.750    0.000    0.000    0.000    0.000 
#    0.000    0.000    0.000    0.000    0.000    0.000 
#
# Total GULP energy -89139.082939 kJ/mol
# GULP energy per Si atom -5571.192684 kJ/mol
# Density = 2.396635 g / cm^3
# Si number density = 24.021028 Si / 1000 Ang^3
#
#
#
# Elastic Constant Matrix: (Units=GPa)
#
#
# Indices 1 2 3 4 5 6 
#
# 1 136.1241 41.5566 24.4437 -4.5658 -17.2267 7.9138
# 2 41.5566 114.8544 39.4361 -29.6424 -11.3172 0.0708
# 3 24.4437 39.4361 44.0531 -1.8902 5.4128 -3.9116
# 4 -4.5658 -29.6424 -1.8902 44.4415 16.1883 0.3977
# 5 -17.2267 -11.3172 5.4128 16.1883 37.0246 9.2588
# 6 7.9138 0.0708 -3.9116 0.3977 9.2588 40.6908
#
#
#
# Elastic Compliance Matrix: (Units=1/GPa)
#
#
# Indices 1 2 3 4 5 6 
#
# 1 0.009872 -0.001878 -0.005151 -0.003002 0.007084 -0.003994
# 2 -0.001878 0.017027 -0.014267 0.009607 0.002649 -0.001733
# 3 -0.005151 -0.014267 0.040484 -0.003634 -0.013070 0.007928
# 4 -0.003002 0.009607 -0.003634 0.033221 -0.013177 0.002891
# 5 0.007084 0.002649 -0.013070 -0.013177 0.041793 -0.012019
# 6 -0.003994 -0.001733 0.007928 0.002891 -0.012019 0.028824
#
#
# Mechanical properties :
#
#
# Convention : Reuss Voigt Hill
#
# Bulk Modulus (GPa) = 40.33717 56.21163 48.27440
# Shear Modulus (GPa) = 22.51487 37.07107 29.79297
#
# Velocity S-wave (km/s) = 3.06485 3.93272 3.52559
# Velocity P-wave (km/s) = 5.41787 6.63879 6.05916
#
# Compressibility (1/GPa) = 0.02479103
#
# Stress axis : x y z
#
# Youngs Moduli (GPa) = 101.29227 58.73189 24.70123
#
# Poissons Ratio (x) = 0.11028 0.12723
# Poissons Ratio (y) = 0.19020 0.35242
# Poissons Ratio (z) = 0.52174 0.83794
#
# Static dielectric constant tensor:
#      x y z
#    x 2.051080 0.011210 -0.016980 
#    y 0.011210 2.031960 0.062260 
#    z -0.016980 0.062260 1.977940 
# 
# From -- ./inp_files/485316.got.cif
#   From: 2010.05.17/outbox.cif.g08.bks.cpg/sg2_243_cif.got.tgz:485316.got - 2010.06.03 11:33:40.
