data_PCOD9098217
_publ_section_title
;
Structure prediction by ZEFSAII (Michael W. Deem and Ramdas Pophale) SiO2 
 PCOD9098217
Probable space group: P -1
;
_chemical_formula_sum "Si O2"
_cell_formula_units_Z 15
_cell_length_a 26.167501
_cell_length_b 11.245227
_cell_length_c 11.576610
_cell_angle_alpha 42.666259
_cell_angle_beta 159.244412
_cell_angle_gamma 147.661698
_cell_volume 618.232122
_symmetry_space_group_name_H-M "P -1"
_symmetry_group_IT_number 2
_symmetry_cell_setting 'triclinic'
loop_
_space_group_symop_operation_xyz
x,y,z
-x,-y,-z
loop_
_atom_site_type_symbol
_atom_site_label
_atom_site_fract_x
_atom_site_fract_y
_atom_site_fract_z
Si Si1 0.113680 0.946585 0.949043
Si Si2 0.375123 0.725943 0.946764
Si Si3 0.578658 0.606784 0.298661
Si Si4 0.026048 0.942915 0.222913
Si Si5 0.073920 0.660674 0.780053
Si Si6 0.000000 0.500000 0.000000
Si Si7 0.235591 0.171381 0.804584
Si Si8 0.255365 0.552004 0.065656
O O1 0.895750 0.772837 0.558131
O O2 0.222397 0.129952 0.945353
O O3 0.148564 0.771963 0.168502
O O4 0.105118 0.052460 0.970106
O O5 0.147610 0.550255 0.568099
O O6 0.458866 0.652252 0.086022
O O7 0.384573 0.684071 0.132598
O O8 0.500000 0.000000 0.000000
O O9 0.659473 0.533145 0.614266
O O10 0.753672 0.845364 0.436491
O O11 0.452667 0.397905 0.090683
O O12 0.950168 0.686003 0.242216
O O13 0.000000 0.000000 0.000000
O O14 0.136563 0.915655 0.731402
O O15 0.090840 0.600687 0.988818
O O16 0.212818 0.676430 0.972514
#
# Coordination Sequence:
#
# PCOD9098217 Si02
#       8
#     2   2   2   2   2   1   2   2
#     4  10  20  39  61  89 126 171 212 256 321 384
#     4  12  26  43  67  99 132 168 218 274 326 383
#     4  11  23  41  66  99 129 166 219 268 319 384
#     4  10  21  38  64  93 126 165 211 262 320 381
#     4  11  24  44  67  93 131 176 214 261 327 388
#     4  10  20  36  64  90 122 168 220 256 300 386
#     4  10  22  40  64  90 127 171 212 260 321 382
#     4  11  24  45  69  94 132 174 216 267 327 388
#
# _framework density 24.262730999999999
#
# number of rings (size 3 to 8) (size 9 to 14) (size 15 to 20)
#    0.000    1.333    0.000    7.200    0.000    6.400 
#    0.000    4.000    0.000    0.000    0.000    0.000 
#    0.000    0.000    0.000    0.000    0.000    0.000 
#
# Total GULP energy -83641.051220 kJ/mol
# GULP energy per Si atom -5576.070081 kJ/mol
# Density = 2.420751 g / cm^3
# Si number density = 24.262731 Si / 1000 Ang^3
#
#
#
# Elastic Constant Matrix: (Units=GPa)
#
#
# Indices 1 2 3 4 5 6 
#
# 1 121.7960 35.5540 -11.7172 -4.6658 -0.1971 4.8527
# 2 35.5540 117.7366 31.8875 33.7419 -6.8606 1.1287
# 3 -11.7172 31.8875 36.1595 21.3411 -4.8668 2.3270
# 4 -4.6658 33.7419 21.3411 33.8461 -2.7697 -5.6928
# 5 -0.1971 -6.8606 -4.8668 -2.7697 28.1325 -8.2277
# 6 4.8527 1.1287 2.3270 -5.6928 -8.2277 53.5612
#
#
#
# Elastic Compliance Matrix: (Units=1/GPa)
#
#
# Indices 1 2 3 4 5 6 
#
# 1 0.010797 -0.006004 0.007193 0.002778 -0.000131 -0.000889
# 2 -0.006004 0.016051 -0.009585 -0.010760 0.001049 -0.000360
# 3 0.007193 -0.009585 0.052983 -0.023398 0.003186 -0.004749
# 4 0.002778 -0.010760 -0.023398 0.056700 0.001029 0.007176
# 5 -0.000131 0.001049 0.003186 0.001029 0.038156 0.005822
# 6 -0.000889 -0.000360 -0.004749 0.007176 0.005822 0.020622
#
#
# Mechanical properties :
#
#
# Convention : Reuss Voigt Hill
#
# Bulk Modulus (GPa) = 15.86322 43.01564 29.43943
# Shear Modulus (GPa) = 21.44891 37.77250 29.61070
#
# Velocity S-wave (km/s) = 2.97648 3.94993 3.49724
# Velocity P-wave (km/s) = 4.28543 6.21049 5.33550
#
# Compressibility (1/GPa) = 0.06303891
#
# Stress axis : x y z
#
# Youngs Moduli (GPa) = 92.62138 62.30206 18.87410
#
# Poissons Ratio (x) = 0.37404 -0.13576
# Poissons Ratio (y) = 0.55607 0.18091
# Poissons Ratio (z) = -0.66624 0.59717
#
# Static dielectric constant tensor:
#      x y z
#    x 2.043180 -0.068470 -0.049190 
#    y -0.068470 1.981440 -0.012530 
#    z -0.049190 -0.012530 2.035910 
# 
# From -- ./inp_files/476634.got.cif
#   From: 2010.05.17/outbox.cif.g08.bks.cpg/sg2_239_cif.got.tgz:476634.got - 2010.06.03 11:33:40.
