data_PCOD9098837
_publ_section_title
;
Structure prediction by ZEFSAII (Michael W. Deem and Ramdas Pophale) SiO2 
 PCOD9098837
Probable space group: P -1
;
_chemical_formula_sum "Si O2"
_cell_formula_units_Z 16
_cell_length_a 23.199859
_cell_length_b 13.740594
_cell_length_c 9.325698
_cell_angle_alpha 109.952644
_cell_angle_beta 42.059568
_cell_angle_gamma 145.556490
_cell_volume 787.077906
_symmetry_space_group_name_H-M "P -1"
_symmetry_group_IT_number 2
_symmetry_cell_setting 'triclinic'
loop_
_space_group_symop_operation_xyz
x,y,z
-x,-y,-z
loop_
_atom_site_type_symbol
_atom_site_label
_atom_site_fract_x
_atom_site_fract_y
_atom_site_fract_z
Si Si1 0.674491 0.646656 0.139432
Si Si2 0.218268 0.942417 0.645421
Si Si3 0.038087 0.656992 0.559130
Si Si4 0.684821 0.434466 0.123532
Si Si5 0.777000 0.978807 0.792416
Si Si6 0.335353 0.500520 0.499617
Si Si7 0.012451 0.825311 0.220301
Si Si8 0.299920 0.228483 0.446095
O O1 0.500000 0.500000 0.500000
O O2 0.753414 0.622407 0.034459
O O3 0.543844 0.487225 0.155697
O O4 0.849324 0.921596 0.935469
O O5 0.453871 0.172601 0.359329
O O6 0.207587 0.042319 0.631546
O O7 0.115848 0.752218 0.627257
O O8 0.107748 0.840738 0.949342
O O9 0.000000 0.500000 0.500000
O O10 0.202801 0.894534 0.273067
O O11 0.835800 0.507241 0.842025
O O12 0.687421 0.449405 0.298183
O O13 0.759222 0.869393 0.652828
O O14 0.962540 0.171966 0.658112
O O15 0.573162 0.752955 0.150138
O O16 0.250451 0.294236 0.595513
O O17 0.212432 0.401635 0.537874
#
# Coordination Sequence:
#
# PCOD9098837 Si02
#       8
#     2   2   2   2   2   2   2   2
#     4  11  18  34  61  97 136 172 210 241 299 383
#     4  10  20  40  67  93 126 163 215 256 302 383
#     4  11  27  48  69  91 116 161 223 277 323 365
#     4  11  21  40  69  93 124 175 214 249 307 381
#     4  11  25  43  57  93 139 158 203 277 310 362
#     4  12  22  36  64  93 136 174 207 237 316 381
#     4  12  22  34  64  97 133 171 204 247 313 386
#     4  10  20  37  57  91 139 177 197 246 302 370
#
# _framework density 20.328355999999999
#
# number of rings (size 3 to 8) (size 9 to 14) (size 15 to 20)
#    0.000    1.000    7.500    0.375    3.500    5.000 
#    0.000    1.250    0.000    0.000    0.000    0.000 
#    0.000    0.000    0.000    0.000    0.000    0.000 
#
# Total GULP energy -89440.750076 kJ/mol
# GULP energy per Si atom -5590.046880 kJ/mol
# Density = 2.028209 g / cm^3
# Si number density = 20.328356 Si / 1000 Ang^3
#
#
#
# Elastic Constant Matrix: (Units=GPa)
#
#
# Indices 1 2 3 4 5 6 
#
# 1 90.3470 42.0145 24.5848 15.1004 -5.0421 36.0875
# 2 42.0145 117.0267 25.4243 28.3256 -9.9063 12.2587
# 3 24.5848 25.4243 54.0633 15.0316 -12.0666 -3.7056
# 4 15.1004 28.3256 15.0316 27.4070 5.7294 -2.8062
# 5 -5.0421 -9.9063 -12.0666 5.7294 24.7833 1.2657
# 6 36.0875 12.2587 -3.7056 -2.8062 1.2657 40.6513
#
#
#
# Elastic Compliance Matrix: (Units=1/GPa)
#
#
# Indices 1 2 3 4 5 6 
#
# 1 0.026048 -0.001949 -0.008639 -0.010931 0.004078 -0.024205
# 2 -0.001949 0.014342 0.000615 -0.016513 0.009656 -0.003980
# 3 -0.008639 0.000615 0.030652 -0.015243 0.016491 0.008712
# 4 -0.010931 -0.016513 -0.015243 0.077298 -0.035123 0.019723
# 5 0.004078 0.009656 0.016491 -0.035123 0.061667 -0.009373
# 6 -0.024205 -0.003980 0.008712 0.019723 -0.009373 0.049735
#
#
# Mechanical properties :
#
#
# Convention : Reuss Voigt Hill
#
# Bulk Modulus (GPa) = 19.57029 49.49823 34.53426
# Shear Modulus (GPa) = 16.85104 29.86256 23.35680
#
# Velocity S-wave (km/s) = 2.88226 3.83693 3.39333
# Velocity P-wave (km/s) = 4.55242 6.63563 5.69017
#
# Compressibility (1/GPa) = 0.05109786
#
# Stress axis : x y z
#
# Youngs Moduli (GPa) = 38.39062 69.72496 32.62446
#
# Poissons Ratio (x) = 0.13586 0.28183
# Poissons Ratio (y) = 0.07480 -0.02007
# Poissons Ratio (z) = 0.33164 -0.04288
#
# Static dielectric constant tensor:
#      x y z
#    x 1.750570 0.032550 0.005400 
#    y 0.032550 1.710640 -0.010680 
#    z 0.005400 -0.010680 1.743560 
# 
# From -- ./inp_files/217607.got.cif
#   From: 2010.05.17/outbox.cif.g08.bks.cpg/sg2_109_cif.got.tgz:217607.got - 2010.06.03 11:33:40.
