data_PCOD9098392
_publ_section_title
;
Structure prediction by ZEFSAII (Michael W. Deem and Ramdas Pophale) SiO2 
 PCOD9098392
Probable space group: P -1
;
_chemical_formula_sum "Si O2"
_cell_formula_units_Z 14
_cell_length_a 9.326168
_cell_length_b 7.310870
_cell_length_c 16.009801
_cell_angle_alpha 88.388515
_cell_angle_beta 38.572963
_cell_angle_gamma 108.107454
_cell_volume 575.248031
_symmetry_space_group_name_H-M "P -1"
_symmetry_group_IT_number 2
_symmetry_cell_setting 'triclinic'
loop_
_space_group_symop_operation_xyz
x,y,z
-x,-y,-z
loop_
_atom_site_type_symbol
_atom_site_label
_atom_site_fract_x
_atom_site_fract_y
_atom_site_fract_z
Si Si1 0.396760 0.659964 0.726842
Si Si2 0.396597 0.365004 0.858710
Si Si3 0.927701 0.689634 0.705812
Si Si4 0.981068 0.124102 0.621132
Si Si5 0.260853 0.734071 0.404245
Si Si6 0.212501 0.329946 0.674624
Si Si7 0.891217 0.115658 0.203360
O O1 0.353917 0.549544 0.837707
O O2 0.710074 0.754383 0.556663
O O3 0.200732 0.460249 0.756515
O O4 0.326724 0.842551 0.741403
O O5 0.483309 0.273332 0.742810
O O6 0.653238 0.475912 0.803199
O O7 0.131674 0.183920 0.027978
O O8 0.191694 0.736209 0.532454
O O9 0.987335 0.719354 0.775592
O O10 0.895774 0.886089 0.688913
O O11 0.997313 0.250455 0.697242
O O12 0.787653 0.116192 0.637156
O O13 0.000000 0.500000 0.500000
O O14 0.500000 0.500000 0.500000
O O15 0.205233 0.116359 0.710418
#
# Coordination Sequence:
#
# PCOD9098392 Si02
#       7
#     2   2   2   2   2   2   2
#     4  11  23  40  67  95 134 172 222 271 321 396
#     4  11  24  43  63  99 137 172 215 269 336 397
#     4  10  22  41  68  96 124 174 227 270 320 390
#     4  10  20  40  63  99 124 166 231 275 318 375
#     4  10  20  36  65  94 127 167 219 274 317 380
#     4   9  23  42  65  97 131 171 225 269 321 392
#     4  11  25  45  66  98 137 176 212 272 342 387
#
# _framework density 24.337326000000001
#
# number of rings (size 3 to 8) (size 9 to 14) (size 15 to 20)
#    0.000    1.714    2.857    1.286    4.000    8.000 
#    2.571    1.429    0.000    0.000    0.000    0.000 
#    0.000    0.000    0.000    0.000    0.000    0.000 
#
# Total GULP energy -78377.093502 kJ/mol
# GULP energy per Si atom -5598.363822 kJ/mol
# Density = 2.428193 g / cm^3
# Si number density = 24.337326 Si / 1000 Ang^3
#
#
#
# Elastic Constant Matrix: (Units=GPa)
#
#
# Indices 1 2 3 4 5 6 
#
# 1 120.6828 34.6266 38.7436 -0.7722 6.4450 -10.1224
# 2 34.6266 78.0278 19.9136 -5.5842 1.0045 -11.2792
# 3 38.7436 19.9136 110.5067 1.6981 -1.2652 -11.4538
# 4 -0.7722 -5.5842 1.6981 36.0040 -0.4343 13.9480
# 5 6.4450 1.0045 -1.2652 -0.4343 25.1071 -3.2606
# 6 -10.1224 -11.2792 -11.4538 13.9480 -3.2606 54.9507
#
#
#
# Elastic Compliance Matrix: (Units=1/GPa)
#
#
# Indices 1 2 3 4 5 6 
#
# 1 0.010520 -0.003838 -0.002969 -0.000451 -0.002641 0.000489
# 2 -0.003838 0.015200 -0.001229 0.001654 0.000574 0.001771
# 3 -0.002969 -0.001229 0.010545 -0.001453 0.001559 0.001860
# 4 -0.000451 0.001654 -0.001453 0.031180 -0.000522 -0.007992
# 5 -0.002641 0.000574 0.001559 -0.000522 0.040880 0.002515
# 6 0.000489 0.001771 0.001860 -0.007992 0.002515 0.021217
#
#
# Mechanical properties :
#
#
# Convention : Reuss Voigt Hill
#
# Bulk Modulus (GPa) = 49.52446 55.08721 52.30584
# Shear Modulus (GPa) = 32.82033 37.60792 35.21412
#
# Velocity S-wave (km/s) = 3.67626 3.93527 3.80796
# Velocity P-wave (km/s) = 6.19784 6.58274 6.39318
#
# Compressibility (1/GPa) = 0.02019204
#
# Stress axis : x y z
#
# Youngs Moduli (GPa) = 95.05845 65.79040 94.83500
#
# Poissons Ratio (x) = 0.25252 0.28159
# Poissons Ratio (y) = 0.36486 0.11652
# Poissons Ratio (z) = 0.28225 0.08083
#
# Static dielectric constant tensor:
#      x y z
#    x 1.997190 0.043020 -0.021920 
#    y 0.043020 2.045920 -0.020140 
#    z -0.021920 -0.020140 1.892440 
# 
# From -- ./inp_files/494609.got.cif
#   From: 2010.05.17/outbox.cif.g08.bks.cpg/sg2_248_cif.got.tgz:494609.got - 2010.06.03 11:33:40.
