data_PCOD9098021
_publ_section_title
;
Structure prediction by ZEFSAII (Michael W. Deem and Ramdas Pophale) SiO2 
 PCOD9098021
Probable space group: P -1
;
_chemical_formula_sum "Si O2"
_cell_formula_units_Z 16
_cell_length_a 10.595449
_cell_length_b 9.803904
_cell_length_c 12.052755
_cell_angle_alpha 97.039857
_cell_angle_beta 50.897374
_cell_angle_gamma 117.390046
_cell_volume 836.748340
_symmetry_space_group_name_H-M "P -1"
_symmetry_group_IT_number 2
_symmetry_cell_setting 'triclinic'
loop_
_space_group_symop_operation_xyz
x,y,z
-x,-y,-z
loop_
_atom_site_type_symbol
_atom_site_label
_atom_site_fract_x
_atom_site_fract_y
_atom_site_fract_z
Si Si1 0.522145 0.882458 0.057495
Si Si2 0.869150 0.359459 0.353722
Si Si3 0.170330 0.939112 0.772334
Si Si4 0.468147 0.805058 0.316719
Si Si5 0.407985 0.433808 0.855474
Si Si6 0.139323 0.470077 0.841650
Si Si7 0.711668 0.487355 0.853406
Si Si8 0.056279 0.891436 0.087833
O O1 0.430432 0.865688 0.227986
O O2 0.425401 0.698420 0.056842
O O3 0.500000 0.000000 0.000000
O O4 0.744197 0.973862 0.965013
O O5 0.872607 0.201826 0.299800
O O6 0.717284 0.315356 0.528907
O O7 0.812197 0.420262 0.281667
O O8 0.082383 0.482402 0.280940
O O9 0.393208 0.044959 0.673340
O O10 0.082828 0.881953 0.938818
O O11 0.087552 0.050286 0.794634
O O12 0.588792 0.719660 0.208185
O O13 0.318727 0.493474 0.816491
O O14 0.615874 0.524912 0.805916
O O15 0.284302 0.412578 0.031325
O O16 0.022340 0.287843 0.848245
O O17 0.000000 0.500000 0.000000
#
# Coordination Sequence:
#
# PCOD9098021 Si02
#       8
#     2   2   2   2   2   2   2   2
#     4  10  22  37  62  88 117 157 204 252 289 359
#     4  12  24  37  66  91 124 160 197 259 299 359
#     4  10  20  37  62  88 118 157 202 244 305 355
#     4  10  23  41  60  90 123 158 200 243 316 362
#     4  10  21  38  58  86 123 157 200 251 289 364
#     4  12  21  37  63  97 117 152 215 254 293 346
#     4  10  22  38  61  90 119 161 208 238 305 360
#     4  10  20  36  63  88 116 156 204 252 291 352
#
# _framework density 19.121638999999998
#
# number of rings (size 3 to 8) (size 9 to 14) (size 15 to 20)
#    0.000    1.500    3.750    1.125    8.750    2.500 
#    0.000    0.000    0.000    0.750    0.000    0.000 
#    0.000    0.000    0.000    0.000    0.000    0.000 
#
# Total GULP energy -89193.804716 kJ/mol
# GULP energy per Si atom -5574.612795 kJ/mol
# Density = 1.907812 g / cm^3
# Si number density = 19.121639 Si / 1000 Ang^3
#
#
#
# Elastic Constant Matrix: (Units=GPa)
#
#
# Indices 1 2 3 4 5 6 
#
# 1 120.9012 25.1084 50.6658 -10.5869 5.2153 -6.3558
# 2 25.1084 99.1131 32.8744 2.7676 -6.1299 -3.7910
# 3 50.6658 32.8744 87.0411 -15.7922 3.6320 -8.7711
# 4 -10.5869 2.7676 -15.7922 18.6135 -3.5444 1.3323
# 5 5.2153 -6.1299 3.6320 -3.5444 14.9657 -3.9299
# 6 -6.3558 -3.7910 -8.7711 1.3323 -3.9299 31.5584
#
#
#
# Elastic Compliance Matrix: (Units=1/GPa)
#
#
# Indices 1 2 3 4 5 6 
#
# 1 0.011120 -0.001106 -0.005729 0.001117 -0.002637 0.000139
# 2 -0.001106 0.012720 -0.005427 -0.006100 0.005667 0.000760
# 3 -0.005729 -0.005427 0.019734 0.013899 -0.000943 0.002975
# 4 0.001117 -0.006100 0.013899 0.068938 0.010527 0.001756
# 5 -0.002637 0.005667 -0.000943 0.010527 0.075091 0.008794
# 6 0.000139 0.000760 0.002975 0.001756 0.008794 0.033654
#
#
# Mechanical properties :
#
#
# Convention : Reuss Voigt Hill
#
# Bulk Modulus (GPa) = 52.49079 58.26140 55.37609
# Shear Modulus (GPa) = 19.83098 26.25464 23.04281
#
# Velocity S-wave (km/s) = 3.22389 3.70947 3.47517
# Velocity P-wave (km/s) = 6.43184 6.99155 6.71753
#
# Compressibility (1/GPa) = 0.01905096
#
# Stress axis : x y z
#
# Youngs Moduli (GPa) = 89.92408 78.61883 50.67412
#
# Poissons Ratio (x) = 0.08695 0.29030
# Poissons Ratio (y) = 0.09946 0.27500
# Poissons Ratio (z) = 0.51515 0.42665
#
# Static dielectric constant tensor:
#      x y z
#    x 1.728280 0.029450 0.002040 
#    y 0.029450 1.692150 0.005700 
#    z 0.002040 0.005700 1.646790 
# 
# From -- ./inp_files/419522.got.cif
#   From: 2010.05.17/outbox.cif.g08.bks.cpg/sg2_210_cif.got.tgz:419522.got - 2010.06.03 11:33:40.
