data_PCOD9098297
_publ_section_title
;
Structure prediction by ZEFSAII (Michael W. Deem and Ramdas Pophale) SiO2 
 PCOD9098297
Probable space group: P -1
;
_chemical_formula_sum "Si O2"
_cell_formula_units_Z 14
_cell_length_a 10.934397
_cell_length_b 10.799180
_cell_length_c 12.328349
_cell_angle_alpha 130.940603
_cell_angle_beta 85.360493
_cell_angle_gamma 132.064189
_cell_volume 628.242344
_symmetry_space_group_name_H-M "P -1"
_symmetry_group_IT_number 2
_symmetry_cell_setting 'triclinic'
loop_
_space_group_symop_operation_xyz
x,y,z
-x,-y,-z
loop_
_atom_site_type_symbol
_atom_site_label
_atom_site_fract_x
_atom_site_fract_y
_atom_site_fract_z
Si Si1 0.083170 0.819887 0.746417
Si Si2 0.783849 0.070994 0.536039
Si Si3 0.826433 0.663267 0.303943
Si Si4 0.270336 0.259351 0.828766
Si Si5 0.240067 0.837868 0.180690
Si Si6 0.676931 0.178032 0.424977
Si Si7 0.604581 0.930716 0.934970
O O1 0.196209 0.817937 0.652950
O O2 0.833093 0.505693 0.596053
O O3 0.111838 0.022729 0.797165
O O4 0.220144 0.936010 0.912153
O O5 0.744396 0.019091 0.636761
O O6 0.690690 0.127600 0.517631
O O7 0.042565 0.350354 0.671712
O O8 0.708927 0.841809 0.333387
O O9 0.781922 0.625325 0.157073
O O10 0.600877 0.414110 0.236131
O O11 0.000000 0.000000 0.500000
O O12 0.500000 0.500000 0.000000
O O13 0.441097 0.941033 0.258072
O O14 0.295293 0.964775 0.131211
O O15 0.000000 0.500000 0.000000
O O16 0.500000 0.000000 0.000000
#
# Coordination Sequence:
#
# PCOD9098297 Si02
#       7
#     2   2   2   2   2   2   2
#     4  10  20  36  64  96 118 161 218 267 306 373
#     4  10  23  39  61  95 125 165 210 261 324 372
#     4  10  22  40  65  93 128 169 220 263 312 384
#     4  10  20  39  66  89 122 165 219 262 308 373
#     4  12  25  38  61  96 139 168 198 265 335 385
#     4  10  21  38  63  92 128 158 209 266 324 379
#     4  12  22  38  65  96 127 165 221 261 312 383
#
# _framework density 22.284393000000001
#
# number of rings (size 3 to 8) (size 9 to 14) (size 15 to 20)
#    0.000    1.429    2.857    3.000    6.000    0.000 
#    0.000    2.857    0.000    1.714    0.000    0.000 
#    0.000    0.000    0.000    0.000    0.000    0.000 
#
# Total GULP energy -78009.691371 kJ/mol
# GULP energy per Si atom -5572.120812 kJ/mol
# Density = 2.223367 g / cm^3
# Si number density = 22.284393 Si / 1000 Ang^3
#
#
#
# Elastic Constant Matrix: (Units=GPa)
#
#
# Indices 1 2 3 4 5 6 
#
# 1 39.3927 33.4269 39.6458 7.3895 27.2205 -5.9215
# 2 33.4269 161.5065 87.7843 -10.1212 14.2988 -22.0685
# 3 39.6458 87.7843 149.6548 -1.1218 27.8723 -7.2380
# 4 7.3895 -10.1212 -1.1218 53.7802 4.5264 1.3880
# 5 27.2205 14.2988 27.8723 4.5264 38.5766 -2.6165
# 6 -5.9215 -22.0685 -7.2380 1.3880 -2.6165 23.6365
#
#
#
# Elastic Compliance Matrix: (Units=1/GPa)
#
#
# Indices 1 2 3 4 5 6 
#
# 1 0.065881 -0.006703 -0.006216 -0.007333 -0.038344 0.004529
# 2 -0.006703 0.011221 -0.005285 0.002338 0.004627 0.007554
# 3 -0.006216 -0.005285 0.011722 0.000387 -0.002386 -0.003189
# 4 -0.007333 0.002338 0.000387 0.019924 0.001655 -0.000522
# 5 -0.038344 0.004627 -0.002386 0.001655 0.052775 -0.000272
# 6 0.004529 0.007554 -0.003189 -0.000522 -0.000272 0.049519
#
#
# Mechanical properties :
#
#
# Convention : Reuss Voigt Hill
#
# Bulk Modulus (GPa) = 19.07799 74.69645 46.88722
# Shear Modulus (GPa) = 18.87358 35.84512 27.35935
#
# Velocity S-wave (km/s) = 2.91338 4.01500 3.50771
# Velocity P-wave (km/s) = 4.46058 7.42200 6.12302
#
# Compressibility (1/GPa) = 0.05241641
#
# Stress axis : x y z
#
# Youngs Moduli (GPa) = 15.17886 89.12231 85.31124
#
# Poissons Ratio (x) = 0.59738 0.53026
# Poissons Ratio (y) = 0.10174 0.45087
# Poissons Ratio (z) = 0.09435 0.47101
#
# Static dielectric constant tensor:
#      x y z
#    x 2.143430 -0.175950 0.065080 
#    y -0.175950 1.980130 -0.119860 
#    z 0.065080 -0.119860 2.032090 
# 
# From -- ./inp_files/182434.got.cif
#   From: 2010.05.17/outbox.cif.g08.bks.cpg/sg2_92_cif.got.tgz:182434.got - 2010.06.03 11:33:40.
