data_PCOD9098806
_publ_section_title
;
Structure prediction by ZEFSAII (Michael W. Deem and Ramdas Pophale) SiO2 
 PCOD9098806
Probable space group: P -1
;
_chemical_formula_sum "Si O2"
_cell_formula_units_Z 16
_cell_length_a 15.978158
_cell_length_b 10.525177
_cell_length_c 11.564984
_cell_angle_alpha 151.508687
_cell_angle_beta 47.266214
_cell_angle_gamma 120.932397
_cell_volume 662.360500
_symmetry_space_group_name_H-M "P -1"
_symmetry_group_IT_number 2
_symmetry_cell_setting 'triclinic'
loop_
_space_group_symop_operation_xyz
x,y,z
-x,-y,-z
loop_
_atom_site_type_symbol
_atom_site_label
_atom_site_fract_x
_atom_site_fract_y
_atom_site_fract_z
Si Si1 0.354635 0.371076 0.814015
Si Si2 0.754738 0.008275 0.555363
Si Si3 0.577642 0.225476 0.365596
Si Si4 0.156233 0.896567 0.956768
Si Si5 0.589357 0.687295 0.042831
Si Si6 0.635313 0.986106 0.896697
Si Si7 0.991643 0.187995 0.772160
Si Si8 0.800846 0.571100 0.596065
O O1 0.289024 0.207919 0.658318
O O2 0.469714 0.429211 0.687958
O O3 0.386038 0.198681 0.763970
O O4 0.289145 0.666932 0.159825
O O5 0.709938 0.973436 0.700525
O O6 0.894321 0.944824 0.366966
O O7 0.704960 0.188929 0.271646
O O8 0.542176 0.938513 0.200019
O O9 0.608205 0.242706 0.216727
O O10 0.124086 0.812978 0.047680
O O11 0.128691 0.221695 0.247893
O O12 0.113002 0.699058 0.750584
O O13 0.000000 0.000000 0.500000
O O14 0.708968 0.527195 0.743103
O O15 0.500000 0.500000 0.000000
O O16 0.718037 0.747535 0.710633
O O17 0.500000 0.000000 0.000000
O O18 0.000000 0.500000 0.000000
#
# Coordination Sequence:
#
# PCOD9098806 Si02
#       8
#     2   2   2   2   2   2   2   2
#     4  12  25  41  63  97 141 166 207 273 332 393
#     4  12  27  41  63 101 133 173 205 265 347 380
#     4  10  22  39  64  95 126 180 220 259 320 388
#     4  10  21  39  65  89 120 159 226 265 305 367
#     4  10  21  40  67  93 133 177 225 264 316 391
#     4  10  20  37  57  86 133 163 202 250 317 392
#     4  12  24  45  70  92 130 176 226 268 311 396
#     4  10  23  39  63  94 118 168 224 259 314 376
#
# _framework density 24.156030000000001
#
# number of rings (size 3 to 8) (size 9 to 14) (size 15 to 20)
#    0.000    1.500    1.250    5.625    3.500    5.500 
#    0.000    0.000    0.000   10.500    0.000    0.000 
#    0.000    0.000    0.000    0.000    0.000    0.000 
#
# Total GULP energy -89266.943211 kJ/mol
# GULP energy per Si atom -5579.183951 kJ/mol
# Density = 2.410105 g / cm^3
# Si number density = 24.156030 Si / 1000 Ang^3
#
#
#
# Elastic Constant Matrix: (Units=GPa)
#
#
# Indices 1 2 3 4 5 6 
#
# 1 62.3046 20.4000 30.4856 -9.7117 14.3458 3.2545
# 2 20.4000 112.8809 41.0910 -8.6940 17.3618 10.7627
# 3 30.4856 41.0910 138.3842 7.1957 34.3408 7.7188
# 4 -9.7117 -8.6940 7.1957 38.2804 -3.6418 11.7003
# 5 14.3458 17.3618 34.3408 -3.6418 46.0112 -3.8874
# 6 3.2545 10.7627 7.7188 11.7003 -3.8874 34.9701
#
#
#
# Elastic Compliance Matrix: (Units=1/GPa)
#
#
# Indices 1 2 3 4 5 6 
#
# 1 0.019912 -0.001110 -0.003459 0.006122 -0.002987 -0.003128
# 2 -0.001110 0.010959 -0.002475 0.003768 -0.001999 -0.004206
# 3 -0.003459 -0.002475 0.010488 -0.003801 -0.006171 -0.000646
# 4 0.006122 0.003768 -0.003801 0.032957 0.001119 -0.011793
# 5 -0.002987 -0.001999 -0.006171 0.001119 0.028541 0.005054
# 6 -0.003128 -0.004206 -0.000646 -0.011793 0.005054 0.034832
#
#
# Mechanical properties :
#
#
# Convention : Reuss Voigt Hill
#
# Bulk Modulus (GPa) = 36.66942 55.28031 45.97486
# Shear Modulus (GPa) = 31.08150 38.62520 34.85335
#
# Velocity S-wave (km/s) = 3.59095 4.00307 3.80260
# Velocity P-wave (km/s) = 5.69266 6.65586 6.19302
#
# Compressibility (1/GPa) = 0.02727068
#
# Stress axis : x y z
#
# Youngs Moduli (GPa) = 50.22157 91.24811 95.34520
#
# Poissons Ratio (x) = 0.10128 0.32984
# Poissons Ratio (y) = 0.05574 0.23596
# Poissons Ratio (z) = 0.17374 0.22582
#
# Static dielectric constant tensor:
#      x y z
#    x 1.970120 -0.064520 -0.045610 
#    y -0.064520 1.904940 -0.018970 
#    z -0.045610 -0.018970 1.873370 
# 
# From -- ./inp_files/471099.got.cif
#   From: 2010.05.17/outbox.cif.g08.bks.cpg/sg2_236_cif.got.tgz:471099.got - 2010.06.03 11:33:40.
