data_PCOD9098503
_publ_section_title
;
Structure prediction by ZEFSAII (Michael W. Deem and Ramdas Pophale) SiO2 
 PCOD9098503
Probable space group: P -1
;
_chemical_formula_sum "Si O2"
_cell_formula_units_Z 16
_cell_length_a 13.086109
_cell_length_b 14.146363
_cell_length_c 7.877174
_cell_angle_alpha 66.785496
_cell_angle_beta 33.792803
_cell_angle_gamma 62.640417
_cell_volume 720.108243
_symmetry_space_group_name_H-M "P -1"
_symmetry_group_IT_number 2
_symmetry_cell_setting 'triclinic'
loop_
_space_group_symop_operation_xyz
x,y,z
-x,-y,-z
loop_
_atom_site_type_symbol
_atom_site_label
_atom_site_fract_x
_atom_site_fract_y
_atom_site_fract_z
Si Si1 0.893486 0.794360 0.385018
Si Si2 0.797057 0.571769 0.657578
Si Si3 0.391678 0.394482 0.756459
Si Si4 0.269731 0.798949 0.654443
Si Si5 0.022143 0.070322 0.262868
Si Si6 0.920410 0.740485 0.772092
Si Si7 0.811042 0.468326 0.349695
Si Si8 0.325185 0.991649 0.631839
O O1 0.815621 0.691798 0.520753
O O2 0.942732 0.783838 0.523212
O O3 0.742956 0.905862 0.469872
O O4 0.084991 0.785939 0.020332
O O5 0.753933 0.524943 0.570278
O O6 0.000000 0.500000 0.500000
O O7 0.650261 0.572521 0.012728
O O8 0.589959 0.312664 0.501266
O O9 0.337384 0.489019 0.626260
O O10 0.239128 0.323818 0.979513
O O11 0.184029 0.865710 0.560143
O O12 0.367361 0.878011 0.564399
O O13 0.128088 0.160313 0.105014
O O14 0.000000 0.000000 0.500000
O O15 0.140059 0.001194 0.999234
O O16 0.112605 0.656846 0.629686
O O17 0.000000 0.500000 0.000000
O O18 0.500000 0.000000 0.500000
#
# Coordination Sequence:
#
# PCOD9098503 Si02
#       8
#     2   2   2   2   2   2   2   2
#     4  10  22  40  65  89 126 166 199 265 310 372
#     4  11  20  40  66  94 121 167 216 252 311 366
#     4  10  23  39  64  93 127 162 210 264 298 379
#     4  11  24  42  58  93 130 159 204 258 324 365
#     4  11  23  40  64  88 125 164 199 256 317 374
#     4  10  20  40  65  91 115 166 214 246 309 370
#     4  10  20  36  67  91 123 159 215 257 299 367
#     4  11  24  40  64  91 119 165 210 253 307 376
#
# _framework density 22.218881
#
# number of rings (size 3 to 8) (size 9 to 14) (size 15 to 20)
#    0.000    1.500    3.750    3.750    8.750    2.000 
#    2.250    7.500    0.000    0.000    0.000    0.000 
#    0.000    0.000    0.000    0.000    0.000    0.000 
#
# Total GULP energy -89512.979952 kJ/mol
# GULP energy per Si atom -5594.561247 kJ/mol
# Density = 2.216831 g / cm^3
# Si number density = 22.218881 Si / 1000 Ang^3
#
#
#
# Elastic Constant Matrix: (Units=GPa)
#
#
# Indices 1 2 3 4 5 6 
#
# 1 121.9548 61.1626 40.9302 3.9430 20.6045 -20.7894
# 2 61.1626 137.2142 53.5451 8.0763 13.8250 -10.4602
# 3 40.9302 53.5451 71.6540 2.7516 8.4501 -11.0475
# 4 3.9430 8.0763 2.7516 39.2990 -1.4546 -0.0383
# 5 20.6045 13.8250 8.4501 -1.4546 28.2253 0.2967
# 6 -20.7894 -10.4602 -11.0475 -0.0383 0.2967 56.4111
#
#
#
# Elastic Compliance Matrix: (Units=1/GPa)
#
#
# Indices 1 2 3 4 5 6 
#
# 1 0.012792 -0.003390 -0.003427 -0.000592 -0.006719 0.003450
# 2 -0.003390 0.011547 -0.006535 -0.001624 -0.001304 -0.000382
# 3 -0.003427 -0.006535 0.021121 0.000186 -0.000628 0.001665
# 4 -0.000592 -0.001624 0.000186 0.025919 0.002513 -0.000478
# 5 -0.006719 -0.001304 -0.000628 0.002513 0.041323 -0.003057
# 6 0.003450 -0.000382 0.001665 -0.000478 -0.003057 0.019269
#
#
# Mechanical properties :
#
#
# Convention : Reuss Voigt Hill
#
# Bulk Modulus (GPa) = 53.31693 71.34429 62.33061
# Shear Modulus (GPa) = 30.31645 36.46608 33.39126
#
# Velocity S-wave (km/s) = 3.69785 4.05559 3.88084
# Velocity P-wave (km/s) = 6.50234 7.35594 6.94227
#
# Compressibility (1/GPa) = 0.01875577
#
# Stress axis : x y z
#
# Youngs Moduli (GPa) = 78.17085 86.60250 47.34693
#
# Poissons Ratio (x) = 0.29359 0.16226
# Poissons Ratio (y) = 0.26500 0.30942
# Poissons Ratio (z) = 0.26790 0.56595
#
# Static dielectric constant tensor:
#      x y z
#    x 1.849680 0.024070 -0.024840 
#    y 0.024070 1.803960 -0.023950 
#    z -0.024840 -0.023950 1.807220 
# 
# From -- ./inp_files/312596.got.cif
#   From: 2010.05.17/outbox.cif.g08.bks.cpg/sg2_157_cif.got.tgz:312596.got - 2010.06.03 11:33:40.
