data_PCOD9098779
_publ_section_title
;
Structure prediction by ZEFSAII (Michael W. Deem and Ramdas Pophale) SiO2 
 PCOD9098779
Probable space group: P -1
;
_chemical_formula_sum "Si O2"
_cell_formula_units_Z 12
_cell_length_a 9.491163
_cell_length_b 8.763984
_cell_length_c 12.927651
_cell_angle_alpha 110.292674
_cell_angle_beta 44.144711
_cell_angle_gamma 79.338375
_cell_volume 525.129258
_symmetry_space_group_name_H-M "P -1"
_symmetry_group_IT_number 2
_symmetry_cell_setting 'triclinic'
loop_
_space_group_symop_operation_xyz
x,y,z
-x,-y,-z
loop_
_atom_site_type_symbol
_atom_site_label
_atom_site_fract_x
_atom_site_fract_y
_atom_site_fract_z
Si Si1 0.737673 0.043199 0.608310
Si Si2 0.896513 0.835461 0.263122
Si Si3 0.486248 0.519197 0.156896
Si Si4 0.758090 0.417000 0.474489
Si Si5 0.001327 0.403738 0.662361
Si Si6 0.234545 0.870233 0.760574
O O1 0.497301 0.709223 0.179109
O O2 0.784902 0.830889 0.565066
O O3 0.000000 0.000000 0.500000
O O4 0.760608 0.015882 0.466361
O O5 0.825486 0.228720 0.321841
O O6 0.751857 0.959410 0.262108
O O7 0.909819 0.657403 0.277324
O O8 0.339593 0.574810 0.357973
O O9 0.787971 0.289620 0.947940
O O10 0.284838 0.535474 0.188100
O O11 0.999519 0.418301 0.341937
O O12 0.510217 0.654203 0.612242
O O13 0.000000 0.000000 0.000000
#
# Coordination Sequence:
#
# PCOD9098779 Si02
#       6
#     2   2   2   2   2   2
#     4   8  18  34  57  83 115 147 180 219 286 336
#     4  10  20  37  57  84 112 148 192 219 276 342
#     4  11  18  37  63  83 118 148 176 228 290 342
#     4  11  22  39  60  82 114 148 189 237 275 325
#     4   9  21  37  57  92 114 137 187 238 280 326
#     4  11  23  41  59  77 111 160 194 222 277 339
#
# _framework density 22.851517000000001
#
# number of rings (size 3 to 8) (size 9 to 14) (size 15 to 20)
#    1.000    1.000    3.333    1.000    0.000    0.667 
#    3.000    1.667    0.000    0.000    0.000    0.000 
#    0.000    0.000    0.000    0.000    0.000    0.000 
#
# Total GULP energy -66813.751572 kJ/mol
# GULP energy per Si atom -5567.812631 kJ/mol
# Density = 2.279951 g / cm^3
# Si number density = 22.851517 Si / 1000 Ang^3
#
#
#
# Elastic Constant Matrix: (Units=GPa)
#
#
# Indices 1 2 3 4 5 6 
#
# 1 31.8736 13.4121 22.0624 -0.8939 6.8959 5.7882
# 2 13.4121 77.3622 17.6920 -1.0627 6.0270 -5.1147
# 3 22.0624 17.6920 109.0633 8.7085 13.8914 -0.8331
# 4 -0.8939 -1.0627 8.7085 35.7669 -10.6314 0.3462
# 5 6.8959 6.0270 13.8914 -10.6314 28.8827 -1.3346
# 6 5.7882 -5.1147 -0.8331 0.3462 -1.3346 39.8554
#
#
#
# Elastic Compliance Matrix: (Units=1/GPa)
#
#
# Indices 1 2 3 4 5 6 
#
# 1 0.040877 -0.005562 -0.006832 0.001024 -0.005258 -0.006978
# 2 -0.005562 0.014388 -0.001089 0.000250 -0.000939 0.002598
# 3 -0.006832 -0.001089 0.011816 -0.004731 -0.005522 0.000956
# 4 0.001024 0.000250 -0.004731 0.033384 0.014266 -0.000028
# 5 -0.005258 -0.000939 -0.005522 0.014266 0.044068 0.001880
# 6 -0.006978 0.002598 0.000956 -0.000028 0.001880 0.026521
#
#
# Mechanical properties :
#
#
# Convention : Reuss Voigt Hill
#
# Bulk Modulus (GPa) = 24.92884 36.07026 30.49955
# Shear Modulus (GPa) = 23.65273 31.90983 27.78128
#
# Velocity S-wave (km/s) = 3.22073 3.74090 3.49052
# Velocity P-wave (km/s) = 4.97630 5.87179 5.44249
#
# Compressibility (1/GPa) = 0.04011418
#
# Stress axis : x y z
#
# Youngs Moduli (GPa) = 24.46355 69.50279 84.63033
#
# Poissons Ratio (x) = 0.38657 0.57820
# Poissons Ratio (y) = 0.13607 0.09220
# Poissons Ratio (z) = 0.16714 0.07572
#
# Static dielectric constant tensor:
#      x y z
#    x 1.876950 0.014820 -0.022930 
#    y 0.014820 1.948830 -0.019200 
#    z -0.022930 -0.019200 1.826430 
# 
# From -- ./inp_files/511949.got.cif
#   From: 2010.05.17/outbox.cif.g08.bks.cpg/sg2_256_cif.got.tgz:511949.got - 2010.06.03 11:33:40.
