data_PCOD9098714
_publ_section_title
;
Structure prediction by ZEFSAII (Michael W. Deem and Ramdas Pophale) SiO2 
 PCOD9098714
Probable space group: P -1
;
_chemical_formula_sum "Si O2"
_cell_formula_units_Z 16
_cell_length_a 11.618009
_cell_length_b 14.557990
_cell_length_c 5.297088
_cell_angle_alpha 88.953565
_cell_angle_beta 117.744312
_cell_angle_gamma 110.122765
_cell_volume 733.586147
_symmetry_space_group_name_H-M "P -1"
_symmetry_group_IT_number 2
_symmetry_cell_setting 'triclinic'
loop_
_space_group_symop_operation_xyz
x,y,z
-x,-y,-z
loop_
_atom_site_type_symbol
_atom_site_label
_atom_site_fract_x
_atom_site_fract_y
_atom_site_fract_z
Si Si1 0.445419 0.602563 0.181077
Si Si2 0.127845 0.040045 0.821645
Si Si3 0.891410 0.172013 0.229296
Si Si4 0.620645 0.904511 0.225394
Si Si5 0.374005 0.373661 0.126880
Si Si6 0.347492 0.765088 0.169604
Si Si7 0.601405 0.080573 0.403587
Si Si8 0.931051 0.791114 0.072917
O O1 0.374847 0.484061 0.081704
O O2 0.539803 0.622721 0.528723
O O3 0.333855 0.654228 0.111861
O O4 0.541159 0.644283 0.026941
O O5 0.258954 0.115870 0.794430
O O6 0.096514 0.106091 0.000350
O O7 0.161830 0.943031 0.916200
O O8 0.000000 0.000000 0.500000
O O9 0.973814 0.190946 0.577812
O O10 0.758348 0.204232 0.112728
O O11 0.995993 0.227830 0.104021
O O12 0.517800 0.823731 0.311231
O O13 0.688712 0.016369 0.399229
O O14 0.506203 0.909649 0.910010
O O15 0.217374 0.295334 0.012942
O O16 0.321645 0.812532 0.401075
O O17 0.500000 0.000000 0.500000
#
# Coordination Sequence:
#
# PCOD9098714 Si02
#       8
#     2   2   2   2   2   2   2   2
#     4  10  23  41  72  99 123 159 205 272 318 374
#     4  10  22  38  58  86 125 170 215 251 305 372
#     4  11  25  41  59  90 130 167 214 253 305 376
#     4  10  20  37  56  86 121 164 211 258 309 361
#     4  10  22  46  68  97 127 156 212 262 320 378
#     4  11  24  37  62  91 126 163 211 263 323 367
#     4   9  19  33  53  82 119 159 198 254 303 364
#     4  11  24  42  64  87 126 177 206 256 311 375
#
# _framework density 21.810662000000001
#
# number of rings (size 3 to 8) (size 9 to 14) (size 15 to 20)
#    0.000    1.750    0.000    4.125    8.750    1.000 
#    4.500    1.250    0.000    0.000    0.000    0.000 
#    0.000    0.000    0.000    0.000    0.000    0.000 
#
# Total GULP energy -89299.211937 kJ/mol
# GULP energy per Si atom -5581.200746 kJ/mol
# Density = 2.176102 g / cm^3
# Si number density = 21.810662 Si / 1000 Ang^3
#
#
#
# Elastic Constant Matrix: (Units=GPa)
#
#
# Indices 1 2 3 4 5 6 
#
# 1 119.3634 38.6249 18.6275 1.2279 -6.3946 1.3532
# 2 38.6249 99.1827 18.9019 7.7925 8.3826 -12.9153
# 3 18.6275 18.9019 70.6568 4.0775 -12.1915 0.2960
# 4 1.2279 7.7925 4.0775 15.1999 2.4158 0.1637
# 5 -6.3946 8.3826 -12.1915 2.4158 38.3100 -1.7783
# 6 1.3532 -12.9153 0.2960 0.1637 -1.7783 48.0077
#
#
#
# Elastic Compliance Matrix: (Units=1/GPa)
#
#
# Indices 1 2 3 4 5 6 
#
# 1 0.010013 -0.004104 -0.001264 0.001327 0.002023 -0.001308
# 2 -0.004104 0.013463 -0.002939 -0.005174 -0.004072 0.003623
# 3 -0.001264 -0.002939 0.016508 -0.003750 0.005893 -0.000626
# 4 0.001327 -0.005174 -0.003750 0.070050 -0.004341 -0.001806
# 5 0.002023 -0.004072 0.005893 -0.004341 0.029477 -0.000082
# 6 -0.001308 0.003623 -0.000626 -0.001806 -0.000082 0.021848
#
#
# Mechanical properties :
#
#
# Convention : Reuss Voigt Hill
#
# Bulk Modulus (GPa) = 42.78889 49.05683 45.92286
# Shear Modulus (GPa) = 26.91613 34.50678 30.71145
#
# Velocity S-wave (km/s) = 3.51676 3.98188 3.75653
# Velocity P-wave (km/s) = 6.01258 6.60920 6.31793
#
# Compressibility (1/GPa) = 0.02337055
#
# Stress axis : x y z
#
# Youngs Moduli (GPa) = 99.87499 74.27771 60.57640
#
# Poissons Ratio (x) = 0.30482 0.07656
# Poissons Ratio (y) = 0.40987 0.17802
# Poissons Ratio (z) = 0.12623 0.21829
#
# Static dielectric constant tensor:
#      x y z
#    x 1.903860 0.009860 -0.048080 
#    y 0.009860 1.857510 -0.024040 
#    z -0.048080 -0.024040 1.832220 
# 
# From -- ./inp_files/77992.got.cif
#   From: 2010.05.17/outbox.cif.g08.bks.cpg/sg2_39_cif.got.tgz:77992.got - 2010.06.03 11:33:40.
