data_PCOD9098688
_publ_section_title
;
Structure prediction by ZEFSAII (Michael W. Deem and Ramdas Pophale) SiO2 
 PCOD9098688
Probable space group: P -1
;
_chemical_formula_sum "Si O2"
_cell_formula_units_Z 14
_cell_length_a 19.093288
_cell_length_b 6.019247
_cell_length_c 15.247697
_cell_angle_alpha 98.935451
_cell_angle_beta 156.505567
_cell_angle_gamma 95.704044
_cell_volume 544.679634
_symmetry_space_group_name_H-M "P -1"
_symmetry_group_IT_number 2
_symmetry_cell_setting 'triclinic'
loop_
_space_group_symop_operation_xyz
x,y,z
-x,-y,-z
loop_
_atom_site_type_symbol
_atom_site_label
_atom_site_fract_x
_atom_site_fract_y
_atom_site_fract_z
Si Si1 0.831026 0.651127 0.390933
Si Si2 0.270180 0.952805 0.789913
Si Si3 0.789677 0.417015 0.699771
Si Si4 0.526131 0.371044 0.254691
Si Si5 0.851462 0.099634 0.074756
Si Si6 0.465826 0.769982 0.272631
Si Si7 0.240715 0.186062 0.235455
O O1 0.723894 0.311256 0.243132
O O2 0.041591 0.795601 0.574756
O O3 0.729626 0.819925 0.258704
O O4 0.923945 0.750002 0.603069
O O5 0.469691 0.164028 0.099155
O O6 0.761961 0.536041 0.585006
O O7 0.686982 0.497247 0.660993
O O8 0.651879 0.100165 0.487694
O O9 0.000000 0.500000 0.000000
O O10 0.334309 0.168237 0.094369
O O11 0.476344 0.594535 0.197658
O O12 0.810198 0.964953 0.923997
O O13 0.771385 0.297463 0.994408
O O14 0.568209 0.772067 0.482961
O O15 0.000000 0.000000 0.000000
#
# Coordination Sequence:
#
# PCOD9098688 Si02
#       7
#     2   2   2   2   2   2   2
#     4   9  19  32  55  85 127 158 196 250 306 362
#     4   9  18  33  55  87 127 156 197 246 309 365
#     4  10  20  37  56  82 115 155 203 243 295 366
#     4   9  21  33  57  88 124 153 194 250 305 357
#     4  10  22  35  55  89 121 155 199 252 304 353
#     4  10  21  36  57  83 118 155 194 249 305 359
#     4  11  22  39  57  81 117 162 205 244 298 369
#
# _framework density 25.703182999999999
#
# number of rings (size 3 to 8) (size 9 to 14) (size 15 to 20)
#    0.000    2.286    1.429    0.429   12.000    6.286 
#    0.000    0.000    0.000    0.000    0.000   14.000 
#    0.000    0.000    0.000    0.000    0.000    1.286 
#
# Total GULP energy -77971.714172 kJ/mol
# GULP energy per Si atom -5569.408155 kJ/mol
# Density = 2.564468 g / cm^3
# Si number density = 25.703183 Si / 1000 Ang^3
#
#
#
# Elastic Constant Matrix: (Units=GPa)
#
#
# Indices 1 2 3 4 5 6 
#
# 1 85.1395 31.9283 16.1550 2.6695 -12.7462 -7.7214
# 2 31.9283 157.5220 60.0176 8.0067 -15.8065 -13.6427
# 3 16.1550 60.0176 145.3414 1.3768 -28.6572 -5.8375
# 4 2.6695 8.0067 1.3768 57.4686 1.0219 -3.9902
# 5 -12.7462 -15.8065 -28.6572 1.0219 30.8412 7.0049
# 6 -7.7214 -13.6427 -5.8375 -3.9902 7.0049 20.8834
#
#
#
# Elastic Compliance Matrix: (Units=1/GPa)
#
#
# Indices 1 2 3 4 5 6 
#
# 1 0.013344 -0.002219 0.000356 -0.000248 0.004236 0.002115
# 2 -0.002219 0.008300 -0.003096 -0.000714 -0.000361 0.003721
# 3 0.000356 -0.003096 0.009605 -0.000086 0.007915 -0.001877
# 4 -0.000248 -0.000714 -0.000086 0.017788 -0.001924 0.003462
# 5 0.004236 -0.000361 0.007915 -0.001924 0.044042 -0.011598
# 6 0.002115 0.003721 -0.001877 0.003462 -0.011598 0.055125
#
#
# Mechanical properties :
#
#
# Convention : Reuss Voigt Hill
#
# Bulk Modulus (GPa) = 46.88191 67.13386 57.00789
# Shear Modulus (GPa) = 30.26020 40.49876 35.37948
#
# Velocity S-wave (km/s) = 3.43489 3.97373 3.71410
# Velocity P-wave (km/s) = 5.83187 6.87238 6.37339
#
# Compressibility (1/GPa) = 0.02133019
#
# Stress axis : x y z
#
# Youngs Moduli (GPa) = 74.94026 120.48166 104.11085
#
# Poissons Ratio (x) = 0.26740 -0.03704
# Poissons Ratio (y) = 0.16632 0.32230
# Poissons Ratio (z) = -0.02666 0.37298
#
# Static dielectric constant tensor:
#      x y z
#    x 2.172950 0.096840 0.115950 
#    y 0.096840 2.440180 -0.097990 
#    z 0.115950 -0.097990 2.082370 
# 
# From -- ./inp_files/578760.got.cif
#   From: 2010.05.17/outbox.cif.g08.bks.cpg/sg2_290_cif.got.tgz:578760.got - 2010.06.03 11:33:40.
