data_PCOD9098661
_publ_section_title
;
Structure prediction by ZEFSAII (Michael W. Deem and Ramdas Pophale) SiO2 
 PCOD9098661
Probable space group: P -1
;
_chemical_formula_sum "Si O2"
_cell_formula_units_Z 13
_cell_length_a 8.115386
_cell_length_b 10.671821
_cell_length_c 7.429000
_cell_angle_alpha 58.027968
_cell_angle_beta 124.136209
_cell_angle_gamma 106.507249
_cell_volume 451.681722
_symmetry_space_group_name_H-M "P -1"
_symmetry_group_IT_number 2
_symmetry_cell_setting 'triclinic'
loop_
_space_group_symop_operation_xyz
x,y,z
-x,-y,-z
loop_
_atom_site_type_symbol
_atom_site_label
_atom_site_fract_x
_atom_site_fract_y
_atom_site_fract_z
Si Si1 0.352223 0.120566 0.542179
Si Si2 0.569479 0.202247 0.256200
Si Si3 0.500000 0.000000 0.000000
Si Si4 0.147486 0.463241 0.394999
Si Si5 0.258157 0.570424 0.033710
Si Si6 0.924507 0.132847 0.126440
Si Si7 0.941831 0.255591 0.665348
O O1 0.430704 0.186912 0.354805
O O2 0.461389 0.169021 0.749748
O O3 0.120824 0.109900 0.382904
O O4 0.453162 0.947515 0.763689
O O5 0.568999 0.357110 0.034241
O O6 0.790772 0.181579 0.491545
O O7 0.247357 0.984972 0.884820
O O8 0.182598 0.603635 0.435257
O O9 0.918805 0.486382 0.159788
O O10 0.122161 0.323733 0.614244
O O11 0.281178 0.458512 0.300284
O O12 0.163691 0.715172 0.961270
O O13 0.990969 0.158903 0.941642
#
# Coordination Sequence:
#
# PCOD9098661 Si02
#       7
#     2   2   1   2   2   2   2
#     4  11  24  39  57  86 125 153 192 238 280 356
#     4  10  20  37  55  87 122 155 192 232 292 345
#     4  12  22  40  58  88 114 162 192 234 284 360
#     4   8  16  31  59  86 110 150 198 237 287 344
#     4   9  17  33  60  87 112 152 197 237 290 334
#     4  11  22  38  61  88 119 154 192 238 286 345
#     4   9  17  34  58  86 113 154 194 233 296 337
#
# _framework density 28.781331000000002
#
# number of rings (size 3 to 8) (size 9 to 14) (size 15 to 20)
#    0.000    2.154    3.077    0.462    0.000    0.615 
#    0.000    0.000    0.000   35.077    0.000    0.000 
#    0.000    0.000    0.000    0.000    0.000    0.000 
#
# Total GULP energy -72638.279610 kJ/mol
# GULP energy per Si atom -5587.559970 kJ/mol
# Density = 2.871582 g / cm^3
# Si number density = 28.781331 Si / 1000 Ang^3
#
#
#
# Elastic Constant Matrix: (Units=GPa)
#
#
# Indices 1 2 3 4 5 6 
#
# 1 129.7360 30.4038 87.5712 -15.9573 -36.8589 36.4547
# 2 30.4038 105.1939 41.4056 16.1454 4.4954 11.7414
# 3 87.5712 41.4056 187.4225 18.7487 -30.3042 36.6471
# 4 -15.9573 16.1454 18.7487 46.6905 16.1462 -5.0588
# 5 -36.8589 4.4954 -30.3042 16.1462 60.3074 -7.2532
# 6 36.4547 11.7414 36.6471 -5.0588 -7.2532 65.3682
#
#
#
# Elastic Compliance Matrix: (Units=1/GPa)
#
#
# Indices 1 2 3 4 5 6 
#
# 1 0.015484 -0.002997 -0.005746 0.006642 0.004558 -0.003856
# 2 -0.002997 0.011511 -0.001048 -0.003852 -0.002228 -0.000354
# 3 -0.005746 -0.001048 0.009906 -0.006910 0.003111 -0.002350
# 4 0.006642 -0.003852 -0.006910 0.030477 -0.006991 0.002444
# 5 0.004558 -0.002228 0.003111 -0.006991 0.022739 -0.001903
# 6 -0.003856 -0.000354 -0.002350 0.002444 -0.001903 0.018807
#
#
# Mechanical properties :
#
#
# Convention : Reuss Voigt Hill
#
# Bulk Modulus (GPa) = 57.74662 82.34597 70.04630
# Shear Modulus (GPa) = 37.23537 52.00466 44.62002
#
# Velocity S-wave (km/s) = 3.60075 4.25536 3.94167
# Velocity P-wave (km/s) = 6.11512 7.26754 6.71609
#
# Compressibility (1/GPa) = 0.01731703
#
# Stress axis : x y z
#
# Youngs Moduli (GPa) = 64.58093 86.87269 100.95142
#
# Poissons Ratio (x) = 0.26040 0.58010
# Poissons Ratio (y) = 0.19358 0.10583
# Poissons Ratio (z) = 0.37110 0.09107
#
# Static dielectric constant tensor:
#      x y z
#    x 2.367830 -0.035520 -0.109540 
#    y -0.035520 2.273340 -0.036380 
#    z -0.109540 -0.036380 2.336550 
# 
# From -- ./inp_files/36658.got.cif
#   From: 2010.05.17/outbox.cif.g08.bks.cpg/sg2_19_cif.got.tgz:36658.got - 2010.06.03 11:33:40.
