data_PCOD9098918
_publ_section_title
;
Structure prediction by ZEFSAII (Michael W. Deem and Ramdas Pophale) SiO2 
 PCOD9098918
Probable space group: P -1
;
_chemical_formula_sum "Si O2"
_cell_formula_units_Z 16
_cell_length_a 20.824338
_cell_length_b 12.279007
_cell_length_c 17.476557
_cell_angle_alpha 38.290267
_cell_angle_beta 18.647491
_cell_angle_gamma 34.852207
_cell_volume 815.888503
_symmetry_space_group_name_H-M "P -1"
_symmetry_group_IT_number 2
_symmetry_cell_setting 'triclinic'
loop_
_space_group_symop_operation_xyz
x,y,z
-x,-y,-z
loop_
_atom_site_type_symbol
_atom_site_label
_atom_site_fract_x
_atom_site_fract_y
_atom_site_fract_z
Si Si1 0.686122 0.058470 0.721251
Si Si2 0.459662 0.594261 0.207322
Si Si3 0.129334 0.308908 0.360658
Si Si4 0.522106 0.984063 0.338422
Si Si5 0.353113 0.438084 0.258752
Si Si6 0.677931 0.047395 0.566307
Si Si7 0.953915 0.916293 0.971740
Si Si8 0.746651 0.216544 0.162338
O O1 0.703090 0.217909 0.669407
O O2 0.880910 0.855779 0.595645
O O3 0.615773 0.137618 0.670740
O O4 0.500000 0.000000 0.000000
O O5 0.363002 0.534473 0.275460
O O6 0.552228 0.415826 0.258230
O O7 0.677792 0.627790 0.917823
O O8 0.216205 0.179536 0.409419
O O9 0.895888 0.475941 0.536230
O O10 0.448831 0.211316 0.288944
O O11 0.511747 0.911082 0.304341
O O12 0.350624 0.929291 0.611362
O O13 0.751882 0.894544 0.170799
O O14 0.500000 0.500000 0.000000
O O15 0.866190 0.096040 0.287148
O O16 0.858911 0.122976 0.007539
O O17 0.075628 0.776349 0.981214
#
# Coordination Sequence:
#
# PCOD9098918 Si02
#       8
#     2   2   2   2   2   2   2   2
#     4   8  19  42  60  81 116 160 198 239 292 336
#     4  11  22  39  61  85 116 157 201 239 285 351
#     4   9  22  38  58  84 120 152 189 242 292 340
#     4  11  22  37  58  86 127 148 189 240 292 358
#     4  12  25  34  59  99 117 151 192 238 302 361
#     4   9  20  39  59  84 114 158 187 242 296 338
#     4  10  20  37  58  85 116 156 191 235 297 348
#     4  10  23  36  58  87 118 158 191 237 296 350
#
# _framework density 19.610523000000001
#
# number of rings (size 3 to 8) (size 9 to 14) (size 15 to 20)
#    0.750    1.250    1.250    1.875    5.250    1.500 
#    0.000    3.750    0.000    1.500    0.000    0.000 
#    0.000    0.000    0.000    0.000    0.000    0.000 
#
# Total GULP energy -89168.554505 kJ/mol
# GULP energy per Si atom -5573.034657 kJ/mol
# Density = 1.956589 g / cm^3
# Si number density = 19.610523 Si / 1000 Ang^3
#
#
#
# Elastic Constant Matrix: (Units=GPa)
#
#
# Indices 1 2 3 4 5 6 
#
# 1 97.2464 -15.0521 19.8994 9.7639 -14.4416 5.9382
# 2 -15.0521 18.8671 -19.9607 -0.0778 -5.0810 -0.4821
# 3 19.8994 -19.9607 38.2105 9.8191 -11.1850 -5.0136
# 4 9.7639 -0.0778 9.8191 16.4989 1.4913 0.4150
# 5 -14.4416 -5.0810 -11.1850 1.4913 29.2749 6.7643
# 6 5.9382 -0.4821 -5.0136 0.4150 6.7643 34.0095
#
#
#
# Elastic Compliance Matrix: (Units=1/GPa)
#
#
# Indices 1 2 3 4 5 6 
#
# 1 -0.002073 -0.105193 -0.084371 0.055872 -0.053530 -0.003602
# 2 -0.105193 -0.744271 -0.568826 0.435274 -0.421131 0.002411
# 3 -0.084371 -0.568826 -0.396707 0.311135 -0.309124 0.005873
# 4 0.055872 0.435274 0.311135 -0.176439 0.231337 -0.001577
# 5 -0.053530 -0.421131 -0.309124 0.231337 -0.193733 -0.006484
# 6 -0.003602 0.002411 0.005873 -0.001577 -0.006484 0.032241
#
#
# Mechanical properties :
#
#
# Convention : Reuss Voigt Hill
#
# Bulk Modulus (GPa) = -0.37596 13.78861 6.70632
# Shear Modulus (GPa) = -5.87674 27.25249 10.68788
#
# Velocity S-wave (km/s) = -1.73298 3.73189 2.33707
# Velocity P-wave (km/s) = 2.04852 5.06121 3.27257
#
# Compressibility (1/GPa) = -2.65983052
#
# Stress axis : x y z
#
# Youngs Moduli (GPa) = -482.29602 -1.34360 -2.52075
#
# Poissons Ratio (x) = -0.14134 -0.21268
# Poissons Ratio (y) = -50.73405 -1.43387
# Poissons Ratio (z) = -40.69183 -0.76427
#
# Static dielectric constant tensor:
#      x y z
#    x 1.732520 0.003030 -0.008800 
#    y 0.003030 1.699220 -0.010640 
#    z -0.008800 -0.010640 1.689880 
# 
# From -- ./inp_files/577776.got.cif
#   From: 2010.05.17/outbox.cif.g08.bks.cpg/sg2_289_cif.got.tgz:577776.got - 2010.06.03 11:33:40.
