data_PCOD9098857
_publ_section_title
;
Structure prediction by ZEFSAII (Michael W. Deem and Ramdas Pophale) SiO2 
 PCOD9098857
Probable space group: P -1
;
_chemical_formula_sum "Si O2"
_cell_formula_units_Z 16
_cell_length_a 8.839552
_cell_length_b 19.824280
_cell_length_c 6.684585
_cell_angle_alpha 75.638565
_cell_angle_beta 48.260927
_cell_angle_gamma 56.121286
_cell_volume 711.209443
_symmetry_space_group_name_H-M "P -1"
_symmetry_group_IT_number 2
_symmetry_cell_setting 'triclinic'
loop_
_space_group_symop_operation_xyz
x,y,z
-x,-y,-z
loop_
_atom_site_type_symbol
_atom_site_label
_atom_site_fract_x
_atom_site_fract_y
_atom_site_fract_z
Si Si1 0.420125 0.656904 0.800252
Si Si2 0.245348 0.132448 0.488817
Si Si3 0.862551 0.573242 0.730165
Si Si4 0.208478 0.927286 0.011027
Si Si5 0.070369 0.837571 0.916898
Si Si6 0.106867 0.674037 0.422092
Si Si7 0.436065 0.432322 0.653072
Si Si8 0.218891 0.028466 0.258793
O O1 0.614343 0.647111 0.794671
O O2 0.255100 0.743576 0.772222
O O3 0.584061 0.593030 0.532412
O O4 0.230404 0.647973 0.109728
O O5 0.528957 0.091331 0.259536
O O6 0.181656 0.070825 0.479071
O O7 0.089291 0.226827 0.471089
O O8 0.170535 0.143953 0.776585
O O9 0.000000 0.500000 0.500000
O O10 0.006149 0.617294 0.611638
O O11 0.778484 0.544501 0.019548
O O12 0.204898 0.851483 0.973621
O O13 0.195889 0.954397 0.236367
O O14 0.000000 0.000000 0.000000
O O15 0.971194 0.897452 0.772975
O O16 0.328375 0.645587 0.395629
O O17 0.500000 0.500000 0.500000
O O18 0.500000 0.000000 0.000000
#
# Coordination Sequence:
#
# PCOD9098857 Si02
#       8
#     2   2   2   2   2   2   2   2
#     4  10  22  39  59  85 118 155 197 244 293 348
#     4  10  20  37  58  79 111 152 190 236 292 345
#     4  11  23  39  61  89 120 154 195 241 291 349
#     4   9  19  34  54  83 113 143 188 235 280 344
#     4  10  20  37  58  79 111 152 190 236 292 345
#     4  10  22  39  59  85 118 155 197 244 293 348
#     4  11  23  39  61  89 120 154 195 241 291 349
#     4   9  19  34  54  83 113 143 188 235 280 344
#
# _framework density 22.496887000000001
#
# number of rings (size 3 to 8) (size 9 to 14) (size 15 to 20)
#    0.000    2.000    0.000    3.000    0.000   10.000 
#    0.000    5.000    0.000    0.000    0.000    0.000 
#    0.000    0.000    0.000    0.000    0.000    0.000 
#
# Total GULP energy -89090.584309 kJ/mol
# GULP energy per Si atom -5568.161519 kJ/mol
# Density = 2.244568 g / cm^3
# Si number density = 22.496887 Si / 1000 Ang^3
#
#
#
# Elastic Constant Matrix: (Units=GPa)
#
#
# Indices 1 2 3 4 5 6 
#
# 1 96.3629 17.8067 47.8541 3.7274 -2.2415 -10.6989
# 2 17.8067 72.4272 43.6739 -1.7724 0.7130 -11.7529
# 3 47.8541 43.6739 114.0856 14.1031 3.6250 7.7793
# 4 3.7274 -1.7724 14.1031 27.2427 1.8115 3.6029
# 5 -2.2415 0.7130 3.6250 1.8115 28.3364 3.8659
# 6 -10.6989 -11.7529 7.7793 3.6029 3.8659 39.8728
#
#
#
# Elastic Compliance Matrix: (Units=1/GPa)
#
#
# Indices 1 2 3 4 5 6 
#
# 1 0.014218 0.001743 -0.007178 0.001076 0.001178 0.005518
# 2 0.001743 0.020768 -0.009856 0.005181 -0.000560 0.008098
# 3 -0.007178 -0.009856 0.017002 -0.007417 -0.001014 -0.007380
# 4 0.001076 0.005181 -0.007417 0.040884 -0.001673 -0.000269
# 5 0.001178 -0.000560 -0.001014 -0.001673 0.036043 -0.002995
# 6 0.005518 0.008098 -0.007380 -0.000269 -0.002995 0.030702
#
#
# Mechanical properties :
#
#
# Convention : Reuss Voigt Hill
#
# Bulk Modulus (GPa) = 46.71725 55.72724 51.22224
# Shear Modulus (GPa) = 25.33763 30.65978 27.99871
#
# Velocity S-wave (km/s) = 3.35964 3.69568 3.53166
# Velocity P-wave (km/s) = 5.98838 6.56015 6.28078
#
# Compressibility (1/GPa) = 0.02140537
#
# Stress axis : x y z
#
# Youngs Moduli (GPa) = 70.33182 48.14990 58.81768
#
# Poissons Ratio (x) = -0.08391 0.42218
# Poissons Ratio (y) = -0.12257 0.57973
# Poissons Ratio (z) = 0.50483 0.47459
#
# Static dielectric constant tensor:
#      x y z
#    x 1.726010 0.086210 -0.242050 
#    y 0.086210 1.871620 0.087680 
#    z -0.242050 0.087680 1.488420 
# 
# From -- ./inp_files/52856.got.cif
#   From: 2010.05.17/outbox.cif.g08.bks.cpg/sg2_27_cif.got.tgz:52856.got - 2010.06.03 11:33:40.
