data_PCOD9098444
_publ_section_title
;
Structure prediction by ZEFSAII (Michael W. Deem and Ramdas Pophale) SiO2 
 PCOD9098444
Probable space group: P -1
;
_chemical_formula_sum "Si O2"
_cell_formula_units_Z 14
_cell_length_a 17.301203
_cell_length_b 18.324014
_cell_length_c 5.482693
_cell_angle_alpha 62.809906
_cell_angle_beta 52.323371
_cell_angle_gamma 30.186332
_cell_volume 680.508910
_symmetry_space_group_name_H-M "P -1"
_symmetry_group_IT_number 2
_symmetry_cell_setting 'triclinic'
loop_
_space_group_symop_operation_xyz
x,y,z
-x,-y,-z
loop_
_atom_site_type_symbol
_atom_site_label
_atom_site_fract_x
_atom_site_fract_y
_atom_site_fract_z
Si Si1 0.775121 0.202381 0.093841
Si Si2 0.374117 0.358200 0.064526
Si Si3 0.585431 0.503572 0.519548
Si Si4 0.034655 0.610945 0.678564
Si Si5 0.044148 0.790504 0.511958
Si Si6 0.156776 0.392696 0.168875
Si Si7 0.769489 0.106108 0.765567
O O1 0.572970 0.370330 0.179563
O O2 0.775788 0.156757 0.425201
O O3 0.902870 0.191762 0.853464
O O4 0.824881 0.114094 0.894115
O O5 0.205235 0.492631 0.354085
O O6 0.333204 0.301165 0.093924
O O7 0.379000 0.432564 0.762910
O O8 0.566450 0.222080 0.018630
O O9 0.500000 0.500000 0.500000
O O10 0.770604 0.342337 0.501214
O O11 0.994679 0.731861 0.639549
O O12 0.863838 0.681779 0.799108
O O13 0.101944 0.504262 0.924487
O O14 0.895365 0.942085 0.715236
O O15 0.000000 0.500000 0.500000
#
# Coordination Sequence:
#
# PCOD9098444 Si02
#       7
#     2   2   2   2   2   2   2
#     4  11  24  44  60  90 134 179 207 251 312 381
#     4  10  20  38  62  88 125 171 201 255 319 384
#     4  11  22  38  64  96 126 165 219 265 302 363
#     4  10  20  36  66  92 116 159 212 269 306 374
#     4  12  22  39  63  95 124 164 217 266 302 367
#     4   9  19  38  61  91 120 153 209 259 330 366
#     4  11  26  41  63  92 135 176 207 246 322 380
#
# _framework density 20.572838000000001
#
# number of rings (size 3 to 8) (size 9 to 14) (size 15 to 20)
#    0.000    1.429    1.429    4.714    2.000    2.286 
#    0.000    0.714    0.000    7.714    0.000    0.000 
#    0.000    0.000    0.000    0.000    0.000    0.000 
#
# Total GULP energy -78154.211478 kJ/mol
# GULP energy per Si atom -5582.443677 kJ/mol
# Density = 2.052601 g / cm^3
# Si number density = 20.572838 Si / 1000 Ang^3
#
#
#
# Elastic Constant Matrix: (Units=GPa)
#
#
# Indices 1 2 3 4 5 6 
#
# 1 133.5637 33.0896 29.4433 -7.8945 -27.3250 27.0817
# 2 33.0896 110.0830 17.5360 13.4765 -6.3478 21.0729
# 3 29.4433 17.5360 87.9679 -1.5567 -11.7929 23.2247
# 4 -7.8945 13.4765 -1.5567 20.2025 2.5223 -2.2071
# 5 -27.3250 -6.3478 -11.7929 2.5223 35.4016 0.0842
# 6 27.0817 21.0729 23.2247 -2.2071 0.0842 38.1217
#
#
#
# Elastic Compliance Matrix: (Units=1/GPa)
#
#
# Indices 1 2 3 4 5 6 
#
# 1 0.011258 -0.002153 -0.000568 0.004132 0.007835 -0.006239
# 2 -0.002153 0.012084 -0.000238 -0.009669 0.001128 -0.005567
# 3 -0.000568 -0.000238 0.014358 -0.000401 0.004350 -0.008245
# 4 0.004132 -0.009669 -0.000401 0.058552 -0.002864 0.006050
# 5 0.007835 0.001128 0.004350 -0.002864 0.036171 -0.009085
# 6 -0.006239 -0.005567 -0.008245 0.006050 -0.009085 0.039135
#
#
# Mechanical properties :
#
#
# Convention : Reuss Voigt Hill
#
# Bulk Modulus (GPa) = 31.46569 54.63916 43.05243
# Shear Modulus (GPa) = 26.58577 35.51486 31.05031
#
# Velocity S-wave (km/s) = 3.59872 4.15938 3.88917
# Velocity P-wave (km/s) = 5.70927 7.04868 6.41403
#
# Compressibility (1/GPa) = 0.03178064
#
# Stress axis : x y z
#
# Youngs Moduli (GPa) = 88.82640 82.75605 69.64622
#
# Poissons Ratio (x) = 0.17819 0.03957
# Poissons Ratio (y) = 0.19126 0.01660
# Poissons Ratio (z) = 0.05047 0.01972
#
# Static dielectric constant tensor:
#      x y z
#    x 1.798220 0.018910 0.171740 
#    y 0.018910 1.724080 -0.115630 
#    z 0.171740 -0.115630 1.163920 
# 
# From -- ./inp_files/48338.got.cif
#   From: 2010.05.17/outbox.cif.g08.bks.cpg/sg2_25_cif.got.tgz:48338.got - 2010.06.03 11:33:40.
