data_PCOD9098453
_publ_section_title
;
Structure prediction by ZEFSAII (Michael W. Deem and Ramdas Pophale) SiO2 
 PCOD9098453
Probable space group: P -1
;
_chemical_formula_sum "Si O2"
_cell_formula_units_Z 15
_cell_length_a 11.811827
_cell_length_b 8.536939
_cell_length_c 8.312363
_cell_angle_alpha 114.929042
_cell_angle_beta 59.253216
_cell_angle_gamma 119.746048
_cell_volume 609.424065
_symmetry_space_group_name_H-M "P -1"
_symmetry_group_IT_number 2
_symmetry_cell_setting 'triclinic'
loop_
_space_group_symop_operation_xyz
x,y,z
-x,-y,-z
loop_
_atom_site_type_symbol
_atom_site_label
_atom_site_fract_x
_atom_site_fract_y
_atom_site_fract_z
Si Si1 0.500000 0.000000 0.000000
Si Si2 0.743259 0.854738 0.881720
Si Si3 0.205951 0.474738 0.235791
Si Si4 0.299633 0.066580 0.699343
Si Si5 0.221047 0.531654 0.887215
Si Si6 0.913828 0.233718 0.457308
Si Si7 0.551729 0.196409 0.374632
Si Si8 0.031413 0.775231 0.214015
O O1 0.382004 0.083377 0.057628
O O2 0.473474 0.053829 0.228438
O O3 0.722494 0.643752 0.767230
O O4 0.888392 0.007995 0.781181
O O5 0.751028 0.865258 0.074116
O O6 0.191531 0.651818 0.406694
O O7 0.040779 0.336546 0.287119
O O8 0.268566 0.526866 0.034893
O O9 0.175107 0.970276 0.623973
O O10 0.355571 0.903951 0.644957
O O11 0.433968 0.218722 0.585883
O O12 0.347707 0.624432 0.713926
O O13 0.115396 0.337045 0.814032
O O14 0.135967 0.674237 0.024819
O O15 0.975456 0.251693 0.600532
#
# Coordination Sequence:
#
# PCOD9098453 Si02
#       8
#     1   2   2   2   2   2   2   2
#     4  10  20  40  68  88 126 168 222 258 326 376
#     4  11  22  43  67  98 126 179 213 276 321 398
#     4  10  24  39  64  99 135 167 219 264 343 376
#     4  10  21  37  67  94 128 171 228 261 321 389
#     4  10  20  38  60  95 129 174 207 269 324 395
#     4  10  22  41  65 102 129 173 211 278 321 396
#     4  10  21  37  65  92 122 176 223 262 316 388
#     4  10  20  36  66  93 132 165 220 259 332 378
#
# _framework density 24.613403000000002
#
# number of rings (size 3 to 8) (size 9 to 14) (size 15 to 20)
#    0.000    1.867    2.667    1.600    7.467    2.667 
#    0.000    2.667    0.000    2.400    0.000    0.000 
#    0.000    0.000    0.000    0.000    0.000    0.000 
#
# Total GULP energy -83696.564587 kJ/mol
# GULP energy per Si atom -5579.770972 kJ/mol
# Density = 2.455738 g / cm^3
# Si number density = 24.613403 Si / 1000 Ang^3
#
#
#
# Elastic Constant Matrix: (Units=GPa)
#
#
# Indices 1 2 3 4 5 6 
#
# 1 58.0844 22.7632 29.8747 8.1409 -0.2001 -7.9130
# 2 22.7632 81.4622 39.3382 -19.0088 -15.1580 -16.5717
# 3 29.8747 39.3382 90.8379 -21.3425 6.5564 3.5316
# 4 8.1409 -19.0088 -21.3425 42.7018 -0.8020 -3.7633
# 5 -0.2001 -15.1580 6.5564 -0.8020 22.7340 9.8662
# 6 -7.9130 -16.5717 3.5316 -3.7633 9.8662 11.9911
#
#
#
# Elastic Compliance Matrix: (Units=1/GPa)
#
#
# Indices 1 2 3 4 5 6 
#
# 1 0.028053 -0.001385 -0.011234 -0.009667 -0.007933 0.023400
# 2 -0.001385 0.032349 -0.012825 0.012513 0.005208 0.047211
# 3 -0.011234 -0.012825 0.022805 0.005333 -0.003019 -0.027696
# 4 -0.009667 0.012513 0.005333 0.035374 -0.001408 0.021603
# 5 -0.007933 0.005208 -0.003019 -0.001408 0.073360 -0.057951
# 6 0.023400 0.047211 -0.027696 0.021603 -0.057951 0.226701
#
#
# Mechanical properties :
#
#
# Convention : Reuss Voigt Hill
#
# Bulk Modulus (GPa) = 30.94300 46.03740 38.49020
# Shear Modulus (GPa) = 10.41009 24.71259 17.56134
#
# Velocity S-wave (km/s) = 2.05879 3.17208 2.67402
# Velocity P-wave (km/s) = 4.27205 5.67106 5.02052
#
# Compressibility (1/GPa) = 0.03231748
#
# Stress axis : x y z
#
# Youngs Moduli (GPa) = 35.64712 30.91317 43.85015
#
# Poissons Ratio (x) = 0.04283 0.49263
# Poissons Ratio (y) = 0.04939 0.56236
# Poissons Ratio (z) = 0.40047 0.39645
#
# Static dielectric constant tensor:
#      x y z
#    x 1.925380 -0.029810 -0.056830 
#    y -0.029810 1.992190 0.013190 
#    z -0.056830 0.013190 1.894220 
# 
# From -- ./inp_files/240209.got.cif
#   From: 2010.05.17/outbox.cif.g08.bks.cpg/sg2_121_cif.got.tgz:240209.got - 2010.06.03 11:33:40.
