data_PCOD9098816
_publ_section_title
;
Structure prediction by ZEFSAII (Michael W. Deem and Ramdas Pophale) SiO2 
 PCOD9098816
Probable space group: P -1
;
_chemical_formula_sum "Si O2"
_cell_formula_units_Z 16
_cell_length_a 11.760680
_cell_length_b 8.005947
_cell_length_c 12.760568
_cell_angle_alpha 43.392024
_cell_angle_beta 82.375329
_cell_angle_gamma 62.978285
_cell_volume 695.966096
_symmetry_space_group_name_H-M "P -1"
_symmetry_group_IT_number 2
_symmetry_cell_setting 'triclinic'
loop_
_space_group_symop_operation_xyz
x,y,z
-x,-y,-z
loop_
_atom_site_type_symbol
_atom_site_label
_atom_site_fract_x
_atom_site_fract_y
_atom_site_fract_z
Si Si1 0.763543 0.439330 0.349170
Si Si2 0.587100 0.164370 0.536183
Si Si3 0.320330 0.263921 0.437860
Si Si4 0.123473 0.786341 0.329839
Si Si5 0.837323 0.322359 0.154055
Si Si6 0.572364 0.308680 0.188705
Si Si7 0.304139 0.042973 0.159390
Si Si8 0.543960 0.091857 0.070796
O O1 0.660445 0.327121 0.415888
O O2 0.842750 0.314433 0.506181
O O3 0.840798 0.340614 0.273293
O O4 0.679495 0.784449 0.201235
O O5 0.433560 0.316987 0.446924
O O6 0.662748 0.830364 0.641175
O O7 0.605496 0.133294 0.671989
O O8 0.174191 0.500955 0.386231
O O9 0.372923 0.953480 0.620717
O O10 0.214076 0.905004 0.216828
O O11 0.970665 0.041215 0.227296
O O12 0.706974 0.309799 0.146088
O O13 0.807679 0.619085 0.973105
O O14 0.520836 0.216592 0.136898
O O15 0.469045 0.622286 0.106875
O O16 0.418809 0.054462 0.070547
#
# Coordination Sequence:
#
# PCOD9098816 Si02
#       8
#     2   2   2   2   2   2   2   2
#     4  11  21  39  61  89 113 153 197 244 285 338
#     4  10  21  37  62  88 117 144 197 246 293 337
#     4  11  20  39  61  88 117 154 191 240 292 347
#     4  11  23  40  61  83 117 161 197 231 284 345
#     4  11  24  40  57  86 121 158 195 232 283 349
#     4  10  20  37  57  88 119 149 182 242 290 346
#     4  10  21  40  61  83 117 153 190 249 283 338
#     4  10  20  37  62  89 118 147 189 241 307 332
#
# _framework density 22.989626999999999
#
# number of rings (size 3 to 8) (size 9 to 14) (size 15 to 20)
#    0.000    1.500    3.750    1.500    0.000    4.500 
#    4.500    0.625    0.000    0.000    0.000    0.000 
#    0.000    0.000    0.000    0.000    0.000    0.000 
#
# Total GULP energy -89250.970670 kJ/mol
# GULP energy per Si atom -5578.185667 kJ/mol
# Density = 2.293730 g / cm^3
# Si number density = 22.989627 Si / 1000 Ang^3
#
#
#
# Elastic Constant Matrix: (Units=GPa)
#
#
# Indices 1 2 3 4 5 6 
#
# 1 38.6957 16.5817 12.9167 -14.6151 0.6528 -1.9230
# 2 16.5817 95.7369 23.0548 -34.8589 5.5820 -18.8763
# 3 12.9167 23.0548 103.9828 -22.7910 -6.0922 -12.2285
# 4 -14.6151 -34.8589 -22.7910 44.6896 -6.5511 7.6152
# 5 0.6528 5.5820 -6.0922 -6.5511 32.5452 -9.1166
# 6 -1.9230 -18.8763 -12.2285 7.6152 -9.1166 27.7568
#
#
#
# Elastic Compliance Matrix: (Units=1/GPa)
#
#
# Indices 1 2 3 4 5 6 
#
# 1 0.030230 -0.002600 -0.001825 0.007382 0.000312 -0.002401
# 2 -0.002600 0.016401 0.000197 0.010837 0.001898 0.008710
# 3 -0.001825 0.000197 0.011899 0.005421 0.004819 0.005345
# 4 0.007382 0.010837 0.005421 0.036613 0.007093 0.002555
# 5 0.000312 0.001898 0.004819 0.007093 0.036500 0.013477
# 6 -0.002401 0.008710 0.005345 0.002555 0.013477 0.047865
#
#
# Mechanical properties :
#
#
# Convention : Reuss Voigt Hill
#
# Bulk Modulus (GPa) = 19.96991 38.16908 29.06949
# Shear Modulus (GPa) = 24.43153 33.38914 28.91033
#
# Velocity S-wave (km/s) = 3.26347 3.81511 3.55003
# Velocity P-wave (km/s) = 4.78599 6.00380 5.42915
#
# Compressibility (1/GPa) = 0.05007535
#
# Stress axis : x y z
#
# Youngs Moduli (GPa) = 33.08019 60.97255 84.04062
#
# Poissons Ratio (x) = 0.15852 0.15334
# Poissons Ratio (y) = 0.08600 -0.01660
# Poissons Ratio (z) = 0.06036 -0.01204
#
# Static dielectric constant tensor:
#      x y z
#    x 1.842960 0.018530 -0.050620 
#    y 0.018530 1.990110 0.102590 
#    z -0.050620 0.102590 1.983140 
# 
# From -- ./inp_files/242989.got.cif
#   From: 2010.05.17/outbox.cif.g08.bks.cpg/sg2_122_cif.got.tgz:242989.got - 2010.06.03 11:33:40.
