data_PCOD9098370
_publ_section_title
;
Structure prediction by ZEFSAII (Michael W. Deem and Ramdas Pophale) SiO2 
 PCOD9098370
Probable space group: P -1
;
_chemical_formula_sum "Si O2"
_cell_formula_units_Z 14
_cell_length_a 9.725878
_cell_length_b 7.143319
_cell_length_c 10.768910
_cell_angle_alpha 61.778015
_cell_angle_beta 63.729905
_cell_angle_gamma 74.904581
_cell_volume 589.903937
_symmetry_space_group_name_H-M "P -1"
_symmetry_group_IT_number 2
_symmetry_cell_setting 'triclinic'
loop_
_space_group_symop_operation_xyz
x,y,z
-x,-y,-z
loop_
_atom_site_type_symbol
_atom_site_label
_atom_site_fract_x
_atom_site_fract_y
_atom_site_fract_z
Si Si1 0.011960 0.180230 0.126067
Si Si2 0.541553 0.272603 0.119244
Si Si3 0.440035 0.286281 0.440784
Si Si4 0.118457 0.739720 0.090833
Si Si5 0.164885 0.578917 0.375402
Si Si6 0.246702 0.053252 0.259537
Si Si7 0.265023 0.904309 0.565105
O O1 0.869941 0.189485 0.275186
O O2 0.030908 0.939795 0.133887
O O3 0.158689 0.205235 0.146498
O O4 0.980113 0.318542 0.971487
O O5 0.508464 0.301070 0.269372
O O6 0.424096 0.104039 0.170316
O O7 0.500000 0.500000 0.000000
O O8 0.717047 0.197364 0.046019
O O9 0.298709 0.458390 0.438375
O O10 0.592522 0.265959 0.470896
O O11 0.350522 0.072519 0.561632
O O12 0.163849 0.561379 0.231523
O O13 0.198627 0.822372 0.310092
O O14 0.000000 0.500000 0.500000
O O15 0.205796 0.042698 0.426126
#
# Coordination Sequence:
#
# PCOD9098370 Si02
#       7
#     2   2   2   2   2   2   2
#     4  10  20  38  62  94 125 164 210 259 313 374
#     4  11  21  42  66  91 126 164 213 262 313 377
#     4  10  20  36  65  92 124 170 211 252 317 373
#     4  10  21  38  65  92 124 168 206 257 321 370
#     4  11  23  42  64  95 130 166 208 261 315 378
#     4  10  24  40  66  94 126 168 211 260 316 366
#     4  10  20  38  64  93 125 167 212 260 309 373
#
# _framework density 23.732678
#
# number of rings (size 3 to 8) (size 9 to 14) (size 15 to 20)
#    0.000    1.714    2.857    2.143    0.000    4.000 
#    0.000    2.143    0.000    0.000    0.000    0.000 
#    0.000    0.000    0.000    0.000    0.000    0.000 
#
# Total GULP energy -78115.831927 kJ/mol
# GULP energy per Si atom -5579.702281 kJ/mol
# Density = 2.367866 g / cm^3
# Si number density = 23.732678 Si / 1000 Ang^3
#
#
#
# Elastic Constant Matrix: (Units=GPa)
#
#
# Indices 1 2 3 4 5 6 
#
# 1 147.5602 33.3109 34.9512 14.9350 8.0030 0.0287
# 2 33.3109 49.6078 4.8409 -9.3505 -4.0989 -3.6745
# 3 34.9512 4.8409 84.3855 -2.9072 -1.2325 5.1381
# 4 14.9350 -9.3505 -2.9072 23.9243 -5.6996 3.4858
# 5 8.0030 -4.0989 -1.2325 -5.6996 50.1657 2.9749
# 6 0.0287 -3.6745 5.1381 3.4858 2.9749 36.5384
#
#
#
# Elastic Compliance Matrix: (Units=1/GPa)
#
#
# Indices 1 2 3 4 5 6 
#
# 1 0.011823 -0.010221 -0.004908 -0.013210 -0.004418 0.001273
# 2 -0.010221 0.031121 0.003237 0.020473 0.006567 0.000195
# 3 -0.004908 0.003237 0.014124 0.006968 0.002335 -0.002512
# 4 -0.013210 0.020473 0.006968 0.062451 0.011391 -0.005796
# 5 -0.004418 0.006567 0.002335 0.011391 0.022681 -0.002598
# 6 0.001273 0.000195 -0.002512 -0.005796 -0.002598 0.028505
#
#
# Mechanical properties :
#
#
# Convention : Reuss Voigt Hill
#
# Bulk Modulus (GPa) = 30.04210 47.52882 38.78546
# Shear Modulus (GPa) = 24.32107 36.02239 30.17173
#
# Velocity S-wave (km/s) = 3.20471 3.90017 3.56942
# Velocity P-wave (km/s) = 5.13611 6.35232 5.77631
#
# Compressibility (1/GPa) = 0.03328662
#
# Stress axis : x y z
#
# Youngs Moduli (GPa) = 84.58135 32.13240 70.79929
#
# Poissons Ratio (x) = 0.32841 0.34746
# Poissons Ratio (y) = 0.86447 -0.22920
# Poissons Ratio (z) = 0.41510 -0.10402
#
# Static dielectric constant tensor:
#      x y z
#    x 1.975010 -0.182000 0.108950 
#    y -0.182000 0.239940 0.284690 
#    z 0.108950 0.284690 1.831390 
# 
# From -- ./inp_files/190239.got.cif
#   From: 2010.05.17/outbox.cif.g08.bks.cpg/sg2_96_cif.got.tgz:190239.got - 2010.06.03 11:33:40.
