data_PCOD9098844
_publ_section_title
;
Structure prediction by ZEFSAII (Michael W. Deem and Ramdas Pophale) SiO2 
 PCOD9098844
Probable space group: P -1
;
_chemical_formula_sum "Si O2"
_cell_formula_units_Z 16
_cell_length_a 16.560645
_cell_length_b 16.376368
_cell_length_c 4.952177
_cell_angle_alpha 110.110047
_cell_angle_beta 66.311348
_cell_angle_gamma 151.422500
_cell_volume 588.187402
_symmetry_space_group_name_H-M "P -1"
_symmetry_group_IT_number 2
_symmetry_cell_setting 'triclinic'
loop_
_space_group_symop_operation_xyz
x,y,z
-x,-y,-z
loop_
_atom_site_type_symbol
_atom_site_label
_atom_site_fract_x
_atom_site_fract_y
_atom_site_fract_z
Si Si1 0.592892 0.671843 0.118231
Si Si2 0.972523 0.334940 0.776951
Si Si3 0.462176 0.820902 0.088666
Si Si4 0.056331 0.882890 0.408704
Si Si5 0.688330 0.008177 0.508846
Si Si6 0.580695 0.407527 0.225563
Si Si7 0.130705 0.210464 0.919196
Si Si8 0.170049 0.645712 0.620682
O O1 0.473042 0.623566 0.429778
O O2 0.500000 0.500000 0.000000
O O3 0.581336 0.706620 0.883070
O O4 0.774717 0.800347 0.157694
O O5 0.855775 0.211717 0.532435
O O6 0.998714 0.261638 0.779213
O O7 0.143060 0.533284 0.699510
O O8 0.853485 0.295863 0.074644
O O9 0.335157 0.779262 0.361016
O O10 0.616937 0.936920 0.227244
O O11 0.371565 0.650695 0.973586
O O12 0.539554 0.915264 0.805708
O O13 0.932997 0.807133 0.730822
O O14 0.238512 0.015858 0.463680
O O15 0.021976 0.916073 0.240319
O O16 0.725201 0.601342 0.178848
O O17 0.000000 0.500000 0.500000
#
# Coordination Sequence:
#
# PCOD9098844 Si02
#       8
#     2   2   2   2   2   2   2   2
#     4  10  20  37  58 100 138 166 211 281 334 388
#     4   9  25  44  66  96 137 171 215 287 323 384
#     4  12  26  44  69  96 134 188 216 267 340 395
#     4  10  22  38  66  90 130 168 228 259 315 399
#     4  10  26  45  66  95 134 186 225 262 323 411
#     4  11  22  36  63  95 140 166 220 273 333 390
#     4  11  19  36  67  98 124 172 216 275 333 383
#     4  11  26  44  70 102 137 160 227 289 332 383
#
# _framework density 27.202214000000001
#
# number of rings (size 3 to 8) (size 9 to 14) (size 15 to 20)
#    0.750    0.750    0.000    6.000    8.750    1.000 
#    0.000    0.000    0.000   15.000    0.000    0.000 
#    0.000    0.000    0.000    0.000    0.000    0.000 
#
# Total GULP energy -89690.494361 kJ/mol
# GULP energy per Si atom -5605.655898 kJ/mol
# Density = 2.714030 g / cm^3
# Si number density = 27.202214 Si / 1000 Ang^3
#
#
#
# Elastic Constant Matrix: (Units=GPa)
#
#
# Indices 1 2 3 4 5 6 
#
# 1 102.4745 17.6287 12.3389 10.8970 10.3092 16.7796
# 2 17.6287 83.3485 12.1607 3.8253 1.1707 -3.6028
# 3 12.3389 12.1607 141.7196 -6.7544 -7.6821 -1.5970
# 4 10.8970 3.8253 -6.7544 44.3027 8.0837 3.6592
# 5 10.3092 1.1707 -7.6821 8.0837 44.0075 4.8297
# 6 16.7796 -3.6028 -1.5970 3.6592 4.8297 47.6572
#
#
#
# Elastic Compliance Matrix: (Units=1/GPa)
#
#
# Indices 1 2 3 4 5 6 
#
# 1 0.011323 -0.002287 -0.001038 -0.002069 -0.001972 -0.003836
# 2 -0.002287 0.012730 -0.000913 -0.000823 -0.000009 0.001801
# 3 -0.001038 -0.000913 0.007356 0.001193 0.001297 0.000320
# 4 -0.002069 -0.000823 0.001193 0.024058 -0.003619 -0.000774
# 5 -0.001972 -0.000009 0.001297 -0.003619 0.024235 -0.001441
# 6 -0.003836 0.001801 0.000320 -0.000774 -0.001441 0.022686
#
#
# Mechanical properties :
#
#
# Convention : Reuss Voigt Hill
#
# Bulk Modulus (GPa) = 43.60325 45.75545 44.67935
# Shear Modulus (GPa) = 42.19089 46.22111 44.20600
#
# Velocity S-wave (km/s) = 3.94256 4.12657 4.03561
# Velocity P-wave (km/s) = 6.06540 6.28981 6.17863
#
# Compressibility (1/GPa) = 0.02293407
#
# Stress axis : x y z
#
# Youngs Moduli (GPa) = 88.31225 78.55237 135.94931
#
# Poissons Ratio (x) = 0.17962 0.14117
# Poissons Ratio (y) = 0.20194 0.12408
# Poissons Ratio (z) = 0.09171 0.07169
#
# Static dielectric constant tensor:
#      x y z
#    x 2.180110 0.019000 0.004860 
#    y 0.019000 2.173880 0.030900 
#    z 0.004860 0.030900 2.022700 
# 
# From -- ./inp_files/112108.got.cif
#   From: 2010.05.17/outbox.cif.g08.bks.cpg/sg2_57_cif.got.tgz:112108.got - 2010.06.03 11:33:40.
