data_PCOD9098790
_publ_section_title
;
Structure prediction by ZEFSAII (Michael W. Deem and Ramdas Pophale) SiO2 
 PCOD9098790
Probable space group: P -1
;
_chemical_formula_sum "Si O2"
_cell_formula_units_Z 14
_cell_length_a 8.123802
_cell_length_b 8.962584
_cell_length_c 22.212432
_cell_angle_alpha 148.148814
_cell_angle_beta 125.273312
_cell_angle_gamma 75.035216
_cell_volume 586.818335
_symmetry_space_group_name_H-M "P -1"
_symmetry_group_IT_number 2
_symmetry_cell_setting 'triclinic'
loop_
_space_group_symop_operation_xyz
x,y,z
-x,-y,-z
loop_
_atom_site_type_symbol
_atom_site_label
_atom_site_fract_x
_atom_site_fract_y
_atom_site_fract_z
Si Si1 0.229504 0.698548 0.352892
Si Si2 0.692021 0.919732 0.386370
Si Si3 0.862041 0.326544 0.806752
Si Si4 0.604786 0.210035 0.154855
Si Si5 0.597617 0.890371 0.227474
Si Si6 0.820140 0.868053 0.141370
Si Si7 0.715427 0.928727 0.843031
O O1 0.090316 0.684016 0.258322
O O2 0.234733 0.365201 0.246414
O O3 0.500000 0.000000 0.500000
O O4 0.169402 0.806778 0.439169
O O5 0.414372 0.812278 0.291860
O O6 0.683121 0.587601 0.289248
O O7 0.758016 0.015809 0.363822
O O8 0.939280 0.124677 0.795561
O O9 0.036994 0.718288 0.993470
O O10 0.404571 0.074001 0.119131
O O11 0.807794 0.145001 0.196776
O O12 0.500000 0.000000 0.000000
O O13 0.738544 0.890747 0.199097
O O14 0.473647 0.094292 0.253582
O O15 0.380893 0.497858 0.053083
#
# Coordination Sequence:
#
# PCOD9098790 Si02
#       7
#     2   2   2   2   2   2   2
#     4  10  20  37  57  85 119 154 189 236 296 342
#     4  11  22  37  62  87 119 154 193 236 288 350
#     4  10  21  37  62  89 113 150 200 245 277 332
#     4  11  20  35  61  88 115 154 194 233 291 352
#     4   9  19  36  58  85 118 154 189 233 298 342
#     4   9  19  36  58  84 118 151 190 243 285 336
#     4  10  20  37  62  86 113 152 196 240 286 338
#
# _framework density 23.857468000000001
#
# number of rings (size 3 to 8) (size 9 to 14) (size 15 to 20)
#    0.000    2.000    4.286    1.286    0.000    2.857 
#    0.000    1.429    0.000    0.000    0.000    0.000 
#    0.000    0.000    0.000    0.000    0.000    0.000 
#
# Total GULP energy -78368.514340 kJ/mol
# GULP energy per Si atom -5597.751024 kJ/mol
# Density = 2.380317 g / cm^3
# Si number density = 23.857468 Si / 1000 Ang^3
#
#
#
# Elastic Constant Matrix: (Units=GPa)
#
#
# Indices 1 2 3 4 5 6 
#
# 1 79.0625 40.6909 31.3406 -0.2201 -10.2501 -4.3928
# 2 40.6909 164.3074 35.9323 -7.6244 -28.8510 -18.9220
# 3 31.3406 35.9323 45.3797 -2.4677 -22.7467 -6.8241
# 4 -0.2201 -7.6244 -2.4677 19.6842 3.7936 -8.2562
# 5 -10.2501 -28.8510 -22.7467 3.7936 47.2567 -9.3459
# 6 -4.3928 -18.9220 -6.8241 -8.2562 -9.3459 48.5871
#
#
#
# Elastic Compliance Matrix: (Units=1/GPa)
#
#
# Indices 1 2 3 4 5 6 
#
# 1 0.018745 -0.002936 -0.013434 -0.002873 -0.004494 -0.002688
# 2 -0.002936 0.008658 -0.001772 0.004104 0.004335 0.004389
# 3 -0.013434 -0.001772 0.043353 0.004649 0.018174 0.008470
# 4 -0.002873 0.004104 0.004649 0.057676 0.001894 0.012156
# 5 -0.004494 0.004335 0.018174 0.001894 0.033526 0.010605
# 6 -0.002688 0.004389 0.008470 0.012156 0.010605 0.027343
#
#
# Mechanical properties :
#
#
# Convention : Reuss Voigt Hill
#
# Bulk Modulus (GPa) = 29.00886 56.07525 42.54206
# Shear Modulus (GPa) = 21.09036 35.15798 28.12417
#
# Velocity S-wave (km/s) = 2.97646 3.84300 3.43715
# Velocity P-wave (km/s) = 4.89878 6.57623 5.79849
#
# Compressibility (1/GPa) = 0.03447222
#
# Stress axis : x y z
#
# Youngs Moduli (GPa) = 53.34842 115.50408 23.06621
#
# Poissons Ratio (x) = 0.33916 0.30987
# Poissons Ratio (y) = 0.15665 0.04086
# Poissons Ratio (z) = 0.71668 0.20462
#
# Static dielectric constant tensor:
#      x y z
#    x 1.964140 0.036790 -0.014050 
#    y 0.036790 1.893680 -0.028070 
#    z -0.014050 -0.028070 1.869070 
# 
# From -- ./inp_files/177500.got.cif
#   From: 2010.05.17/outbox.cif.g08.bks.cpg/sg2_89_cif.got.tgz:177500.got - 2010.06.03 11:33:40.
