data_PCOD9098181
_publ_section_title
;
Structure prediction by ZEFSAII (Michael W. Deem and Ramdas Pophale) SiO2 
 PCOD9098181
Probable space group: P -1
;
_chemical_formula_sum "Si O2"
_cell_formula_units_Z 14
_cell_length_a 9.808917
_cell_length_b 15.289177
_cell_length_c 8.568048
_cell_angle_alpha 139.301810
_cell_angle_beta 135.525557
_cell_angle_gamma 50.298937
_cell_volume 573.407769
_symmetry_space_group_name_H-M "P -1"
_symmetry_group_IT_number 2
_symmetry_cell_setting 'triclinic'
loop_
_space_group_symop_operation_xyz
x,y,z
-x,-y,-z
loop_
_atom_site_type_symbol
_atom_site_label
_atom_site_fract_x
_atom_site_fract_y
_atom_site_fract_z
Si Si1 0.116618 0.345130 0.887014
Si Si2 0.188751 0.753137 0.270361
Si Si3 0.808281 0.916847 0.136228
Si Si4 0.771462 0.497147 0.269222
Si Si5 0.624477 0.770708 0.321191
Si Si6 0.461885 0.957199 0.170251
Si Si7 0.618919 0.667050 0.636312
O O1 0.316793 0.352726 0.158779
O O2 0.171571 0.268838 0.666313
O O3 0.000000 0.500000 0.000000
O O4 0.967497 0.276653 0.770206
O O5 0.398413 0.738971 0.505020
O O6 0.222616 0.641004 0.008602
O O7 0.048282 0.895387 0.292321
O O8 0.758970 0.771032 0.837967
O O9 0.710923 0.027476 0.078020
O O10 0.664559 0.939530 0.205204
O O11 0.650855 0.626977 0.243227
O O12 0.668733 0.524386 0.390850
O O13 0.000000 0.500000 0.500000
O O14 0.474755 0.837258 0.147481
O O15 0.581326 0.898430 0.576748
#
# Coordination Sequence:
#
# PCOD9098181 Si02
#       7
#     2   2   2   2   2   2   2
#     4  11  21  40  61  88 125 159 193 250 305 359
#     4  11  22  37  64  92 118 155 202 244 308 361
#     4  10  20  41  64  85 119 161 204 246 296 355
#     4  12  20  39  63  91 123 155 197 251 304 361
#     4  11  20  34  65  89 117 160 200 244 301 353
#     4  10  20  36  64  86 114 167 206 241 297 353
#     4  11  22  38  61  92 119 156 202 246 302 361
#
# _framework density 24.415434000000001
#
# number of rings (size 3 to 8) (size 9 to 14) (size 15 to 20)
#    0.000    1.143    8.571    0.429    0.000    0.571 
#    0.000    2.857    0.000    2.571    0.000    0.000 
#    0.000    0.000    0.000    0.000    0.000    0.000 
#
# Total GULP energy -77996.861678 kJ/mol
# GULP energy per Si atom -5571.204406 kJ/mol
# Density = 2.435986 g / cm^3
# Si number density = 24.415434 Si / 1000 Ang^3
#
#
#
# Elastic Constant Matrix: (Units=GPa)
#
#
# Indices 1 2 3 4 5 6 
#
# 1 61.7030 23.0759 34.9120 -9.2053 -17.8333 -30.8409
# 2 23.0759 174.9222 71.7036 -7.3502 -9.2151 -35.8759
# 3 34.9120 71.7036 90.9790 5.6611 -15.3645 -30.6276
# 4 -9.2053 -7.3502 5.6611 65.9585 -25.1519 -6.9389
# 5 -17.8333 -9.2151 -15.3645 -25.1519 48.6611 -2.5689
# 6 -30.8409 -35.8759 -30.6276 -6.9389 -2.5689 47.8063
#
#
#
# Elastic Compliance Matrix: (Units=1/GPa)
#
#
# Indices 1 2 3 4 5 6 
#
# 1 0.049614 0.007218 -0.008378 0.024370 0.031469 0.037285
# 2 0.007218 0.010032 -0.007099 0.005874 0.005804 0.008802
# 3 -0.008378 -0.007099 0.020832 -0.003303 0.000570 0.002166
# 4 0.024370 0.005874 -0.003303 0.032333 0.026988 0.024157
# 5 0.031469 0.005804 0.000570 0.026988 0.048979 0.031572
# 6 0.037285 0.008802 0.002166 0.024157 0.031572 0.058166
#
#
# Mechanical properties :
#
#
# Convention : Reuss Voigt Hill
#
# Bulk Modulus (GPa) = 15.63444 65.22080 40.42762
# Shear Modulus (GPa) = 19.39534 45.67937 32.53736
#
# Velocity S-wave (km/s) = 2.82155 4.33011 3.65452
# Velocity P-wave (km/s) = 4.12701 7.19519 5.86528
#
# Compressibility (1/GPa) = 0.06396135
#
# Stress axis : x y z
#
# Youngs Moduli (GPa) = 20.15554 99.67768 48.00307
#
# Poissons Ratio (x) = -0.71945 0.40215
# Poissons Ratio (y) = -0.14548 0.34076
# Poissons Ratio (z) = 0.16885 0.70759
#
# Static dielectric constant tensor:
#      x y z
#    x 1.942680 0.017190 -0.007570 
#    y 0.017190 1.911440 0.025670 
#    z -0.007570 0.025670 2.060320 
# 
# From -- ./inp_files/281308.got.cif
#   From: 2010.05.17/outbox.cif.g08.bks.cpg/sg2_141_cif.got.tgz:281308.got - 2010.06.03 11:33:40.
