data_PCOD9098938
_publ_section_title
;
Structure prediction by ZEFSAII (Michael W. Deem and Ramdas Pophale) SiO2 
 PCOD9098938
Probable space group: P -1
;
_chemical_formula_sum "Si O2"
_cell_formula_units_Z 14
_cell_length_a 17.125284
_cell_length_b 7.336421
_cell_length_c 7.398467
_cell_angle_alpha 99.395734
_cell_angle_beta 113.793765
_cell_angle_gamma 40.700394
_cell_volume 538.554999
_symmetry_space_group_name_H-M "P -1"
_symmetry_group_IT_number 2
_symmetry_cell_setting 'triclinic'
loop_
_space_group_symop_operation_xyz
x,y,z
-x,-y,-z
loop_
_atom_site_type_symbol
_atom_site_label
_atom_site_fract_x
_atom_site_fract_y
_atom_site_fract_z
Si Si1 0.591797 0.537501 0.305112
Si Si2 0.062980 0.692189 0.022999
Si Si3 0.154650 0.694843 0.597042
Si Si4 0.828183 0.016689 0.096742
Si Si5 0.438047 0.456047 0.157768
Si Si6 0.814957 0.693270 0.246842
Si Si7 0.635236 0.816902 0.813412
O O1 0.560194 0.383333 0.316364
O O2 0.737740 0.382338 0.440611
O O3 0.566022 0.566108 0.067642
O O4 0.480024 0.864503 0.322909
O O5 0.067547 0.582798 0.816611
O O6 0.218514 0.435871 0.182394
O O7 0.964470 0.757792 0.080449
O O8 0.000000 0.000000 0.000000
O O9 0.185241 0.745342 0.826036
O O10 0.173719 0.443494 0.583835
O O11 0.000000 0.000000 0.500000
O O12 0.820814 0.900704 0.249390
O O13 0.698217 0.198714 0.884372
O O14 0.423628 0.286059 0.214957
O O15 0.681379 0.838891 0.049498
#
# Coordination Sequence:
#
# PCOD9098938 Si02
#       7
#     2   2   2   2   2   2   2
#     4  10  19  30  48  74 103 130 170 213 256 307
#     4  10  16  31  53  83 110 130 158 215 277 306
#     4  11  24  38  51  70 107 150 177 203 245 310
#     4  11  18  34  53  83 107 131 171 214 261 308
#     4  10  17  27  49  76 104 131 157 210 269 302
#     4  10  20  31  53  81 107 130 170 212 266 305
#     4  10  18  28  50  81 107 126 159 209 275 303
#
# _framework density 25.995488999999999
#
# number of rings (size 3 to 8) (size 9 to 14) (size 15 to 20)
#    0.857    0.857    7.143    0.857    0.000    0.571 
#    0.000    0.000    0.000    0.857    0.000    5.000 
#    0.000    0.000    0.000    0.000    0.000    0.000 
#
# Total GULP energy -78100.309806 kJ/mol
# GULP energy per Si atom -5578.593558 kJ/mol
# Density = 2.593632 g / cm^3
# Si number density = 25.995489 Si / 1000 Ang^3
#
#
#
# Elastic Constant Matrix: (Units=GPa)
#
#
# Indices 1 2 3 4 5 6 
#
# 1 172.7939 34.2678 23.4891 -17.1396 27.4225 3.6783
# 2 34.2678 93.5338 14.3066 -23.7133 16.9209 -6.0907
# 3 23.4891 14.3066 52.6615 -8.8169 12.2434 -12.1635
# 4 -17.1396 -23.7133 -8.8169 30.2199 -14.5668 8.9829
# 5 27.4225 16.9209 12.2434 -14.5668 23.9147 -16.0484
# 6 3.6783 -6.0907 -12.1635 8.9829 -16.0484 48.1245
#
#
#
# Elastic Compliance Matrix: (Units=1/GPa)
#
#
# Indices 1 2 3 4 5 6 
#
# 1 0.008080 -0.001170 -0.001940 -0.000873 -0.011220 -0.004835
# 2 -0.001170 0.014074 -0.001326 0.008684 -0.003486 -0.001248
# 3 -0.001940 -0.001326 0.022448 0.000695 -0.005409 0.003721
# 4 -0.000873 0.008684 0.000695 0.052343 0.026702 0.000476
# 5 -0.011220 -0.003486 -0.005409 0.026702 0.093014 0.025083
# 6 -0.004835 -0.001248 0.003721 0.000476 0.025083 0.030207
#
#
# Mechanical properties :
#
#
# Convention : Reuss Voigt Hill
#
# Bulk Modulus (GPa) = 27.98732 51.45735 39.72234
# Shear Modulus (GPa) = 20.75144 36.91352 28.83248
#
# Velocity S-wave (km/s) = 2.82843 3.77237 3.33398
# Velocity P-wave (km/s) = 4.63210 6.22994 5.48946
#
# Compressibility (1/GPa) = 0.03573046
#
# Stress axis : x y z
#
# Youngs Moduli (GPa) = 123.76251 71.05524 44.54686
#
# Poissons Ratio (x) = 0.08311 0.08644
# Poissons Ratio (y) = 0.14476 0.05905
# Poissons Ratio (z) = 0.24015 0.09419
#
# Static dielectric constant tensor:
#      x y z
#    x 2.092700 -0.059150 0.037280 
#    y -0.059150 2.096000 0.022230 
#    z 0.037280 0.022230 2.163840 
# 
# From -- ./inp_files/442915.got.cif
#   From: 2010.05.17/outbox.cif.g08.bks.cpg/sg2_222_cif.got.tgz:442915.got - 2010.06.03 11:33:40.
