data_PCOD9098326
_publ_section_title
;
Structure prediction by ZEFSAII (Michael W. Deem and Ramdas Pophale) SiO2 
 PCOD9098326
Probable space group: P -1
;
_chemical_formula_sum "Si O2"
_cell_formula_units_Z 16
_cell_length_a 17.987647
_cell_length_b 7.884834
_cell_length_c 10.716243
_cell_angle_alpha 43.356212
_cell_angle_beta 39.438558
_cell_angle_gamma 45.223123
_cell_volume 626.307677
_symmetry_space_group_name_H-M "P -1"
_symmetry_group_IT_number 2
_symmetry_cell_setting 'triclinic'
loop_
_space_group_symop_operation_xyz
x,y,z
-x,-y,-z
loop_
_atom_site_type_symbol
_atom_site_label
_atom_site_fract_x
_atom_site_fract_y
_atom_site_fract_z
Si Si1 0.906867 0.688327 0.841597
Si Si2 0.665996 0.144042 0.922966
Si Si3 0.490558 0.682544 0.219173
Si Si4 0.273149 0.505990 0.147567
Si Si5 0.592157 0.791737 0.406183
Si Si6 0.263838 0.972484 0.499558
Si Si7 0.870681 0.209469 0.016077
Si Si8 0.158575 0.597917 0.677583
O O1 0.047523 0.677524 0.681747
O O2 0.808081 0.973814 0.800690
O O3 0.885224 0.491026 0.873404
O O4 0.879207 0.551015 0.077338
O O5 0.585535 0.225528 0.860056
O O6 0.658959 0.391711 0.885640
O O7 0.623580 0.940637 0.169411
O O8 0.471742 0.419363 0.432656
O O9 0.408406 0.887131 0.317085
O O10 0.631856 0.613854 0.027642
O O11 0.219968 0.284385 0.382762
O O12 0.171167 0.766689 0.085551
O O13 0.715717 0.622606 0.410841
O O14 0.500000 0.000000 0.500000
O O15 0.231456 0.862155 0.730226
O O16 0.195542 0.835149 0.563703
O O17 0.000000 0.000000 0.000000
#
# Coordination Sequence:
#
# PCOD9098326 Si02
#       8
#     2   2   2   2   2   2   2   2
#     4   9  19  41  67  90 127 175 223 272 331 395
#     4  11  24  42  70 102 134 178 233 284 336 403
#     4  11  24  45  70  98 137 182 232 284 333 411
#     4  12  26  42  68 103 143 179 222 287 347 401
#     4  10  20  36  64  98 134 164 226 277 333 395
#     4  10  24  46  68 101 138 177 233 274 350 413
#     4  11  27  46  70 100 140 179 224 284 346 411
#     4   8  18  37  68  89 124 174 221 273 322 396
#
# _framework density 25.546545999999999
#
# number of rings (size 3 to 8) (size 9 to 14) (size 15 to 20)
#    0.000    1.750    1.250    2.250    7.000    3.000 
#    2.250    3.125    0.000    0.000    0.000    0.000 
#    0.000    0.000    0.000    0.000    0.000    0.000 
#
# Total GULP energy -89583.373427 kJ/mol
# GULP energy per Si atom -5598.960839 kJ/mol
# Density = 2.548840 g / cm^3
# Si number density = 25.546546 Si / 1000 Ang^3
#
#
#
# Elastic Constant Matrix: (Units=GPa)
#
#
# Indices 1 2 3 4 5 6 
#
# 1 103.0855 41.4169 33.1966 -3.2609 -2.2196 -38.1205
# 2 41.4169 96.8306 28.7733 -6.9783 -11.3972 -11.4188
# 3 33.1966 28.7733 131.9271 -33.6171 -10.7072 -3.6881
# 4 -3.2609 -6.9783 -33.6171 39.3204 -3.2074 -6.3392
# 5 -2.2196 -11.3972 -10.7072 -3.2074 36.2836 -0.7292
# 6 -38.1205 -11.4188 -3.6881 -6.3392 -0.7292 35.1931
#
#
#
# Elastic Compliance Matrix: (Units=1/GPa)
#
#
# Indices 1 2 3 4 5 6 
#
# 1 0.020370 -0.005414 -0.003138 0.001229 -0.000866 0.020182
# 2 -0.005414 0.013283 -0.000990 0.001135 0.003622 -0.001379
# 3 -0.003138 -0.000990 0.011238 0.009341 0.003623 -0.000785
# 4 0.001229 0.001135 0.009341 0.035746 0.006534 0.009252
# 5 -0.000866 0.003622 0.003623 0.006534 0.030341 0.002422
# 6 0.020182 -0.001379 -0.000785 0.009252 0.002422 0.051463
#
#
# Mechanical properties :
#
#
# Convention : Reuss Voigt Hill
#
# Bulk Modulus (GPa) = 38.74931 59.84629 49.29780
# Shear Modulus (GPa) = 26.29847 37.38983 31.84415
#
# Velocity S-wave (km/s) = 3.21196 3.82985 3.53443
# Velocity P-wave (km/s) = 5.38114 6.56005 5.99962
#
# Compressibility (1/GPa) = 0.02580691
#
# Stress axis : x y z
#
# Youngs Moduli (GPa) = 49.09260 75.28670 88.98553
#
# Poissons Ratio (x) = 0.40757 0.27922
# Poissons Ratio (y) = 0.26577 0.08810
# Poissons Ratio (z) = 0.15405 0.07454
#
# Static dielectric constant tensor:
#      x y z
#    x 1.997970 -0.003680 -0.021470 
#    y -0.003680 2.005540 0.080340 
#    z -0.021470 0.080340 1.995930 
# 
# From -- ./inp_files/461789.got.cif
#   From: 2010.05.17/outbox.cif.g08.bks.cpg/sg2_231_cif.got.tgz:461789.got - 2010.06.03 11:33:40.
