data_PCOD9098003
_publ_section_title
;
Structure prediction by ZEFSAII (Michael W. Deem and Ramdas Pophale) SiO2 
 PCOD9098003
Probable space group: P -1
;
_chemical_formula_sum "Si O2"
_cell_formula_units_Z 16
_cell_length_a 7.618319
_cell_length_b 13.618796
_cell_length_c 11.099394
_cell_angle_alpha 55.902637
_cell_angle_beta 49.664777
_cell_angle_gamma 61.022265
_cell_volume 713.292738
_symmetry_space_group_name_H-M "P -1"
_symmetry_group_IT_number 2
_symmetry_cell_setting 'triclinic'
loop_
_space_group_symop_operation_xyz
x,y,z
-x,-y,-z
loop_
_atom_site_type_symbol
_atom_site_label
_atom_site_fract_x
_atom_site_fract_y
_atom_site_fract_z
Si Si1 0.745374 0.675098 0.439999
Si Si2 0.343542 0.193305 0.857405
Si Si3 0.792351 0.029699 0.846616
Si Si4 0.271212 0.545906 0.250575
Si Si5 0.044210 0.673098 0.881363
Si Si6 0.888746 0.891655 0.668310
Si Si7 0.270910 0.451073 0.055990
Si Si8 0.279519 0.110044 0.513366
O O1 0.636248 0.736589 0.323401
O O2 0.673739 0.548948 0.598530
O O3 0.692157 0.776242 0.497159
O O4 0.028009 0.636334 0.322183
O O5 0.595211 0.149701 0.839284
O O6 0.160099 0.280882 0.962915
O O7 0.235271 0.070132 0.971861
O O8 0.047320 0.062398 0.696755
O O9 0.737990 0.952058 0.805998
O O10 0.480988 0.610997 0.068626
O O11 0.241858 0.465072 0.200973
O O12 0.085826 0.789606 0.711333
O O13 0.246000 0.587855 0.921360
O O14 0.937415 0.599915 0.876425
O O15 0.762109 0.851479 0.635601
O O16 0.000000 0.000000 0.500000
O O17 0.500000 0.000000 0.500000
#
# Coordination Sequence:
#
# PCOD9098003 Si02
#       8
#     2   2   2   2   2   2   2   2
#     4  11  23  40  60  88 128 157 199 251 306 362
#     4  10  20  39  59  88 118 164 194 249 300 361
#     4   9  21  38  61  84 122 154 208 242 297 363
#     4  10  23  41  59  89 123 162 197 250 307 357
#     4  10  20  36  63  86 115 155 207 248 287 357
#     4   9  19  38  58  85 117 155 198 244 296 356
#     4  10  21  40  62  88 116 159 210 244 298 357
#     4  11  23  38  59  91 121 159 199 251 307 363
#
# _framework density 22.431183999999998
#
# number of rings (size 3 to 8) (size 9 to 14) (size 15 to 20)
#    0.000    2.000    1.250    1.500    1.750    5.500 
#    2.250    0.625    0.000    0.000    0.000    0.000 
#    0.000    0.000    0.000    0.000    0.000    0.000 
#
# Total GULP energy -89225.953976 kJ/mol
# GULP energy per Si atom -5576.622124 kJ/mol
# Density = 2.238013 g / cm^3
# Si number density = 22.431184 Si / 1000 Ang^3
#
#
#
# Elastic Constant Matrix: (Units=GPa)
#
#
# Indices 1 2 3 4 5 6 
#
# 1 40.0297 10.7686 8.7724 0.6892 7.0625 -5.4702
# 2 10.7686 82.6332 11.5883 4.6284 2.0902 -16.7322
# 3 8.7724 11.5883 72.7921 -12.3002 16.7567 -14.4641
# 4 0.6892 4.6284 -12.3002 33.0901 -11.6035 0.6822
# 5 7.0625 2.0902 16.7567 -11.6035 36.7838 8.4837
# 6 -5.4702 -16.7322 -14.4641 0.6822 8.4837 32.6061
#
#
#
# Elastic Compliance Matrix: (Units=1/GPa)
#
#
# Indices 1 2 3 4 5 6 
#
# 1 0.027719 -0.002111 -0.000949 -0.003166 -0.006925 0.005014
# 2 -0.002111 0.014240 -0.000344 -0.003306 -0.003058 0.007665
# 3 -0.000949 -0.000344 0.018794 0.003443 -0.009684 0.010449
# 4 -0.003166 -0.003306 0.003443 0.036221 0.011691 -0.004500
# 5 -0.006925 -0.003058 -0.009684 0.011691 0.040921 -0.017918
# 6 0.005014 0.007665 0.010449 -0.004500 -0.017918 0.044835
#
#
# Mechanical properties :
#
#
# Convention : Reuss Voigt Hill
#
# Bulk Modulus (GPa) = 18.53792 28.63485 23.58639
# Shear Modulus (GPa) = 24.09401 31.45104 27.77253
#
# Velocity S-wave (km/s) = 3.28095 3.74854 3.52251
# Velocity P-wave (km/s) = 4.75764 5.61505 5.20403
#
# Compressibility (1/GPa) = 0.05394348
#
# Stress axis : x y z
#
# Youngs Moduli (GPa) = 36.07643 70.22629 53.20831
#
# Poissons Ratio (x) = 0.14828 0.05050
# Poissons Ratio (y) = 0.07617 0.01831
# Poissons Ratio (z) = 0.03424 0.02417
#
# Static dielectric constant tensor:
#      x y z
#    x 1.925210 -0.013210 -0.157950 
#    y -0.013210 1.877330 -0.004680 
#    z -0.157950 -0.004680 2.271210 
# 
# From -- ./inp_files/206982.got.cif
#   From: 2010.05.17/outbox.cif.g08.bks.cpg/sg2_104_cif.got.tgz:206982.got - 2010.06.03 11:33:40.
