data_PCOD9098196
_publ_section_title
;
Structure prediction by ZEFSAII (Michael W. Deem and Ramdas Pophale) SiO2 
 PCOD9098196
Probable space group: P -1
;
_chemical_formula_sum "Si O2"
_cell_formula_units_Z 14
_cell_length_a 8.755540
_cell_length_b 22.081222
_cell_length_c 8.279307
_cell_angle_alpha 86.297117
_cell_angle_beta 51.192791
_cell_angle_gamma 41.599451
_cell_volume 517.179359
_symmetry_space_group_name_H-M "P -1"
_symmetry_group_IT_number 2
_symmetry_cell_setting 'triclinic'
loop_
_space_group_symop_operation_xyz
x,y,z
-x,-y,-z
loop_
_atom_site_type_symbol
_atom_site_label
_atom_site_fract_x
_atom_site_fract_y
_atom_site_fract_z
Si Si1 0.142396 0.148573 0.291955
Si Si2 0.040755 0.597194 0.856280
Si Si3 0.876982 0.650309 0.323561
Si Si4 0.564942 0.612955 0.563503
Si Si5 0.363466 0.188290 0.764262
Si Si6 0.487938 0.837102 0.786271
Si Si7 0.102442 0.081340 0.633802
O O1 0.354515 0.152252 0.207848
O O2 0.971671 0.164612 0.565871
O O3 0.750700 0.273696 0.397447
O O4 0.500000 0.000000 0.000000
O O5 0.500000 0.500000 0.500000
O O6 0.035834 0.540162 0.757467
O O7 0.104823 0.568120 0.012481
O O8 0.663624 0.758408 0.076788
O O9 0.779664 0.615031 0.484449
O O10 0.479902 0.806349 0.474636
O O11 0.952808 0.680613 0.405126
O O12 0.180946 0.683991 0.913186
O O13 0.666927 0.043319 0.580930
O O14 0.299698 0.829997 0.999216
O O15 0.000000 0.000000 0.000000
O O16 0.500000 0.000000 0.500000
#
# Coordination Sequence:
#
# PCOD9098196 Si02
#       7
#     2   2   2   2   2   2   2
#     4  12  26  38  60  94 126 156 195 257 309 340
#     4   8  18  36  61  89 113 155 201 250 288 353
#     4  10  20  36  64  88 113 160 205 236 299 358
#     4  11  20  38  59  90 122 148 199 256 300 342
#     4   9  19  33  59  89 114 152 202 238 287 350
#     4  12  22  39  61  85 123 166 200 238 299 369
#     4  12  22  39  63  88 124 159 205 240 294 374
#
# _framework density 27.069915000000002
#
# number of rings (size 3 to 8) (size 9 to 14) (size 15 to 20)
#    0.857    0.571    4.286    2.143    0.000    1.714 
#    0.000    0.714    0.000    0.857    0.000    0.000 
#    0.000    0.000    0.000    0.000    0.000    0.000 
#
# Total GULP energy -78004.442410 kJ/mol
# GULP energy per Si atom -5571.745886 kJ/mol
# Density = 2.700830 g / cm^3
# Si number density = 27.069915 Si / 1000 Ang^3
#
#
#
# Elastic Constant Matrix: (Units=GPa)
#
#
# Indices 1 2 3 4 5 6 
#
# 1 95.1660 27.2975 21.6477 26.2537 9.2869 40.2621
# 2 27.2975 102.3980 18.8778 1.2237 5.3819 41.1355
# 3 21.6477 18.8778 115.4569 10.1726 21.7433 30.3244
# 4 26.2537 1.2237 10.1726 60.2486 19.1405 4.1493
# 5 9.2869 5.3819 21.7433 19.1405 34.0324 10.9006
# 6 40.2621 41.1355 30.3244 4.1493 10.9006 49.0097
#
#
#
# Elastic Compliance Matrix: (Units=1/GPa)
#
#
# Indices 1 2 3 4 5 6 
#
# 1 0.019624 0.001921 0.000748 -0.008981 0.004844 -0.018514
# 2 0.001921 0.015076 0.000869 -0.000836 0.001846 -0.015110
# 3 0.000748 0.000869 0.011237 -0.000105 -0.005176 -0.007137
# 4 -0.008981 -0.000836 -0.000105 0.024359 -0.013995 0.009195
# 5 0.004844 0.001846 -0.005176 -0.013995 0.042329 -0.010556
# 6 -0.018514 -0.015110 -0.007137 0.009195 -0.010556 0.054281
#
#
# Mechanical properties :
#
#
# Convention : Reuss Voigt Hill
#
# Bulk Modulus (GPa) = 18.86294 49.85189 34.35741
# Shear Modulus (GPa) = 28.16867 45.00467 36.58667
#
# Velocity S-wave (km/s) = 3.22932 4.08184 3.68035
# Velocity P-wave (km/s) = 4.57034 6.37740 5.54794
#
# Compressibility (1/GPa) = 0.05301401
#
# Stress axis : x y z
#
# Youngs Moduli (GPa) = 50.95739 66.32894 88.98838
#
# Poissons Ratio (x) = -0.12739 -0.06657
# Poissons Ratio (y) = -0.09787 -0.07736
# Poissons Ratio (z) = -0.03812 -0.05766
#
# Static dielectric constant tensor:
#      x y z
#    x 2.279710 -0.068400 0.123710 
#    y -0.068400 2.170740 -0.078210 
#    z 0.123710 -0.078210 1.863080 
# 
# From -- ./inp_files/223672.got.cif
#   From: 2010.05.17/outbox.cif.g08.bks.cpg/sg2_112_cif.got.tgz:223672.got - 2010.06.03 11:33:40.
