data_PCOD9098898
_publ_section_title
;
Structure prediction by ZEFSAII (Michael W. Deem and Ramdas Pophale) SiO2 
 PCOD9098898
Probable space group: P -1
;
_chemical_formula_sum "Si O2"
_cell_formula_units_Z 16
_cell_length_a 10.744253
_cell_length_b 10.943838
_cell_length_c 13.410297
_cell_angle_alpha 95.752585
_cell_angle_beta 35.020259
_cell_angle_gamma 110.509344
_cell_volume 794.762645
_symmetry_space_group_name_H-M "P -1"
_symmetry_group_IT_number 2
_symmetry_cell_setting 'triclinic'
loop_
_space_group_symop_operation_xyz
x,y,z
-x,-y,-z
loop_
_atom_site_type_symbol
_atom_site_label
_atom_site_fract_x
_atom_site_fract_y
_atom_site_fract_z
Si Si1 0.630954 0.109436 0.510552
Si Si2 0.829714 0.333775 0.085391
Si Si3 0.556574 0.328408 0.454926
Si Si4 0.090906 0.344364 0.728951
Si Si5 0.979821 0.173232 0.589604
Si Si6 0.110007 0.127870 0.296411
Si Si7 0.170580 0.942549 0.931411
Si Si8 0.445796 0.078231 0.951250
O O1 0.637667 0.246809 0.472331
O O2 0.892721 0.128173 0.374151
O O3 0.500000 0.000000 0.500000
O O4 0.438470 0.039262 0.718900
O O5 0.850899 0.314676 0.950355
O O6 0.000000 0.500000 0.000000
O O7 0.601140 0.300331 0.306799
O O8 0.909570 0.217405 0.057864
O O9 0.273550 0.290677 0.653121
O O10 0.734176 0.490434 0.371180
O O11 0.045369 0.283651 0.643528
O O12 0.142522 0.207715 0.386075
O O13 0.708571 0.144919 0.731427
O O14 0.968263 0.031981 0.631707
O O15 0.350356 0.175766 0.074803
O O16 0.225556 0.975416 0.015631
O O17 0.000000 0.000000 0.000000
O O18 0.500000 0.000000 0.000000
#
# Coordination Sequence:
#
# PCOD9098898 Si02
#       8
#     2   2   2   2   2   2   2   2
#     4  12  21  36  59  89 123 152 193 250 313 357
#     4  10  21  38  59  88 122 159 199 246 302 369
#     4  10  22  38  59  91 122 157 198 248 303 367
#     4  10  21  39  62  86 120 159 203 247 297 364
#     4  10  20  37  58  84 113 155 202 246 296 358
#     4  10  21  35  57  85 117 151 198 249 296 358
#     4  12  23  37  63  96 127 159 201 260 317 361
#     4  10  21  37  57  88 121 157 202 252 301 365
#
# _framework density 20.131795
#
# number of rings (size 3 to 8) (size 9 to 14) (size 15 to 20)
#    0.000    1.500    2.500    3.750    0.000    1.000 
#    0.000    0.625    0.000    0.750    0.000    0.000 
#    0.000    0.000    0.000    0.000    0.000    0.000 
#
# Total GULP energy -89094.106993 kJ/mol
# GULP energy per Si atom -5568.381687 kJ/mol
# Density = 2.008597 g / cm^3
# Si number density = 20.131795 Si / 1000 Ang^3
#
#
#
# Elastic Constant Matrix: (Units=GPa)
#
#
# Indices 1 2 3 4 5 6 
#
# 1 113.6419 46.7369 21.5420 17.8213 -5.1947 4.2204
# 2 46.7369 93.5787 29.0226 24.1219 0.9650 0.8966
# 3 21.5420 29.0226 84.3997 19.5311 7.7194 -4.6085
# 4 17.8213 24.1219 19.5311 25.6854 3.5593 7.9136
# 5 -5.1947 0.9650 7.7194 3.5593 33.9542 15.6985
# 6 4.2204 0.8966 -4.6085 7.9136 15.6985 34.8400
#
#
#
# Elastic Compliance Matrix: (Units=1/GPa)
#
#
# Indices 1 2 3 4 5 6 
#
# 1 0.011654 -0.004856 -0.001247 -0.002288 0.003632 -0.002568
# 2 -0.004856 0.016626 -0.001427 -0.011990 -0.001112 0.003196
# 3 -0.001247 -0.001427 0.016396 -0.011816 -0.006277 0.007869
# 4 -0.002288 -0.011990 -0.011816 0.065663 0.003968 -0.017680
# 5 0.003632 -0.001112 -0.006277 0.003968 0.040472 -0.020379
# 6 -0.002568 0.003196 0.007869 -0.017680 -0.020379 0.043171
#
#
# Mechanical properties :
#
#
# Convention : Reuss Voigt Hill
#
# Bulk Modulus (GPa) = 33.76790 54.02484 43.89637
# Shear Modulus (GPa) = 22.84015 31.85049 27.34532
#
# Velocity S-wave (km/s) = 3.37193 3.98188 3.68953
# Velocity P-wave (km/s) = 5.65418 6.93068 6.32471
#
# Compressibility (1/GPa) = 0.02961393
#
# Stress axis : x y z
#
# Youngs Moduli (GPa) = 85.81091 60.14817 60.99182
#
# Poissons Ratio (x) = 0.29210 0.07608
# Poissons Ratio (y) = 0.41673 0.08702
# Poissons Ratio (z) = 0.10703 0.08582
#
# Static dielectric constant tensor:
#      x y z
#    x 1.792170 -0.016000 0.059840 
#    y -0.016000 1.856030 -0.004180 
#    z 0.059840 -0.004180 1.786540 
# 
# From -- ./inp_files/517950.got.cif
#   From: 2010.05.17/outbox.cif.g08.bks.cpg/sg2_259_cif.got.tgz:517950.got - 2010.06.03 11:33:40.
