data_PCOD9098313
_publ_section_title
;
Structure prediction by ZEFSAII (Michael W. Deem and Ramdas Pophale) SiO2 
 PCOD9098313
Probable space group: P -1
;
_chemical_formula_sum "Si O2"
_cell_formula_units_Z 16
_cell_length_a 10.407969
_cell_length_b 13.644232
_cell_length_c 8.538144
_cell_angle_alpha 94.413525
_cell_angle_beta 125.981880
_cell_angle_gamma 121.355399
_cell_volume 697.657331
_symmetry_space_group_name_H-M "P -1"
_symmetry_group_IT_number 2
_symmetry_cell_setting 'triclinic'
loop_
_space_group_symop_operation_xyz
x,y,z
-x,-y,-z
loop_
_atom_site_type_symbol
_atom_site_label
_atom_site_fract_x
_atom_site_fract_y
_atom_site_fract_z
Si Si1 0.396960 0.363076 0.001157
Si Si2 0.071723 0.475395 0.887785
Si Si3 0.959170 0.742473 0.042231
Si Si4 0.055524 0.909391 0.520762
Si Si5 0.649025 0.975148 0.538403
Si Si6 0.912840 0.729387 0.660196
Si Si7 0.486796 0.682082 0.398019
Si Si8 0.758643 0.453939 0.461644
O O1 0.291934 0.348732 0.093067
O O2 0.174609 0.233513 0.735061
O O3 0.500000 0.500000 0.000000
O O4 0.578417 0.360242 0.183153
O O5 0.977342 0.324007 0.815558
O O6 0.969714 0.477679 0.658868
O O7 0.335606 0.594550 0.124963
O O8 0.000000 0.500000 0.000000
O O9 0.111126 0.903945 0.192516
O O10 0.989777 0.726180 0.883826
O O11 0.082406 0.868057 0.700610
O O12 0.271147 0.982791 0.578797
O O13 0.000000 0.000000 0.500000
O O14 0.500000 0.000000 0.500000
O O15 0.545592 0.823096 0.467880
O O16 0.705101 0.710981 0.540446
O O17 0.843107 0.600503 0.506929
O O18 0.365107 0.601972 0.463632
#
# Coordination Sequence:
#
# PCOD9098313 Si02
#       8
#     2   2   2   2   2   2   2   2
#     4  11  23  40  67  96 138 175 225 289 338 395
#     4  10  20  36  64  97 131 170 229 272 333 413
#     4  11  23  41  67 100 136 180 232 280 345 410
#     4  11  25  44  67 104 136 180 232 282 340 409
#     4  11  25  44  69  95 144 184 221 282 356 407
#     4  12  21  39  71  99 135 170 237 287 334 400
#     4  11  21  37  70  99 129 180 232 275 336 411
#     4  11  21  37  66 103 133 176 230 283 343 399
#
# _framework density 22.933893000000001
#
# number of rings (size 3 to 8) (size 9 to 14) (size 15 to 20)
#    0.000    1.000    6.250    2.625    0.000    1.500 
#    0.000    1.250    2.750    0.000    0.000    0.000 
#    0.000    0.000    0.000    0.000    0.000    0.000 
#
# Total GULP energy -89312.847639 kJ/mol
# GULP energy per Si atom -5582.052977 kJ/mol
# Density = 2.288169 g / cm^3
# Si number density = 22.933893 Si / 1000 Ang^3
#
#
#
# Elastic Constant Matrix: (Units=GPa)
#
#
# Indices 1 2 3 4 5 6 
#
# 1 78.3090 36.0849 -2.4419 -6.5224 11.1227 2.9403
# 2 36.0849 149.7028 34.7215 -7.6295 1.5253 -10.9685
# 3 -2.4419 34.7215 85.1464 -23.8614 6.3203 -7.2157
# 4 -6.5224 -7.6295 -23.8614 35.9794 -5.0368 -3.9002
# 5 11.1227 1.5253 6.3203 -5.0368 29.2534 -2.4920
# 6 2.9403 -10.9685 -7.2157 -3.9002 -2.4920 42.0393
#
#
#
# Elastic Compliance Matrix: (Units=1/GPa)
#
#
# Indices 1 2 3 4 5 6 
#
# 1 0.016263 -0.004656 0.003596 0.003267 -0.006309 -0.001806
# 2 -0.004656 0.008801 -0.004037 -0.001142 0.002153 0.001951
# 3 0.003596 -0.004037 0.016969 0.010934 -0.002731 0.002460
# 4 0.003267 -0.001142 0.010934 0.036366 0.003135 0.004910
# 5 -0.006309 0.002153 -0.002731 0.003135 0.037862 0.003069
# 6 -0.001806 0.001951 0.002460 0.004910 0.003069 0.025482
#
#
# Mechanical properties :
#
#
# Convention : Reuss Voigt Hill
#
# Bulk Modulus (GPa) = 31.40745 49.98748 40.69746
# Shear Modulus (GPa) = 30.75939 37.77401 34.26670
#
# Velocity S-wave (km/s) = 3.66624 4.06283 3.86962
# Velocity P-wave (km/s) = 5.62550 6.62212 6.14405
#
# Compressibility (1/GPa) = 0.03183958
#
# Stress axis : x y z
#
# Youngs Moduli (GPa) = 61.48762 113.61996 58.92999
#
# Poissons Ratio (x) = 0.52898 -0.21189
# Poissons Ratio (y) = 0.28627 0.23791
# Poissons Ratio (z) = -0.22109 0.45870
#
# Static dielectric constant tensor:
#      x y z
#    x 1.953930 0.043260 0.009240 
#    y 0.043260 1.817510 0.009760 
#    z 0.009240 0.009760 1.944280 
# 
# From -- ./inp_files/273006.got.cif
#   From: 2010.05.17/outbox.cif.g08.bks.cpg/sg2_137_cif.got.tgz:273006.got - 2010.06.03 11:33:40.
