data_PCOD9098192
_publ_section_title
;
Structure prediction by ZEFSAII (Michael W. Deem and Ramdas Pophale) SiO2 
 PCOD9098192
Probable space group: P -1
;
_chemical_formula_sum "Si O2"
_cell_formula_units_Z 16
_cell_length_a 11.325739
_cell_length_b 10.087629
_cell_length_c 13.547654
_cell_angle_alpha 138.141768
_cell_angle_beta 133.883809
_cell_angle_gamma 37.862278
_cell_volume 612.658753
_symmetry_space_group_name_H-M "P -1"
_symmetry_group_IT_number 2
_symmetry_cell_setting 'triclinic'
loop_
_space_group_symop_operation_xyz
x,y,z
-x,-y,-z
loop_
_atom_site_type_symbol
_atom_site_label
_atom_site_fract_x
_atom_site_fract_y
_atom_site_fract_z
Si Si1 0.982579 0.417098 0.710796
Si Si2 0.366178 0.791347 0.481396
Si Si3 0.975831 0.219622 0.170302
Si Si4 0.177823 0.178322 0.902449
Si Si5 0.766991 0.425056 0.858195
Si Si6 0.633056 0.922035 0.748628
Si Si7 0.743527 0.268774 0.395560
Si Si8 0.424457 0.642879 0.932806
O O1 0.757107 0.657525 0.725650
O O2 0.944971 0.257596 0.525989
O O3 0.087518 0.537844 0.791902
O O4 0.082662 0.279678 0.793279
O O5 0.218011 0.767604 0.316022
O O6 0.428116 0.978481 0.618392
O O7 0.568737 0.542969 0.424477
O O8 0.314342 0.779980 0.558039
O O9 0.794006 0.301129 0.183634
O O10 0.209919 0.111890 0.263379
O O11 0.000000 0.000000 0.000000
O O12 0.001300 0.286821 0.940695
O O13 0.266851 0.900364 0.783571
O O14 0.288782 0.309751 0.059452
O O15 0.607316 0.480398 0.876998
O O16 0.601269 0.107533 0.916756
O O17 0.500000 0.500000 0.000000
#
# Coordination Sequence:
#
# PCOD9098192 Si02
#       8
#     2   2   2   2   2   2   2   2
#     4   9  17  35  65  87 111 157 205 234 287 372
#     4  10  20  39  58  93 124 152 200 243 299 359
#     4   8  17  35  61  83 109 151 207 241 283 348
#     4  11  22  40  56  93 126 161 191 241 309 360
#     4  11  25  38  56  90 129 152 196 255 296 355
#     4   8  19  38  64  86 112 159 201 243 298 360
#     4  10  20  36  64  87 122 166 190 235 303 373
#     4  11  21  41  62  89 115 160 209 250 296 345
#
# _framework density 26.115680999999999
#
# number of rings (size 3 to 8) (size 9 to 14) (size 15 to 20)
#    0.750    1.500    1.250    1.875    0.000    0.500 
#    4.500    1.250    0.000    0.000    0.000    0.000 
#    0.000    0.000    0.000    0.000    0.000    0.000 
#
# Total GULP energy -89272.670483 kJ/mol
# GULP energy per Si atom -5579.541905 kJ/mol
# Density = 2.605624 g / cm^3
# Si number density = 26.115681 Si / 1000 Ang^3
#
#
#
# Elastic Constant Matrix: (Units=GPa)
#
#
# Indices 1 2 3 4 5 6 
#
# 1 151.4208 16.9459 57.1699 -1.8946 19.3652 -38.6438
# 2 16.9459 46.0099 28.3898 13.1463 5.6146 2.0671
# 3 57.1699 28.3898 148.7406 9.4808 21.0505 -23.6595
# 4 -1.8946 13.1463 9.4808 48.0224 -15.5332 4.9594
# 5 19.3652 5.6146 21.0505 -15.5332 42.3936 -1.3110
# 6 -38.6438 2.0671 -23.6595 4.9594 -1.3110 31.3352
#
#
#
# Elastic Compliance Matrix: (Units=1/GPa)
#
#
# Indices 1 2 3 4 5 6 
#
# 1 0.011290 -0.003346 -0.000856 -0.001268 -0.004335 0.013517
# 2 -0.003346 0.028599 -0.004691 -0.007050 -0.002778 -0.008555
# 3 -0.000856 -0.004691 0.009935 -0.002989 -0.004799 0.007027
# 4 -0.001268 -0.007050 -0.002989 0.028296 0.013139 -0.007284
# 5 -0.004335 -0.002778 -0.004799 0.013139 0.032840 -0.009492
# 6 0.013517 -0.008555 0.007027 -0.007284 -0.009492 0.055208
#
#
# Mechanical properties :
#
#
# Convention : Reuss Voigt Hill
#
# Bulk Modulus (GPa) = 31.21323 61.24249 46.22786
# Shear Modulus (GPa) = 25.68930 40.59463 33.14197
#
# Velocity S-wave (km/s) = 3.13976 3.94689 3.56623
# Velocity P-wave (km/s) = 5.01218 6.65371 5.89041
#
# Compressibility (1/GPa) = 0.03203770
#
# Stress axis : x y z
#
# Youngs Moduli (GPa) = 88.57355 34.96636 100.65414
#
# Poissons Ratio (x) = 0.11699 0.08620
# Poissons Ratio (y) = 0.29634 0.47217
# Poissons Ratio (z) = 0.07586 0.16403
#
# Static dielectric constant tensor:
#      x y z
#    x 2.046030 0.022110 0.038300 
#    y 0.022110 2.197830 -0.029910 
#    z 0.038300 -0.029910 2.189120 
# 
# From -- ./inp_files/569603.got.cif
#   From: 2010.05.17/outbox.cif.g08.bks.cpg/sg2_285_cif.got.tgz:569603.got - 2010.06.03 11:33:40.
