data_PCOD9098213
_publ_section_title
;
Structure prediction by ZEFSAII (Michael W. Deem and Ramdas Pophale) SiO2 
 PCOD9098213
Probable space group: P -1
;
_chemical_formula_sum "Si O2"
_cell_formula_units_Z 15
_cell_length_a 11.106582
_cell_length_b 5.729036
_cell_length_c 11.605522
_cell_angle_alpha 56.204571
_cell_angle_beta 63.672723
_cell_angle_gamma 77.878463
_cell_volume 549.359175
_symmetry_space_group_name_H-M "P -1"
_symmetry_group_IT_number 2
_symmetry_cell_setting 'triclinic'
loop_
_space_group_symop_operation_xyz
x,y,z
-x,-y,-z
loop_
_atom_site_type_symbol
_atom_site_label
_atom_site_fract_x
_atom_site_fract_y
_atom_site_fract_z
Si Si1 0.086663 0.431626 0.871645
Si Si2 0.397546 0.843738 0.427216
Si Si3 0.324471 0.260297 0.718249
Si Si4 0.000000 0.000000 0.500000
Si Si5 0.597127 0.609612 0.030853
Si Si6 0.156342 0.517610 0.172532
Si Si7 0.814937 0.931023 0.400560
Si Si8 0.351776 0.739139 0.226789
O O1 0.219151 0.249179 0.871050
O O2 0.148240 0.736056 0.721392
O O3 0.975148 0.323793 0.855106
O O4 0.000000 0.500000 0.000000
O O5 0.392582 0.573367 0.586648
O O6 0.548027 0.930598 0.297670
O O7 0.320135 0.079788 0.460789
O O8 0.316021 0.741839 0.375940
O O9 0.226996 0.197988 0.667496
O O10 0.096257 0.207898 0.317889
O O11 0.933927 0.837459 0.456832
O O12 0.738702 0.473555 0.982303
O O13 0.626199 0.936484 0.904271
O O14 0.500000 0.500000 0.000000
O O15 0.497077 0.601725 0.184623
O O16 0.240461 0.625857 0.216484
#
# Coordination Sequence:
#
# PCOD9098213 Si02
#       8
#     2   2   2   1   2   2   2   2
#     4  10  24  41  57  86 121 162 208 243 294 369
#     4  10  21  37  62  90 120 152 201 249 297 366
#     4  10  22  40  59  87 121 159 200 247 300 356
#     4  10  20  36  64  90 122 160 198 258 308 358
#     4   9  20  38  56  88 124 156 197 251 304 363
#     4  10  21  38  61  89 124 160 201 256 305 361
#     4  10  21  40  60  89 118 157 201 248 307 353
#     4  10  20  37  62  93 119 156 204 250 311 365
#
# _framework density 27.304542000000001
#
# number of rings (size 3 to 8) (size 9 to 14) (size 15 to 20)
#    0.000    2.133    0.000    2.000    1.867    4.800 
#    7.200    6.000    0.000    0.000    0.000    0.000 
#    0.000    0.000    0.000    0.000    0.000    0.000 
#
# Total GULP energy -83629.658287 kJ/mol
# GULP energy per Si atom -5575.310552 kJ/mol
# Density = 2.724240 g / cm^3
# Si number density = 27.304542 Si / 1000 Ang^3
#
#
#
# Elastic Constant Matrix: (Units=GPa)
#
#
# Indices 1 2 3 4 5 6 
#
# 1 150.2849 35.1175 38.5273 13.1956 -26.5323 10.9085
# 2 35.1175 62.4695 30.4172 2.4348 -20.6637 13.7592
# 3 38.5273 30.4172 110.4199 20.4590 -24.0515 3.8371
# 4 13.1956 2.4348 20.4590 55.3656 2.7789 -11.2191
# 5 -26.5323 -20.6637 -24.0515 2.7789 55.5062 8.9059
# 6 10.9085 13.7592 3.8371 -11.2191 8.9059 41.5778
#
#
#
# Elastic Compliance Matrix: (Units=1/GPa)
#
#
# Indices 1 2 3 4 5 6 
#
# 1 0.008455 -0.002547 -0.001071 -0.002179 0.003146 -0.002538
# 2 -0.002547 0.023595 -0.003409 -0.001336 0.007569 -0.008807
# 3 -0.001071 -0.003409 0.012174 -0.004667 0.004022 -0.001835
# 4 -0.002179 -0.001336 -0.004667 0.022456 -0.006099 0.008810
# 5 0.003146 0.007569 0.004022 -0.006099 0.026142 -0.010947
# 6 -0.002538 -0.008807 -0.001835 0.008810 -0.010947 0.032523
#
#
# Mechanical properties :
#
#
# Convention : Reuss Voigt Hill
#
# Bulk Modulus (GPa) = 33.14571 59.03314 46.08943
# Shear Modulus (GPa) = 33.45493 45.09740 39.27616
#
# Velocity S-wave (km/s) = 3.50416 4.06845 3.79680
# Velocity P-wave (km/s) = 5.34208 6.61339 6.01144
#
# Compressibility (1/GPa) = 0.03016982
#
# Stress axis : x y z
#
# Youngs Moduli (GPa) = 118.27729 42.38195 82.14424
#
# Poissons Ratio (x) = 0.10793 0.08800
# Poissons Ratio (y) = 0.30122 0.28001
# Poissons Ratio (z) = 0.12671 0.14447
#
# Static dielectric constant tensor:
#      x y z
#    x 2.232870 -0.114170 -0.029400 
#    y -0.114170 2.140580 0.065450 
#    z -0.029400 0.065450 2.170970 
# 
# From -- ./inp_files/71282.got.cif
#   From: 2010.05.17/outbox.cif.g08.bks.cpg/sg2_36_cif.got.tgz:71282.got - 2010.06.03 11:33:40.
