data_PCOD9098463
_publ_section_title
;
Structure prediction by ZEFSAII (Michael W. Deem and Ramdas Pophale) SiO2 
 PCOD9098463
Probable space group: P -1
;
_chemical_formula_sum "Si O2"
_cell_formula_units_Z 16
_cell_length_a 21.838306
_cell_length_b 17.345742
_cell_length_c 10.936869
_cell_angle_alpha 28.588827
_cell_angle_beta 30.780063
_cell_angle_gamma 22.648984
_cell_volume 736.184531
_symmetry_space_group_name_H-M "P -1"
_symmetry_group_IT_number 2
_symmetry_cell_setting 'triclinic'
loop_
_space_group_symop_operation_xyz
x,y,z
-x,-y,-z
loop_
_atom_site_type_symbol
_atom_site_label
_atom_site_fract_x
_atom_site_fract_y
_atom_site_fract_z
Si Si1 0.365090 0.687033 0.068222
Si Si2 0.078328 0.084787 0.689339
Si Si3 0.081711 0.202294 0.764806
Si Si4 0.534735 0.129654 0.180064
Si Si5 0.881814 0.357220 0.422603
Si Si6 0.682806 0.893595 0.815988
Si Si7 0.828306 0.751664 0.037803
Si Si8 0.772741 0.611687 0.818967
O O1 0.270156 0.617835 0.381027
O O2 0.500000 0.500000 0.000000
O O3 0.454060 0.722723 0.961020
O O4 0.218516 0.936944 0.916594
O O5 0.016046 0.264666 0.650745
O O6 0.267481 0.974238 0.505110
O O7 0.005782 0.149467 0.588614
O O8 0.000000 0.000000 0.000000
O O9 0.172974 0.287927 0.500107
O O10 0.922074 0.346889 0.922831
O O11 0.398050 0.282577 0.096230
O O12 0.500000 0.000000 0.500000
O O13 0.708642 0.941417 0.075796
O O14 0.992871 0.329814 0.162617
O O15 0.833447 0.554081 0.317236
O O16 0.759905 0.824178 0.915168
O O17 0.750358 0.705596 0.861121
O O18 0.500000 0.000000 0.000000
#
# Coordination Sequence:
#
# PCOD9098463 Si02
#       8
#     2   2   2   2   2   2   2   2
#     4  12  26  41  65 101 139 175 222 290 346 400
#     4  10  20  36  66  94 129 176 225 278 337 406
#     4  10  22  39  63  99 134 177 222 281 337 405
#     4  12  24  40  69 101 138 175 231 287 339 407
#     4  10  23  42  65 100 135 184 228 277 352 409
#     4  10  20  40  69  96 133 174 232 278 335 408
#     4  10  23  43  70  95 132 187 230 280 338 424
#     4  10  22  40  66 102 133 177 230 280 334 405
#
# _framework density 21.733682000000002
#
# number of rings (size 3 to 8) (size 9 to 14) (size 15 to 20)
#    0.000    1.500    3.750    0.750    3.500    3.500 
#    0.000    0.000    0.000    2.250    0.000    0.000 
#    0.000    0.000    0.000    0.000    0.000    0.000 
#
# Total GULP energy -89095.080820 kJ/mol
# GULP energy per Si atom -5568.442551 kJ/mol
# Density = 2.168422 g / cm^3
# Si number density = 21.733682 Si / 1000 Ang^3
#
#
#
# Elastic Constant Matrix: (Units=GPa)
#
#
# Indices 1 2 3 4 5 6 
#
# 1 99.6648 26.3209 40.9424 9.9168 -19.4654 14.1267
# 2 26.3209 136.7007 44.9158 16.2797 -10.6612 26.9639
# 3 40.9424 44.9158 124.2613 21.3448 -33.6941 -5.0887
# 4 9.9168 16.2797 21.3448 28.8749 -6.1033 2.5268
# 5 -19.4654 -10.6612 -33.6941 -6.1033 40.7388 0.1769
# 6 14.1267 26.9639 -5.0887 2.5268 0.1769 33.7981
#
#
#
# Elastic Compliance Matrix: (Units=1/GPa)
#
#
# Indices 1 2 3 4 5 6 
#
# 1 0.013034 0.000232 -0.003643 -0.000701 0.003197 -0.006146
# 2 0.000232 0.010612 -0.004084 -0.002429 -0.000815 -0.008992
# 3 -0.003643 -0.004084 0.014215 -0.005897 0.008032 0.007320
# 4 -0.000701 -0.002429 -0.005897 0.040809 0.000274 -0.001709
# 5 0.003197 -0.000815 0.008032 0.000274 0.032544 0.000332
# 6 -0.006146 -0.008992 0.007320 -0.001709 0.000332 0.040559
#
#
# Mechanical properties :
#
#
# Convention : Reuss Voigt Hill
#
# Bulk Modulus (GPa) = 43.72297 64.99835 54.36066
# Shear Modulus (GPa) = 28.67214 37.24555 32.95884
#
# Velocity S-wave (km/s) = 3.63609 4.14421 3.89843
# Velocity P-wave (km/s) = 6.14731 7.27124 6.73277
#
# Compressibility (1/GPa) = 0.02287127
#
# Stress axis : x y z
#
# Youngs Moduli (GPa) = 76.72167 94.23350 70.34926
#
# Poissons Ratio (x) = -0.02190 0.25627
# Poissons Ratio (y) = -0.01783 0.28733
# Poissons Ratio (z) = 0.27949 0.38488
#
# Static dielectric constant tensor:
#      x y z
#    x 1.027600 0.501000 0.400060 
#    y 0.501000 1.459100 -0.301910 
#    z 0.400060 -0.301910 1.713760 
# 
# From -- ./inp_files/475417.got.cif
#   From: 2010.05.17/outbox.cif.g08.bks.cpg/sg2_238_cif.got.tgz:475417.got - 2010.06.03 11:33:40.
