data_PCOD9098910
_publ_section_title
;
Structure prediction by ZEFSAII (Michael W. Deem and Ramdas Pophale) SiO2 
 PCOD9098910
Probable space group: P -1
;
_chemical_formula_sum "Si O2"
_cell_formula_units_Z 14
_cell_length_a 9.872856
_cell_length_b 17.450175
_cell_length_c 21.708873
_cell_angle_alpha 16.442944
_cell_angle_beta 140.212168
_cell_angle_gamma 143.212333
_cell_volume 633.982373
_symmetry_space_group_name_H-M "P -1"
_symmetry_group_IT_number 2
_symmetry_cell_setting 'triclinic'
loop_
_space_group_symop_operation_xyz
x,y,z
-x,-y,-z
loop_
_atom_site_type_symbol
_atom_site_label
_atom_site_fract_x
_atom_site_fract_y
_atom_site_fract_z
Si Si1 0.780449 0.680382 0.107741
Si Si2 0.389478 0.833804 0.989339
Si Si3 0.720206 0.558861 0.866476
Si Si4 0.888274 0.071894 0.345700
Si Si5 0.798269 0.202552 0.916760
Si Si6 0.912599 0.361506 0.642098
Si Si7 0.454764 0.358813 0.516830
O O1 0.524029 0.469924 0.171815
O O2 0.951609 0.702229 0.094932
O O3 0.891424 0.594440 0.273216
O O4 0.788909 0.011159 0.865002
O O5 0.635700 0.912662 0.047963
O O6 0.394004 0.105037 0.740879
O O7 0.330442 0.581294 0.112620
O O8 0.224384 0.804450 0.012161
O O9 0.920478 0.863068 0.691446
O O10 0.817355 0.355162 0.098422
O O11 0.661485 0.804214 0.460021
O O12 0.000000 0.000000 0.500000
O O13 0.674932 0.424555 0.683173
O O14 0.722696 0.482283 0.507241
O O15 0.000000 0.500000 0.500000
#
# Coordination Sequence:
#
# PCOD9098910 Si02
#       7
#     2   2   2   2   2   2   2
#     4  11  22  40  55  94 125 153 196 252 299 356
#     4  10  20  37  58  84 123 160 192 235 297 361
#     4  10  21  40  63  85 117 157 205 252 287 347
#     4  10  21  38  64  86 109 158 215 248 284 344
#     4  11  23  33  61  89 128 159 186 238 311 362
#     4  11  24  35  61  88 127 161 196 245 300 355
#     4  11  22  40  57  92 121 157 203 241 291 368
#
# _framework density 22.082633999999999
#
# number of rings (size 3 to 8) (size 9 to 14) (size 15 to 20)
#    0.000    1.429    4.286    2.143    8.000    0.000 
#    0.000    0.714    0.000   12.000    0.000    0.000 
#    0.000    0.000    0.000    0.000    0.000    0.000 
#
# Total GULP energy -78219.452818 kJ/mol
# GULP energy per Si atom -5587.103773 kJ/mol
# Density = 2.203237 g / cm^3
# Si number density = 22.082634 Si / 1000 Ang^3
#
#
#
# Elastic Constant Matrix: (Units=GPa)
#
#
# Indices 1 2 3 4 5 6 
#
# 1 140.9952 24.1700 25.8087 22.7306 -12.2806 29.2200
# 2 24.1700 63.5119 17.1461 25.2392 -5.1323 21.4591
# 3 25.8087 17.1461 72.6119 20.3194 -10.0616 3.3054
# 4 22.7306 25.2392 20.3194 30.0260 -3.7961 0.2960
# 5 -12.2806 -5.1323 -10.0616 -3.7961 36.9862 9.9057
# 6 29.2200 21.4591 3.3054 0.2960 9.9057 49.8417
#
#
#
# Elastic Compliance Matrix: (Units=1/GPa)
#
#
# Indices 1 2 3 4 5 6 
#
# 1 0.010329 0.003144 -0.000769 -0.009237 0.004927 -0.008283
# 2 0.003144 0.032171 0.001254 -0.029163 0.007431 -0.017081
# 3 -0.000769 0.001254 0.017746 -0.011948 0.004056 -0.002001
# 4 -0.009237 -0.029163 -0.011948 0.071642 -0.008368 0.020002
# 5 0.004927 0.007431 0.004056 -0.008368 0.033416 -0.012948
# 6 -0.008283 -0.017081 -0.002001 0.020002 -0.012948 0.034861
#
#
# Mechanical properties :
#
#
# Convention : Reuss Voigt Hill
#
# Bulk Modulus (GPa) = 14.81383 45.70760 30.26071
# Shear Modulus (GPa) = 23.21171 37.37040 30.29106
#
# Velocity S-wave (km/s) = 3.24563 4.11822 3.70768
# Velocity P-wave (km/s) = 4.55724 6.58455 5.66236
#
# Compressibility (1/GPa) = 0.06750449
#
# Stress axis : x y z
#
# Youngs Moduli (GPa) = 96.81447 31.08370 56.35147
#
# Poissons Ratio (x) = -0.09774 0.04334
# Poissons Ratio (y) = -0.30442 -0.07066
# Poissons Ratio (z) = 0.07446 -0.03898
#
# Static dielectric constant tensor:
#      x y z
#    x 1.834010 -0.023100 0.003170 
#    y -0.023100 1.913920 -0.054960 
#    z 0.003170 -0.054960 1.843700 
# 
# From -- ./inp_files/175791.got.cif
#   From: 2010.05.17/outbox.cif.g08.bks.cpg/sg2_88_cif.got.tgz:175791.got - 2010.06.03 11:33:40.
