data_PCOD9098431
_publ_section_title
;
Structure prediction by ZEFSAII (Michael W. Deem and Ramdas Pophale) SiO2 
 PCOD9098431
Probable space group: P -1
;
_chemical_formula_sum "Si O2"
_cell_formula_units_Z 14
_cell_length_a 8.733179
_cell_length_b 11.580310
_cell_length_c 17.035777
_cell_angle_alpha 67.389527
_cell_angle_beta 100.667625
_cell_angle_gamma 43.503313
_cell_volume 748.151146
_symmetry_space_group_name_H-M "P -1"
_symmetry_group_IT_number 2
_symmetry_cell_setting 'triclinic'
loop_
_space_group_symop_operation_xyz
x,y,z
-x,-y,-z
loop_
_atom_site_type_symbol
_atom_site_label
_atom_site_fract_x
_atom_site_fract_y
_atom_site_fract_z
Si Si1 0.562191 0.620275 0.175517
Si Si2 0.614550 0.429362 0.375232
Si Si3 0.062268 0.655290 0.314027
Si Si4 0.515959 0.380637 0.219670
Si Si5 0.222980 0.054306 0.639578
Si Si6 0.260418 0.253090 0.359635
Si Si7 0.778764 0.907711 0.059052
O O1 0.472394 0.641352 0.251135
O O2 0.554249 0.493895 0.161397
O O3 0.924693 0.418954 0.267730
O O4 0.337785 0.882432 0.046946
O O5 0.365353 0.536672 0.381305
O O6 0.665819 0.291719 0.345754
O O7 0.930511 0.249578 0.498292
O O8 0.178440 0.439241 0.349123
O O9 0.873236 0.782484 0.344244
O O10 0.847549 0.866532 0.168955
O O11 0.131176 0.625770 0.129120
O O12 0.706959 0.130980 0.266651
O O13 0.546431 0.856873 0.673389
O O14 0.500000 0.000000 0.500000
O O15 0.500000 0.000000 0.000000
#
# Coordination Sequence:
#
# PCOD9098431 Si02
#       7
#     2   2   2   2   2   2   2
#     4  10  20  36  66  87 116 168 197 241 301 353
#     4   9  20  38  62  86 120 159 197 245 305 348
#     4  11  25  38  63  92 118 162 197 249 303 351
#     4   9  20  35  64  87 113 162 196 247 294 345
#     4  12  21  41  62  91 123 152 205 247 300 361
#     4  12  22  40  61  88 126 158 194 245 301 357
#     4  11  19  39  63  86 122 160 204 238 299 358
#
# _framework density 18.712795
#
# number of rings (size 3 to 8) (size 9 to 14) (size 15 to 20)
#    0.857    0.571    5.714    1.286    2.000    0.571 
#    0.000    3.571    0.000    0.000    0.000    0.000 
#    0.000    0.000    0.000    0.000    0.000    0.000 
#
# Total GULP energy -77972.788595 kJ/mol
# GULP energy per Si atom -5569.484900 kJ/mol
# Density = 1.867020 g / cm^3
# Si number density = 18.712795 Si / 1000 Ang^3
#
#
#
# Elastic Constant Matrix: (Units=GPa)
#
#
# Indices 1 2 3 4 5 6 
#
# 1 100.2978 34.0658 26.1723 -5.5567 -4.7201 -1.5929
# 2 34.0658 97.8967 14.0832 -6.0554 -5.5281 -2.0164
# 3 26.1723 14.0832 83.1776 -8.1864 -11.7245 5.0941
# 4 -5.5567 -6.0554 -8.1864 6.8928 4.3406 -0.3571
# 5 -4.7201 -5.5281 -11.7245 4.3406 43.8176 -8.4580
# 6 -1.5929 -2.0164 5.0941 -0.3571 -8.4580 9.4450
#
#
#
# Elastic Compliance Matrix: (Units=1/GPa)
#
#
# Indices 1 2 3 4 5 6 
#
# 1 0.012219 -0.003525 -0.003108 0.002980 0.000414 0.003468
# 2 -0.003525 0.012038 -0.000310 0.006900 0.001011 0.003309
# 3 -0.003108 -0.000310 0.015016 0.014163 0.000806 -0.007432
# 4 0.002980 0.006900 0.014163 0.179281 -0.015189 -0.012487
# 5 0.000414 0.001011 0.000806 -0.015189 0.029710 0.025882
# 6 0.003468 0.003309 -0.007432 -0.012487 0.025882 0.133880
#
#
# Mechanical properties :
#
#
# Convention : Reuss Voigt Hill
#
# Bulk Modulus (GPa) = 39.39355 47.77940 43.58647
# Shear Modulus (GPa) = 12.36113 25.83449 19.09781
#
# Velocity S-wave (km/s) = 2.57295 3.71965 3.19811
# Velocity P-wave (km/s) = 5.47029 6.63597 6.08113
#
# Compressibility (1/GPa) = 0.02538487
#
# Stress axis : x y z
#
# Youngs Moduli (GPa) = 81.84306 83.06833 66.59668
#
# Poissons Ratio (x) = 0.29285 0.20701
# Poissons Ratio (y) = 0.28853 0.02064
# Poissons Ratio (z) = 0.25440 0.02575
#
# Static dielectric constant tensor:
#      x y z
#    x 1.703220 -0.004180 -0.013500 
#    y -0.004180 1.652300 -0.008610 
#    z -0.013500 -0.008610 1.651920 
# 
# From -- ./inp_files/251690.got.cif
#   From: 2010.05.17/outbox.cif.g08.bks.cpg/sg2_126_cif.got.tgz:251690.got - 2010.06.03 11:33:40.
