data_PCOD9098350
_publ_section_title
;
Structure prediction by ZEFSAII (Michael W. Deem and Ramdas Pophale) SiO2 
 PCOD9098350
Probable space group: P -1
;
_chemical_formula_sum "Si O2"
_cell_formula_units_Z 16
_cell_length_a 7.816168
_cell_length_b 11.511721
_cell_length_c 14.690677
_cell_angle_alpha 40.005814
_cell_angle_beta 80.581720
_cell_angle_gamma 59.074546
_cell_volume 662.522151
_symmetry_space_group_name_H-M "P -1"
_symmetry_group_IT_number 2
_symmetry_cell_setting 'triclinic'
loop_
_space_group_symop_operation_xyz
x,y,z
-x,-y,-z
loop_
_atom_site_type_symbol
_atom_site_label
_atom_site_fract_x
_atom_site_fract_y
_atom_site_fract_z
Si Si1 0.921487 0.628953 0.026011
Si Si2 0.834357 0.219537 0.448860
Si Si3 0.942921 0.533361 0.696740
Si Si4 0.729856 0.162388 0.171622
Si Si5 0.473875 0.032107 0.588010
Si Si6 0.369586 0.524278 0.855715
Si Si7 0.331495 0.915006 0.310036
Si Si8 0.823704 0.740027 0.322314
O O1 0.831742 0.888791 0.864188
O O2 0.077975 0.517639 0.166705
O O3 0.720221 0.620009 0.068172
O O4 0.000000 0.500000 0.000000
O O5 0.964298 0.322301 0.392179
O O6 0.633879 0.378475 0.300046
O O7 0.745424 0.223215 0.555724
O O8 0.000000 0.000000 0.500000
O O9 0.115655 0.304894 0.762316
O O10 0.723724 0.696237 0.558204
O O11 0.789421 0.267202 0.183445
O O12 0.579729 0.123898 0.268789
O O13 0.853272 0.923816 0.249737
O O14 0.594368 0.358120 0.990410
O O15 0.681483 0.970627 0.660565
O O16 0.500000 0.000000 0.500000
O O17 0.577965 0.812911 0.317145
O O18 0.000000 0.500000 0.500000
#
# Coordination Sequence:
#
# PCOD9098350 Si02
#       8
#     2   2   2   2   2   2   2   2
#     4  11  22  40  62 103 128 162 216 280 341 385
#     4  11  23  40  63  99 134 161 218 278 343 383
#     4  11  24  39  67  94 131 175 213 277 328 394
#     4  10  20  36  65  89 122 169 211 268 321 380
#     4  11  19  35  62  97 121 164 222 266 324 380
#     4  10  20  38  61  97 124 164 210 275 330 379
#     4  11  22  40  66  92 130 176 217 267 326 398
#     4  11  22  43  66  94 132 178 232 257 319 407
#
# _framework density 24.150134999999999
#
# number of rings (size 3 to 8) (size 9 to 14) (size 15 to 20)
#    0.000    1.250    5.000    4.500    0.000    1.000 
#    0.000    0.000    0.000    1.500    0.000    0.000 
#    0.000    0.000    0.000    0.000    0.000    0.000 
#
# Total GULP energy -89186.890363 kJ/mol
# GULP energy per Si atom -5574.180648 kJ/mol
# Density = 2.409517 g / cm^3
# Si number density = 24.150135 Si / 1000 Ang^3
#
#
#
# Elastic Constant Matrix: (Units=GPa)
#
#
# Indices 1 2 3 4 5 6 
#
# 1 51.6690 -1.1679 27.8400 2.3967 -6.7350 0.0929
# 2 -1.1679 112.7528 21.1355 -3.2332 -3.5293 -0.1483
# 3 27.8400 21.1355 141.1103 8.9686 11.8031 -7.3054
# 4 2.3967 -3.2332 8.9686 34.4640 4.3370 -3.4047
# 5 -6.7350 -3.5293 11.8031 4.3370 32.7559 2.2825
# 6 0.0929 -0.1483 -7.3054 -3.4047 2.2825 36.2695
#
#
#
# Elastic Compliance Matrix: (Units=1/GPa)
#
#
# Indices 1 2 3 4 5 6 
#
# 1 0.023304 0.001449 -0.005431 -0.001143 0.007175 -0.001706
# 2 0.001449 0.009332 -0.001925 0.001000 0.001891 -0.000378
# 3 -0.005431 -0.001925 0.009015 -0.001384 -0.004527 0.001977
# 4 -0.001143 0.001000 -0.001384 0.030310 -0.003838 0.002815
# 5 0.007175 0.001891 -0.004527 -0.003838 0.034588 -0.003459
# 6 -0.001706 -0.000378 0.001977 0.002815 -0.003459 0.028454
#
#
# Mechanical properties :
#
#
# Convention : Reuss Voigt Hill
#
# Bulk Modulus (GPa) = 33.51388 44.57193 39.04290
# Shear Modulus (GPa) = 31.89506 37.87951 34.88728
#
# Velocity S-wave (km/s) = 3.63808 3.96473 3.80491
# Velocity P-wave (km/s) = 5.61738 6.28132 5.95861
#
# Compressibility (1/GPa) = 0.02983839
#
# Stress axis : x y z
#
# Youngs Moduli (GPa) = 42.91085 107.15609 110.92165
#
# Poissons Ratio (x) = -0.15526 0.60237
# Poissons Ratio (y) = -0.06217 0.21352
# Poissons Ratio (z) = 0.23303 0.20627
#
# Static dielectric constant tensor:
#      x y z
#    x 2.049800 -0.035410 -0.073380 
#    y -0.035410 2.077300 -0.068900 
#    z -0.073380 -0.068900 2.091680 
# 
# From -- ./inp_files/499879.got.cif
#   From: 2010.05.17/outbox.cif.g08.bks.cpg/sg2_250_cif.got.tgz:499879.got - 2010.06.03 11:33:40.
