data_PCOD9098162
_publ_section_title
;
Structure prediction by ZEFSAII (Michael W. Deem and Ramdas Pophale) SiO2 
 PCOD9098162
Probable space group: P -1
;
_chemical_formula_sum "Si O2"
_cell_formula_units_Z 14
_cell_length_a 9.863361
_cell_length_b 9.669030
_cell_length_c 11.749863
_cell_angle_alpha 38.643898
_cell_angle_beta 65.850548
_cell_angle_gamma 61.490034
_cell_volume 613.567255
_symmetry_space_group_name_H-M "P -1"
_symmetry_group_IT_number 2
_symmetry_cell_setting 'triclinic'
loop_
_space_group_symop_operation_xyz
x,y,z
-x,-y,-z
loop_
_atom_site_type_symbol
_atom_site_label
_atom_site_fract_x
_atom_site_fract_y
_atom_site_fract_z
Si Si1 0.816081 0.208637 0.839260
Si Si2 0.092981 0.330071 0.447737
Si Si3 0.149858 0.089702 0.355169
Si Si4 0.788227 0.531771 0.062697
Si Si5 0.773147 0.402783 0.397339
Si Si6 0.868024 0.101299 0.140825
Si Si7 0.491352 0.265536 0.828751
O O1 0.882873 0.427560 0.685671
O O2 0.909046 0.371219 0.461999
O O3 0.781110 0.156119 0.015641
O O4 0.948061 0.984256 0.896274
O O5 0.177445 0.229322 0.365788
O O6 0.156165 0.124881 0.646104
O O7 0.266027 0.840012 0.450003
O O8 0.154069 0.258573 0.140948
O O9 0.000000 0.000000 0.500000
O O10 0.850723 0.459412 0.215104
O O11 0.827032 0.316075 0.102806
O O12 0.606060 0.617021 0.101627
O O13 0.665125 0.276311 0.770339
O O14 0.616216 0.607671 0.319734
O O15 0.500000 0.000000 0.000000
#
# Coordination Sequence:
#
# PCOD9098162 Si02
#       7
#     2   2   2   2   2   2   2
#     4  11  26  44  67 100 136 175 230 274 335 395
#     4  11  21  42  67 103 134 170 228 278 330 392
#     4  10  20  36  64 104 131 170 226 273 322 391
#     4  10  22  44  67  99 137 181 217 277 336 396
#     4   9  23  41  68  97 135 171 222 272 334 394
#     4  11  24  42  73  99 133 180 223 283 326 393
#     4  10  25  48  68  95 138 179 218 275 345 402
#
# _framework density 22.817385999999999
#
# number of rings (size 3 to 8) (size 9 to 14) (size 15 to 20)
#    0.857    0.857    2.857    0.429    4.000    7.429 
#    2.571    2.857    0.000    0.000    0.000    0.000 
#    0.000    0.000    0.000    0.000    0.000    0.000 
#
# Total GULP energy -78182.826258 kJ/mol
# GULP energy per Si atom -5584.487590 kJ/mol
# Density = 2.276545 g / cm^3
# Si number density = 22.817386 Si / 1000 Ang^3
#
#
#
# Elastic Constant Matrix: (Units=GPa)
#
#
# Indices 1 2 3 4 5 6 
#
# 1 66.4189 21.5002 4.7569 -18.0219 -1.6141 -8.9642
# 2 21.5002 124.7879 21.2515 -26.3289 -5.4374 6.5862
# 3 4.7569 21.2515 143.3657 -19.6002 18.6947 8.7775
# 4 -18.0219 -26.3289 -19.6002 46.8122 -2.3184 6.0779
# 5 -1.6141 -5.4374 18.6947 -2.3184 33.9596 1.6761
# 6 -8.9642 6.5862 8.7775 6.0779 1.6761 32.9014
#
#
#
# Elastic Compliance Matrix: (Units=1/GPa)
#
#
# Indices 1 2 3 4 5 6 
#
# 1 0.017736 -0.002195 0.000099 0.005109 0.000575 0.004272
# 2 -0.002195 0.009853 -0.000826 0.004910 0.002430 -0.003381
# 3 0.000099 -0.000826 0.008228 0.003110 -0.004329 -0.002357
# 4 0.005109 0.004910 0.003110 0.028209 0.001524 -0.005709
# 5 0.000575 0.002430 -0.004329 0.001524 0.032405 -0.001107
# 6 0.004272 -0.003381 -0.002357 -0.005709 -0.001107 0.033975
#
#
# Mechanical properties :
#
#
# Convention : Reuss Voigt Hill
#
# Bulk Modulus (GPa) = 33.36476 47.73218 40.54847
# Shear Modulus (GPa) = 34.18988 41.87222 38.03105
#
# Velocity S-wave (km/s) = 3.87513 4.28846 4.08702
# Velocity P-wave (km/s) = 5.88867 6.74431 6.33097
#
# Compressibility (1/GPa) = 0.02997174
#
# Stress axis : x y z
#
# Youngs Moduli (GPa) = 56.38167 101.49419 121.53151
#
# Poissons Ratio (x) = 0.22280 -0.01200
# Poissons Ratio (y) = 0.12377 0.10043
# Poissons Ratio (z) = -0.00557 0.08387
#
# Static dielectric constant tensor:
#      x y z
#    x 1.847230 -0.050990 0.012450 
#    y -0.050990 1.938120 0.066440 
#    z 0.012450 0.066440 1.915450 
# 
# From -- ./inp_files/537718.got.cif
#   From: 2010.05.17/outbox.cif.g08.bks.cpg/sg2_269_cif.got.tgz:537718.got - 2010.06.03 11:33:40.
