data_PCOD9098300
_publ_section_title
;
Structure prediction by ZEFSAII (Michael W. Deem and Ramdas Pophale) SiO2 
 PCOD9098300
Probable space group: P -1
;
_chemical_formula_sum "Si O2"
_cell_formula_units_Z 14
_cell_length_a 11.272957
_cell_length_b 8.966815
_cell_length_c 9.273350
_cell_angle_alpha 70.739926
_cell_angle_beta 126.512553
_cell_angle_gamma 98.858107
_cell_volume 710.120548
_symmetry_space_group_name_H-M "P -1"
_symmetry_group_IT_number 2
_symmetry_cell_setting 'triclinic'
loop_
_space_group_symop_operation_xyz
x,y,z
-x,-y,-z
loop_
_atom_site_type_symbol
_atom_site_label
_atom_site_fract_x
_atom_site_fract_y
_atom_site_fract_z
Si Si1 0.678331 0.828868 0.577409
Si Si2 0.225075 0.030564 0.110342
Si Si3 0.616607 0.126758 0.002755
Si Si4 0.848605 0.081176 0.431703
Si Si5 0.433461 0.656147 0.321833
Si Si6 0.138298 0.504204 0.204447
Si Si7 0.056009 0.772289 0.259434
O O1 0.683502 0.881624 0.730155
O O2 0.511930 0.789623 0.428810
O O3 0.782804 0.669861 0.676171
O O4 0.750377 0.957513 0.486693
O O5 0.146328 0.895522 0.188329
O O6 0.109256 0.162147 0.917277
O O7 0.302699 0.947263 0.056837
O O8 0.739854 0.148342 0.206273
O O9 0.532972 0.289352 0.834089
O O10 0.500000 0.000000 0.000000
O O11 0.898668 0.202190 0.551195
O O12 0.000000 0.000000 0.500000
O O13 0.500000 0.500000 0.500000
O O14 0.262397 0.618622 0.201765
O O15 0.086823 0.593363 0.285119
O O16 0.000000 0.500000 0.000000
#
# Coordination Sequence:
#
# PCOD9098300 Si02
#       7
#     2   2   2   2   2   2   2
#     4  10  22  40  63  93 129 169 211 265 313 385
#     4  10  20  36  64  96 125 159 222 262 307 377
#     4  12  23  40  66  96 129 169 210 264 327 378
#     4  11  23  38  64  93 134 162 208 268 326 364
#     4  10  23  41  61  92 129 168 213 258 316 382
#     4  11  21  37  67  91 120 167 222 255 314 367
#     4  10  20  37  61  98 122 165 215 265 308 386
#
# _framework density 19.714963000000001
#
# number of rings (size 3 to 8) (size 9 to 14) (size 15 to 20)
#    0.000    1.429    5.714    0.000    2.000    1.714 
#    0.000    0.714    6.286    5.143    0.000    0.000 
#    0.000    0.000    0.000    0.000    0.000    0.000 
#
# Total GULP energy -77982.494917 kJ/mol
# GULP energy per Si atom -5570.178208 kJ/mol
# Density = 1.967009 g / cm^3
# Si number density = 19.714963 Si / 1000 Ang^3
#
#
#
# Elastic Constant Matrix: (Units=GPa)
#
#
# Indices 1 2 3 4 5 6 
#
# 1 58.0847 13.9992 29.9957 17.0251 -7.7546 4.1479
# 2 13.9992 87.8558 56.5763 20.2354 -6.1657 -12.5020
# 3 29.9957 56.5763 172.6530 29.7536 -6.8164 3.2263
# 4 17.0251 20.2354 29.7536 47.2698 4.2123 0.1315
# 5 -7.7546 -6.1657 -6.8164 4.2123 28.8138 12.8389
# 6 4.1479 -12.5020 3.2263 0.1315 12.8389 35.9224
#
#
#
# Elastic Compliance Matrix: (Units=1/GPa)
#
#
# Indices 1 2 3 4 5 6 
#
# 1 0.022119 -0.000880 -0.001846 -0.007214 0.009005 -0.005887
# 2 -0.000880 0.016255 -0.004652 -0.003723 -0.000087 0.006221
# 3 -0.001846 -0.004652 0.008244 -0.002717 0.002150 -0.002905
# 4 -0.007214 -0.003723 -0.002717 0.027824 -0.008689 0.002785
# 5 0.009005 -0.000087 0.002150 -0.008689 0.046909 -0.017997
# 6 -0.005887 0.006221 -0.002905 0.002785 -0.017997 0.037366
#
#
# Mechanical properties :
#
#
# Convention : Reuss Voigt Hill
#
# Bulk Modulus (GPa) = 31.38440 57.74843 44.56641
# Shear Modulus (GPa) = 27.16046 36.93599 32.04823
#
# Velocity S-wave (km/s) = 3.71571 4.33309 4.03622
# Velocity P-wave (km/s) = 5.86193 7.37492 6.66152
#
# Compressibility (1/GPa) = 0.03186296
#
# Stress axis : x y z
#
# Youngs Moduli (GPa) = 45.21077 61.52049 121.29696
#
# Poissons Ratio (x) = 0.05414 0.22387
# Poissons Ratio (y) = 0.03979 0.56423
# Poissons Ratio (z) = 0.08344 0.28617
#
# Static dielectric constant tensor:
#      x y z
#    x 1.741150 0.001400 -0.013970 
#    y 0.001400 1.773750 -0.136010 
#    z -0.013970 -0.136010 1.894810 
# 
# From -- ./inp_files/154241.got.cif
#   From: 2010.05.17/outbox.cif.g08.bks.cpg/sg2_78_cif.got.tgz:154241.got - 2010.06.03 11:33:40.
