data_PCOD9098700
_publ_section_title
;
Structure prediction by ZEFSAII (Michael W. Deem and Ramdas Pophale) SiO2 
 PCOD9098700
Probable space group: P -1
;
_chemical_formula_sum "Si O2"
_cell_formula_units_Z 16
_cell_length_a 9.885556
_cell_length_b 13.539965
_cell_length_c 22.292168
_cell_angle_alpha 132.454807
_cell_angle_beta 24.801311
_cell_angle_gamma 125.332461
_cell_volume 917.730166
_symmetry_space_group_name_H-M "P -1"
_symmetry_group_IT_number 2
_symmetry_cell_setting 'triclinic'
loop_
_space_group_symop_operation_xyz
x,y,z
-x,-y,-z
loop_
_atom_site_type_symbol
_atom_site_label
_atom_site_fract_x
_atom_site_fract_y
_atom_site_fract_z
Si Si1 0.943077 0.581658 0.117304
Si Si2 0.347585 0.834887 0.056375
Si Si3 0.545520 0.441859 0.391847
Si Si4 0.266588 0.148908 0.214969
Si Si5 0.752606 0.398338 0.534787
Si Si6 0.577486 0.154415 0.220714
Si Si7 0.652645 0.859454 0.073741
Si Si8 0.755787 0.584475 0.961121
O O1 0.565610 0.599828 0.295196
O O2 0.096200 0.723572 0.112598
O O3 0.127723 0.484510 0.052625
O O4 0.000000 0.500000 0.000000
O O5 0.553216 0.823321 0.031020
O O6 0.203146 0.992352 0.175932
O O7 0.565677 0.816453 0.900909
O O8 0.500000 0.500000 0.500000
O O9 0.365329 0.545482 0.459592
O O10 0.431642 0.292743 0.367426
O O11 0.923087 0.423677 0.212960
O O12 0.500575 0.167897 0.185907
O O13 0.945977 0.251010 0.393837
O O14 0.000000 0.500000 0.500000
O O15 0.477182 0.008323 0.219332
O O16 0.960356 0.139130 0.074909
O O17 0.592917 0.738116 0.091882
O O18 0.500000 0.500000 0.000000
#
# Coordination Sequence:
#
# PCOD9098700 Si02
#       8
#     2   2   2   2   2   2   2   2
#     4  11  24  38  57  84 117 151 192 238 285 340
#     4  10  21  37  60  87 112 152 193 236 285 342
#     4  10  22  35  56  83 112 144 187 233 280 338
#     4  10  21  37  60  86 116 148 195 236 282 344
#     4  11  22  38  57  82 116 154 189 238 285 335
#     4   9  18  35  55  83 112 145 184 233 279 328
#     4   9  18  33  59  81 111 145 185 232 282 328
#     4  10  20  37  56  84 109 145 185 234 282 334
#
# _framework density 17.434318999999999
#
# number of rings (size 3 to 8) (size 9 to 14) (size 15 to 20)
#    0.000    2.000    2.500    0.750    7.000    1.500 
#    0.000    0.000    0.000    0.750    0.000    0.000 
#    0.000    0.000    0.000    0.000    0.000    0.000 
#
# Total GULP energy -89140.689258 kJ/mol
# GULP energy per Si atom -5571.293079 kJ/mol
# Density = 1.739464 g / cm^3
# Si number density = 17.434319 Si / 1000 Ang^3
#
#
#
# Elastic Constant Matrix: (Units=GPa)
#
#
# Indices 1 2 3 4 5 6 
#
# 1 110.6897 65.3817 78.8928 1.2834 9.0221 9.2801
# 2 65.3817 143.0557 61.9465 10.2141 5.0661 2.7491
# 3 78.8928 61.9465 92.8001 15.9037 1.7620 -7.6607
# 4 1.2834 10.2141 15.9037 21.9875 1.8796 -1.0096
# 5 9.0221 5.0661 1.7620 1.8796 29.9159 3.5074
# 6 9.2801 2.7491 -7.6607 -1.0096 3.5074 26.0546
#
#
#
# Elastic Compliance Matrix: (Units=1/GPa)
#
#
# Indices 1 2 3 4 5 6 
#
# 1 0.041709 -0.002914 -0.040056 0.027523 -0.008630 -0.024098
# 2 -0.002914 0.010305 -0.004231 -0.001586 -0.000364 -0.001306
# 3 -0.040056 -0.004231 0.055955 -0.035570 0.008375 0.028660
# 4 0.027523 -0.001586 -0.035570 0.070316 -0.008452 -0.016232
# 5 -0.008630 -0.000364 0.008375 -0.008452 0.036083 0.000390
# 6 -0.024098 -0.001306 0.028660 -0.016232 0.000390 0.054847
#
#
# Mechanical properties :
#
#
# Convention : Reuss Voigt Hill
#
# Bulk Modulus (GPa) = 73.69691 84.33192 79.01441
# Shear Modulus (GPa) = 13.58179 24.94656 19.26417
#
# Velocity S-wave (km/s) = 2.79413 3.78681 3.32770
# Velocity P-wave (km/s) = 7.26447 8.22169 7.75786
#
# Compressibility (1/GPa) = 0.01356909
#
# Stress axis : x y z
#
# Youngs Moduli (GPa) = 23.97548 97.03630 17.87139
#
# Poissons Ratio (x) = 0.28277 0.71585
# Poissons Ratio (y) = 0.06987 0.07561
# Poissons Ratio (z) = 0.96035 0.41055
#
# Static dielectric constant tensor:
#      x y z
#    x 1.588150 0.005870 -0.013790 
#    y 0.005870 1.628660 0.030250 
#    z -0.013790 0.030250 1.576420 
# 
# From -- ./inp_files/199615.got.cif
#   From: 2010.05.17/outbox.cif.g08.bks.cpg/sg2_100_cif.got.tgz:199615.got - 2010.06.03 11:33:40.
