data_PCOD9098055
_publ_section_title
;
Structure prediction by ZEFSAII (Michael W. Deem and Ramdas Pophale) SiO2 
 PCOD9098055
Probable space group: P -1
;
_chemical_formula_sum "Si O2"
_cell_formula_units_Z 16
_cell_length_a 12.675180
_cell_length_b 16.482305
_cell_length_c 8.492028
_cell_angle_alpha 115.138077
_cell_angle_beta 78.971903
_cell_angle_gamma 152.451463
_cell_volume 666.069145
_symmetry_space_group_name_H-M "P -1"
_symmetry_group_IT_number 2
_symmetry_cell_setting 'triclinic'
loop_
_space_group_symop_operation_xyz
x,y,z
-x,-y,-z
loop_
_atom_site_type_symbol
_atom_site_label
_atom_site_fract_x
_atom_site_fract_y
_atom_site_fract_z
Si Si1 0.011997 0.653738 0.315002
Si Si2 0.397504 0.988268 0.241627
Si Si3 0.536167 0.548945 0.350249
Si Si4 0.481877 0.660995 0.946786
Si Si5 0.128670 0.392878 0.334362
Si Si6 0.741945 0.750993 0.170982
Si Si7 0.108590 0.639299 0.792405
Si Si8 0.195995 0.985680 0.090476
O O1 0.817195 0.543529 0.143448
O O2 0.966061 0.513784 0.245414
O O3 0.290839 0.887967 0.362680
O O4 0.938872 0.644908 0.494354
O O5 0.303546 0.014619 0.232623
O O6 0.691984 0.209583 0.287361
O O7 0.257069 0.806244 0.023870
O O8 0.500000 0.500000 0.500000
O O9 0.462066 0.394920 0.182330
O O10 0.783158 0.763398 0.355614
O O11 0.370221 0.512499 0.343535
O O12 0.591337 0.809553 0.908146
O O13 0.638052 0.768683 0.154155
O O14 0.129018 0.485318 0.312953
O O15 0.918407 0.175786 0.124781
O O16 0.985372 0.898522 0.130297
O O17 0.500000 0.500000 0.000000
#
# Coordination Sequence:
#
# PCOD9098055 Si02
#       8
#     2   2   2   2   2   2   2   2
#     4  12  23  42  68  95 126 172 208 265 329 377
#     4  10  22  41  69  93 125 165 220 262 316 380
#     4  11  22  41  62  94 130 165 209 263 323 371
#     4  11  22  38  67  94 128 167 216 259 313 386
#     4  11  24  39  66  89 133 167 205 271 325 365
#     4  10  20  36  63  91 122 173 212 252 311 386
#     4  10  23  44  63  95 125 167 215 267 313 381
#     4  11  21  41  63  94 129 169 213 267 310 379
#
# _framework density 24.021529999999998
#
# number of rings (size 3 to 8) (size 9 to 14) (size 15 to 20)
#    0.000    1.250    5.000    2.625    1.750    0.500 
#    0.000    3.125    0.000    0.000    0.000    0.000 
#    0.000    0.000    0.000    0.000    0.000    0.000 
#
# Total GULP energy -89260.660638 kJ/mol
# GULP energy per Si atom -5578.791290 kJ/mol
# Density = 2.396686 g / cm^3
# Si number density = 24.021530 Si / 1000 Ang^3
#
#
#
# Elastic Constant Matrix: (Units=GPa)
#
#
# Indices 1 2 3 4 5 6 
#
# 1 141.3803 21.5432 8.0685 -2.2482 14.3041 -3.7894
# 2 21.5432 85.0386 -5.6526 -20.4164 3.1508 -13.1028
# 3 8.0685 -5.6526 32.9128 -14.6420 1.8491 -9.5135
# 4 -2.2482 -20.4164 -14.6420 17.4618 2.7706 8.4010
# 5 14.3041 3.1508 1.8491 2.7706 26.2682 -1.5106
# 6 -3.7894 -13.1028 -9.5135 8.4010 -1.5106 29.5488
#
#
#
# Elastic Compliance Matrix: (Units=1/GPa)
#
#
# Indices 1 2 3 4 5 6 
#
# 1 0.008391 -0.005470 -0.008213 -0.011448 -0.002176 -0.000850
# 2 -0.005470 0.036668 0.045492 0.078866 -0.012529 0.007142
# 3 -0.008213 0.045492 0.107210 0.139417 -0.022497 0.012849
# 4 -0.011448 0.078866 0.139417 0.272067 -0.041798 -0.001098
# 5 -0.002176 -0.012529 -0.022497 -0.041798 0.046818 0.001199
# 6 -0.000850 0.007142 0.012849 -0.001098 0.001199 0.041411
#
#
# Mechanical properties :
#
#
# Convention : Reuss Voigt Hill
#
# Bulk Modulus (GPa) = 4.63208 34.13889 19.38548
# Shear Modulus (GPa) = 9.59861 30.34727 19.97294
#
# Velocity S-wave (km/s) = 2.00113 3.55820 2.88663
# Velocity P-wave (km/s) = 2.69663 5.57886 4.38153
#
# Compressibility (1/GPa) = 0.21588597
#
# Stress axis : x y z
#
# Youngs Moduli (GPa) = 119.17896 27.27163 9.32750
#
# Poissons Ratio (x) = 0.14919 0.07661
# Poissons Ratio (y) = 0.65196 -0.42433
# Poissons Ratio (z) = 0.97880 -1.24064
#
# Static dielectric constant tensor:
#      x y z
#    x 1.955180 -0.023180 0.158030 
#    y -0.023180 1.958140 -0.099790 
#    z 0.158030 -0.099790 2.351800 
# 
# From -- ./inp_files/187236.got.cif
#   From: 2010.05.17/outbox.cif.g08.bks.cpg/sg2_94_cif.got.tgz:187236.got - 2010.06.03 11:33:40.
