data_PCOD9098005
_publ_section_title
;
Structure prediction by ZEFSAII (Michael W. Deem and Ramdas Pophale) SiO2 
 PCOD9098005
Probable space group: P -1
;
_chemical_formula_sum "Si O2"
_cell_formula_units_Z 14
_cell_length_a 19.517250
_cell_length_b 9.394644
_cell_length_c 9.526215
_cell_angle_alpha 95.847516
_cell_angle_beta 123.834084
_cell_angle_gamma 131.326211
_cell_volume 717.279365
_symmetry_space_group_name_H-M "P -1"
_symmetry_group_IT_number 2
_symmetry_cell_setting 'triclinic'
loop_
_space_group_symop_operation_xyz
x,y,z
-x,-y,-z
loop_
_atom_site_type_symbol
_atom_site_label
_atom_site_fract_x
_atom_site_fract_y
_atom_site_fract_z
Si Si1 0.855264 0.193483 0.385378
Si Si2 0.862440 0.883062 0.245029
Si Si3 0.729369 0.338834 0.704381
Si Si4 0.608576 0.275950 0.835677
Si Si5 0.036519 0.271749 0.243973
Si Si6 0.671402 0.191398 0.158864
Si Si7 0.943118 0.433307 0.087099
O O1 0.694726 0.054705 0.174275
O O2 0.000000 0.500000 0.500000
O O3 0.846129 0.019480 0.299375
O O4 0.918157 0.287927 0.627237
O O5 0.686123 0.537902 0.010262
O O6 0.000000 0.000000 0.500000
O O7 0.930857 0.993254 0.174023
O O8 0.653574 0.336238 0.727696
O O9 0.872096 0.610911 0.789664
O O10 0.792522 0.312495 0.881130
O O11 0.587087 0.051526 0.418496
O O12 0.689782 0.279152 0.031217
O O13 0.182388 0.529474 0.546883
O O14 0.921243 0.239430 0.096902
O O15 0.500000 0.000000 0.000000
O O16 0.000000 0.500000 0.000000
#
# Coordination Sequence:
#
# PCOD9098005 Si02
#       7
#     2   2   2   2   2   2   2
#     4  11  20  37  65  90 115 165 212 247 304 364
#     4  12  22  37  62  97 123 153 206 270 302 352
#     4  10  21  39  59  86 119 169 199 240 315 374
#     4  11  23  36  61  89 124 155 203 255 311 363
#     4  10  20  36  63  86 116 158 207 248 302 363
#     4  11  20  38  66  88 119 162 211 254 302 370
#     4   9  18  34  60  85 111 152 207 244 281 368
#
# _framework density 19.518198000000002
#
# number of rings (size 3 to 8) (size 9 to 14) (size 15 to 20)
#    0.000    1.429    5.714    1.714    0.000    0.571 
#    0.000    1.429    0.000    0.000    0.000    0.000 
#    0.000    0.000    0.000    0.000    0.000    0.000 
#
# Total GULP energy -77970.351381 kJ/mol
# GULP energy per Si atom -5569.310813 kJ/mol
# Density = 1.947377 g / cm^3
# Si number density = 19.518198 Si / 1000 Ang^3
#
#
#
# Elastic Constant Matrix: (Units=GPa)
#
#
# Indices 1 2 3 4 5 6 
#
# 1 91.1513 27.7609 26.3298 -0.6449 -6.3634 -6.1546
# 2 27.7609 77.5371 41.3083 -15.2534 -9.3034 -8.2871
# 3 26.3298 41.3083 84.8868 -12.9773 -3.6232 -11.7146
# 4 -0.6449 -15.2534 -12.9773 32.6526 -2.5369 -9.6149
# 5 -6.3634 -9.3034 -3.6232 -2.5369 31.9210 -9.7616
# 6 -6.1546 -8.2871 -11.7146 -9.6149 -9.7616 31.8551
#
#
#
# Elastic Compliance Matrix: (Units=1/GPa)
#
#
# Indices 1 2 3 4 5 6 
#
# 1 0.012859 -0.003517 -0.002514 -0.002195 0.001184 0.000345
# 2 -0.003517 0.021420 -0.006224 0.010546 0.008213 0.008304
# 3 -0.002514 -0.006224 0.017610 0.006275 0.002315 0.006975
# 4 -0.002195 0.010546 0.006275 0.045773 0.013932 0.022712
# 5 0.001184 0.008213 0.002315 0.013932 0.041484 0.020134
# 6 0.000345 0.008304 0.006975 0.022712 0.020134 0.049209
#
#
# Mechanical properties :
#
#
# Convention : Reuss Voigt Hill
#
# Bulk Modulus (GPa) = 36.52594 49.37479 42.95036
# Shear Modulus (GPa) = 22.52349 29.83080 26.17715
#
# Velocity S-wave (km/s) = 3.40070 3.91366 3.66617
# Velocity P-wave (km/s) = 5.84586 6.76565 6.32251
#
# Compressibility (1/GPa) = 0.02737780
#
# Stress axis : x y z
#
# Youngs Moduli (GPa) = 77.76869 46.68614 56.78740
#
# Poissons Ratio (x) = 0.16420 0.14278
# Poissons Ratio (y) = 0.27352 0.35342
# Poissons Ratio (z) = 0.19553 0.29056
#
# Static dielectric constant tensor:
#      x y z
#    x 1.830960 0.032070 0.034840 
#    y 0.032070 1.715650 -0.018480 
#    z 0.034840 -0.018480 1.704430 
# 
# From -- ./inp_files/159771.got.cif
#   From: 2010.05.17/outbox.cif.g08.bks.cpg/sg2_80_cif.got.tgz:159771.got - 2010.06.03 11:33:40.
