data_PCOD9098160
_publ_section_title
;
Structure prediction by ZEFSAII (Michael W. Deem and Ramdas Pophale) SiO2 
 PCOD9098160
Probable space group: P -1
;
_chemical_formula_sum "Si O2"
_cell_formula_units_Z 14
_cell_length_a 15.642695
_cell_length_b 8.201842
_cell_length_c 6.058753
_cell_angle_alpha 112.012481
_cell_angle_beta 49.274578
_cell_angle_gamma 109.303785
_cell_volume 542.042362
_symmetry_space_group_name_H-M "P -1"
_symmetry_group_IT_number 2
_symmetry_cell_setting 'triclinic'
loop_
_space_group_symop_operation_xyz
x,y,z
-x,-y,-z
loop_
_atom_site_type_symbol
_atom_site_label
_atom_site_fract_x
_atom_site_fract_y
_atom_site_fract_z
Si Si1 0.288281 0.326744 0.146846
Si Si2 0.437318 0.098892 0.469888
Si Si3 0.920588 0.142322 0.083396
Si Si4 0.957270 0.769685 0.681137
Si Si5 0.811610 0.290499 0.967761
Si Si6 0.266066 0.026248 0.361501
Si Si7 0.400111 0.597525 0.822929
O O1 0.354052 0.216301 0.801527
O O2 0.358943 0.520341 0.091878
O O3 0.158359 0.317170 0.279591
O O4 0.289220 0.224456 0.325524
O O5 0.357698 0.992044 0.372300
O O6 0.534675 0.208543 0.216639
O O7 0.500000 0.000000 0.500000
O O8 0.022789 0.253430 0.100821
O O9 0.847836 0.031305 0.337910
O O10 0.843924 0.270357 0.155906
O O11 0.950629 0.984917 0.791813
O O12 0.065242 0.693483 0.350394
O O13 0.751400 0.100697 0.884730
O O14 0.718118 0.416422 0.124061
O O15 0.500000 0.500000 0.500000
#
# Coordination Sequence:
#
# PCOD9098160 Si02
#       7
#     2   2   2   2   2   2   2
#     4  11  23  41  61  93 129 170 205 251 324 377
#     4  11  23  43  66  92 122 163 217 268 308 364
#     4  10  20  36  64 103 129 156 208 263 317 366
#     4  10  21  35  66  96 131 162 201 266 314 372
#     4  11  22  40  66  98 124 163 218 259 309 373
#     4  11  21  37  69  94 124 162 211 266 312 367
#     4  10  25  45  63  86 132 172 207 262 314 374
#
# _framework density 25.828236
#
# number of rings (size 3 to 8) (size 9 to 14) (size 15 to 20)
#    0.000    1.429    2.857    2.143    4.000    3.429 
#    0.000   10.714    0.000    0.000    0.000    0.000 
#    0.000    0.000    0.000    0.000    0.000    0.000 
#
# Total GULP energy -78160.055971 kJ/mol
# GULP energy per Si atom -5582.861141 kJ/mol
# Density = 2.576945 g / cm^3
# Si number density = 25.828236 Si / 1000 Ang^3
#
#
#
# Elastic Constant Matrix: (Units=GPa)
#
#
# Indices 1 2 3 4 5 6 
#
# 1 137.1594 20.0400 16.0961 0.8016 -20.9616 -29.1261
# 2 20.0400 57.4316 24.8330 -14.4273 -3.2554 -14.9825
# 3 16.0961 24.8330 107.2097 -2.7724 -24.0811 -8.1825
# 4 0.8016 -14.4273 -2.7724 38.2027 -12.5648 -4.7141
# 5 -20.9616 -3.2554 -24.0811 -12.5648 51.1235 1.5300
# 6 -29.1261 -14.9825 -8.1825 -4.7141 1.5300 39.2910
#
#
#
# Elastic Compliance Matrix: (Units=1/GPa)
#
#
# Indices 1 2 3 4 5 6 
#
# 1 0.009457 -0.001038 0.000308 0.001627 0.004156 0.006712
# 2 -0.001038 0.024727 -0.004278 0.010646 0.001482 0.008988
# 3 0.000308 -0.004278 0.011631 0.001178 0.005594 0.000943
# 4 0.001627 0.010646 0.001178 0.034735 0.010159 0.009283
# 5 0.004156 0.001482 0.005594 0.010159 0.026341 0.005004
# 6 0.006712 0.008988 0.000943 0.009283 0.005004 0.034970
#
#
# Mechanical properties :
#
#
# Convention : Reuss Voigt Hill
#
# Bulk Modulus (GPa) = 27.93217 47.08211 37.50714
# Shear Modulus (GPa) = 30.52341 41.77888 36.15114
#
# Velocity S-wave (km/s) = 3.44144 4.02626 3.74528
# Velocity P-wave (km/s) = 5.16037 6.31529 5.76681
#
# Compressibility (1/GPa) = 0.03580102
#
# Stress axis : x y z
#
# Youngs Moduli (GPa) = 105.73891 40.44168 85.97689
#
# Poissons Ratio (x) = 0.04197 -0.02651
# Poissons Ratio (y) = 0.10975 0.36777
# Poissons Ratio (z) = -0.03261 0.17299
#
# Static dielectric constant tensor:
#      x y z
#    x 2.064230 -0.024890 -0.033990 
#    y -0.024890 2.196000 0.023760 
#    z -0.033990 0.023760 2.061000 
# 
# From -- ./inp_files/90246.got.cif
#   From: 2010.05.17/outbox.cif.g08.bks.cpg/sg2_46_cif.got.tgz:90246.got - 2010.06.03 11:33:40.
