data_PCOD9098002
_publ_section_title
;
Structure prediction by ZEFSAII (Michael W. Deem and Ramdas Pophale) SiO2 
 PCOD9098002
Probable space group: P -1
;
_chemical_formula_sum "Si O2"
_cell_formula_units_Z 14
_cell_length_a 11.396174
_cell_length_b 11.835897
_cell_length_c 17.057386
_cell_angle_alpha 150.774853
_cell_angle_beta 44.143220
_cell_angle_gamma 118.157840
_cell_volume 697.102890
_symmetry_space_group_name_H-M "P -1"
_symmetry_group_IT_number 2
_symmetry_cell_setting 'triclinic'
loop_
_space_group_symop_operation_xyz
x,y,z
-x,-y,-z
loop_
_atom_site_type_symbol
_atom_site_label
_atom_site_fract_x
_atom_site_fract_y
_atom_site_fract_z
Si Si1 0.071580 0.231880 0.407782
Si Si2 0.208845 0.252099 0.752115
Si Si3 0.526850 0.205977 0.871285
Si Si4 0.221681 0.780767 0.359375
Si Si5 0.601951 0.036779 0.354786
Si Si6 0.793064 0.374507 0.482715
Si Si7 0.458599 0.846518 0.996083
O O1 0.152807 0.442215 0.487288
O O2 0.946931 0.284678 0.577089
O O3 0.955588 0.258173 0.399766
O O4 0.237228 0.939478 0.153450
O O5 0.392179 0.242678 0.612028
O O6 0.194016 0.011548 0.571092
O O7 0.287486 0.160936 0.747146
O O8 0.000000 0.500000 0.000000
O O9 0.734894 0.147351 0.704267
O O10 0.517252 0.082409 0.883661
O O11 0.435294 0.111269 0.789168
O O12 0.410012 0.515310 0.126442
O O13 0.732908 0.172230 0.350319
O O14 0.607815 0.556844 0.732067
O O15 0.500000 0.000000 0.000000
#
# Coordination Sequence:
#
# PCOD9098002 Si02
#       7
#     2   2   2   2   2   2   2
#     4  10  20  36  63  86 114 162 214 240 292 373
#     4  10  21  38  60  90 122 166 207 246 307 373
#     4  10  21  40  60  90 128 160 200 258 317 355
#     4  10  20  40  61  87 123 161 201 248 302 370
#     4  10  21  38  59  88 130 158 197 261 313 355
#     4  10  20  38  62  86 118 162 207 249 299 366
#     4  10  21  38  62  86 116 164 212 248 297 367
#
# _framework density 20.083119
#
# number of rings (size 3 to 8) (size 9 to 14) (size 15 to 20)
#    0.000    2.000    2.857    0.000    2.000    0.571 
#    5.143    3.571    0.000    0.000    0.000    0.000 
#    0.000    0.000    0.000    0.000    0.000    0.000 
#
# Total GULP energy -77950.540701 kJ/mol
# GULP energy per Si atom -5567.895764 kJ/mol
# Density = 2.003741 g / cm^3
# Si number density = 20.083119 Si / 1000 Ang^3
#
#
#
# Elastic Constant Matrix: (Units=GPa)
#
#
# Indices 1 2 3 4 5 6 
#
# 1 68.6447 54.1086 65.3032 11.1831 -3.5895 -5.8044
# 2 54.1086 115.6325 20.2508 -27.8815 19.3891 8.4358
# 3 65.3032 20.2508 108.0157 -12.2474 -5.8122 -3.9111
# 4 11.1831 -27.8815 -12.2474 18.6893 3.5190 3.6685
# 5 -3.5895 19.3891 -5.8122 3.5190 29.1009 -3.2535
# 6 -5.8044 8.4358 -3.9111 3.6685 -3.2535 41.3751
#
#
#
# Elastic Compliance Matrix: (Units=1/GPa)
#
#
# Indices 1 2 3 4 5 6 
#
# 1 -0.008411 0.014118 0.005211 0.033718 -0.014339 -0.007683
# 2 0.014118 -0.001405 -0.010065 -0.018380 0.003248 0.003201
# 3 0.005211 -0.010065 0.006903 -0.016906 0.011424 0.005833
# 4 0.033718 -0.018380 -0.016906 -0.009788 0.015212 0.008944
# 5 -0.014339 0.003248 0.011424 0.015212 0.030815 -0.000520
# 6 -0.007683 0.003201 0.005833 0.008944 -0.000520 0.022156
#
#
# Mechanical properties :
#
#
# Convention : Reuss Voigt Hill
#
# Bulk Modulus (GPa) = 64.03954 63.51312 63.77633
# Shear Modulus (GPa) = 185.55219 28.00841 106.78030
#
# Velocity S-wave (km/s) = 9.62251 3.73852 7.29963
# Velocity P-wave (km/s) = 12.46649 7.09430 10.14255
#
# Compressibility (1/GPa) = 0.01561535
#
# Stress axis : x y z
#
# Youngs Moduli (GPa) = -118.89517 -711.51095 144.85870
#
# Poissons Ratio (x) = 10.04505 -0.75492
# Poissons Ratio (y) = 1.67855 1.45803
# Poissons Ratio (z) = 0.61961 -7.16148
#
# Static dielectric constant tensor:
#      x y z
#    x 1.720830 0.010060 -0.022360 
#    y 0.010060 1.796410 -0.011870 
#    z -0.022360 -0.011870 1.762560 
# 
# From -- ./inp_files/403313.got.cif
#   From: 2010.05.17/outbox.cif.g08.bks.cpg/sg2_202_cif.got.tgz:403313.got - 2010.06.03 11:33:40.
