data_PCOD9098596
_publ_section_title
;
Structure prediction by ZEFSAII (Michael W. Deem and Ramdas Pophale) SiO2 
 PCOD9098596
Probable space group: P -1
;
_chemical_formula_sum "Si O2"
_cell_formula_units_Z 14
_cell_length_a 5.491589
_cell_length_b 10.131057
_cell_length_c 11.509741
_cell_angle_alpha 80.200327
_cell_angle_beta 65.937262
_cell_angle_gamma 95.386878
_cell_volume 566.606975
_symmetry_space_group_name_H-M "P -1"
_symmetry_group_IT_number 2
_symmetry_cell_setting 'triclinic'
loop_
_space_group_symop_operation_xyz
x,y,z
-x,-y,-z
loop_
_atom_site_type_symbol
_atom_site_label
_atom_site_fract_x
_atom_site_fract_y
_atom_site_fract_z
Si Si1 0.591547 0.300191 0.242968
Si Si2 0.426143 0.558611 0.351228
Si Si3 0.935573 0.084615 0.611048
Si Si4 0.088967 0.371042 0.617830
Si Si5 0.316120 0.974932 0.737261
Si Si6 0.018371 0.752583 0.985042
Si Si7 0.489487 0.659008 0.997454
O O1 0.512349 0.423416 0.305759
O O2 0.600081 0.157977 0.324731
O O3 0.894971 0.340463 0.124865
O O4 0.423230 0.273586 0.158250
O O5 0.245707 0.510657 0.507997
O O6 0.699792 0.656410 0.321351
O O7 0.211771 0.606004 0.300302
O O8 0.045862 0.245518 0.555696
O O9 0.609517 0.063385 0.694402
O O10 0.000000 0.000000 0.500000
O O11 0.103490 0.036399 0.692634
O O12 0.157209 0.903065 0.892200
O O13 0.195264 0.702515 0.058573
O O14 0.699300 0.722820 0.045335
O O15 0.500000 0.500000 0.000000
#
# Coordination Sequence:
#
# PCOD9098596 Si02
#       7
#     2   2   2   2   2   2   2
#     4   8  20  29  55  68 100 134 156 187 254 287
#     4  10  20  37  46  66  99 128 168 196 236 304
#     4  12  21  33  49  69  94 124 168 217 245 273
#     4  10  23  32  49  67  92 132 166 209 240 262
#     4   9  20  32  48  69  96 123 165 194 238 299
#     4   8  18  28  46  72  95 134 150 182 250 287
#     4   9  16  28  46  76 107 123 150 191 237 305
#
# _framework density 24.708487999999999
#
# number of rings (size 3 to 8) (size 9 to 14) (size 15 to 20)
#    1.714    0.571    0.000    4.286    2.000    3.429 
#    0.000    0.000    0.000    0.000    0.000    0.000 
#    0.000   52.571    0.000    0.000    0.000    0.000 
#
# Total GULP energy -77992.430886 kJ/mol
# GULP energy per Si atom -5570.887920 kJ/mol
# Density = 2.465225 g / cm^3
# Si number density = 24.708488 Si / 1000 Ang^3
#
#
#
# Elastic Constant Matrix: (Units=GPa)
#
#
# Indices 1 2 3 4 5 6 
#
# 1 250.5525 31.6157 53.6293 -18.6634 -6.8900 -5.6525
# 2 31.6157 70.8689 6.1707 -6.0665 -2.2865 3.4892
# 3 53.6293 6.1707 59.8928 -14.8403 0.5994 -1.6368
# 4 -18.6634 -6.0665 -14.8403 25.4124 -8.6937 1.2245
# 5 -6.8900 -2.2865 0.5994 -8.6937 39.6169 -8.0793
# 6 -5.6525 3.4892 -1.6368 1.2245 -8.0793 35.1015
#
#
#
# Elastic Compliance Matrix: (Units=1/GPa)
#
#
# Indices 1 2 3 4 5 6 
#
# 1 0.005293 -0.001885 -0.004175 0.001431 0.001418 0.001122
# 2 -0.001885 0.015258 0.000836 0.003130 0.000883 -0.001687
# 3 -0.004175 0.000836 0.023094 0.011108 0.001466 0.000271
# 4 0.001431 0.003130 0.011108 0.051631 0.011871 0.001368
# 5 0.001418 0.000883 0.001466 0.011871 0.029463 0.006576
# 6 0.001122 -0.001687 0.000271 0.001368 0.006576 0.030316
#
#
# Mechanical properties :
#
#
# Convention : Reuss Voigt Hill
#
# Bulk Modulus (GPa) = 30.12180 62.68287 46.40233
# Shear Modulus (GPa) = 28.31775 39.35271 33.83523
#
# Velocity S-wave (km/s) = 3.38904 3.99517 3.70452
# Velocity P-wave (km/s) = 5.24705 6.83417 6.09251
#
# Compressibility (1/GPa) = 0.03319855
#
# Stress axis : x y z
#
# Youngs Moduli (GPa) = 188.91226 65.53882 43.30205
#
# Poissons Ratio (x) = 0.12354 0.18077
# Poissons Ratio (y) = 0.35610 -0.03622
# Poissons Ratio (z) = 0.78866 -0.05482
#
# Static dielectric constant tensor:
#      x y z
#    x 1.974970 -0.055500 0.003220 
#    y -0.055500 1.937310 -0.008460 
#    z 0.003220 -0.008460 2.023990 
# 
# From -- ./inp_files/481552.got.cif
#   From: 2010.05.17/outbox.cif.g08.bks.cpg/sg2_241_cif.got.tgz:481552.got - 2010.06.03 11:33:40.
