data_PCOD9098230
_publ_section_title
;
Structure prediction by ZEFSAII (Michael W. Deem and Ramdas Pophale) SiO2 
 PCOD9098230
Probable space group: P -1
;
_chemical_formula_sum "Si O2"
_cell_formula_units_Z 16
_cell_length_a 11.707565
_cell_length_b 12.803698
_cell_length_c 12.239063
_cell_angle_alpha 46.232940
_cell_angle_beta 144.862979
_cell_angle_gamma 109.556423
_cell_volume 633.971656
_symmetry_space_group_name_H-M "P -1"
_symmetry_group_IT_number 2
_symmetry_cell_setting 'triclinic'
loop_
_space_group_symop_operation_xyz
x,y,z
-x,-y,-z
loop_
_atom_site_type_symbol
_atom_site_label
_atom_site_fract_x
_atom_site_fract_y
_atom_site_fract_z
Si Si1 0.507619 0.393710 0.757998
Si Si2 0.297646 0.977046 0.259680
Si Si3 0.955879 0.167459 0.406253
Si Si4 0.732478 0.558644 0.246610
Si Si5 0.314219 0.754175 0.634369
Si Si6 0.144371 0.787987 0.141618
Si Si7 0.159110 0.268271 0.185369
Si Si8 0.206395 0.335296 0.424434
O O1 0.376828 0.364795 0.776467
O O2 0.449614 0.315787 0.666150
O O3 0.372367 0.596975 0.481317
O O4 0.761615 0.321051 0.062380
O O5 0.268359 0.877577 0.409511
O O6 0.580280 0.889833 0.537705
O O7 0.225123 0.917203 0.137893
O O8 0.072632 0.170053 0.973711
O O9 0.852140 0.180717 0.435740
O O10 0.164203 0.201083 0.549859
O O11 0.000000 0.000000 0.500000
O O12 0.695305 0.403425 0.307176
O O13 0.000000 0.500000 0.500000
O O14 0.572743 0.692303 0.929908
O O15 0.026477 0.788921 0.934465
O O16 0.201945 0.300046 0.319049
O O17 0.012643 0.460829 0.874915
#
# Coordination Sequence:
#
# PCOD9098230 Si02
#       8
#     2   2   2   2   2   2   2   2
#     4  10  21  42  63  92 121 163 216 253 313 370
#     4  11  22  39  63  97 133 155 211 263 311 379
#     4  11  25  44  66  90 128 169 205 261 314 377
#     4  10  20  36  64  91 121 162 204 258 314 368
#     4  10  23  37  62  97 122 164 204 256 321 371
#     4  10  22  39  64  93 125 164 204 261 319 360
#     4  10  23  41  64  94 127 173 206 258 310 365
#     4  10  23  42  65  91 129 169 215 251 306 380
#
# _framework density 25.237721000000001
#
# number of rings (size 3 to 8) (size 9 to 14) (size 15 to 20)
#    0.000    1.750    1.250    1.875    8.750    1.500 
#    2.250    3.750    0.000    0.000    0.000    0.000 
#    0.000    0.000    0.000    0.000    0.000    0.000 
#
# Total GULP energy -89470.517217 kJ/mol
# GULP energy per Si atom -5591.907326 kJ/mol
# Density = 2.518028 g / cm^3
# Si number density = 25.237721 Si / 1000 Ang^3
#
#
#
# Elastic Constant Matrix: (Units=GPa)
#
#
# Indices 1 2 3 4 5 6 
#
# 1 60.9792 10.3022 14.8782 3.8429 -2.6313 -8.9589
# 2 10.3022 101.1756 2.9911 8.9289 -7.6186 -15.1559
# 3 14.8782 2.9911 71.4875 11.4506 -1.7939 6.1626
# 4 3.8429 8.9289 11.4506 46.1173 -2.9345 3.4361
# 5 -2.6313 -7.6186 -1.7939 -2.9345 28.1390 10.1297
# 6 -8.9589 -15.1559 6.1626 3.4361 10.1297 39.5668
#
#
#
# Elastic Compliance Matrix: (Units=1/GPa)
#
#
# Indices 1 2 3 4 5 6 
#
# 1 0.018254 -0.001035 -0.004053 -0.000690 -0.000548 0.004568
# 2 -0.001035 0.010852 -0.000189 -0.002175 0.001225 0.003827
# 3 -0.004053 -0.000189 0.015690 -0.003160 0.001518 -0.003548
# 4 -0.000690 -0.002175 -0.003160 0.023362 0.002744 -0.003228
# 5 -0.000548 0.001225 0.001518 0.002744 0.039927 -0.010352
# 6 0.004568 0.003827 -0.003548 -0.003228 -0.010352 0.031257
#
#
# Mechanical properties :
#
#
# Convention : Reuss Voigt Hill
#
# Bulk Modulus (GPa) = 29.20429 32.22057 30.71243
# Shear Modulus (GPa) = 30.99594 36.46268 33.72931
#
# Velocity S-wave (km/s) = 3.50831 3.80514 3.65973
# Velocity P-wave (km/s) = 5.29224 5.66568 5.48214
#
# Compressibility (1/GPa) = 0.03424154
#
# Stress axis : x y z
#
# Youngs Moduli (GPa) = 54.78347 92.14625 63.73470
#
# Poissons Ratio (x) = 0.09537 0.25830
# Poissons Ratio (y) = 0.05670 0.01208
# Poissons Ratio (z) = 0.22203 0.01746
#
# Static dielectric constant tensor:
#      x y z
#    x 1.993620 -0.027630 0.034470 
#    y -0.027630 2.028840 -0.036080 
#    z 0.034470 -0.036080 2.123450 
# 
# From -- ./inp_files/532431.got.cif
#   From: 2010.05.17/outbox.cif.g08.bks.cpg/sg2_267_cif.got.tgz:532431.got - 2010.06.03 11:33:40.
