data_PCOD9098801
_publ_section_title
;
Structure prediction by ZEFSAII (Michael W. Deem and Ramdas Pophale) SiO2 
 PCOD9098801
Probable space group: P -1
;
_chemical_formula_sum "Si O2"
_cell_formula_units_Z 16
_cell_length_a 22.171994
_cell_length_b 11.045792
_cell_length_c 19.411467
_cell_angle_alpha 25.420094
_cell_angle_beta 17.976075
_cell_angle_gamma 26.430643
_cell_volume 605.580690
_symmetry_space_group_name_H-M "P -1"
_symmetry_group_IT_number 2
_symmetry_cell_setting 'triclinic'
loop_
_space_group_symop_operation_xyz
x,y,z
-x,-y,-z
loop_
_atom_site_type_symbol
_atom_site_label
_atom_site_fract_x
_atom_site_fract_y
_atom_site_fract_z
Si Si1 0.268996 0.863702 0.377463
Si Si2 0.108550 0.175077 0.714475
Si Si3 0.162730 0.939596 0.038341
Si Si4 0.347780 0.316150 0.493132
Si Si5 0.212743 0.793959 0.617769
Si Si6 0.353811 0.889846 0.125689
Si Si7 0.476405 0.829457 0.430524
Si Si8 0.272235 0.628572 0.211981
O O1 0.297683 0.518355 0.510702
O O2 0.142738 0.940292 0.544785
O O3 0.212542 0.994910 0.294298
O O4 0.474054 0.945129 0.135226
O O5 0.141536 0.280875 0.700209
O O6 0.180335 0.407192 0.469140
O O7 0.285315 0.869105 0.669113
O O8 0.900282 0.151862 0.920266
O O9 0.977724 0.214594 0.123415
O O10 0.152638 0.716659 0.225071
O O11 0.379818 0.991860 0.785176
O O12 0.433195 0.540767 0.237533
O O13 0.500000 0.000000 0.500000
O O14 0.354788 0.940610 0.434385
O O15 0.369275 0.480625 0.594272
O O16 0.280303 0.879635 0.132396
O O17 0.500000 0.500000 0.000000
#
# Coordination Sequence:
#
# PCOD9098801 Si02
#       8
#     2   2   2   2   2   2   2   2
#     4   9  17  35  55  80 118 151 197 242 285 352
#     4  10  21  36  57  91 112 151 198 239 305 353
#     4  11  22  35  57  86 122 149 192 252 296 353
#     4   9  17  33  59  85 116 153 197 245 292 354
#     4  10  21  35  60  86 113 161 197 237 300 359
#     4   8  19  33  58  86 113 152 203 236 292 361
#     4  10  20  37  57  86 121 150 196 247 298 353
#     4  11  20  37  60  86 117 154 194 250 303 351
#
# _framework density 26.420921
#
# number of rings (size 3 to 8) (size 9 to 14) (size 15 to 20)
#    0.750    1.500    1.250    2.250    1.750    0.000 
#    0.000    1.875    0.000    6.000    0.000    0.000 
#    0.000    0.000    0.000    0.000    0.000    0.000 
#
# Total GULP energy -89187.026132 kJ/mol
# GULP energy per Si atom -5574.189133 kJ/mol
# Density = 2.636079 g / cm^3
# Si number density = 26.420921 Si / 1000 Ang^3
#
#
#
# Elastic Constant Matrix: (Units=GPa)
#
#
# Indices 1 2 3 4 5 6 
#
# 1 189.8323 25.4274 81.4306 -3.9922 -46.1308 6.0549
# 2 25.4274 47.6196 19.1651 1.7853 -20.6642 -1.4039
# 3 81.4306 19.1651 100.1136 11.8788 -36.8530 1.4303
# 4 -3.9922 1.7853 11.8788 26.7343 -4.7579 -6.4761
# 5 -46.1308 -20.6642 -36.8530 -4.7579 61.1868 -9.3674
# 6 6.0549 -1.4039 1.4303 -6.4761 -9.3674 26.7789
#
#
#
# Elastic Compliance Matrix: (Units=1/GPa)
#
#
# Indices 1 2 3 4 5 6 
#
# 1 0.009095 -0.001059 -0.006729 0.005056 0.002915 0.000490
# 2 -0.001059 0.025613 -0.001373 0.001279 0.007845 0.004709
# 3 -0.006729 -0.001373 0.018547 -0.008201 0.005032 0.000236
# 4 0.005056 0.001279 -0.008201 0.045455 0.004674 0.011990
# 5 0.002915 0.007845 0.005032 0.004674 0.026075 0.009735
# 6 0.000490 0.004709 0.000236 0.011990 0.009735 0.043771
#
#
# Mechanical properties :
#
#
# Convention : Reuss Voigt Hill
#
# Bulk Modulus (GPa) = 28.62596 65.51243 47.06920
# Shear Modulus (GPa) = 25.18594 37.04280 31.11437
#
# Velocity S-wave (km/s) = 3.09084 3.74843 3.43540
# Velocity P-wave (km/s) = 4.85755 6.60180 5.79567
#
# Compressibility (1/GPa) = 0.03493332
#
# Stress axis : x y z
#
# Youngs Moduli (GPa) = 109.94814 39.04278 53.91679
#
# Poissons Ratio (x) = 0.04133 0.36282
# Poissons Ratio (y) = 0.11639 0.07404
# Poissons Ratio (z) = 0.73986 0.05361
#
# Static dielectric constant tensor:
#      x y z
#    x 2.135760 -0.008260 0.051780 
#    y -0.008260 2.177250 -0.011800 
#    z 0.051780 -0.011800 2.042200 
# 
# From -- ./inp_files/601407.got.cif
#   From: 2010.05.17/outbox.cif.g08.bks.cpg/sg2_301_cif.got.tgz:601407.got - 2010.06.03 11:33:40.
