data_PCOD9098459
_publ_section_title
;
Structure prediction by ZEFSAII (Michael W. Deem and Ramdas Pophale) SiO2 
 PCOD9098459
Probable space group: P -1
;
_chemical_formula_sum "Si O2"
_cell_formula_units_Z 14
_cell_length_a 12.572137
_cell_length_b 8.074313
_cell_length_c 9.489868
_cell_angle_alpha 109.511939
_cell_angle_beta 117.173240
_cell_angle_gamma 43.805889
_cell_volume 593.219551
_symmetry_space_group_name_H-M "P -1"
_symmetry_group_IT_number 2
_symmetry_cell_setting 'triclinic'
loop_
_space_group_symop_operation_xyz
x,y,z
-x,-y,-z
loop_
_atom_site_type_symbol
_atom_site_label
_atom_site_fract_x
_atom_site_fract_y
_atom_site_fract_z
Si Si1 0.062890 0.079442 0.782079
Si Si2 0.567380 0.522779 0.905331
Si Si3 0.135912 0.259393 0.104285
Si Si4 0.081587 0.764618 0.880449
Si Si5 0.462578 0.118368 0.361056
Si Si6 0.301398 0.643277 0.353453
Si Si7 0.289899 0.957610 0.667262
O O1 0.871374 0.280918 0.748658
O O2 0.093944 0.841067 0.755757
O O3 0.117333 0.120922 0.686053
O O4 0.167052 0.065976 0.964036
O O5 0.632605 0.352097 0.756234
O O6 0.420482 0.774794 0.815790
O O7 0.500000 0.500000 0.000000
O O8 0.733984 0.459967 0.025608
O O9 0.305592 0.180661 0.217731
O O10 0.040127 0.275916 0.185487
O O11 0.000000 0.500000 0.000000
O O12 0.000000 0.000000 0.000000
O O13 0.414353 0.373605 0.403350
O O14 0.630428 0.949589 0.325594
O O15 0.500000 0.000000 0.500000
O O16 0.278296 0.817786 0.502396
#
# Coordination Sequence:
#
# PCOD9098459 Si02
#       7
#     2   2   2   2   2   2   2
#     4  11  22  41  69  99 124 179 231 273 327 401
#     4  11  19  36  63 101 128 158 221 281 331 375
#     4  11  21  42  70  90 140 180 222 277 332 407
#     4  10  20  36  66  94 124 170 226 270 322 387
#     4  11  25  44  66  97 134 185 218 273 355 398
#     4  11  23  44  67  93 140 177 222 278 337 400
#     4  11  25  42  67  99 137 173 223 284 333 396
#
# _framework density 23.600031000000001
#
# number of rings (size 3 to 8) (size 9 to 14) (size 15 to 20)
#    0.000    1.143    5.714    3.000    2.000    2.857 
#    0.000    2.143    0.000    0.000    0.000    0.000 
#    0.000    0.000    0.000    0.000    0.000    0.000 
#
# Total GULP energy -78050.769153 kJ/mol
# GULP energy per Si atom -5575.054940 kJ/mol
# Density = 2.354632 g / cm^3
# Si number density = 23.600031 Si / 1000 Ang^3
#
#
#
# Elastic Constant Matrix: (Units=GPa)
#
#
# Indices 1 2 3 4 5 6 
#
# 1 208.0645 15.9952 75.0767 4.5415 -23.7485 -19.9298
# 2 15.9952 29.5989 17.8400 -12.2000 -6.2193 -8.9057
# 3 75.0767 17.8400 95.3913 -12.1058 -9.5655 -4.3564
# 4 4.5415 -12.2000 -12.1058 25.4071 2.8433 -3.3413
# 5 -23.7485 -6.2193 -9.5655 2.8433 52.0492 -4.9701
# 6 -19.9298 -8.9057 -4.3564 -3.3413 -4.9701 34.5067
#
#
#
# Elastic Compliance Matrix: (Units=1/GPa)
#
#
# Indices 1 2 3 4 5 6 
#
# 1 0.007869 -0.000710 -0.006179 -0.004554 0.002959 0.003567
# 2 -0.000710 0.053313 -0.005004 0.024840 0.005286 0.015884
# 3 -0.006179 -0.005004 0.016927 0.006574 -0.000877 -0.002213
# 4 -0.004554 0.024840 0.006574 0.056563 -0.000028 0.010084
# 5 0.002959 0.005286 -0.000877 -0.000028 0.021615 0.006073
# 6 0.003567 0.015884 -0.002213 0.010084 0.006073 0.036711
#
#
# Mechanical properties :
#
#
# Convention : Reuss Voigt Hill
#
# Bulk Modulus (GPa) = 18.40807 61.20872 39.80839
# Shear Modulus (GPa) = 21.28642 37.33547 29.31094
#
# Velocity S-wave (km/s) = 3.00653 3.98176 3.52801
# Velocity P-wave (km/s) = 4.45750 6.86523 5.78795
#
# Compressibility (1/GPa) = 0.05432401
#
# Stress axis : x y z
#
# Youngs Moduli (GPa) = 127.07853 18.75711 59.07659
#
# Poissons Ratio (x) = 0.01332 0.36502
# Poissons Ratio (y) = 0.09027 0.29560
# Poissons Ratio (z) = 0.78518 0.09385
#
# Static dielectric constant tensor:
#      x y z
#    x 2.008470 -0.000130 -0.019630 
#    y -0.000130 2.059240 0.013140 
#    z -0.019630 0.013140 1.930840 
# 
# From -- ./inp_files/239854.got.cif
#   From: 2010.05.17/outbox.cif.g08.bks.cpg/sg2_120_cif.got.tgz:239854.got - 2010.06.03 11:33:40.
