data_PCOD9098378
_publ_section_title
;
Structure prediction by ZEFSAII (Michael W. Deem and Ramdas Pophale) SiO2 
 PCOD9098378
Probable space group: P -1
;
_chemical_formula_sum "Si O2"
_cell_formula_units_Z 14
_cell_length_a 9.819133
_cell_length_b 21.591001
_cell_length_c 12.062932
_cell_angle_alpha 38.925043
_cell_angle_beta 59.130455
_cell_angle_gamma 30.327403
_cell_volume 702.953790
_symmetry_space_group_name_H-M "P -1"
_symmetry_group_IT_number 2
_symmetry_cell_setting 'triclinic'
loop_
_space_group_symop_operation_xyz
x,y,z
-x,-y,-z
loop_
_atom_site_type_symbol
_atom_site_label
_atom_site_fract_x
_atom_site_fract_y
_atom_site_fract_z
Si Si1 0.217608 0.794225 0.067587
Si Si2 0.131127 0.206666 0.856981
Si Si3 0.740313 0.570658 0.571109
Si Si4 0.797485 0.602365 0.052441
Si Si5 0.583736 0.993669 0.351850
Si Si6 0.249229 0.265502 0.512434
Si Si7 0.806061 0.211136 0.662393
O O1 0.528106 0.665916 0.059331
O O2 0.291866 0.719429 0.266048
O O3 0.035947 0.807411 0.061272
O O4 0.994420 0.007869 0.869707
O O5 0.091427 0.282276 0.649423
O O6 0.965693 0.360796 0.805641
O O7 0.500000 0.000000 0.000000
O O8 0.589742 0.728358 0.500059
O O9 0.480630 0.657602 0.482268
O O10 0.000000 0.500000 0.500000
O O11 0.003279 0.451431 0.277242
O O12 0.631039 0.796231 0.877110
O O13 0.000000 0.500000 0.000000
O O14 0.500000 0.000000 0.500000
O O15 0.553355 0.917420 0.387415
O O16 0.942696 0.840639 0.407021
#
# Coordination Sequence:
#
# PCOD9098378 Si02
#       7
#     2   2   2   2   2   2   2
#     4  10  20  36  65  93 123 162 214 268 312 376
#     4  11  23  37  64  97 130 168 209 261 330 382
#     4  10  22  37  58  91 130 160 204 264 317 377
#     4  11  24  40  65  96 129 166 218 262 314 382
#     4  11  23  42  70  93 126 171 216 266 315 380
#     4  11  23  41  64  92 130 169 211 262 324 368
#     4  10  21  39  63  95 122 162 218 264 318 377
#
# _framework density 19.915960999999999
#
# number of rings (size 3 to 8) (size 9 to 14) (size 15 to 20)
#    0.000    1.429    2.857    3.429    4.000    1.143 
#    0.000    0.714    3.143    1.714    0.000    0.000 
#    0.000    0.000    0.000    0.000    0.000    0.000 
#
# Total GULP energy -78072.046659 kJ/mol
# GULP energy per Si atom -5576.574761 kJ/mol
# Density = 1.987063 g / cm^3
# Si number density = 19.915961 Si / 1000 Ang^3
#
#
#
# Elastic Constant Matrix: (Units=GPa)
#
#
# Indices 1 2 3 4 5 6 
#
# 1 143.0808 54.8725 28.1970 -15.6967 -16.4792 -0.1536
# 2 54.8725 114.2705 31.6573 -2.0248 -5.8918 -7.2107
# 3 28.1970 31.6573 95.3958 -5.7875 -1.0361 -8.7496
# 4 -15.6967 -2.0248 -5.7875 27.6278 -4.1680 -4.4884
# 5 -16.4792 -5.8918 -1.0361 -4.1680 27.6240 -7.9988
# 6 -0.1536 -7.2107 -8.7496 -4.4884 -7.9988 30.6883
#
#
#
# Elastic Compliance Matrix: (Units=1/GPa)
#
#
# Indices 1 2 3 4 5 6 
#
# 1 0.010242 -0.004071 -0.001073 0.006531 0.006611 0.001467
# 2 -0.004071 0.011504 -0.002554 -0.001693 0.000182 0.001754
# 3 -0.001073 -0.002554 0.012105 0.002373 0.000596 0.003348
# 4 0.006531 -0.001693 0.002373 0.043923 0.013198 0.010176
# 5 0.006611 0.000182 0.000596 0.013198 0.046323 0.014250
# 6 0.001467 0.001754 0.003348 0.010176 0.014250 0.039162
#
#
# Mechanical properties :
#
#
# Convention : Reuss Voigt Hill
#
# Bulk Modulus (GPa) = 54.19273 64.68898 59.44086
# Shear Modulus (GPa) = 27.05512 33.05603 30.05557
#
# Velocity S-wave (km/s) = 3.68973 4.07845 3.88895
# Velocity P-wave (km/s) = 6.73958 7.39796 7.07643
#
# Compressibility (1/GPa) = 0.01845266
#
# Stress axis : x y z
#
# Youngs Moduli (GPa) = 97.64151 86.92729 82.61038
#
# Poissons Ratio (x) = 0.35392 0.08868
# Poissons Ratio (y) = 0.39754 0.21099
# Poissons Ratio (z) = 0.10482 0.22201
#
# Static dielectric constant tensor:
#      x y z
#    x 1.755790 0.034600 -0.018730 
#    y 0.034600 1.719790 -0.038080 
#    z -0.018730 -0.038080 1.756940 
# 
# From -- ./inp_files/196434.got.cif
#   From: 2010.05.17/outbox.cif.g08.bks.cpg/sg2_99_cif.got.tgz:196434.got - 2010.06.03 11:33:40.
