data_PCOD9098252
_publ_section_title
;
Structure prediction by ZEFSAII (Michael W. Deem and Ramdas Pophale) SiO2 
 PCOD9098252
Probable space group: P -1
;
_chemical_formula_sum "Si O2"
_cell_formula_units_Z 15
_cell_length_a 6.152763
_cell_length_b 9.141608
_cell_length_c 17.585312
_cell_angle_alpha 138.494367
_cell_angle_beta 101.869315
_cell_angle_gamma 92.352450
_cell_volume 611.751388
_symmetry_space_group_name_H-M "P -1"
_symmetry_group_IT_number 2
_symmetry_cell_setting 'triclinic'
loop_
_space_group_symop_operation_xyz
x,y,z
-x,-y,-z
loop_
_atom_site_type_symbol
_atom_site_label
_atom_site_fract_x
_atom_site_fract_y
_atom_site_fract_z
Si Si1 0.276285 0.737501 0.126938
Si Si2 0.928539 0.479027 0.117384
Si Si3 0.000000 0.000000 0.000000
Si Si4 0.256945 0.288650 0.671582
Si Si5 0.695847 0.192554 0.321091
Si Si6 0.616894 0.592562 0.715833
Si Si7 0.039905 0.976778 0.850220
Si Si8 0.823182 0.222389 0.510306
O O1 0.179774 0.599363 0.142574
O O2 0.522002 0.932977 0.220902
O O3 0.249738 0.574522 0.987980
O O4 0.082525 0.870402 0.146732
O O5 0.916161 0.237100 0.060848
O O6 0.867787 0.649812 0.239645
O O7 0.796939 0.924302 0.029852
O O8 0.470554 0.499895 0.743043
O O9 0.077632 0.253288 0.574130
O O10 0.312913 0.047991 0.592246
O O11 0.536304 0.340598 0.335057
O O12 0.871421 0.177502 0.261112
O O13 0.818395 0.275735 0.441732
O O14 0.714213 0.391752 0.614119
O O15 0.832922 0.825357 0.835005
#
# Coordination Sequence:
#
# PCOD9098252 Si02
#       8
#     2   2   1   2   2   2   2   2
#     4   9  22  41  65  92 126 164 205 257 312 373
#     4  10  20  42  65  92 126 161 207 257 311 377
#     4  10  20  36  64  92 126 158 198 262 312 362
#     4  11  25  43  65  91 128 171 209 258 317 373
#     4  11  23  41  66  94 127 168 210 257 315 372
#     4  11  23  40  63  93 127 167 211 261 314 365
#     4  10  22  40  61  94 128 164 210 256 310 375
#     4  11  25  42  62  92 128 168 216 260 306 373
#
# _framework density 24.519765
#
# number of rings (size 3 to 8) (size 9 to 14) (size 15 to 20)
#    0.000    1.600    0.000    4.000    0.000    9.600 
#    0.000   13.333    0.000    0.000    0.000    0.000 
#    0.000    0.000    0.000    0.000    0.000    0.000 
#
# Total GULP energy -83766.385903 kJ/mol
# GULP energy per Si atom -5584.425727 kJ/mol
# Density = 2.446396 g / cm^3
# Si number density = 24.519765 Si / 1000 Ang^3
#
#
#
# Elastic Constant Matrix: (Units=GPa)
#
#
# Indices 1 2 3 4 5 6 
#
# 1 32.1290 43.1357 15.4882 -5.8810 8.8254 -4.4428
# 2 43.1357 136.1530 43.2451 0.6121 11.6499 2.5952
# 3 15.4882 43.2451 96.2795 -0.1083 0.2673 -2.2214
# 4 -5.8810 0.6121 -0.1083 49.5532 2.3306 4.7905
# 5 8.8254 11.6499 0.2673 2.3306 22.2594 3.2925
# 6 -4.4428 2.5952 -2.2214 4.7905 3.2925 47.4055
#
#
#
# Elastic Compliance Matrix: (Units=1/GPa)
#
#
# Indices 1 2 3 4 5 6 
#
# 1 0.063948 -0.018348 -0.001819 0.007933 -0.017645 0.007336
# 2 -0.018348 0.014300 -0.003532 -0.002142 0.000424 -0.002481
# 3 -0.001819 -0.003532 0.012269 -0.000302 0.002386 0.000463
# 4 0.007933 -0.002142 -0.000302 0.021441 -0.004112 -0.001035
# 5 -0.017645 0.000424 0.002386 -0.004112 0.052814 -0.004818
# 6 0.007336 -0.002481 0.000463 -0.001035 -0.004818 0.022379
#
#
# Mechanical properties :
#
#
# Convention : Reuss Voigt Hill
#
# Bulk Modulus (GPa) = 23.19128 52.03329 37.61228
# Shear Modulus (GPa) = 20.08654 34.68978 27.38816
#
# Velocity S-wave (km/s) = 2.86527 3.76542 3.34576
# Velocity P-wave (km/s) = 4.51941 6.33810 5.50439
#
# Compressibility (1/GPa) = 0.04311966
#
# Stress axis : x y z
#
# Youngs Moduli (GPa) = 15.63762 69.92877 81.50399
#
# Poissons Ratio (x) = 1.28305 0.14824
# Poissons Ratio (y) = 0.28692 0.28790
# Poissons Ratio (z) = 0.02844 0.24702
#
# Static dielectric constant tensor:
#      x y z
#    x 1.981210 0.017500 0.065170 
#    y 0.017500 1.949760 0.006850 
#    z 0.065170 0.006850 2.085600 
# 
# From -- ./inp_files/547571.got.cif
#   From: 2010.05.17/outbox.cif.g08.bks.cpg/sg2_274_cif.got.tgz:547571.got - 2010.06.03 11:33:40.
