data_PCOD9098694
_publ_section_title
;
Structure prediction by ZEFSAII (Michael W. Deem and Ramdas Pophale) SiO2 
 PCOD9098694
Probable space group: P -1
;
_chemical_formula_sum "Si O2"
_cell_formula_units_Z 12
_cell_length_a 5.171306
_cell_length_b 5.600989
_cell_length_c 19.296306
_cell_angle_alpha 86.001205
_cell_angle_beta 123.798200
_cell_angle_gamma 88.725563
_cell_volume 462.064226
_symmetry_space_group_name_H-M "P -1"
_symmetry_group_IT_number 2
_symmetry_cell_setting 'triclinic'
loop_
_space_group_symop_operation_xyz
x,y,z
-x,-y,-z
loop_
_atom_site_type_symbol
_atom_site_label
_atom_site_fract_x
_atom_site_fract_y
_atom_site_fract_z
Si Si1 0.286907 0.185561 0.511107
Si Si2 0.114978 0.655571 0.218003
Si Si3 0.635269 0.716239 0.836024
Si Si4 0.838764 0.475636 0.632098
Si Si5 0.317334 0.043600 0.670519
Si Si6 0.711273 0.057476 0.094769
O O1 0.488608 0.400595 0.566939
O O2 0.084929 0.334558 0.419253
O O3 0.220205 0.041660 0.574927
O O4 0.500000 0.000000 0.500000
O O5 0.249016 0.545524 0.168917
O O6 0.119309 0.454438 0.282957
O O7 0.356505 0.833104 0.280488
O O8 0.795386 0.810680 0.154236
O O9 0.466295 0.754045 0.883344
O O10 0.955742 0.853105 0.880889
O O11 0.399561 0.824779 0.739002
O O12 0.060333 0.234827 0.660099
O O13 0.500000 0.000000 0.000000
#
# Coordination Sequence:
#
# PCOD9098694 Si02
#       6
#     2   2   2   2   2   2
#     4  10  21  34  54  85 118 162 208 253 310 365
#     4  10  23  40  63  91 125 163 210 258 309 375
#     4  11  24  41  69  94 125 172 205 250 323 371
#     4  10  20  37  56  82 124 157 206 260 306 356
#     4  10  21  38  58  88 124 161 208 263 301 369
#     4  11  25  44  65  97 130 159 208 262 308 379
#
# _framework density 25.970417000000001
#
# number of rings (size 3 to 8) (size 9 to 14) (size 15 to 20)
#    0.000    1.667    1.667    2.000    2.333    3.333 
#    0.000    0.000    0.000    0.000    0.000    0.000 
#    0.000    0.000    0.000    0.000    0.000    0.000 
#
# Total GULP energy -67138.688746 kJ/mol
# GULP energy per Si atom -5594.890729 kJ/mol
# Density = 2.591131 g / cm^3
# Si number density = 25.970417 Si / 1000 Ang^3
#
#
#
# Elastic Constant Matrix: (Units=GPa)
#
#
# Indices 1 2 3 4 5 6 
#
# 1 57.2661 -10.0046 9.6173 6.2192 -10.6016 -8.6091
# 2 -10.0046 46.1878 -3.7623 13.1648 -7.9696 -21.4265
# 3 9.6173 -3.7623 157.0898 38.9649 18.6075 -1.7489
# 4 6.2192 13.1648 38.9649 28.8430 -7.0008 -11.0990
# 5 -10.6016 -7.9696 18.6075 -7.0008 37.3830 5.5770
# 6 -8.6091 -21.4265 -1.7489 -11.0990 5.5770 58.9218
#
#
#
# Elastic Compliance Matrix: (Units=1/GPa)
#
#
# Indices 1 2 3 4 5 6 
#
# 1 0.021788 0.009437 -0.000859 -0.004150 0.007075 0.005138
# 2 0.009437 0.035140 0.005272 -0.020751 0.002135 0.010203
# 3 -0.000859 0.005272 0.013534 -0.023434 -0.010056 -0.001269
# 4 -0.004150 -0.020751 -0.023434 0.083688 0.021001 0.004929
# 5 0.007075 0.002135 -0.010056 0.021001 0.037869 0.001883
# 6 0.005138 0.010203 -0.001269 0.004929 0.001883 0.022145
#
#
# Mechanical properties :
#
#
# Convention : Reuss Voigt Hill
#
# Bulk Modulus (GPa) = 10.18742 28.02717 19.10730
# Shear Modulus (GPa) = 22.81161 42.67577 32.74369
#
# Velocity S-wave (km/s) = 2.96694 4.05809 3.55464
# Velocity P-wave (km/s) = 3.95831 5.72476 4.92144
#
# Compressibility (1/GPa) = 0.09816026
#
# Stress axis : x y z
#
# Youngs Moduli (GPa) = 45.89654 28.45735 73.88703
#
# Poissons Ratio (x) = -0.26854 0.06350
# Poissons Ratio (y) = -0.43311 -0.38951
# Poissons Ratio (z) = 0.03944 -0.15002
#
# Static dielectric constant tensor:
#      x y z
#    x 2.202070 0.113460 -0.047970 
#    y 0.113460 2.081170 -0.010050 
#    z -0.047970 -0.010050 2.033810 
# 
# From -- ./inp_files/3100.got.cif
#   From: 2010.05.17/outbox.cif.g08.bks.cpg/sg2_2_cif.got.tgz:3100.got - 2010.06.03 11:33:40.
