data_PCOD9098566
_publ_section_title
;
Structure prediction by ZEFSAII (Michael W. Deem and Ramdas Pophale) SiO2 
 PCOD9098566
Probable space group: P -1
;
_chemical_formula_sum "Si O2"
_cell_formula_units_Z 16
_cell_length_a 8.949592
_cell_length_b 15.104232
_cell_length_c 11.656573
_cell_angle_alpha 28.321871
_cell_angle_beta 109.607077
_cell_angle_gamma 98.822273
_cell_volume 667.695913
_symmetry_space_group_name_H-M "P -1"
_symmetry_group_IT_number 2
_symmetry_cell_setting 'triclinic'
loop_
_space_group_symop_operation_xyz
x,y,z
-x,-y,-z
loop_
_atom_site_type_symbol
_atom_site_label
_atom_site_fract_x
_atom_site_fract_y
_atom_site_fract_z
Si Si1 0.265581 0.215189 0.589447
Si Si2 0.559591 0.074578 0.239046
Si Si3 0.194301 0.379521 0.832219
Si Si4 0.695238 0.422138 0.939718
Si Si5 0.122715 0.658801 0.704342
Si Si6 0.252272 0.996417 0.038348
Si Si7 0.070414 0.732044 0.220051
Si Si8 0.583248 0.228864 0.434408
O O1 0.293964 0.423155 0.331622
O O2 0.322938 0.137510 0.819958
O O3 0.067804 0.248652 0.487478
O O4 0.356188 0.047056 0.713216
O O5 0.530257 0.892459 0.510801
O O6 0.367572 0.219206 0.024649
O O7 0.666154 0.217750 0.134521
O O8 0.197331 0.477103 0.844156
O O9 0.158387 0.543177 0.535894
O O10 0.028635 0.311705 0.863520
O O11 0.534582 0.550060 0.826672
O O12 0.853585 0.391152 0.098985
O O13 0.245523 0.788942 0.565574
O O14 0.083781 0.136601 0.892547
O O15 0.198921 0.851564 0.102837
O O16 0.356281 0.862972 0.318915
#
# Coordination Sequence:
#
# PCOD9098566 Si02
#       8
#     2   2   2   2   2   2   2   2
#     4  11  27  45  66 102 138 183 219 277 346 404
#     4  11  25  45  64 101 140 176 227 276 340 398
#     4  11  21  39  68 105 131 173 227 278 335 400
#     4  11  26  48  66  96 144 183 222 276 340 404
#     4  12  23  47  75  95 135 179 231 285 329 395
#     4  11  19  42  66  99 138 173 218 282 338 401
#     4  10  20  36  69 104 133 167 230 282 331 397
#     4  11  23  44  72 105 130 175 231 287 332 392
#
# _framework density 23.963004999999999
#
# number of rings (size 3 to 8) (size 9 to 14) (size 15 to 20)
#    0.000    1.000    5.000    1.500    0.000    4.000 
#    2.250    1.875    0.000    0.000    0.000    0.000 
#    0.000    0.000    0.000    0.000    0.000    0.000 
#
# Total GULP energy -89366.604637 kJ/mol
# GULP energy per Si atom -5585.412790 kJ/mol
# Density = 2.390846 g / cm^3
# Si number density = 23.963005 Si / 1000 Ang^3
#
#
#
# Elastic Constant Matrix: (Units=GPa)
#
#
# Indices 1 2 3 4 5 6 
#
# 1 76.4052 10.2694 17.7556 -3.1855 -4.9773 5.6072
# 2 10.2694 88.7762 22.4311 -20.6552 -18.0153 15.1244
# 3 17.7556 22.4311 63.1178 -8.3864 2.0312 7.7684
# 4 -3.1855 -20.6552 -8.3864 36.7977 -0.0079 -0.9462
# 5 -4.9773 -18.0153 2.0312 -0.0079 51.7583 -13.1812
# 6 5.6072 15.1244 7.7684 -0.9462 -13.1812 28.4255
#
#
#
# Elastic Compliance Matrix: (Units=1/GPa)
#
#
# Indices 1 2 3 4 5 6 
#
# 1 0.014160 -0.000209 -0.003781 0.000219 0.001156 -0.001105
# 2 -0.000209 0.015886 -0.004071 0.007844 0.004397 -0.004999
# 3 -0.003781 -0.004071 0.019168 0.001655 -0.003528 -0.003907
# 4 0.000219 0.007844 0.001655 0.031906 0.002010 -0.002675
# 5 0.001156 0.004397 -0.003528 0.002010 0.023483 0.009353
# 6 -0.001105 -0.004999 -0.003907 -0.002675 0.009353 0.043373
#
#
# Mechanical properties :
#
#
# Convention : Reuss Voigt Hill
#
# Bulk Modulus (GPa) = 30.21859 36.57905 33.39882
# Shear Modulus (GPa) = 28.55031 35.25250 31.90141
#
# Velocity S-wave (km/s) = 3.45546 3.83968 3.65263
# Velocity P-wave (km/s) = 5.34398 5.91232 5.63532
#
# Compressibility (1/GPa) = 0.03309221
#
# Stress axis : x y z
#
# Youngs Moduli (GPa) = 70.61921 62.94894 52.16984
#
# Poissons Ratio (x) = 0.01315 0.19727
# Poissons Ratio (y) = 0.01475 0.21238
# Poissons Ratio (z) = 0.26703 0.25626
#
# Static dielectric constant tensor:
#      x y z
#    x 1.971640 0.053850 -0.065990 
#    y 0.053850 1.988140 -0.016260 
#    z -0.065990 -0.016260 1.949510 
# 
# From -- ./inp_files/398254.got.cif
#   From: 2010.05.17/outbox.cif.g08.bks.cpg/sg2_200_cif.got.tgz:398254.got - 2010.06.03 11:33:40.
