data_PCOD9098901
_publ_section_title
;
Structure prediction by ZEFSAII (Michael W. Deem and Ramdas Pophale) SiO2 
 PCOD9098901
Probable space group: P -1
;
_chemical_formula_sum "Si O2"
_cell_formula_units_Z 16
_cell_length_a 9.912545
_cell_length_b 19.021843
_cell_length_c 9.236647
_cell_angle_alpha 139.319622
_cell_angle_beta 44.303703
_cell_angle_gamma 125.060962
_cell_volume 791.001740
_symmetry_space_group_name_H-M "P -1"
_symmetry_group_IT_number 2
_symmetry_cell_setting 'triclinic'
loop_
_space_group_symop_operation_xyz
x,y,z
-x,-y,-z
loop_
_atom_site_type_symbol
_atom_site_label
_atom_site_fract_x
_atom_site_fract_y
_atom_site_fract_z
Si Si1 0.786763 0.030936 0.953476
Si Si2 0.340897 0.037836 0.338789
Si Si3 0.747446 0.388552 0.511178
Si Si4 0.227388 0.775548 0.519140
Si Si5 0.194423 0.371634 0.082374
Si Si6 0.855664 0.820599 0.714504
Si Si7 0.628065 0.728015 0.480079
Si Si8 0.340270 0.163992 0.807114
O O1 0.557736 0.998755 0.112961
O O2 0.828939 0.140181 0.180182
O O3 0.791353 0.037031 0.784887
O O4 0.902171 0.933943 0.773787
O O5 0.363693 0.155319 0.424841
O O6 0.276412 0.066194 0.593468
O O7 0.734046 0.332855 0.593162
O O8 0.715152 0.514519 0.748715
O O9 0.590932 0.322473 0.429243
O O10 0.964293 0.377258 0.272927
O O11 0.426996 0.820876 0.363144
O O12 0.048994 0.768211 0.535710
O O13 0.262692 0.348311 0.831662
O O14 0.256928 0.272620 0.977039
O O15 0.728782 0.745846 0.584297
O O16 0.734806 0.848672 0.993404
#
# Coordination Sequence:
#
# PCOD9098901 Si02
#       8
#     2   2   2   2   2   2   2   2
#     4   9  17  34  56  81 115 149 187 230 272 328
#     4   8  16  32  57  82 108 147 192 226 268 328
#     4  11  20  37  66  85 104 148 195 231 279 333
#     4  11  21  36  59  84 116 151 187 230 281 330
#     4  10  21  37  65  85 106 143 198 233 274 340
#     4  11  23  36  57  84 123 149 181 230 286 328
#     4  10  20  38  59  85 114 148 183 237 277 329
#     4  10  20  37  58  84 115 150 183 234 280 335
#
# _framework density 20.227516999999999
#
# number of rings (size 3 to 8) (size 9 to 14) (size 15 to 20)
#    0.000    2.000    5.000    0.750    0.000    3.000 
#    0.000    1.875    2.750    0.000    0.000    0.000 
#    0.000    0.000    0.000    0.000    0.000    0.000 
#
# Total GULP energy -89382.095176 kJ/mol
# GULP energy per Si atom -5586.380948 kJ/mol
# Density = 2.018148 g / cm^3
# Si number density = 20.227517 Si / 1000 Ang^3
#
#
#
# Elastic Constant Matrix: (Units=GPa)
#
#
# Indices 1 2 3 4 5 6 
#
# 1 139.5877 32.7703 38.3711 -2.7635 16.0269 11.1880
# 2 32.7703 42.8715 9.0357 -2.8671 2.4145 14.1085
# 3 38.3711 9.0357 63.4695 3.5055 4.9393 9.6764
# 4 -2.7635 -2.8671 3.5055 25.0604 -1.4545 -1.9370
# 5 16.0269 2.4145 4.9393 -1.4545 26.7945 1.4296
# 6 11.1880 14.1085 9.6764 -1.9370 1.4296 24.2735
#
#
#
# Elastic Compliance Matrix: (Units=1/GPa)
#
#
# Indices 1 2 3 4 5 6 
#
# 1 0.010827 -0.007396 -0.005450 0.000971 -0.004850 0.001844
# 2 -0.007396 0.034240 0.001987 0.001604 0.001981 -0.017273
# 3 -0.005450 0.001987 0.020063 -0.003741 -0.000452 -0.006913
# 4 0.000971 0.001604 -0.003741 0.041087 0.002020 0.003271
# 5 -0.004850 0.001981 -0.000452 0.002020 0.040287 -0.000947
# 6 0.001844 -0.017273 -0.006913 0.003271 -0.000947 0.053460
#
#
# Mechanical properties :
#
#
# Convention : Reuss Voigt Hill
#
# Bulk Modulus (GPa) = 23.03431 45.14254 34.08843
# Shear Modulus (GPa) = 21.17280 26.27579 23.72429
#
# Velocity S-wave (km/s) = 3.23883 3.60809 3.42844
# Velocity P-wave (km/s) = 5.03975 6.30267 5.70625
#
# Compressibility (1/GPa) = 0.04341350
#
# Stress axis : x y z
#
# Youngs Moduli (GPa) = 92.36459 29.20549 49.84272
#
# Poissons Ratio (x) = 0.21600 0.27163
# Poissons Ratio (y) = 0.68312 -0.09906
# Poissons Ratio (z) = 0.50337 -0.05805
#
# Static dielectric constant tensor:
#      x y z
#    x 1.735030 0.021480 -0.007340 
#    y 0.021480 1.721570 -0.012400 
#    z -0.007340 -0.012400 1.735280 
# 
# From -- ./inp_files/200160.got.cif
#   From: 2010.05.17/outbox.cif.g08.bks.cpg/sg2_101_cif.got.tgz:200160.got - 2010.06.03 11:33:40.
