data_PCOD9098093
_publ_section_title
;
Structure prediction by ZEFSAII (Michael W. Deem and Ramdas Pophale) SiO2 
 PCOD9098093
Probable space group: P -1
;
_chemical_formula_sum "Si O2"
_cell_formula_units_Z 14
_cell_length_a 11.305779
_cell_length_b 11.417047
_cell_length_c 10.218881
_cell_angle_alpha 46.503313
_cell_angle_beta 40.306985
_cell_angle_gamma 50.552501
_cell_volume 601.573114
_symmetry_space_group_name_H-M "P -1"
_symmetry_group_IT_number 2
_symmetry_cell_setting 'triclinic'
loop_
_space_group_symop_operation_xyz
x,y,z
-x,-y,-z
loop_
_atom_site_type_symbol
_atom_site_label
_atom_site_fract_x
_atom_site_fract_y
_atom_site_fract_z
Si Si1 0.743765 0.974257 0.699972
Si Si2 0.789350 0.390245 0.139913
Si Si3 0.059513 0.323652 0.510938
Si Si4 0.447760 0.380518 0.029963
Si Si5 0.957253 0.361575 0.287413
Si Si6 0.666991 0.061942 0.980392
Si Si7 0.068182 0.960333 0.777346
O O1 0.719069 0.080747 0.770438
O O2 0.865677 0.015735 0.446298
O O3 0.860333 0.789016 0.785749
O O4 0.531455 0.989887 0.817398
O O5 0.614828 0.523875 0.126563
O O6 0.808109 0.225056 0.162444
O O7 0.799644 0.364804 0.307700
O O8 0.970636 0.468510 0.907141
O O9 0.924616 0.337288 0.486918
O O10 0.000000 0.500000 0.500000
O O11 0.073696 0.138212 0.701519
O O12 0.267226 0.319503 0.282252
O O13 0.618535 0.227452 0.977731
O O14 0.500000 0.500000 0.000000
O O15 0.853098 0.946520 0.972081
#
# Coordination Sequence:
#
# PCOD9098093 Si02
#       7
#     2   2   2   2   2   2   2
#     4  10  20  36  63  93 131 164 206 254 310 387
#     4  10  20  37  65  94 126 163 203 270 321 353
#     4  10  21  40  63  92 125 173 210 247 309 388
#     4  11  23  44  64  86 130 171 209 256 323 383
#     4   9  18  37  63  91 132 162 202 259 315 370
#     4  11  20  36  65  91 122 172 208 248 311 379
#     4  11  21  37  68  93 125 163 216 258 310 371
#
# _framework density 23.272317999999999
#
# number of rings (size 3 to 8) (size 9 to 14) (size 15 to 20)
#    0.000    1.714    5.714    1.286    2.000    0.000 
#    0.000    7.857   15.714    0.000    0.000    0.000 
#    0.000    0.000    0.000    0.000    0.000    0.000 
#
# Total GULP energy -78043.555796 kJ/mol
# GULP energy per Si atom -5574.539700 kJ/mol
# Density = 2.321935 g / cm^3
# Si number density = 23.272318 Si / 1000 Ang^3
#
#
#
# Elastic Constant Matrix: (Units=GPa)
#
#
# Indices 1 2 3 4 5 6 
#
# 1 83.3446 -5.6166 9.4812 1.7078 -6.4028 20.0301
# 2 -5.6166 85.9757 10.3870 1.7252 3.3902 32.1752
# 3 9.4812 10.3870 49.8654 13.2481 -14.8578 -1.7911
# 4 1.7078 1.7252 13.2481 40.4836 5.3304 -2.3618
# 5 -6.4028 3.3902 -14.8578 5.3304 25.3583 2.4868
# 6 20.0301 32.1752 -1.7911 -2.3618 2.4868 51.1384
#
#
#
# Elastic Compliance Matrix: (Units=1/GPa)
#
#
# Indices 1 2 3 4 5 6 
#
# 1 0.015079 0.004737 -0.003375 -0.000557 0.002210 -0.009138
# 2 0.004737 0.017720 -0.006453 0.000908 -0.003870 -0.013000
# 3 -0.003375 -0.006453 0.031671 -0.012384 0.020688 0.004913
# 4 -0.000557 0.000908 -0.012384 0.030671 -0.014094 0.001315
# 5 0.002210 -0.003870 0.020688 -0.014094 0.055699 -0.001066
# 6 -0.009138 -0.013000 0.004913 0.001315 -0.001066 0.031598
#
#
# Mechanical properties :
#
#
# Convention : Reuss Voigt Hill
#
# Bulk Modulus (GPa) = 18.42096 27.52096 22.97096
# Shear Modulus (GPa) = 23.72869 37.05833 30.39351
#
# Velocity S-wave (km/s) = 3.19660 3.99479 3.61777
# Velocity P-wave (km/s) = 4.64294 5.75579 5.22905
#
# Compressibility (1/GPa) = 0.05428599
#
# Stress axis : x y z
#
# Youngs Moduli (GPa) = 66.31835 56.43470 31.57494
#
# Poissons Ratio (x) = -0.26731 0.10658
# Poissons Ratio (y) = -0.31412 0.20374
# Poissons Ratio (z) = 0.22385 0.36416
#
# Static dielectric constant tensor:
#      x y z
#    x 1.922020 0.036000 0.008230 
#    y 0.036000 1.915020 -0.074050 
#    z 0.008230 -0.074050 1.935300 
# 
# From -- ./inp_files/330893.got.cif
#   From: 2010.05.17/outbox.cif.g08.bks.cpg/sg2_166_cif.got.tgz:330893.got - 2010.06.03 11:33:40.
