data_PCOD9098515
_publ_section_title
;
Structure prediction by ZEFSAII (Michael W. Deem and Ramdas Pophale) SiO2 
 PCOD9098515
Probable space group: P -1
;
_chemical_formula_sum "Si O2"
_cell_formula_units_Z 12
_cell_length_a 12.319291
_cell_length_b 5.352385
_cell_length_c 12.394939
_cell_angle_alpha 93.308275
_cell_angle_beta 130.885155
_cell_angle_gamma 64.773687
_cell_volume 528.906052
_symmetry_space_group_name_H-M "P -1"
_symmetry_group_IT_number 2
_symmetry_cell_setting 'triclinic'
loop_
_space_group_symop_operation_xyz
x,y,z
-x,-y,-z
loop_
_atom_site_type_symbol
_atom_site_label
_atom_site_fract_x
_atom_site_fract_y
_atom_site_fract_z
Si Si1 0.660204 0.993440 0.562499
Si Si2 0.075104 0.538373 0.403921
Si Si3 0.872084 0.900407 0.886930
Si Si4 0.161068 0.346479 0.935815
Si Si5 0.771419 0.082139 0.423984
Si Si6 0.509098 0.730295 0.933805
O O1 0.780948 0.658606 0.594399
O O2 0.738135 0.081232 0.712896
O O3 0.654258 0.166260 0.456346
O O4 0.500000 0.000000 0.500000
O O5 0.101866 0.267908 0.489429
O O6 0.907006 0.693789 0.225071
O O7 0.126260 0.752631 0.496690
O O8 0.997913 0.600561 0.897272
O O9 0.783130 0.894982 0.939908
O O10 0.000000 0.000000 0.000000
O O11 0.310891 0.405548 0.012449
O O12 0.647422 0.157787 0.245882
O O13 0.500000 0.500000 0.000000
O O14 0.500000 0.000000 0.000000
#
# Coordination Sequence:
#
# PCOD9098515 Si02
#       6
#     2   2   2   2   2   2
#     4   9  19  33  59  91 126 164 204 259 320 382
#     4   9  21  38  64  87 128 163 204 265 316 379
#     4  10  20  36  67  98 130 170 207 266 332 382
#     4  10  23  41  64 100 134 168 220 268 319 395
#     4  10  21  42  61  89 126 159 217 261 316 388
#     4  12  28  46  68  95 129 177 222 271 326 380
#
# _framework density 22.688338000000002
#
# number of rings (size 3 to 8) (size 9 to 14) (size 15 to 20)
#    1.000    1.000    0.000    3.000    2.333    2.000 
#    0.000    5.000    0.000    0.000    0.000    0.000 
#    0.000    0.000    0.000    0.000    0.000    0.000 
#
# Total GULP energy -66885.556409 kJ/mol
# GULP energy per Si atom -5573.796367 kJ/mol
# Density = 2.263670 g / cm^3
# Si number density = 22.688338 Si / 1000 Ang^3
#
#
#
# Elastic Constant Matrix: (Units=GPa)
#
#
# Indices 1 2 3 4 5 6 
#
# 1 173.2149 44.8332 82.8307 1.7022 1.5326 35.2574
# 2 44.8332 86.5978 68.3832 24.7879 -7.6497 29.3465
# 3 82.8307 68.3832 166.8261 48.9109 -49.8735 -1.1819
# 4 1.7022 24.7879 48.9109 27.4441 10.2913 19.5189
# 5 1.5326 -7.6497 -49.8735 10.2913 37.4004 -16.5924
# 6 35.2574 29.3465 -1.1819 19.5189 -16.5924 18.9116
#
#
#
# Elastic Compliance Matrix: (Units=1/GPa)
#
#
# Indices 1 2 3 4 5 6 
#
# 1 0.005139 -0.003734 0.001503 -0.004280 0.004143 0.004360
# 2 -0.003734 0.020716 -0.000834 -0.014905 0.004925 -0.005531
# 3 0.001503 -0.000834 0.002308 0.006586 -0.004238 -0.011880
# 4 -0.004280 -0.014905 0.006586 0.017715 0.011310 0.023160
# 5 0.004143 0.004925 -0.004238 0.011310 0.010968 -0.017681
# 6 0.004360 -0.005531 -0.011880 0.023160 -0.017681 0.013173
#
#
# Mechanical properties :
#
#
# Convention : Reuss Voigt Hill
#
# Bulk Modulus (GPa) = 45.38855 90.97033 68.17944
# Shear Modulus (GPa) = 59.88658 32.12398 46.00528
#
# Velocity S-wave (km/s) = 5.14321 3.76690 4.50789
# Velocity P-wave (km/s) = 7.43766 7.68779 7.56376
#
# Compressibility (1/GPa) = 0.02203199
#
# Stress axis : x y z
#
# Youngs Moduli (GPa) = 194.60391 48.27271 433.34913
#
# Poissons Ratio (x) = 0.18026 -0.65150
# Poissons Ratio (y) = 0.72668 0.36151
# Poissons Ratio (z) = -0.29257 0.04027
#
# Static dielectric constant tensor:
#      x y z
#    x 1.876000 -0.021680 -0.069760 
#    y -0.021680 1.971910 -0.077840 
#    z -0.069760 -0.077840 1.847930 
# 
# From -- ./inp_files/509948.got.cif
#   From: 2010.05.17/outbox.cif.g08.bks.cpg/sg2_255_cif.got.tgz:509948.got - 2010.06.03 11:33:40.
