data_PCOD9098355
_publ_section_title
;
Structure prediction by ZEFSAII (Michael W. Deem and Ramdas Pophale) SiO2 
 PCOD9098355
Probable space group: P -1
;
_chemical_formula_sum "Si O2"
_cell_formula_units_Z 16
_cell_length_a 14.427113
_cell_length_b 9.488505
_cell_length_c 10.946868
_cell_angle_alpha 120.565815
_cell_angle_beta 44.795702
_cell_angle_gamma 88.655987
_cell_volume 703.443064
_symmetry_space_group_name_H-M "P -1"
_symmetry_group_IT_number 2
_symmetry_cell_setting 'triclinic'
loop_
_space_group_symop_operation_xyz
x,y,z
-x,-y,-z
loop_
_atom_site_type_symbol
_atom_site_label
_atom_site_fract_x
_atom_site_fract_y
_atom_site_fract_z
Si Si1 0.054326 0.622235 0.074011
Si Si2 0.582085 0.407271 0.695965
Si Si3 0.456467 0.974258 0.219401
Si Si4 0.686825 0.823226 0.303356
Si Si5 0.042785 0.152133 0.487862
Si Si6 0.590025 0.172235 0.046182
Si Si7 0.902629 0.936996 0.138295
Si Si8 0.708677 0.528280 0.838024
O O1 0.951392 0.748361 0.348159
O O2 0.243426 0.418030 0.854518
O O3 0.017344 0.795483 0.086742
O O4 0.000000 0.500000 0.000000
O O5 0.718400 0.164042 0.431526
O O6 0.690522 0.453565 0.692476
O O7 0.489042 0.587016 0.758896
O O8 0.431748 0.448881 0.935149
O O9 0.336969 0.091024 0.497997
O O10 0.405591 0.876793 0.125034
O O11 0.474987 0.129697 0.200775
O O12 0.642440 0.765429 0.996139
O O13 0.500000 0.000000 0.500000
O O14 0.835555 0.813596 0.095399
O O15 0.892154 0.350427 0.639790
O O16 0.000000 0.000000 0.500000
O O17 0.213915 0.004856 0.184376
O O18 0.000000 0.000000 0.000000
#
# Coordination Sequence:
#
# PCOD9098355 Si02
#       8
#     2   2   2   2   2   2   2   2
#     4  10  24  42  65  94 131 179 215 264 331 398
#     4  10  20  39  62  88 125 165 210 256 334 380
#     4  10  21  41  63  87 125 170 218 254 325 394
#     4  11  23  44  66  90 129 178 219 267 331 400
#     4  12  22  39  66 102 131 160 218 274 332 374
#     4  10  22  37  65  94 121 166 211 274 315 392
#     4  11  24  43  64  91 126 172 226 269 318 395
#     4  10  20  36  65  90 122 168 204 264 323 390
#
# _framework density 22.745266999999998
#
# number of rings (size 3 to 8) (size 9 to 14) (size 15 to 20)
#    0.000    1.500    2.500    3.000    3.500    0.500 
#   11.250    0.625    0.000    0.000    0.000    0.000 
#    0.000    0.000    0.000    0.000    0.000    0.000 
#
# Total GULP energy -89245.341147 kJ/mol
# GULP energy per Si atom -5577.833822 kJ/mol
# Density = 2.269350 g / cm^3
# Si number density = 22.745267 Si / 1000 Ang^3
#
#
#
# Elastic Constant Matrix: (Units=GPa)
#
#
# Indices 1 2 3 4 5 6 
#
# 1 54.3972 5.1047 12.9834 3.3506 -10.2540 -6.5674
# 2 5.1047 114.4092 42.7050 28.4564 -12.4387 -6.3567
# 3 12.9834 42.7050 85.0637 32.3683 -21.1889 -10.5129
# 4 3.3506 28.4564 32.3683 46.5498 -4.8207 -12.1144
# 5 -10.2540 -12.4387 -21.1889 -4.8207 35.1074 15.3817
# 6 -6.5674 -6.3567 -10.5129 -12.1144 15.3817 25.7594
#
#
#
# Elastic Compliance Matrix: (Units=1/GPa)
#
#
# Indices 1 2 3 4 5 6 
#
# 1 0.019827 0.000251 -0.002400 0.001124 0.003442 0.002611
# 2 0.000251 0.011405 -0.003667 -0.004780 0.002200 -0.002179
# 3 -0.002400 -0.003667 0.020769 -0.012308 0.011284 -0.005567
# 4 0.001124 -0.004780 -0.012308 0.036409 -0.011788 0.018246
# 5 0.003442 0.002200 0.011284 -0.011788 0.047739 -0.028025
# 6 0.002611 -0.002179 -0.005567 0.018246 -0.028025 0.061992
#
#
# Mechanical properties :
#
#
# Convention : Reuss Voigt Hill
#
# Bulk Modulus (GPa) = 24.77093 41.71738 33.24415
# Shear Modulus (GPa) = 22.39844 34.35512 28.37678
#
# Velocity S-wave (km/s) = 3.14148 3.89064 3.53596
# Velocity P-wave (km/s) = 4.90640 6.20997 5.59627
#
# Compressibility (1/GPa) = 0.04036991
#
# Stress axis : x y z
#
# Youngs Moduli (GPa) = 50.43537 87.68174 48.14861
#
# Poissons Ratio (x) = -0.02199 0.11555
# Poissons Ratio (y) = -0.01265 0.17654
# Poissons Ratio (z) = 0.12104 0.32149
#
# Static dielectric constant tensor:
#      x y z
#    x 2.031610 0.020240 -0.012680 
#    y 0.020240 1.928450 0.066190 
#    z -0.012680 0.066190 1.875350 
# 
# From -- ./inp_files/240285.got.cif
#   From: 2010.05.17/outbox.cif.g08.bks.cpg/sg2_121_cif.got.tgz:240285.got - 2010.06.03 11:33:40.
