data_PCOD9098092
_publ_section_title
;
Structure prediction by ZEFSAII (Michael W. Deem and Ramdas Pophale) SiO2 
 PCOD9098092
Probable space group: P -1
;
_chemical_formula_sum "Si O2"
_cell_formula_units_Z 16
_cell_length_a 18.643062
_cell_length_b 13.297586
_cell_length_c 21.754701
_cell_angle_alpha 161.121406
_cell_angle_beta 26.233493
_cell_angle_gamma 151.824472
_cell_volume 750.852358
_symmetry_space_group_name_H-M "P -1"
_symmetry_group_IT_number 2
_symmetry_cell_setting 'triclinic'
loop_
_space_group_symop_operation_xyz
x,y,z
-x,-y,-z
loop_
_atom_site_type_symbol
_atom_site_label
_atom_site_fract_x
_atom_site_fract_y
_atom_site_fract_z
Si Si1 0.303659 0.025968 0.580698
Si Si2 0.552324 0.564147 0.738848
Si Si3 0.121100 0.438501 0.446065
Si Si4 0.782442 0.955256 0.965540
Si Si5 0.251660 0.634376 0.275805
Si Si6 0.065855 0.493213 0.017034
Si Si7 0.563657 0.878231 0.687658
Si Si8 0.693835 0.054671 0.816046
O O1 0.482205 0.195656 0.566906
O O2 0.185210 0.810752 0.596690
O O3 0.327602 0.801800 0.377130
O O4 0.209954 0.294673 0.785736
O O5 0.731257 0.644809 0.677479
O O6 0.573729 0.760571 0.773114
O O7 0.411458 0.672433 0.949353
O O8 0.126346 0.246885 0.267980
O O9 0.943380 0.357129 0.567344
O O10 0.746397 0.739305 0.930400
O O11 0.610102 0.012379 0.104052
O O12 0.912943 0.294590 0.060379
O O13 0.344700 0.865819 0.285502
O O14 0.152976 0.795541 0.168673
O O15 0.000000 0.500000 0.000000
O O16 0.500000 0.500000 0.500000
O O17 0.693922 0.928461 0.673639
#
# Coordination Sequence:
#
# PCOD9098092 Si02
#       8
#     2   2   2   2   2   2   2   2
#     4  10  20  36  63  99 125 161 219 267 324 390
#     4  10  20  36  63  93 129 160 210 280 328 373
#     4  11  19  39  67  98 124 162 224 268 325 382
#     4  11  22  43  66  95 128 176 221 268 326 384
#     4  11  23  42  64  98 131 170 215 267 328 398
#     4  11  22  37  71 100 128 164 218 278 330 372
#     4  12  27  44  66  92 136 179 220 265 327 392
#     4  10  23  40  59  97 131 167 218 267 328 390
#
# _framework density 21.309118000000002
#
# number of rings (size 3 to 8) (size 9 to 14) (size 15 to 20)
#    0.000    1.250    3.750    3.000    5.250    0.000 
#    0.000    4.375    0.000    0.000    0.000    0.000 
#    0.000    0.000    0.000    0.000    0.000    0.000 
#
# Total GULP energy -89105.247693 kJ/mol
# GULP energy per Si atom -5569.077981 kJ/mol
# Density = 2.126062 g / cm^3
# Si number density = 21.309118 Si / 1000 Ang^3
#
#
#
# Elastic Constant Matrix: (Units=GPa)
#
#
# Indices 1 2 3 4 5 6 
#
# 1 103.0700 53.5408 23.1564 19.6383 5.4650 8.5142
# 2 53.5408 144.6598 24.1152 27.7403 15.0535 13.8242
# 3 23.1564 24.1152 35.5724 11.4202 -3.6426 2.8796
# 4 19.6383 27.7403 11.4202 28.7485 7.7684 -1.4700
# 5 5.4650 15.0535 -3.6426 7.7684 26.5132 5.4144
# 6 8.5142 13.8242 2.8796 -1.4700 5.4144 32.1981
#
#
#
# Elastic Compliance Matrix: (Units=1/GPa)
#
#
# Indices 1 2 3 4 5 6 
#
# 1 0.013442 -0.003119 -0.005135 -0.004212 -0.000076 -0.001936
# 2 -0.003119 0.010362 -0.003217 -0.005841 -0.003350 -0.003040
# 3 -0.005135 -0.003217 0.039255 -0.012585 0.012676 -0.003478
# 4 -0.004212 -0.005841 -0.012585 0.052847 -0.015006 0.009683
# 5 -0.000076 -0.003350 0.012676 -0.015006 0.047477 -0.008344
# 6 -0.001936 -0.003040 -0.003478 0.009683 -0.008344 0.035031
#
#
# Mechanical properties :
#
#
# Convention : Reuss Voigt Hill
#
# Bulk Modulus (GPa) = 24.92587 53.88077 39.40332
# Shear Modulus (GPa) = 21.30114 29.65796 25.47955
#
# Velocity S-wave (km/s) = 3.16512 3.73473 3.46166
# Velocity P-wave (km/s) = 5.00799 6.62856 5.87442
#
# Compressibility (1/GPa) = 0.04011896
#
# Stress axis : x y z
#
# Youngs Moduli (GPa) = 74.39227 96.50215 25.47436
#
# Poissons Ratio (x) = 0.30094 0.13082
# Poissons Ratio (y) = 0.23199 0.08194
# Poissons Ratio (z) = 0.38203 0.31041
#
# Static dielectric constant tensor:
#      x y z
#    x 1.833820 -0.006590 -0.001140 
#    y -0.006590 1.809440 0.054790 
#    z -0.001140 0.054790 1.836680 
# 
# From -- ./inp_files/405668.got.cif
#   From: 2010.05.17/outbox.cif.g08.bks.cpg/sg2_203_cif.got.tgz:405668.got - 2010.06.03 11:33:40.
