data_PCOD9098178
_publ_section_title
;
Structure prediction by ZEFSAII (Michael W. Deem and Ramdas Pophale) SiO2 
 PCOD9098178
Probable space group: P -1
;
_chemical_formula_sum "Si O2"
_cell_formula_units_Z 16
_cell_length_a 14.289479
_cell_length_b 9.531832
_cell_length_c 14.565920
_cell_angle_alpha 29.731765
_cell_angle_beta 130.003831
_cell_angle_gamma 124.834936
_cell_volume 753.243010
_symmetry_space_group_name_H-M "P -1"
_symmetry_group_IT_number 2
_symmetry_cell_setting 'triclinic'
loop_
_space_group_symop_operation_xyz
x,y,z
-x,-y,-z
loop_
_atom_site_type_symbol
_atom_site_label
_atom_site_fract_x
_atom_site_fract_y
_atom_site_fract_z
Si Si1 0.639012 0.912720 0.440452
Si Si2 0.537431 0.139523 0.067259
Si Si3 0.807490 0.492820 0.470597
Si Si4 0.464999 0.705218 0.597078
Si Si5 0.858744 0.162719 0.522308
Si Si6 0.989626 0.677168 0.638189
Si Si7 0.707596 0.068651 0.048142
Si Si8 0.866170 0.581403 0.784814
O O1 0.713351 0.110036 0.448243
O O2 0.544560 0.713699 0.549371
O O3 0.750362 0.728027 0.577501
O O4 0.577226 0.098160 0.219588
O O5 0.503843 0.448501 0.833264
O O6 0.650807 0.054875 0.122503
O O7 0.416274 0.943717 0.083165
O O8 0.676690 0.338277 0.493123
O O9 0.882305 0.305441 0.553120
O O10 0.878023 0.584195 0.554518
O O11 0.778043 0.784592 0.235434
O O12 0.500000 0.000000 0.500000
O O13 0.901245 0.334595 0.360382
O O14 0.912126 0.847611 0.725179
O O15 0.966327 0.506467 0.815004
O O16 0.000000 0.000000 0.500000
O O17 0.800293 0.330936 0.941394
#
# Coordination Sequence:
#
# PCOD9098178 Si02
#       8
#     2   2   2   2   2   2   2   2
#     4  10  20  36  64  85 126 162 200 244 311 361
#     4  10  21  36  57  91 127 165 198 253 300 372
#     4  11  22  38  63  88 126 161 199 265 307 358
#     4  11  21  39  59  96 129 160 205 243 312 378
#     4   9  20  40  61  85 119 165 209 250 308 367
#     4  10  21  39  64  89 113 162 220 251 307 366
#     4  10  21  36  56  91 125 153 210 253 306 369
#     4   9  19  38  60  86 120 157 210 248 300 368
#
# _framework density 21.241485000000001
#
# number of rings (size 3 to 8) (size 9 to 14) (size 15 to 20)
#    0.750    1.250    2.500    1.125    1.750    1.000 
#    0.000    3.125    2.750    0.000    0.000    0.000 
#    0.000    0.000    0.000    0.000    0.000    0.000 
#
# Total GULP energy -89133.293281 kJ/mol
# GULP energy per Si atom -5570.830830 kJ/mol
# Density = 2.119314 g / cm^3
# Si number density = 21.241485 Si / 1000 Ang^3
#
#
#
# Elastic Constant Matrix: (Units=GPa)
#
#
# Indices 1 2 3 4 5 6 
#
# 1 90.7433 34.4819 12.0333 -13.9470 -13.3872 7.5181
# 2 34.4819 114.7158 33.1436 -7.4529 -5.3090 -4.5315
# 3 12.0333 33.1436 43.4619 -5.6140 -11.6967 9.6928
# 4 -13.9470 -7.4529 -5.6140 27.8682 -2.6063 -1.8898
# 5 -13.3872 -5.3090 -11.6967 -2.6063 13.6761 -5.8798
# 6 7.5181 -4.5315 9.6928 -1.8898 -5.8798 28.3848
#
#
#
# Elastic Compliance Matrix: (Units=1/GPa)
#
#
# Indices 1 2 3 4 5 6 
#
# 1 0.017294 -0.005783 0.007491 0.010471 0.021868 -0.002835
# 2 -0.005783 0.013937 -0.013210 -0.002281 -0.009324 0.006184
# 3 0.007491 -0.013210 0.045425 0.012263 0.038767 -0.010758
# 4 0.010471 -0.002281 0.012263 0.045853 0.029369 0.001812
# 5 0.021868 -0.009324 0.038767 0.029369 0.133574 0.009106
# 6 -0.002835 0.006184 -0.010758 0.001812 0.009106 0.042649
#
#
# Mechanical properties :
#
#
# Convention : Reuss Voigt Hill
#
# Bulk Modulus (GPa) = 18.63817 45.35985 31.99901
# Shear Modulus (GPa) = 14.72240 25.26997 19.99618
#
# Velocity S-wave (km/s) = 2.63553 3.45287 3.07151
# Velocity P-wave (km/s) = 4.24910 6.10714 5.26080
#
# Compressibility (1/GPa) = 0.05365332
#
# Stress axis : x y z
#
# Youngs Moduli (GPa) = 57.82241 71.75368 22.01444
#
# Poissons Ratio (x) = 0.41492 -0.16492
# Poissons Ratio (y) = 0.33436 0.29081
# Poissons Ratio (z) = -0.43317 0.94787
#
# Static dielectric constant tensor:
#      x y z
#    x 1.812540 -0.013720 0.015230 
#    y -0.013720 1.807320 -0.003270 
#    z 0.015230 -0.003270 1.784390 
# 
# From -- ./inp_files/528042.got.cif
#   From: 2010.05.17/outbox.cif.g08.bks.cpg/sg2_265_cif.got.tgz:528042.got - 2010.06.03 11:33:40.
