data_PCOD9098902
_publ_section_title
;
Structure prediction by ZEFSAII (Michael W. Deem and Ramdas Pophale) SiO2 
 PCOD9098902
Probable space group: P -1
;
_chemical_formula_sum "Si O2"
_cell_formula_units_Z 14
_cell_length_a 6.568977
_cell_length_b 15.470444
_cell_length_c 14.202880
_cell_angle_alpha 151.454455
_cell_angle_beta 82.079510
_cell_angle_gamma 108.865882
_cell_volume 617.592068
_symmetry_space_group_name_H-M "P -1"
_symmetry_group_IT_number 2
_symmetry_cell_setting 'triclinic'
loop_
_space_group_symop_operation_xyz
x,y,z
-x,-y,-z
loop_
_atom_site_type_symbol
_atom_site_label
_atom_site_fract_x
_atom_site_fract_y
_atom_site_fract_z
Si Si1 0.018013 0.184279 0.847147
Si Si2 0.936533 0.582099 0.269823
Si Si3 0.274430 0.278867 0.240899
Si Si4 0.854164 0.065559 0.941912
Si Si5 0.463389 0.605228 0.010525
Si Si6 0.783107 0.462634 0.360787
Si Si7 0.240552 0.852981 0.353270
O O1 0.901452 0.096896 0.670558
O O2 0.284782 0.233426 0.878159
O O3 0.010723 0.399531 0.073359
O O4 0.873892 0.048850 0.812949
O O5 0.936007 0.601836 0.400937
O O6 0.101646 0.768416 0.376168
O O7 0.681058 0.524497 0.191781
O O8 0.519336 0.412682 0.312590
O O9 0.171488 0.418990 0.430703
O O10 0.106709 0.140333 0.040513
O O11 0.294196 0.135684 0.185060
O O12 0.789113 0.247876 0.145047
O O13 0.283520 0.680595 0.133327
O O14 0.500000 0.500000 0.000000
O O15 0.500000 0.000000 0.500000
#
# Coordination Sequence:
#
# PCOD9098902 Si02
#       7
#     2   2   2   2   2   2   2
#     4  10  20  38  60  84 112 157 194 224 289 350
#     4  10  20  37  58  84 115 152 193 232 281 351
#     4  10  21  39  59  89 116 147 198 241 292 352
#     4  10  21  38  62  86 117 153 190 243 294 344
#     4  11  18  36  61  77 108 157 191 224 276 341
#     4  10  21  38  61  85 117 153 191 241 294 344
#     4  11  23  37  53  86 123 146 187 242 285 335
#
# _framework density 22.668683999999999
#
# number of rings (size 3 to 8) (size 9 to 14) (size 15 to 20)
#    0.000    1.714    2.857    2.571    0.000    1.714 
#    2.571    7.143    0.000    0.000    0.000    0.000 
#    0.000    0.000    0.000    0.000    0.000    0.000 
#
# Total GULP energy -78117.451587 kJ/mol
# GULP energy per Si atom -5579.817970 kJ/mol
# Density = 2.261709 g / cm^3
# Si number density = 22.668684 Si / 1000 Ang^3
#
#
#
# Elastic Constant Matrix: (Units=GPa)
#
#
# Indices 1 2 3 4 5 6 
#
# 1 76.8858 28.7673 6.8589 2.1663 4.0774 12.7306
# 2 28.7673 112.4046 21.4753 5.4701 -12.0979 26.2256
# 3 6.8589 21.4753 35.4277 6.8917 -5.5702 4.1216
# 4 2.1663 5.4701 6.8917 18.1227 2.1209 -4.1476
# 5 4.0774 -12.0979 -5.5702 2.1209 39.5119 8.5467
# 6 12.7306 26.2256 4.1216 -4.1476 8.5467 23.7873
#
#
#
# Elastic Compliance Matrix: (Units=1/GPa)
#
#
# Indices 1 2 3 4 5 6 
#
# 1 0.014966 -0.002650 -0.000605 -0.001707 -0.001309 -0.004810
# 2 -0.002650 0.017001 -0.003747 -0.009630 0.010233 -0.022032
# 3 -0.000605 -0.003747 0.035055 -0.014257 0.005975 -0.006251
# 4 -0.001707 -0.009630 -0.014257 0.072955 -0.015698 0.032361
# 5 -0.001309 0.010233 0.005975 -0.015698 0.036179 -0.027353
# 6 -0.004810 -0.022032 -0.006251 0.032361 -0.027353 0.085457
#
#
# Mechanical properties :
#
#
# Convention : Reuss Voigt Hill
#
# Bulk Modulus (GPa) = 18.86189 37.65790 28.25990
# Shear Modulus (GPa) = 17.04795 27.45882 22.25339
#
# Velocity S-wave (km/s) = 2.74533 3.48416 3.13658
# Velocity P-wave (km/s) = 4.28810 5.73012 5.06073
#
# Compressibility (1/GPa) = 0.05301694
#
# Stress axis : x y z
#
# Youngs Moduli (GPa) = 66.81906 58.82062 28.52640
#
# Poissons Ratio (x) = 0.15588 0.01727
# Poissons Ratio (y) = 0.17708 0.10689
# Poissons Ratio (z) = 0.04045 0.22041
#
# Static dielectric constant tensor:
#      x y z
#    x 1.948420 -0.062560 -0.159990 
#    y -0.062560 1.864910 0.008440 
#    z -0.159990 0.008440 2.210950 
# 
# From -- ./inp_files/38867.got.cif
#   From: 2010.05.17/outbox.cif.g08.bks.cpg/sg2_20_cif.got.tgz:38867.got - 2010.06.03 11:33:40.
