data_PCOD9098637
_publ_section_title
;
Structure prediction by ZEFSAII (Michael W. Deem and Ramdas Pophale) SiO2 
 PCOD9098637
Probable space group: P -1
;
_chemical_formula_sum "Si O2"
_cell_formula_units_Z 14
_cell_length_a 14.812100
_cell_length_b 9.756994
_cell_length_c 9.079663
_cell_angle_alpha 46.792572
_cell_angle_beta 100.772867
_cell_angle_gamma 132.385784
_cell_volume 607.633270
_symmetry_space_group_name_H-M "P -1"
_symmetry_group_IT_number 2
_symmetry_cell_setting 'triclinic'
loop_
_space_group_symop_operation_xyz
x,y,z
-x,-y,-z
loop_
_atom_site_type_symbol
_atom_site_label
_atom_site_fract_x
_atom_site_fract_y
_atom_site_fract_z
Si Si1 0.343101 0.731296 0.581878
Si Si2 0.888729 0.100654 0.354652
Si Si3 0.655977 0.168409 0.944659
Si Si4 0.954571 0.134176 0.666106
Si Si5 0.176525 0.577503 0.911790
Si Si6 0.208875 0.827411 0.252893
Si Si7 0.781705 0.680333 0.401830
O O1 0.227432 0.533092 0.823355
O O2 0.293161 0.839171 0.394769
O O3 0.325474 0.533842 0.605030
O O4 0.500000 0.000000 0.500000
O O5 0.888852 0.992005 0.589562
O O6 0.857939 0.266246 0.267164
O O7 0.786736 0.874958 0.357130
O O8 0.042543 0.322797 0.161729
O O9 0.695000 0.042134 0.958662
O O10 0.749824 0.475848 0.668904
O O11 0.691972 0.206895 0.096251
O O12 0.500000 0.000000 0.000000
O O13 0.837247 0.037616 0.810286
O O14 0.064511 0.484028 0.427438
O O15 0.060408 0.131493 0.745697
#
# Coordination Sequence:
#
# PCOD9098637 Si02
#       7
#     2   2   2   2   2   2   2
#     4  10  20  37  55  79 113 154 190 226 279 343
#     4  11  21  35  58  89 118 139 187 245 288 328
#     4  10  20  37  58  82 109 151 198 226 264 342
#     4   9  16  32  57  80 109 140 186 226 277 340
#     4  11  21  34  60  86 114 146 187 238 286 326
#     4   9  17  32  56  83 103 152 187 220 281 338
#     4  10  22  37  60  83 112 154 186 231 290 333
#
# _framework density 23.040212
#
# number of rings (size 3 to 8) (size 9 to 14) (size 15 to 20)
#    0.000    2.286    4.286    2.143    0.000    0.571 
#    0.000    2.857    0.000    0.857    0.000    0.000 
#    0.000    0.000    0.000    0.000    0.000    0.000 
#
# Total GULP energy -78104.040624 kJ/mol
# GULP energy per Si atom -5578.860045 kJ/mol
# Density = 2.298777 g / cm^3
# Si number density = 23.040212 Si / 1000 Ang^3
#
#
#
# Elastic Constant Matrix: (Units=GPa)
#
#
# Indices 1 2 3 4 5 6 
#
# 1 60.6157 32.0798 2.3834 -4.7153 -7.4566 -4.3965
# 2 32.0798 144.9107 2.7847 19.3123 -9.8088 5.7539
# 3 2.3834 2.7847 27.9589 10.5383 -7.9276 2.3017
# 4 -4.7153 19.3123 10.5383 26.4401 2.0930 -1.0424
# 5 -7.4566 -9.8088 -7.9276 2.0930 23.4077 11.1384
# 6 -4.3965 5.7539 2.3017 -1.0424 11.1384 44.5340
#
#
#
# Elastic Compliance Matrix: (Units=1/GPa)
#
#
# Indices 1 2 3 4 5 6 
#
# 1 0.020983 -0.006113 -0.005564 0.010592 -0.000369 0.003489
# 2 -0.006113 0.010482 0.006745 -0.012250 0.008012 -0.004597
# 3 -0.005564 0.006745 0.056521 -0.031213 0.028832 -0.012284
# 4 0.010592 -0.012250 -0.031213 0.063419 -0.023525 0.011610
# 5 -0.000369 0.008012 0.028832 -0.023525 0.067322 -0.019950
# 6 0.003489 -0.004597 -0.012284 0.011610 -0.019950 0.029290
#
#
# Mechanical properties :
#
#
# Convention : Reuss Voigt Hill
#
# Bulk Modulus (GPa) = 12.80081 34.22012 23.51046
# Shear Modulus (GPa) = 17.61048 31.95885 24.78466
#
# Velocity S-wave (km/s) = 2.76766 3.72841 3.28337
# Velocity P-wave (km/s) = 3.97256 5.78094 4.95986
#
# Compressibility (1/GPa) = 0.07812008
#
# Stress axis : x y z
#
# Youngs Moduli (GPa) = 47.65727 95.40160 17.69268
#
# Poissons Ratio (x) = 0.58323 0.09845
# Poissons Ratio (y) = 0.29135 -0.11933
# Poissons Ratio (z) = 0.26517 -0.64346
#
# Static dielectric constant tensor:
#      x y z
#    x 1.891540 -0.058160 0.015430 
#    y -0.058160 1.916390 -0.058320 
#    z 0.015430 -0.058320 1.975910 
# 
# From -- ./inp_files/201372.got.cif
#   From: 2010.05.17/outbox.cif.g08.bks.cpg/sg2_101_cif.got.tgz:201372.got - 2010.06.03 11:33:40.
