data_PCOD9098950
_publ_section_title
;
Structure prediction by ZEFSAII (Michael W. Deem and Ramdas Pophale) SiO2 
 PCOD9098950
Probable space group: P -1
;
_chemical_formula_sum "Si O2"
_cell_formula_units_Z 16
_cell_length_a 8.537755
_cell_length_b 8.148105
_cell_length_c 16.319602
_cell_angle_alpha 93.465357
_cell_angle_beta 67.072648
_cell_angle_gamma 50.263260
_cell_volume 723.235846
_symmetry_space_group_name_H-M "P -1"
_symmetry_group_IT_number 2
_symmetry_cell_setting 'triclinic'
loop_
_space_group_symop_operation_xyz
x,y,z
-x,-y,-z
loop_
_atom_site_type_symbol
_atom_site_label
_atom_site_fract_x
_atom_site_fract_y
_atom_site_fract_z
Si Si1 0.748038 0.127557 0.605136
Si Si2 0.160386 0.879689 0.802033
Si Si3 0.236655 0.178404 0.858968
Si Si4 0.768311 0.713488 0.792665
Si Si5 0.065733 0.640300 0.502185
Si Si6 0.061949 0.290352 0.084850
Si Si7 0.244717 0.587355 0.637449
Si Si8 0.702430 0.431284 0.722765
O O1 0.497401 0.344566 0.617079
O O2 0.748337 0.204859 0.698560
O O3 0.000000 0.000000 0.500000
O O4 0.799406 0.900928 0.585762
O O5 0.201333 0.793407 0.696879
O O6 0.414335 0.661488 0.789980
O O7 0.985793 0.862177 0.877259
O O8 0.124286 0.099245 0.829936
O O9 0.157653 0.417666 0.853796
O O10 0.528788 0.943245 0.799873
O O11 0.133997 0.233893 0.974089
O O12 0.738048 0.772857 0.896343
O O13 0.808885 0.490997 0.763277
O O14 0.014170 0.635531 0.712580
O O15 0.238666 0.575476 0.540402
O O16 0.196772 0.593960 0.388953
O O17 0.000000 0.500000 0.500000
#
# Coordination Sequence:
#
# PCOD9098950 Si02
#       8
#     2   2   2   2   2   2   2   2
#     4   9  21  37  54  78 113 151 194 246 292 341
#     4   9  20  38  59  86 122 153 196 247 294 351
#     4  10  21  39  63  89 119 155 196 245 302 361
#     4  10  20  37  58  87 122 151 198 250 293 353
#     4  11  21  37  58  83 115 156 199 242 288 345
#     4  10  21  38  62  90 118 157 197 238 307 362
#     4  10  21  37  59  85 116 157 202 237 298 350
#     4   9  19  38  54  82 118 152 195 242 292 343
#
# _framework density 22.122796000000001
#
# number of rings (size 3 to 8) (size 9 to 14) (size 15 to 20)
#    0.000    2.250    1.250    0.750    0.000    9.000 
#    0.000    3.750    0.000   13.500    0.000    0.000 
#    0.000    0.000    0.000    0.000    0.000    0.000 
#
# Total GULP energy -89096.863735 kJ/mol
# GULP energy per Si atom -5568.553983 kJ/mol
# Density = 2.207244 g / cm^3
# Si number density = 22.122796 Si / 1000 Ang^3
#
#
#
# Elastic Constant Matrix: (Units=GPa)
#
#
# Indices 1 2 3 4 5 6 
#
# 1 130.4142 38.4889 44.2114 15.3651 34.2347 5.2688
# 2 38.4889 92.2800 25.9965 21.3797 7.4718 -8.6558
# 3 44.2114 25.9965 75.0972 11.3430 20.5662 5.9198
# 4 15.3651 21.3797 11.3430 30.8256 1.4351 9.3333
# 5 34.2347 7.4718 20.5662 1.4351 37.3257 8.4803
# 6 5.2688 -8.6558 5.9198 9.3333 8.4803 32.5199
#
#
#
# Elastic Compliance Matrix: (Units=1/GPa)
#
#
# Indices 1 2 3 4 5 6 
#
# 1 0.012283 -0.002622 -0.003520 -0.002934 -0.008945 0.001128
# 2 -0.002622 0.016309 -0.002806 -0.011607 -0.000875 0.008836
# 3 -0.003520 -0.002806 0.018472 -0.002431 -0.006005 -0.001276
# 4 -0.002934 -0.011607 -0.002431 0.047952 0.008642 -0.018188
# 5 -0.008945 -0.000875 -0.006005 0.008642 0.040591 -0.010756
# 6 0.001128 0.008836 -0.001276 -0.018188 -0.010756 0.041177
#
#
# Mechanical properties :
#
#
# Convention : Reuss Voigt Hill
#
# Bulk Modulus (GPa) = 34.28287 57.24279 45.76283
# Shear Modulus (GPa) = 24.46163 32.74056 28.60109
#
# Velocity S-wave (km/s) = 3.32885 3.85118 3.59950
# Velocity P-wave (km/s) = 5.50502 6.76067 6.16490
#
# Compressibility (1/GPa) = 0.02916909
#
# Stress axis : x y z
#
# Youngs Moduli (GPa) = 81.41221 61.31433 54.13681
#
# Poissons Ratio (x) = 0.16076 0.19055
# Poissons Ratio (y) = 0.21345 0.15191
# Poissons Ratio (z) = 0.28655 0.17205
#
# Static dielectric constant tensor:
#      x y z
#    x 2.507080 0.329390 0.179770 
#    y 0.329390 2.124930 0.021900 
#    z 0.179770 0.021900 1.926300 
# 
# From -- ./inp_files/557306.got.cif
#   From: 2010.05.17/outbox.cif.g08.bks.cpg/sg2_279_cif.got.tgz:557306.got - 2010.06.03 11:33:40.
