data_PCOD9098329
_publ_section_title
;
Structure prediction by ZEFSAII (Michael W. Deem and Ramdas Pophale) SiO2 
 PCOD9098329
Probable space group: P -1
;
_chemical_formula_sum "Si O2"
_cell_formula_units_Z 16
_cell_length_a 15.942173
_cell_length_b 7.076079
_cell_length_c 10.797197
_cell_angle_alpha 44.958576
_cell_angle_beta 58.470261
_cell_angle_gamma 85.905728
_cell_volume 637.047020
_symmetry_space_group_name_H-M "P -1"
_symmetry_group_IT_number 2
_symmetry_cell_setting 'triclinic'
loop_
_space_group_symop_operation_xyz
x,y,z
-x,-y,-z
loop_
_atom_site_type_symbol
_atom_site_label
_atom_site_fract_x
_atom_site_fract_y
_atom_site_fract_z
Si Si1 0.031690 0.604449 0.636553
Si Si2 0.449728 0.165633 0.626075
Si Si3 0.987997 0.073249 0.718875
Si Si4 0.816368 0.574214 0.262147
Si Si5 0.217241 0.693694 0.915944
Si Si6 0.403060 0.877592 0.030364
Si Si7 0.216199 0.194162 0.553852
Si Si8 0.340547 0.411651 0.831741
O O1 0.055725 0.882727 0.398447
O O2 0.001266 0.333285 0.685191
O O3 0.139894 0.646165 0.610527
O O4 0.912869 0.475401 0.861835
O O5 0.500000 0.500000 0.500000
O O6 0.531972 0.301998 0.382478
O O7 0.316318 0.967037 0.794542
O O8 0.462900 0.951845 0.816011
O O9 0.111859 0.123760 0.579905
O O10 0.912829 0.769803 0.995791
O O11 0.817128 0.759098 0.300865
O O12 0.706768 0.523577 0.291851
O O13 0.264691 0.461727 0.966742
O O14 0.229617 0.895169 0.690435
O O15 0.340972 0.088580 0.987381
O O16 0.319329 0.520157 0.284004
O O17 0.500000 0.000000 0.000000
#
# Coordination Sequence:
#
# PCOD9098329 Si02
#       8
#     2   2   2   2   2   2   2   2
#     4  10  21  36  65  97 132 177 219 272 316 382
#     4  10  22  42  66  91 120 170 219 264 319 391
#     4  10  20  36  64  99 124 174 235 270 305 376
#     4  11  21  41  63  96 135 177 226 261 318 391
#     4  12  22  43  65  97 134 169 215 268 339 385
#     4  11  23  42  68  97 123 167 228 271 320 395
#     4  11  20  38  68  95 126 172 226 274 313 381
#     4  11  26  41  65  95 135 172 208 275 337 390
#
# _framework density 25.115884999999999
#
# number of rings (size 3 to 8) (size 9 to 14) (size 15 to 20)
#    0.000    1.250    2.500    5.625    5.250    0.500 
#    0.000    6.875    0.000    0.000    0.000    0.000 
#    0.000    0.000    0.000    0.000    0.000    0.000 
#
# Total GULP energy -89287.297785 kJ/mol
# GULP energy per Si atom -5580.456112 kJ/mol
# Density = 2.505872 g / cm^3
# Si number density = 25.115885 Si / 1000 Ang^3
#
#
#
# Elastic Constant Matrix: (Units=GPa)
#
#
# Indices 1 2 3 4 5 6 
#
# 1 136.9171 15.0031 26.8653 -6.2785 17.7463 -7.1890
# 2 15.0031 83.2879 5.9240 -13.6563 -2.2465 -16.6677
# 3 26.8653 5.9240 131.6408 -24.6501 6.5326 -4.6162
# 4 -6.2785 -13.6563 -24.6501 29.6819 2.2141 -2.2859
# 5 17.7463 -2.2465 6.5326 2.2141 46.8476 1.6601
# 6 -7.1890 -16.6677 -4.6162 -2.2859 1.6601 29.5709
#
#
#
# Elastic Compliance Matrix: (Units=1/GPa)
#
#
# Indices 1 2 3 4 5 6 
#
# 1 0.008172 -0.001117 -0.001339 0.000433 -0.003031 0.001352
# 2 -0.001117 0.015415 0.001499 0.008804 0.000207 0.009320
# 3 -0.001339 0.001499 0.009586 0.008674 -0.001265 0.002758
# 4 0.000433 0.008804 0.008674 0.046081 -0.003490 0.010180
# 5 -0.003031 0.000207 -0.001265 -0.003490 0.022930 -0.002375
# 6 0.001352 0.009320 0.002758 0.010180 -0.002375 0.040750
#
#
# Mechanical properties :
#
#
# Convention : Reuss Voigt Hill
#
# Bulk Modulus (GPa) = 31.98875 49.71450 40.85163
# Shear Modulus (GPa) = 32.20257 41.49030 36.84643
#
# Velocity S-wave (km/s) = 3.58461 4.06883 3.83437
# Velocity P-wave (km/s) = 5.46779 6.47386 5.99198
#
# Compressibility (1/GPa) = 0.03126099
#
# Stress axis : x y z
#
# Youngs Moduli (GPa) = 122.36197 64.87008 104.31956
#
# Poissons Ratio (x) = 0.07247 0.13965
# Poissons Ratio (y) = 0.13670 -0.15641
# Poissons Ratio (z) = 0.16380 -0.09726
#
# Static dielectric constant tensor:
#      x y z
#    x 2.076010 -0.004990 -0.035630 
#    y -0.004990 2.190390 0.074700 
#    z -0.035630 0.074700 2.016770 
# 
# From -- ./inp_files/446618.got.cif
#   From: 2010.05.17/outbox.cif.g08.bks.cpg/sg2_224_cif.got.tgz:446618.got - 2010.06.03 11:33:40.
