data_PCOD9098933
_publ_section_title
;
Structure prediction by ZEFSAII (Michael W. Deem and Ramdas Pophale) SiO2 
 PCOD9098933
Probable space group: P -1
;
_chemical_formula_sum "Si O2"
_cell_formula_units_Z 12
_cell_length_a 15.381824
_cell_length_b 15.542209
_cell_length_c 7.463014
_cell_angle_alpha 70.095249
_cell_angle_beta 126.451877
_cell_angle_gamma 156.350419
_cell_volume 446.323982
_symmetry_space_group_name_H-M "P -1"
_symmetry_group_IT_number 2
_symmetry_cell_setting 'triclinic'
loop_
_space_group_symop_operation_xyz
x,y,z
-x,-y,-z
loop_
_atom_site_type_symbol
_atom_site_label
_atom_site_fract_x
_atom_site_fract_y
_atom_site_fract_z
Si Si1 0.168093 0.434155 0.262450
Si Si2 0.086875 0.169071 0.250616
Si Si3 0.625804 0.213107 0.816918
Si Si4 0.584170 0.140208 0.239295
Si Si5 0.589838 0.526306 0.898178
Si Si6 0.690678 0.427344 0.257960
O O1 0.238989 0.391701 0.308812
O O2 0.417067 0.713123 0.313797
O O3 0.167668 0.432477 0.477364
O O4 0.792089 0.151839 0.950662
O O5 0.266498 0.259220 0.566873
O O6 0.177527 0.224462 0.115790
O O7 0.701821 0.872546 0.009044
O O8 0.610140 0.178684 0.031596
O O9 0.380913 0.941644 0.624457
O O10 0.000000 0.500000 0.000000
O O11 0.757110 0.370929 0.359772
O O12 0.500000 0.500000 0.000000
O O13 0.772100 0.574633 0.117814
#
# Coordination Sequence:
#
# PCOD9098933 Si02
#       6
#     2   2   2   2   2   2
#     4  10  20  37  58  86 116 151 196 238 291 345
#     4  10  23  41  59  86 122 153 195 247 287 346
#     4   9  18  37  59  82 117 154 189 241 289 342
#     4   9  20  37  58  82 116 154 192 240 289 344
#     4  11  22  41  61  86 119 156 198 241 294 349
#     4  11  22  38  60  86 116 155 197 241 295 345
#
# _framework density 26.886296000000002
#
# number of rings (size 3 to 8) (size 9 to 14) (size 15 to 20)
#    0.000    2.000    1.667    1.500    0.000    2.667 
#    3.000    7.500    0.000    0.000    0.000    0.000 
#    0.000    0.000    0.000    0.000    0.000    0.000 
#
# Total GULP energy -67005.489553 kJ/mol
# GULP energy per Si atom -5583.790796 kJ/mol
# Density = 2.682510 g / cm^3
# Si number density = 26.886296 Si / 1000 Ang^3
#
#
#
# Elastic Constant Matrix: (Units=GPa)
#
#
# Indices 1 2 3 4 5 6 
#
# 1 101.3197 39.5536 32.5463 -5.5671 -6.2662 -15.0330
# 2 39.5536 138.5399 27.0368 -4.3353 -7.9108 -37.3559
# 3 32.5463 27.0368 98.3618 -20.4792 -6.4334 -11.1476
# 4 -5.5671 -4.3353 -20.4792 41.0928 -1.2454 -5.8711
# 5 -6.2662 -7.9108 -6.4334 -1.2454 42.8474 -11.4312
# 6 -15.0330 -37.3559 -11.1476 -5.8711 -11.4312 46.7638
#
#
#
# Elastic Compliance Matrix: (Units=1/GPa)
#
#
# Indices 1 2 3 4 5 6 
#
# 1 0.012096 -0.002337 -0.003060 0.000141 0.001318 0.001632
# 2 -0.002337 0.010658 -0.000485 0.001953 0.003975 0.008864
# 3 -0.003060 -0.000485 0.013230 0.006665 0.002505 0.003232
# 4 0.000141 0.001953 0.006665 0.029144 0.004340 0.007914
# 5 0.001318 0.003975 0.002505 0.004340 0.027848 0.011548
# 6 0.001632 0.008864 0.003232 0.007914 0.011548 0.033576
#
#
# Mechanical properties :
#
#
# Convention : Reuss Voigt Hill
#
# Bulk Modulus (GPa) = 41.28592 59.61052 50.44822
# Shear Modulus (GPa) = 34.15515 42.07978 38.11746
#
# Velocity S-wave (km/s) = 3.56807 3.96043 3.76936
# Velocity P-wave (km/s) = 5.68893 6.56756 6.14397
#
# Compressibility (1/GPa) = 0.02422133
#
# Stress axis : x y z
#
# Youngs Moduli (GPa) = 82.67068 93.82554 75.58424
#
# Poissons Ratio (x) = 0.21923 0.23127
# Poissons Ratio (y) = 0.19317 0.03668
# Poissons Ratio (z) = 0.25295 0.04554
#
# Static dielectric constant tensor:
#      x y z
#    x 2.227070 0.007990 0.017500 
#    y 0.007990 2.164130 -0.003490 
#    z 0.017500 -0.003490 2.053260 
# 
# From -- ./inp_files/4474.got.cif
#   From: 2010.05.17/outbox.cif.g08.bks.cpg/sg2_3_cif.got.tgz:4474.got - 2010.06.03 11:33:40.
