data_PCOD9098852
_publ_section_title
;
Structure prediction by ZEFSAII (Michael W. Deem and Ramdas Pophale) SiO2 
 PCOD9098852
Probable space group: P -1
;
_chemical_formula_sum "Si O2"
_cell_formula_units_Z 12
_cell_length_a 8.757568
_cell_length_b 10.127193
_cell_length_c 11.690884
_cell_angle_alpha 33.641603
_cell_angle_beta 105.439984
_cell_angle_gamma 95.098269
_cell_volume 536.297000
_symmetry_space_group_name_H-M "P -1"
_symmetry_group_IT_number 2
_symmetry_cell_setting 'triclinic'
loop_
_space_group_symop_operation_xyz
x,y,z
-x,-y,-z
loop_
_atom_site_type_symbol
_atom_site_label
_atom_site_fract_x
_atom_site_fract_y
_atom_site_fract_z
Si Si1 0.173575 0.700234 0.233479
Si Si2 0.043620 0.257872 0.291712
Si Si3 0.603274 0.941963 0.943193
Si Si4 0.039332 0.951303 0.789805
Si Si5 0.318607 0.169387 0.571016
Si Si6 0.883832 0.477481 0.331116
O O1 0.304077 0.442933 0.418471
O O2 0.020330 0.605281 0.319745
O O3 0.271001 0.885575 0.169210
O O4 0.094073 0.841021 0.002124
O O5 0.234965 0.217714 0.393663
O O6 0.999073 0.259179 0.148365
O O7 0.937388 0.433911 0.239574
O O8 0.000000 0.000000 0.500000
O O9 0.489381 0.997057 0.768357
O O10 0.709556 0.663174 0.174154
O O11 0.500000 0.000000 0.000000
O O12 0.189844 0.049124 0.699104
O O13 0.896842 0.203407 0.578184
#
# Coordination Sequence:
#
# PCOD9098852 Si02
#       6
#     2   2   2   2   2   2
#     4  10  20  37  58  79 107 148 179 222 264 324
#     4   7  15  35  59  79 104 140 179 226 261 319
#     4  12  22  37  54  79 117 147 174 223 275 317
#     4   9  17  38  60  83 103 141 185 220 269 322
#     4   9  19  35  54  80 109 141 179 219 271 315
#     4   9  21  36  55  84 106 142 185 222 261 322
#
# _framework density 22.37566
#
# number of rings (size 3 to 8) (size 9 to 14) (size 15 to 20)
#    0.000    3.333    1.667    1.000    0.000    3.333 
#    6.000    7.500    0.000    2.000    0.000    0.000 
#    0.000    0.000    0.000    0.000    0.000    0.000 
#
# Total GULP energy -66877.776166 kJ/mol
# GULP energy per Si atom -5573.148014 kJ/mol
# Density = 2.232473 g / cm^3
# Si number density = 22.375660 Si / 1000 Ang^3
#
#
#
# Elastic Constant Matrix: (Units=GPa)
#
#
# Indices 1 2 3 4 5 6 
#
# 1 64.6776 41.3616 51.5733 7.7662 9.6281 -6.1308
# 2 41.3616 110.3689 33.0479 0.8473 12.4370 4.9306
# 3 51.5733 33.0479 77.6529 -9.5283 9.6809 -1.7417
# 4 7.7662 0.8473 -9.5283 47.6905 -4.7998 0.4740
# 5 9.6281 12.4370 9.6809 -4.7998 50.4476 9.4276
# 6 -6.1308 4.9306 -1.7417 0.4740 9.4276 21.4358
#
#
#
# Elastic Compliance Matrix: (Units=1/GPa)
#
#
# Indices 1 2 3 4 5 6 
#
# 1 0.049050 -0.009634 -0.029131 -0.014398 -0.005904 0.016793
# 2 -0.009634 0.012593 0.001152 0.001598 -0.000316 -0.005455
# 3 -0.029131 0.001152 0.032826 0.011483 0.001334 -0.006770
# 4 -0.014398 0.001598 0.011483 0.026009 0.003700 -0.005755
# 5 -0.005904 -0.000316 0.001334 0.003700 0.023339 -0.011854
# 6 0.016793 -0.005455 -0.006770 -0.005755 -0.011854 0.057499
#
#
# Mechanical properties :
#
#
# Convention : Reuss Voigt Hill
#
# Bulk Modulus (GPa) = 51.96487 56.07388 54.01937
# Shear Modulus (GPa) = 17.67065 32.36256 25.01660
#
# Velocity S-wave (km/s) = 2.81326 3.80719 3.34732
# Velocity P-wave (km/s) = 5.81608 6.66640 6.25570
#
# Compressibility (1/GPa) = 0.01924377
#
# Stress axis : x y z
#
# Youngs Moduli (GPa) = 20.38724 79.41007 30.46389
#
# Poissons Ratio (x) = 0.76501 0.88744
# Poissons Ratio (y) = 0.19640 -0.03509
# Poissons Ratio (z) = 0.59390 -0.09147
#
# Static dielectric constant tensor:
#      x y z
#    x 1.849440 -0.065400 -0.007390 
#    y -0.065400 1.943400 0.050280 
#    z -0.007390 0.050280 1.933050 
# 
# From -- ./inp_files/497338.got.cif
#   From: 2010.05.17/outbox.cif.g08.bks.cpg/sg2_249_cif.got.tgz:497338.got - 2010.06.03 11:33:40.
