data_PCOD9098773
_publ_section_title
;
Structure prediction by ZEFSAII (Michael W. Deem and Ramdas Pophale) SiO2 
 PCOD9098773
Probable space group: P -1
;
_chemical_formula_sum "Si O2"
_cell_formula_units_Z 16
_cell_length_a 8.450048
_cell_length_b 20.683235
_cell_length_c 17.566335
_cell_angle_alpha 19.168262
_cell_angle_beta 84.808728
_cell_angle_gamma 73.868467
_cell_volume 811.803187
_symmetry_space_group_name_H-M "P -1"
_symmetry_group_IT_number 2
_symmetry_cell_setting 'triclinic'
loop_
_space_group_symop_operation_xyz
x,y,z
-x,-y,-z
loop_
_atom_site_type_symbol
_atom_site_label
_atom_site_fract_x
_atom_site_fract_y
_atom_site_fract_z
Si Si1 0.913525 0.314022 0.576738
Si Si2 0.695722 0.152786 0.194319
Si Si3 0.310140 0.420088 0.197915
Si Si4 0.205915 0.140798 0.621850
Si Si5 0.033569 0.201894 0.294709
Si Si6 0.601688 0.932157 0.653800
Si Si7 0.447128 0.162779 0.937832
Si Si8 0.260856 0.972763 0.050923
O O1 0.733441 0.587935 0.296516
O O2 0.830461 0.154302 0.766903
O O3 0.017247 0.271740 0.538398
O O4 0.084787 0.209318 0.749646
O O5 0.773089 0.068776 0.198976
O O6 0.846472 0.908006 0.510238
O O7 0.483429 0.199956 0.155280
O O8 0.683251 0.377144 0.982968
O O9 0.216944 0.323170 0.364464
O O10 0.517208 0.181018 0.426841
O O11 0.177193 0.544449 0.989122
O O12 0.396852 0.009585 0.813267
O O13 0.171830 0.203455 0.223931
O O14 0.000000 0.000000 0.500000
O O15 0.500000 0.000000 0.500000
O O16 0.572739 0.192170 0.836554
O O17 0.359832 0.039322 0.034801
#
# Coordination Sequence:
#
# PCOD9098773 Si02
#       8
#     2   2   2   2   2   2   2   2
#     4  10  20  37  60  84 113 145 180 226 271 318
#     4   9  20  38  55  77 110 146 186 231 276 327
#     4  10  21  39  56  76 113 149 181 234 280 320
#     4  10  23  36  51  83 116 145 184 221 273 339
#     4   9  19  36  59  80 101 140 191 232 273 322
#     4   9  19  34  55  82 103 131 182 230 276 330
#     4  10  20  37  57  83 115 145 180 225 273 322
#     4   9  20  37  61  87 107 141 190 223 262 328
#
# _framework density 19.709209000000001
#
# number of rings (size 3 to 8) (size 9 to 14) (size 15 to 20)
#    0.000    2.500    0.000    0.750    0.000   13.000 
#    0.000   11.250    0.000    0.000    0.000    0.000 
#    0.000    0.000    0.000    0.000    0.000    0.000 
#
# Total GULP energy -89214.321940 kJ/mol
# GULP energy per Si atom -5575.895121 kJ/mol
# Density = 1.966435 g / cm^3
# Si number density = 19.709209 Si / 1000 Ang^3
#
#
#
# Elastic Constant Matrix: (Units=GPa)
#
#
# Indices 1 2 3 4 5 6 
#
# 1 80.7854 41.5980 21.0305 -9.6533 6.3517 6.8712
# 2 41.5980 133.6589 31.4289 -20.4036 0.9950 15.5349
# 3 21.0305 31.4289 59.7978 -14.4048 -6.4920 5.1783
# 4 -9.6533 -20.4036 -14.4048 29.9477 -1.7528 -3.3439
# 5 6.3517 0.9950 -6.4920 -1.7528 23.2755 -5.2974
# 6 6.8712 15.5349 5.1783 -3.3439 -5.2974 34.6857
#
#
#
# Elastic Compliance Matrix: (Units=1/GPa)
#
#
# Indices 1 2 3 4 5 6 
#
# 1 0.015988 -0.003752 -0.004100 0.000095 -0.005735 -0.001741
# 2 -0.003752 0.010325 -0.002936 0.004023 -0.000651 -0.003155
# 3 -0.004100 -0.002936 0.022483 0.008070 0.008309 0.000817
# 4 0.000095 0.004023 0.008070 0.040559 0.005500 0.001725
# 5 -0.005735 -0.000651 0.008309 0.005500 0.049160 0.008226
# 6 -0.001741 -0.003155 0.000817 0.001725 0.008226 0.031889
#
#
# Mechanical properties :
#
#
# Convention : Reuss Voigt Hill
#
# Bulk Modulus (GPa) = 36.73585 51.37301 44.05443
# Shear Modulus (GPa) = 24.86885 29.59411 27.23148
#
# Velocity S-wave (km/s) = 3.55602 3.87917 3.72110
# Velocity P-wave (km/s) = 5.96152 6.79603 6.39241
#
# Compressibility (1/GPa) = 0.02722136
#
# Stress axis : x y z
#
# Youngs Moduli (GPa) = 62.54564 96.84801 44.47762
#
# Poissons Ratio (x) = 0.36341 0.18235
# Poissons Ratio (y) = 0.23469 0.13057
# Poissons Ratio (z) = 0.25642 0.28432
#
# Static dielectric constant tensor:
#      x y z
#    x 1.702100 -0.000580 0.011850 
#    y -0.000580 1.702550 0.007930 
#    z 0.011850 0.007930 1.696280 
# 
# From -- ./inp_files/562324.got.cif
#   From: 2010.05.17/outbox.cif.g08.bks.cpg/sg2_282_cif.got.tgz:562324.got - 2010.06.03 11:33:40.
