data_PCOD9098364
_publ_section_title
;
Structure prediction by ZEFSAII (Michael W. Deem and Ramdas Pophale) SiO2 
 PCOD9098364
Probable space group: P -1
;
_chemical_formula_sum "Si O2"
_cell_formula_units_Z 16
_cell_length_a 9.118223
_cell_length_b 16.242078
_cell_length_c 9.024260
_cell_angle_alpha 117.197098
_cell_angle_beta 110.652400
_cell_angle_gamma 33.690721
_cell_volume 658.363049
_symmetry_space_group_name_H-M "P -1"
_symmetry_group_IT_number 2
_symmetry_cell_setting 'triclinic'
loop_
_space_group_symop_operation_xyz
x,y,z
-x,-y,-z
loop_
_atom_site_type_symbol
_atom_site_label
_atom_site_fract_x
_atom_site_fract_y
_atom_site_fract_z
Si Si1 0.361132 0.477347 0.999187
Si Si2 0.885358 0.766593 0.566579
Si Si3 0.866613 0.993688 0.159017
Si Si4 0.646242 0.736047 0.662465
Si Si5 0.212656 0.766564 0.819272
Si Si6 0.551164 0.874625 0.287228
Si Si7 0.844352 0.644920 0.961809
Si Si8 0.626556 0.207935 0.658798
O O1 0.432964 0.360100 0.817036
O O2 0.500000 0.500000 0.000000
O O3 0.501575 0.385857 0.129478
O O4 0.045878 0.635200 0.013580
O O5 0.854070 0.693861 0.603078
O O6 0.831274 0.762548 0.374584
O O7 0.124873 0.720344 0.652721
O O8 0.622614 0.953079 0.658599
O O9 0.589397 0.090316 0.204698
O O10 0.815477 0.123495 0.188442
O O11 0.079978 0.896161 0.288705
O O12 0.010625 0.872553 0.975325
O O13 0.488421 0.741273 0.504567
O O14 0.789791 0.629130 0.769523
O O15 0.591123 0.798905 0.089299
O O16 0.395014 0.884831 0.357197
O O17 0.000000 0.500000 0.000000
#
# Coordination Sequence:
#
# PCOD9098364 Si02
#       8
#     2   2   2   2   2   2   2   2
#     4  11  24  41  60  87 124 164 208 250 296 351
#     4  10  21  40  64  96 122 151 203 261 314 352
#     4  10  20  36  65  91 121 157 197 248 316 367
#     4  11  24  37  64  96 120 157 205 257 306 357
#     4  10  20  38  63  87 121 164 198 244 308 367
#     4  10  21  40  66  90 124 161 198 255 310 363
#     4  12  24  43  64  87 123 171 213 240 292 376
#     4  10  21  42  62  88 126 160 196 256 311 364
#
# _framework density 24.302700999999999
#
# number of rings (size 3 to 8) (size 9 to 14) (size 15 to 20)
#    0.000    1.500    2.500    2.625    1.750    4.500 
#    4.500    0.625    0.000    0.000    0.000    0.000 
#    0.000    0.000    0.000    0.000    0.000    0.000 
#
# Total GULP energy -89500.785325 kJ/mol
# GULP energy per Si atom -5593.799083 kJ/mol
# Density = 2.424739 g / cm^3
# Si number density = 24.302701 Si / 1000 Ang^3
#
#
#
# Elastic Constant Matrix: (Units=GPa)
#
#
# Indices 1 2 3 4 5 6 
#
# 1 55.6556 -4.1292 10.4106 -9.8532 3.3884 -4.6404
# 2 -4.1292 53.7065 21.1573 -27.1217 -1.5800 -1.7609
# 3 10.4106 21.1573 123.1786 -44.6135 6.8507 6.4416
# 4 -9.8532 -27.1217 -44.6135 43.0367 -3.4525 3.2394
# 5 3.3884 -1.5800 6.8507 -3.4525 26.1712 -4.0165
# 6 -4.6404 -1.7609 6.4416 3.2394 -4.0165 33.3473
#
#
#
# Elastic Compliance Matrix: (Units=1/GPa)
#
#
# Indices 1 2 3 4 5 6 
#
# 1 0.020007 0.005581 0.000220 0.008091 -0.000915 0.002140
# 2 0.005581 0.029719 0.002521 0.022892 0.003439 0.000049
# 3 0.000220 0.002521 0.013864 0.016174 -0.002036 -0.004331
# 4 0.008091 0.022892 0.016174 0.056949 0.002693 -0.005997
# 5 -0.000915 0.003439 -0.002036 0.002693 0.040196 0.005027
# 6 0.002140 0.000049 -0.004331 -0.005997 0.005027 0.032313
#
#
# Mechanical properties :
#
#
# Convention : Reuss Voigt Hill
#
# Bulk Modulus (GPa) = 12.46345 31.93532 22.19938
# Shear Modulus (GPa) = 24.61246 34.18454 29.39850
#
# Velocity S-wave (km/s) = 3.18582 3.75456 3.48182
# Velocity P-wave (km/s) = 4.32113 5.65374 5.03174
#
# Compressibility (1/GPa) = 0.08023463
#
# Stress axis : x y z
#
# Youngs Moduli (GPa) = 49.98213 33.64856 72.12674
#
# Poissons Ratio (x) = -0.18779 -0.01587
# Poissons Ratio (y) = -0.27894 -0.18184
# Poissons Ratio (z) = -0.01100 -0.08483
#
# Static dielectric constant tensor:
#      x y z
#    x 2.061880 -0.043720 0.012260 
#    y -0.043720 1.946110 -0.032440 
#    z 0.012260 -0.032440 1.942280 
# 
# From -- ./inp_files/208468.got.cif
#   From: 2010.05.17/outbox.cif.g08.bks.cpg/sg2_105_cif.got.tgz:208468.got - 2010.06.03 11:33:40.
