data_PCOD9098142
_publ_section_title
;
Structure prediction by ZEFSAII (Michael W. Deem and Ramdas Pophale) SiO2 
 PCOD9098142
Probable space group: P -1
;
_chemical_formula_sum "Si O2"
_cell_formula_units_Z 14
_cell_length_a 7.999495
_cell_length_b 9.257855
_cell_length_c 22.298453
_cell_angle_alpha 135.597433
_cell_angle_beta 136.607188
_cell_angle_gamma 74.020829
_cell_volume 684.057519
_symmetry_space_group_name_H-M "P -1"
_symmetry_group_IT_number 2
_symmetry_cell_setting 'triclinic'
loop_
_space_group_symop_operation_xyz
x,y,z
-x,-y,-z
loop_
_atom_site_type_symbol
_atom_site_label
_atom_site_fract_x
_atom_site_fract_y
_atom_site_fract_z
Si Si1 0.494563 0.251301 0.933622
Si Si2 0.390175 0.356229 0.341285
Si Si3 0.504717 0.084228 0.762818
Si Si4 0.977937 0.481622 0.207031
Si Si5 0.856837 0.809721 0.644393
Si Si6 0.044312 0.943999 0.426647
Si Si7 0.647492 0.176664 0.691888
O O1 0.623873 0.226483 0.897387
O O2 0.500000 0.500000 0.000000
O O3 0.183155 0.014843 0.787475
O O4 0.665874 0.275810 0.046246
O O5 0.186060 0.388059 0.252308
O O6 0.703836 0.588527 0.493461
O O7 0.225594 0.316577 0.349729
O O8 0.434878 0.131731 0.281192
O O9 0.615812 0.215028 0.765762
O O10 0.174058 0.009402 0.652985
O O11 0.091367 0.617677 0.213691
O O12 0.981849 0.678699 0.312640
O O13 0.682071 0.945857 0.631667
O O14 0.379651 0.115308 0.561934
O O15 0.000000 0.000000 0.500000
#
# Coordination Sequence:
#
# PCOD9098142 Si02
#       7
#     2   2   2   2   2   2   2
#     4  12  24  41  66  96 131 172 214 264 325 386
#     4  10  24  42  67  94 129 169 216 268 322 381
#     4  10  23  42  62  98 130 166 219 268 323 379
#     4  12  23  40  67  96 130 172 212 265 326 381
#     4  10  21  43  67  93 127 175 211 260 331 382
#     4  10  20  36  63  98 126 161 225 269 300 370
#     4  10  20  38  67  95 123 170 223 266 307 376
#
# _framework density 20.466114000000001
#
# number of rings (size 3 to 8) (size 9 to 14) (size 15 to 20)
#    0.000    1.429    4.286    0.429    4.000    2.286 
#    0.000    0.000    0.000    0.000    0.000    0.000 
#    0.000    0.000    0.000    0.000    0.000    0.000 
#
# Total GULP energy -77993.862514 kJ/mol
# GULP energy per Si atom -5570.990180 kJ/mol
# Density = 2.041953 g / cm^3
# Si number density = 20.466114 Si / 1000 Ang^3
#
#
#
# Elastic Constant Matrix: (Units=GPa)
#
#
# Indices 1 2 3 4 5 6 
#
# 1 56.8584 19.6702 40.2710 1.2399 -8.7636 -1.8481
# 2 19.6702 101.0378 38.8161 -11.3699 -2.8356 -8.8575
# 3 40.2710 38.8161 120.5686 -20.1098 -8.3836 -2.1476
# 4 1.2399 -11.3699 -20.1098 23.4893 1.7889 9.0283
# 5 -8.7636 -2.8356 -8.3836 1.7889 30.5517 2.1761
# 6 -1.8481 -8.8575 -2.1476 9.0283 2.1761 32.9428
#
#
#
# Elastic Compliance Matrix: (Units=1/GPa)
#
#
# Indices 1 2 3 4 5 6 
#
# 1 0.026516 -0.002390 -0.009765 -0.012587 0.005205 0.003314
# 2 -0.002390 0.011831 -0.002528 0.002919 -0.000603 0.002122
# 3 -0.009765 -0.002528 0.014535 0.013212 0.000459 -0.003931
# 4 -0.012587 0.002919 0.013212 0.062272 -0.002222 -0.015979
# 5 0.005205 -0.000603 0.000459 -0.002222 0.034532 -0.001512
# 6 0.003314 0.002122 -0.003931 -0.015979 -0.001512 0.035335
#
#
# Mechanical properties :
#
#
# Convention : Reuss Voigt Hill
#
# Bulk Modulus (GPa) = 42.52632 52.88662 47.70647
# Shear Modulus (GPa) = 22.49950 29.37724 25.93837
#
# Velocity S-wave (km/s) = 3.31925 3.79279 3.56389
# Velocity P-wave (km/s) = 5.95935 6.71398 6.34789
#
# Compressibility (1/GPa) = 0.02351485
#
# Stress axis : x y z
#
# Youngs Moduli (GPa) = 37.71378 84.52095 68.79896
#
# Poissons Ratio (x) = 0.20203 0.67185
# Poissons Ratio (y) = 0.09015 0.17391
# Poissons Ratio (z) = 0.36829 0.21366
#
# Static dielectric constant tensor:
#      x y z
#    x 1.795250 0.017400 0.032970 
#    y 0.017400 1.727700 -0.025850 
#    z 0.032970 -0.025850 1.787910 
# 
# From -- ./inp_files/175265.got.cif
#   From: 2010.05.17/outbox.cif.g08.bks.cpg/sg2_88_cif.got.tgz:175265.got - 2010.06.03 11:33:40.
