data_PCOD9098748
_publ_section_title
;
Structure prediction by ZEFSAII (Michael W. Deem and Ramdas Pophale) SiO2 
 PCOD9098748
Probable space group: P -1
;
_chemical_formula_sum "Si O2"
_cell_formula_units_Z 16
_cell_length_a 16.310613
_cell_length_b 6.679176
_cell_length_c 11.698963
_cell_angle_alpha 125.324036
_cell_angle_beta 110.400816
_cell_angle_gamma 95.670529
_cell_volume 896.311325
_symmetry_space_group_name_H-M "P -1"
_symmetry_group_IT_number 2
_symmetry_cell_setting 'triclinic'
loop_
_space_group_symop_operation_xyz
x,y,z
-x,-y,-z
loop_
_atom_site_type_symbol
_atom_site_label
_atom_site_fract_x
_atom_site_fract_y
_atom_site_fract_z
Si Si1 0.774327 0.723052 0.036593
Si Si2 0.760303 0.138445 0.812940
Si Si3 0.615655 0.397271 0.244208
Si Si4 0.609480 0.551156 0.554241
Si Si5 0.281871 0.155220 0.722959
Si Si6 0.593935 0.797129 0.000926
Si Si7 0.749133 0.316364 0.614217
Si Si8 0.887695 0.899682 0.920312
O O1 0.755687 0.413915 0.943203
O O2 0.676221 0.744870 0.955418
O O3 0.851440 0.854867 0.019719
O O4 0.790373 0.856045 0.213861
O O5 0.764571 0.177368 0.690874
O O6 0.670821 0.865506 0.705643
O O7 0.848402 0.094714 0.899254
O O8 0.625441 0.468755 0.405876
O O9 0.699178 0.621311 0.289414
O O10 0.510477 0.374414 0.149857
O O11 0.613443 0.109202 0.114264
O O12 0.500000 0.500000 0.500000
O O13 0.653869 0.379810 0.595277
O O14 0.258242 0.876104 0.558195
O O15 0.381593 0.250389 0.872834
O O16 0.834008 0.606218 0.741925
O O17 0.000000 0.000000 0.000000
#
# Coordination Sequence:
#
# PCOD9098748 Si02
#       8
#     2   2   2   2   2   2   2   2
#     4   9  22  36  61  87 114 149 198 242 289 346
#     4  10  22  39  60  84 117 156 191 239 304 343
#     4  11  20  34  54  80 118 172 195 241 281 322
#     4  11  23  32  54  84 123 160 205 237 277 341
#     4  10  20  37  57  80 118 153 199 238 283 343
#     4   9  22  34  52  82 119 155 210 234 276 335
#     4  10  21  41  57  88 115 160 193 241 299 346
#     4  10  23  43  66  89 114 145 191 248 311 363
#
# _framework density 17.850940999999999
#
# number of rings (size 3 to 8) (size 9 to 14) (size 15 to 20)
#    0.750    1.250    2.500    0.375    7.000    4.500 
#    0.000    0.625    0.000    1.500    0.000    0.000 
#    0.000    0.000    0.000    0.000    0.000    0.000 
#
# Total GULP energy -89111.082402 kJ/mol
# GULP energy per Si atom -5569.442650 kJ/mol
# Density = 1.781031 g / cm^3
# Si number density = 17.850941 Si / 1000 Ang^3
#
#
#
# Elastic Constant Matrix: (Units=GPa)
#
#
# Indices 1 2 3 4 5 6 
#
# 1 122.8101 54.4963 42.9002 3.3151 2.3487 -6.1868
# 2 54.4963 88.9577 24.1688 -3.6811 -5.5032 -5.3486
# 3 42.9002 24.1688 62.9562 -3.0844 -18.4218 -2.9097
# 4 3.3151 -3.6811 -3.0844 19.4940 -2.2564 -3.6169
# 5 2.3487 -5.5032 -18.4218 -2.2564 32.3083 -5.0830
# 6 -6.1868 -5.3486 -2.9097 -3.6169 -5.0830 17.8132
#
#
#
# Elastic Compliance Matrix: (Units=1/GPa)
#
#
# Indices 1 2 3 4 5 6 
#
# 1 0.015667 -0.007681 -0.011096 -0.007559 -0.009774 -0.003001
# 2 -0.007681 0.016582 0.000914 0.006138 0.005147 0.005176
# 3 -0.011096 0.000914 0.029996 0.010884 0.020293 0.009321
# 4 -0.007559 0.006138 0.010884 0.060417 0.014770 0.017478
# 5 -0.009774 0.005147 0.020293 0.014770 0.047998 0.018161
# 6 -0.003001 0.005176 0.009321 0.017478 0.018161 0.066903
#
#
# Mechanical properties :
#
#
# Convention : Reuss Voigt Hill
#
# Bulk Modulus (GPa) = 37.70856 57.53942 47.62399
# Shear Modulus (GPa) = 17.72234 24.13368 20.92801
#
# Velocity S-wave (km/s) = 3.15428 3.68088 3.42771
# Velocity P-wave (km/s) = 5.86822 7.09707 6.51170
#
# Compressibility (1/GPa) = 0.02651918
#
# Stress axis : x y z
#
# Youngs Moduli (GPa) = 63.82843 60.30676 33.33731
#
# Poissons Ratio (x) = 0.46321 0.36993
# Poissons Ratio (y) = 0.49026 -0.03048
# Poissons Ratio (z) = 0.70827 -0.05514
#
# Static dielectric constant tensor:
#      x y z
#    x 1.596690 -0.009310 -0.020270 
#    y -0.009310 1.644130 -0.020990 
#    z -0.020270 -0.020990 1.617610 
# 
# From -- ./inp_files/441438.got.cif
#   From: 2010.05.17/outbox.cif.g08.bks.cpg/sg2_221_cif.got.tgz:441438.got - 2010.06.03 11:33:40.
