data_PCOD9098067
_publ_section_title
;
Structure prediction by ZEFSAII (Michael W. Deem and Ramdas Pophale) SiO2 
 PCOD9098067
Probable space group: P -1
;
_chemical_formula_sum "Si O2"
_cell_formula_units_Z 14
_cell_length_a 19.325010
_cell_length_b 8.417990
_cell_length_c 11.448583
_cell_angle_alpha 138.805116
_cell_angle_beta 31.454907
_cell_angle_gamma 141.239500
_cell_volume 586.332259
_symmetry_space_group_name_H-M "P -1"
_symmetry_group_IT_number 2
_symmetry_cell_setting 'triclinic'
loop_
_space_group_symop_operation_xyz
x,y,z
-x,-y,-z
loop_
_atom_site_type_symbol
_atom_site_label
_atom_site_fract_x
_atom_site_fract_y
_atom_site_fract_z
Si Si1 0.902861 0.446245 0.495637
Si Si2 0.446762 0.389823 0.142549
Si Si3 0.840734 0.876509 0.716050
Si Si4 0.164958 0.105539 0.775851
Si Si5 0.843403 0.389842 0.964399
Si Si6 0.457133 0.859170 0.824528
Si Si7 0.450007 0.330882 0.629838
O O1 0.827580 0.650376 0.702403
O O2 0.000000 0.500000 0.500000
O O3 0.006192 0.508587 0.266343
O O4 0.809495 0.133896 0.452970
O O5 0.274178 0.251423 0.293321
O O6 0.505139 0.630382 0.280326
O O7 0.500000 0.500000 0.000000
O O8 0.502797 0.158250 0.962943
O O9 0.823644 0.138352 0.932180
O O10 0.000000 0.000000 0.500000
O O11 0.280844 0.207483 0.770260
O O12 0.178669 0.356251 0.815608
O O13 0.000000 0.000000 0.000000
O O14 0.716557 0.271417 0.984896
O O15 0.511668 0.641814 0.673640
O O16 0.484386 0.835851 0.634096
#
# Coordination Sequence:
#
# PCOD9098067 Si02
#       7
#     2   2   2   2   2   2   2
#     4  10  20  36  63  92 121 161 211 265 318 378
#     4  11  24  39  65  94 131 165 212 269 325 376
#     4   9  20  41  60  86 126 166 206 255 317 388
#     4   9  19  37  59  88 124 159 207 261 310 373
#     4   8  17  39  60  80 125 158 205 256 307 384
#     4   9  20  41  61  91 123 168 215 251 317 385
#     4  10  21  41  65  89 128 169 214 261 317 384
#
# _framework density 23.877247000000001
#
# number of rings (size 3 to 8) (size 9 to 14) (size 15 to 20)
#    0.000    2.571    0.000    0.429    2.000    4.000 
#   23.143    0.714    6.286    0.000    0.000    0.000 
#    0.000    0.000    0.000    0.000    0.000    0.000 
#
# Total GULP energy -78027.966551 kJ/mol
# GULP energy per Si atom -5573.426182 kJ/mol
# Density = 2.382290 g / cm^3
# Si number density = 23.877247 Si / 1000 Ang^3
#
#
#
# Elastic Constant Matrix: (Units=GPa)
#
#
# Indices 1 2 3 4 5 6 
#
# 1 91.5731 36.2232 33.0038 26.3043 -1.9563 10.4234
# 2 36.2232 110.7691 38.3971 35.9919 -11.9643 10.2768
# 3 33.0038 38.3971 72.4139 21.1337 -10.9121 8.4231
# 4 26.3043 35.9919 21.1337 59.8206 -0.7972 -22.7052
# 5 -1.9563 -11.9643 -10.9121 -0.7972 44.2904 14.0934
# 6 10.4234 10.2768 8.4231 -22.7052 14.0934 41.7826
#
#
#
# Elastic Compliance Matrix: (Units=1/GPa)
#
#
# Indices 1 2 3 4 5 6 
#
# 1 0.015839 0.000187 -0.002938 -0.009658 0.002919 -0.009638
# 2 0.000187 0.016790 -0.001442 -0.015308 0.008734 -0.015150
# 3 -0.002938 -0.001442 0.021122 -0.009353 0.008002 -0.010952
# 4 -0.009658 -0.015308 -0.009353 0.048782 -0.019031 0.040988
# 5 0.002919 0.008734 0.008002 -0.019031 0.035192 -0.026702
# 6 -0.009638 -0.015150 -0.010952 0.040988 -0.026702 0.063552
#
#
# Mechanical properties :
#
#
# Convention : Reuss Voigt Hill
#
# Bulk Modulus (GPa) = 22.04350 54.44492 38.24421
# Shear Modulus (GPa) = 22.24341 40.32084 31.28213
#
# Velocity S-wave (km/s) = 3.05548 4.11380 3.62349
# Velocity P-wave (km/s) = 4.65833 6.73914 5.79293
#
# Compressibility (1/GPa) = 0.04536485
#
# Stress axis : x y z
#
# Youngs Moduli (GPa) = 63.13482 59.56080 47.34297
#
# Poissons Ratio (x) = -0.01111 0.13910
# Poissons Ratio (y) = -0.01178 0.06825
# Poissons Ratio (z) = 0.18550 0.08586
#
# Static dielectric constant tensor:
#      x y z
#    x 1.962320 -0.027330 -0.040200 
#    y -0.027330 1.987880 0.004710 
#    z -0.040200 0.004710 1.959790 
# 
# From -- ./inp_files/415482.got.cif
#   From: 2010.05.17/outbox.cif.g08.bks.cpg/sg2_208_cif.got.tgz:415482.got - 2010.06.03 11:33:40.
