data_PCOD9098753
_publ_section_title
;
Structure prediction by ZEFSAII (Michael W. Deem and Ramdas Pophale) SiO2 
 PCOD9098753
Probable space group: P -1
;
_chemical_formula_sum "Si O2"
_cell_formula_units_Z 16
_cell_length_a 13.869945
_cell_length_b 11.166492
_cell_length_c 7.452923
_cell_angle_alpha 134.256959
_cell_angle_beta 106.971298
_cell_angle_gamma 93.656031
_cell_volume 727.959298
_symmetry_space_group_name_H-M "P -1"
_symmetry_group_IT_number 2
_symmetry_cell_setting 'triclinic'
loop_
_space_group_symop_operation_xyz
x,y,z
-x,-y,-z
loop_
_atom_site_type_symbol
_atom_site_label
_atom_site_fract_x
_atom_site_fract_y
_atom_site_fract_z
Si Si1 0.474486 0.992274 0.266235
Si Si2 0.559313 0.289819 0.349556
Si Si3 0.900641 0.266150 0.802559
Si Si4 0.247000 0.039770 0.158527
Si Si5 0.982189 0.290844 0.246748
Si Si6 0.235392 0.147105 0.654418
Si Si7 0.340040 0.323977 0.227291
Si Si8 0.086056 0.350266 0.716965
O O1 0.500000 0.000000 0.500000
O O2 0.562788 0.161830 0.381383
O O3 0.353890 0.991912 0.166486
O O4 0.467635 0.820237 0.965392
O O5 0.454380 0.337580 0.389282
O O6 0.661311 0.477389 0.570502
O O7 0.967641 0.304282 0.695052
O O8 0.808855 0.065147 0.541629
O O9 0.984187 0.265370 0.007774
O O10 0.861828 0.429816 0.001966
O O11 0.260765 0.155174 0.467651
O O12 0.248772 0.165539 0.122607
O O13 0.136964 0.859149 0.922402
O O14 0.000000 0.500000 0.500000
O O15 0.067442 0.278901 0.426856
O O16 0.148019 0.239415 0.730383
O O17 0.334012 0.258618 0.952201
#
# Coordination Sequence:
#
# PCOD9098753 Si02
#       8
#     2   2   2   2   2   2   2   2
#     4  10  20  40  65  93 119 156 199 249 302 360
#     4   9  21  41  61  87 122 158 194 244 311 363
#     4   9  20  37  55  80 114 156 201 247 299 352
#     4  10  22  38  60  89 120 160 202 243 309 360
#     4   9  19  38  56  82 122 158 196 255 290 353
#     4  11  22  37  57  90 118 154 203 252 294 360
#     4  10  21  41  59  86 125 155 197 250 301 367
#     4  10  20  37  57  81 113 160 203 243 306 346
#
# _framework density 21.97925
#
# number of rings (size 3 to 8) (size 9 to 14) (size 15 to 20)
#    0.000    2.250    0.000    1.875    0.000    4.000 
#   27.000    3.750    0.000    0.000    0.000    0.000 
#    0.000    0.000    0.000    0.000    0.000    0.000 
#
# Total GULP energy -89199.752093 kJ/mol
# GULP energy per Si atom -5574.984506 kJ/mol
# Density = 2.192922 g / cm^3
# Si number density = 21.979250 Si / 1000 Ang^3
#
#
#
# Elastic Constant Matrix: (Units=GPa)
#
#
# Indices 1 2 3 4 5 6 
#
# 1 33.4912 18.3343 4.0029 10.4584 -11.3958 0.7185
# 2 18.3343 99.6445 68.9444 8.5858 0.5151 15.0075
# 3 4.0029 68.9444 100.3198 9.2337 -10.4837 9.6509
# 4 10.4584 8.5858 9.2337 31.2947 3.3260 -5.9353
# 5 -11.3958 0.5151 -10.4837 3.3260 21.0572 -8.4149
# 6 0.7185 15.0075 9.6509 -5.9353 -8.4149 21.8425
#
#
#
# Elastic Compliance Matrix: (Units=1/GPa)
#
#
# Indices 1 2 3 4 5 6 
#
# 1 0.085006 -0.041875 0.033246 -0.028802 0.082161 0.035113
# 2 -0.041875 0.044550 -0.032507 0.010929 -0.054864 -0.033036
# 3 0.033246 -0.032507 0.035188 -0.013744 0.046405 0.019837
# 4 -0.028802 0.010929 -0.013744 0.045897 -0.029736 0.000527
# 5 0.082161 -0.054864 0.046405 -0.029736 0.146160 0.062719
# 6 0.035113 -0.033036 0.019837 0.000527 0.062719 0.082867
#
#
# Mechanical properties :
#
#
# Convention : Reuss Voigt Hill
#
# Bulk Modulus (GPa) = 12.12546 46.22431 29.17489
# Shear Modulus (GPa) = 9.10032 24.31714 16.70873
#
# Velocity S-wave (km/s) = 2.03701 3.32982 2.76017
# Velocity P-wave (km/s) = 3.32585 5.98833 4.84363
#
# Compressibility (1/GPa) = 0.08247109
#
# Stress axis : x y z
#
# Youngs Moduli (GPa) = 11.76388 22.44670 28.41859
#
# Poissons Ratio (x) = 0.93996 -0.94480
# Poissons Ratio (y) = 0.49262 0.92381
# Poissons Ratio (z) = -0.39110 0.72968
#
# Static dielectric constant tensor:
#      x y z
#    x 1.842290 -0.009120 0.015970 
#    y -0.009120 1.889630 0.009700 
#    z 0.015970 0.009700 1.803320 
# 
# From -- ./inp_files/306042.got.cif
#   From: 2010.05.17/outbox.cif.g08.bks.cpg/sg2_154_cif.got.tgz:306042.got - 2010.06.03 11:33:40.
