data_PCOD9098872
_publ_section_title
;
Structure prediction by ZEFSAII (Michael W. Deem and Ramdas Pophale) SiO2 
 PCOD9098872
Probable space group: P -1
;
_chemical_formula_sum "Si O2"
_cell_formula_units_Z 16
_cell_length_a 19.641599
_cell_length_b 14.292306
_cell_length_c 11.288456
_cell_angle_alpha 147.471024
_cell_angle_beta 147.125058
_cell_angle_gamma 30.736712
_cell_volume 790.746096
_symmetry_space_group_name_H-M "P -1"
_symmetry_group_IT_number 2
_symmetry_cell_setting 'triclinic'
loop_
_space_group_symop_operation_xyz
x,y,z
-x,-y,-z
loop_
_atom_site_type_symbol
_atom_site_label
_atom_site_fract_x
_atom_site_fract_y
_atom_site_fract_z
Si Si1 0.373369 0.207115 0.239548
Si Si2 0.321809 0.829384 0.374643
Si Si3 0.486098 0.235034 0.956467
Si Si4 0.771709 0.229782 0.447907
Si Si5 0.864641 0.383938 0.544931
Si Si6 0.190086 0.128314 0.706049
Si Si7 0.647016 0.494212 0.750054
Si Si8 0.651700 0.424572 0.071264
O O1 0.507609 0.238035 0.439034
O O2 0.241238 0.395277 0.316184
O O3 0.310591 0.160591 0.980727
O O4 0.444737 0.004250 0.209179
O O5 0.289107 0.680164 0.243403
O O6 0.231740 0.040648 0.539940
O O7 0.304876 0.775177 0.157792
O O8 0.620699 0.274122 0.212236
O O9 0.399499 0.304242 0.029496
O O10 0.386246 0.384925 0.867100
O O11 0.872190 0.223445 0.482154
O O12 0.747648 0.411855 0.694616
O O13 0.809840 0.044242 0.393308
O O14 0.779742 0.376349 0.297830
O O15 0.028187 0.324400 0.688614
O O16 0.500000 0.500000 0.500000
O O17 0.500000 0.500000 0.000000
#
# Coordination Sequence:
#
# PCOD9098872 Si02
#       8
#     2   2   2   2   2   2   2   2
#     4  11  21  35  57  85 113 146 183 229 278 330
#     4  10  20  37  58  82 106 148 190 229 270 321
#     4   9  18  32  53  85 107 139 189 231 269 317
#     4   9  17  33  55  78 110 144 186 228 275 322
#     4  12  22  36  57  83 119 151 176 227 281 333
#     4  10  23  37  56  86 116 143 183 230 285 330
#     4   8  14  28  51  79 107 133 181 236 267 308
#     4  11  20  38  60  83 109 144 193 229 267 327
#
# _framework density 20.234055000000001
#
# number of rings (size 3 to 8) (size 9 to 14) (size 15 to 20)
#    0.000    2.000    2.500    3.375    0.000    2.000 
#    0.000    0.000    0.000    0.750    0.000    0.000 
#    0.000    0.000    0.000    0.000    0.000    0.000 
#
# Total GULP energy -89195.469066 kJ/mol
# GULP energy per Si atom -5574.716817 kJ/mol
# Density = 2.018800 g / cm^3
# Si number density = 20.234055 Si / 1000 Ang^3
#
#
#
# Elastic Constant Matrix: (Units=GPa)
#
#
# Indices 1 2 3 4 5 6 
#
# 1 83.7288 33.1118 34.8743 -0.5794 -24.5528 -6.0651
# 2 33.1118 64.4050 25.5433 9.8918 -5.4059 -8.5942
# 3 34.8743 25.5433 61.9608 9.7132 -19.7442 -2.6590
# 4 -0.5794 9.8918 9.7132 28.9977 1.6474 0.4629
# 5 -24.5528 -5.4059 -19.7442 1.6474 30.1987 3.0983
# 6 -6.0651 -8.5942 -2.6590 0.4629 3.0983 29.1017
#
#
#
# Elastic Compliance Matrix: (Units=1/GPa)
#
#
# Indices 1 2 3 4 5 6 
#
# 1 0.020943 -0.008347 -0.005246 0.004348 0.011857 0.000089
# 2 -0.008347 0.023189 -0.005851 -0.005823 -0.006696 0.005379
# 3 -0.005246 -0.005851 0.026710 -0.007753 0.012739 -0.001614
# 4 0.004348 -0.005823 -0.007753 0.039441 -0.004557 -0.001664
# 5 0.011857 -0.006696 0.012739 -0.004557 0.050507 -0.003647
# 6 0.000089 0.005379 -0.001614 -0.001664 -0.003647 0.036237
#
#
# Mechanical properties :
#
#
# Convention : Reuss Voigt Hill
#
# Bulk Modulus (GPa) = 31.29657 44.12816 37.71236
# Shear Modulus (GPa) = 20.27846 25.43061 22.85454
#
# Velocity S-wave (km/s) = 3.16918 3.54902 3.36446
# Velocity P-wave (km/s) = 5.37517 6.21693 5.81131
#
# Compressibility (1/GPa) = 0.03195238
#
# Stress axis : x y z
#
# Youngs Moduli (GPa) = 47.74879 43.12387 37.43963
#
# Poissons Ratio (x) = 0.35997 0.19641
# Poissons Ratio (y) = 0.39858 0.21907
# Poissons Ratio (z) = 0.25049 0.25233
#
# Static dielectric constant tensor:
#      x y z
#    x 1.765710 0.014520 -0.008190 
#    y 0.014520 1.769950 0.058260 
#    z -0.008190 0.058260 1.720350 
# 
# From -- ./inp_files/331850.got.cif
#   From: 2010.05.17/outbox.cif.g08.bks.cpg/sg2_166_cif.got.tgz:331850.got - 2010.06.03 11:33:40.
