data_PCOD9098804
_publ_section_title
;
Structure prediction by ZEFSAII (Michael W. Deem and Ramdas Pophale) SiO2 
 PCOD9098804
Probable space group: P -1
;
_chemical_formula_sum "Si O2"
_cell_formula_units_Z 16
_cell_length_a 14.557901
_cell_length_b 5.076902
_cell_length_c 12.197540
_cell_angle_alpha 90.983126
_cell_angle_beta 44.170013
_cell_angle_gamma 84.869319
_cell_volume 621.336952
_symmetry_space_group_name_H-M "P -1"
_symmetry_group_IT_number 2
_symmetry_cell_setting 'triclinic'
loop_
_space_group_symop_operation_xyz
x,y,z
-x,-y,-z
loop_
_atom_site_type_symbol
_atom_site_label
_atom_site_fract_x
_atom_site_fract_y
_atom_site_fract_z
Si Si1 0.960105 0.759456 0.798453
Si Si2 0.785484 0.294284 0.954877
Si Si3 0.867866 0.433992 0.554301
Si Si4 0.414750 0.401155 0.472160
Si Si5 0.710883 0.986714 0.655481
Si Si6 0.793471 0.101530 0.335928
Si Si7 0.348724 0.006348 0.752597
Si Si8 0.544790 0.643336 0.162722
O O1 0.885992 0.508688 0.883948
O O2 0.074158 0.640709 0.615695
O O3 0.049344 0.892089 0.811335
O O4 0.860702 0.014981 0.840943
O O5 0.726837 0.202348 0.119235
O O6 0.653194 0.436215 0.004671
O O7 0.802005 0.177065 0.639756
O O8 0.000000 0.500000 0.500000
O O9 0.756211 0.690269 0.655327
O O10 0.500000 0.500000 0.500000
O O11 0.276478 0.591562 0.611443
O O12 0.495133 0.103173 0.396978
O O13 0.451034 0.494125 0.319357
O O14 0.752914 0.986754 0.488480
O O15 0.557340 0.120379 0.801304
O O16 0.730735 0.939347 0.291890
O O17 0.359193 0.236654 0.831609
#
# Coordination Sequence:
#
# PCOD9098804 Si02
#       8
#     2   2   2   2   2   2   2   2
#     4  11  23  41  61  87 122 165 204 263 306 376
#     4  11  23  41  57  87 127 179 213 241 300 348
#     4  11  24  46  72  99 120 148 195 259 336 387
#     4   8  17  32  50  82 115 157 206 264 301 330
#     4  10  23  39  69  98 123 158 200 266 314 362
#     4   9  20  37  54  93 126 165 216 256 305 348
#     4  10  20  37  57  86 125 182 212 256 281 348
#     4  10  21  37  60  87 128 169 217 247 294 355
#
# _framework density 25.750921000000002
#
# number of rings (size 3 to 8) (size 9 to 14) (size 15 to 20)
#    0.000    2.000    1.250    1.875    7.000    5.500 
#   15.750    0.000    0.000    4.500    0.000    0.000 
#    0.000    0.000    0.000    0.000    0.000    0.000 
#
# Total GULP energy -89278.231521 kJ/mol
# GULP energy per Si atom -5579.889470 kJ/mol
# Density = 2.569231 g / cm^3
# Si number density = 25.750921 Si / 1000 Ang^3
#
#
#
# Elastic Constant Matrix: (Units=GPa)
#
#
# Indices 1 2 3 4 5 6 
#
# 1 96.9733 20.7840 6.9532 2.9599 -15.8399 8.6870
# 2 20.7840 104.5966 29.2486 19.9284 -16.6441 -2.8460
# 3 6.9532 29.2486 61.8219 4.9785 -23.3473 -15.9521
# 4 2.9599 19.9284 4.9785 43.9159 -5.0577 -18.3495
# 5 -15.8399 -16.6441 -23.3473 -5.0577 24.9675 3.4234
# 6 8.6870 -2.8460 -15.9521 -18.3495 3.4234 35.2593
#
#
#
# Elastic Compliance Matrix: (Units=1/GPa)
#
#
# Indices 1 2 3 4 5 6 
#
# 1 0.012291 -0.001467 0.001755 -0.000881 0.008784 -0.003664
# 2 -0.001467 0.013035 -0.006404 -0.007197 0.001044 -0.005331
# 3 0.001755 -0.006404 0.032495 0.008757 0.026851 0.015703
# 4 -0.000881 -0.007197 0.008757 0.034666 0.006980 0.020961
# 5 0.008784 0.001044 0.026851 0.006980 0.071922 0.006718
# 6 -0.003664 -0.005331 0.015703 0.020961 0.006718 0.046194
#
#
# Mechanical properties :
#
#
# Convention : Reuss Voigt Hill
#
# Bulk Modulus (GPa) = 21.93540 41.92926 31.93233
# Shear Modulus (GPa) = 21.00563 34.58894 27.79728
#
# Velocity S-wave (km/s) = 2.85919 3.66896 3.28909
# Velocity P-wave (km/s) = 4.40871 5.85375 5.18185
#
# Compressibility (1/GPa) = 0.04558841
#
# Stress axis : x y z
#
# Youngs Moduli (GPa) = 81.36262 76.71626 30.77396
#
# Poissons Ratio (x) = 0.11254 -0.05399
# Poissons Ratio (y) = 0.11935 0.19707
# Poissons Ratio (z) = -0.14275 0.49127
#
# Static dielectric constant tensor:
#      x y z
#    x 2.269510 0.121670 -0.006970 
#    y 0.121670 2.208550 -0.087090 
#    z -0.006970 -0.087090 2.186370 
# 
# From -- ./inp_files/525849.got.cif
#   From: 2010.05.17/outbox.cif.g08.bks.cpg/sg2_263_cif.got.tgz:525849.got - 2010.06.03 11:33:40.
