data_PCOD9098924
_publ_section_title
;
Structure prediction by ZEFSAII (Michael W. Deem and Ramdas Pophale) SiO2 
 PCOD9098924
Probable space group: P -1
;
_chemical_formula_sum "Si O2"
_cell_formula_units_Z 16
_cell_length_a 13.704049
_cell_length_b 11.861245
_cell_length_c 11.771031
_cell_angle_alpha 137.585558
_cell_angle_beta 66.788284
_cell_angle_gamma 78.373055
_cell_volume 720.219651
_symmetry_space_group_name_H-M "P -1"
_symmetry_group_IT_number 2
_symmetry_cell_setting 'triclinic'
loop_
_space_group_symop_operation_xyz
x,y,z
-x,-y,-z
loop_
_atom_site_type_symbol
_atom_site_label
_atom_site_fract_x
_atom_site_fract_y
_atom_site_fract_z
Si Si1 0.230331 0.930688 0.459461
Si Si2 0.586252 0.520305 0.389410
Si Si3 0.769600 0.404264 0.911121
Si Si4 0.932830 0.217178 0.931718
Si Si5 0.164580 0.410216 0.161933
Si Si6 0.433890 0.836995 0.480202
Si Si7 0.523174 0.972389 0.103252
Si Si8 0.832366 0.716567 0.426980
O O1 0.381992 0.843846 0.384885
O O2 0.135026 0.191544 0.620386
O O3 0.280429 0.718339 0.196136
O O4 0.141107 0.965602 0.642492
O O5 0.500000 0.500000 0.500000
O O6 0.499553 0.615172 0.375087
O O7 0.533776 0.772051 0.639467
O O8 0.798377 0.259811 0.086543
O O9 0.617651 0.697955 0.265174
O O10 0.908292 0.215198 0.807014
O O11 0.829584 0.427779 0.791712
O O12 0.880846 0.469240 0.180250
O O13 0.963796 0.598100 0.383346
O O14 0.282088 0.132218 0.828373
O O15 0.279291 0.295788 0.138273
O O16 0.374563 0.031084 0.261949
O O17 0.500000 0.000000 0.000000
#
# Coordination Sequence:
#
# PCOD9098924 Si02
#       8
#     2   2   2   2   2   2   2   2
#     4  12  21  35  58  95 127 150 192 249 308 348
#     4   9  21  41  62  81 112 158 205 246 296 352
#     4  11  22  34  55  93 128 152 193 249 301 356
#     4  10  20  37  58  85 121 156 195 237 291 366
#     4  11  21  40  63  86 122 162 206 237 299 366
#     4  10  21  37  60  84 119 163 200 238 296 371
#     4  10  24  42  63  88 117 156 207 253 296 352
#     4  11  22  39  66  88 121 167 198 239 299 371
#
# _framework density 22.215444999999999
#
# number of rings (size 3 to 8) (size 9 to 14) (size 15 to 20)
#    0.000    1.500    2.500    3.750    0.000    3.500 
#    0.000    0.625    0.000    0.000    0.000    0.000 
#    0.000    0.000    0.000    0.000    0.000    0.000 
#
# Total GULP energy -89092.424808 kJ/mol
# GULP energy per Si atom -5568.276551 kJ/mol
# Density = 2.216488 g / cm^3
# Si number density = 22.215445 Si / 1000 Ang^3
#
#
#
# Elastic Constant Matrix: (Units=GPa)
#
#
# Indices 1 2 3 4 5 6 
#
# 1 95.2363 47.0131 10.8992 0.2281 -10.0571 -17.0758
# 2 47.0131 88.4487 10.5574 -16.7587 -11.5932 -3.9768
# 3 10.8992 10.5574 39.5159 -1.3512 -16.1908 5.2564
# 4 0.2281 -16.7587 -1.3512 25.4731 -0.8827 -6.7350
# 5 -10.0571 -11.5932 -16.1908 -0.8827 33.2112 -5.9672
# 6 -17.0758 -3.9768 5.2564 -6.7350 -5.9672 48.4061
#
#
#
# Elastic Compliance Matrix: (Units=1/GPa)
#
#
# Indices 1 2 3 4 5 6 
#
# 1 0.016112 -0.008792 -0.002310 -0.004753 0.001406 0.004724
# 2 -0.008792 0.019104 -0.000629 0.012987 0.004200 0.000861
# 3 -0.002310 -0.000629 0.032406 0.001183 0.014473 -0.002437
# 4 -0.004753 0.012987 0.001183 0.049970 0.006254 0.006985
# 5 0.001406 0.004200 0.014473 0.006254 0.040138 0.005088
# 6 0.004724 0.000861 -0.002437 0.006985 0.005088 0.024259
#
#
# Mechanical properties :
#
#
# Convention : Reuss Voigt Hill
#
# Bulk Modulus (GPa) = 22.64445 40.01561 31.33003
# Shear Modulus (GPa) = 22.70965 31.73347 27.22156
#
# Velocity S-wave (km/s) = 3.20073 3.78357 3.50429
# Velocity P-wave (km/s) = 4.88618 6.09417 5.52330
#
# Compressibility (1/GPa) = 0.04416094
#
# Stress axis : x y z
#
# Youngs Moduli (GPa) = 62.06713 52.34468 30.85863
#
# Poissons Ratio (x) = 0.46021 0.07127
# Poissons Ratio (y) = 0.54569 0.01940
# Poissons Ratio (z) = 0.14335 0.03291
#
# Static dielectric constant tensor:
#      x y z
#    x 1.893050 -0.040370 -0.083090 
#    y -0.040370 1.842700 0.034340 
#    z -0.083090 0.034340 1.918500 
# 
# From -- ./inp_files/176702.got.cif
#   From: 2010.05.17/outbox.cif.g08.bks.cpg/sg2_89_cif.got.tgz:176702.got - 2010.06.03 11:33:40.
