data_PCOD9098720
_publ_section_title
;
Structure prediction by ZEFSAII (Michael W. Deem and Ramdas Pophale) SiO2 
 PCOD9098720
Probable space group: P -1
;
_chemical_formula_sum "Si O2"
_cell_formula_units_Z 12
_cell_length_a 14.508045
_cell_length_b 5.411007
_cell_length_c 14.411887
_cell_angle_alpha 73.631681
_cell_angle_beta 28.932769
_cell_angle_gamma 66.303448
_cell_volume 494.911109
_symmetry_space_group_name_H-M "P -1"
_symmetry_group_IT_number 2
_symmetry_cell_setting 'triclinic'
loop_
_space_group_symop_operation_xyz
x,y,z
-x,-y,-z
loop_
_atom_site_type_symbol
_atom_site_label
_atom_site_fract_x
_atom_site_fract_y
_atom_site_fract_z
Si Si1 0.609987 0.565150 0.257593
Si Si2 0.033969 0.875199 0.086605
Si Si3 0.841859 0.297248 0.595139
Si Si4 0.484381 0.865780 0.173865
Si Si5 0.807422 0.460293 0.292322
Si Si6 0.237934 0.380166 0.213252
O O1 0.559940 0.845125 0.213892
O O2 0.749269 0.552909 0.226208
O O3 0.405632 0.526231 0.477326
O O4 0.735849 0.327590 0.100760
O O5 0.903122 0.670827 0.231797
O O6 0.955210 0.141911 0.193576
O O7 0.000000 0.000000 0.000000
O O8 0.670109 0.305991 0.674205
O O9 0.739740 0.361530 0.780349
O O10 0.995114 0.453334 0.414817
O O11 0.000000 0.000000 0.500000
O O12 0.351087 0.149298 0.214636
O O13 0.662459 0.724080 0.960205
#
# Coordination Sequence:
#
# PCOD9098720 Si02
#       6
#     2   2   2   2   2   2
#     4  10  22  39  61  92 121 165 210 258 311 373
#     4  10  21  42  66  91 126 170 207 257 318 370
#     4   9  18  36  58  79 116 154 191 242 307 356
#     4  10  20  37  56  88 113 151 204 242 300 358
#     4  10  23  43  65  89 133 168 207 259 314 371
#     4   9  19  37  59  80 117 156 190 250 299 358
#
# _framework density 24.246777999999999
#
# number of rings (size 3 to 8) (size 9 to 14) (size 15 to 20)
#    0.000    2.333    0.000    2.500    0.000    8.667 
#   21.000    0.000    0.000    0.000    0.000    0.000 
#    0.000    0.000    0.000    0.000    0.000    0.000 
#
# Total GULP energy -66941.397533 kJ/mol
# GULP energy per Si atom -5578.449794 kJ/mol
# Density = 2.419159 g / cm^3
# Si number density = 24.246778 Si / 1000 Ang^3
#
#
#
# Elastic Constant Matrix: (Units=GPa)
#
#
# Indices 1 2 3 4 5 6 
#
# 1 52.9133 31.0966 26.0465 -11.8713 5.5805 -15.6332
# 2 31.0966 79.1493 33.6530 3.0757 4.9409 7.1862
# 3 26.0465 33.6530 129.2928 16.8285 -19.3340 -2.3509
# 4 -11.8713 3.0757 16.8285 19.0037 0.0459 1.7564
# 5 5.5805 4.9409 -19.3340 0.0459 17.8390 -9.6531
# 6 -15.6332 7.1862 -2.3509 1.7564 -9.6531 35.2169
#
#
#
# Elastic Compliance Matrix: (Units=1/GPa)
#
#
# Indices 1 2 3 4 5 6 
#
# 1 0.056413 -0.018094 -0.015657 0.050231 -0.018912 0.020000
# 2 -0.018094 0.024036 -0.003611 -0.010444 -0.013776 -0.016433
# 3 -0.015657 -0.003611 0.020007 -0.027428 0.030238 0.004778
# 4 0.050231 -0.010444 -0.027428 0.109489 -0.039400 0.006338
# 5 -0.018912 -0.013776 0.030238 -0.039400 0.114828 0.029874
# 6 0.020000 -0.016433 0.004778 0.006338 0.029874 0.048818
#
#
# Mechanical properties :
#
#
# Convention : Reuss Voigt Hill
#
# Bulk Modulus (GPa) = 38.86170 49.21640 44.03905
# Shear Modulus (GPa) = 10.94350 25.78253 18.36302
#
# Velocity S-wave (km/s) = 2.12678 3.26442 2.75496
# Velocity P-wave (km/s) = 4.70035 5.87799 5.32185
#
# Compressibility (1/GPa) = 0.02573228
#
# Stress axis : x y z
#
# Youngs Moduli (GPa) = 17.72642 41.60407 49.98256
#
# Poissons Ratio (x) = 0.75278 0.78260
# Poissons Ratio (y) = 0.32074 0.18047
# Poissons Ratio (z) = 0.27755 0.15022
#
# Static dielectric constant tensor:
#      x y z
#    x 2.070650 0.027350 -0.029480 
#    y 0.027350 2.060610 -0.021270 
#    z -0.029480 -0.021270 2.000550 
# 
# From -- ./inp_files/132980.got.cif
#   From: 2010.05.17/outbox.cif.g08.bks.cpg/sg2_67_cif.got.tgz:132980.got - 2010.06.03 11:33:40.
