data_PCOD9098675
_publ_section_title
;
Structure prediction by ZEFSAII (Michael W. Deem and Ramdas Pophale) SiO2 
 PCOD9098675
Probable space group: P -1
;
_chemical_formula_sum "Si O2"
_cell_formula_units_Z 12
_cell_length_a 13.039085
_cell_length_b 13.340099
_cell_length_c 7.638934
_cell_angle_alpha 92.138837
_cell_angle_beta 102.806695
_cell_angle_gamma 22.671543
_cell_volume 447.272983
_symmetry_space_group_name_H-M "P -1"
_symmetry_group_IT_number 2
_symmetry_cell_setting 'triclinic'
loop_
_space_group_symop_operation_xyz
x,y,z
-x,-y,-z
loop_
_atom_site_type_symbol
_atom_site_label
_atom_site_fract_x
_atom_site_fract_y
_atom_site_fract_z
Si Si1 0.918330 0.705692 0.136161
Si Si2 0.639524 0.405721 0.844356
Si Si3 0.056234 0.044389 0.649563
Si Si4 0.117112 0.106706 0.131244
Si Si5 0.459258 0.078396 0.291030
Si Si6 0.272364 0.527203 0.691299
O O1 0.898198 0.837173 0.067221
O O2 0.257791 0.359349 0.245266
O O3 0.759189 0.825298 0.268719
O O4 0.739234 0.813672 0.911070
O O5 0.786101 0.278755 0.701499
O O6 0.935979 0.162853 0.060154
O O7 0.464407 0.457731 0.799631
O O8 0.404079 0.708600 0.809270
O O9 0.985981 0.205719 0.521537
O O10 0.000000 0.000000 0.500000
O O11 0.911649 0.351522 0.205653
O O12 0.464948 0.781603 0.294392
O O13 0.500000 0.000000 0.500000
#
# Coordination Sequence:
#
# PCOD9098675 Si02
#       6
#     2   2   2   2   2   2
#     4  10  23  42  66 101 132 157 208 272 305 389
#     4  11  21  37  58  81 119 170 210 251 301 357
#     4  10  20  37  56  77 111 160 222 258 291 350
#     4  12  23  38  57  92 127 152 205 261 311 352
#     4  10  21  45  74  92 126 170 205 245 335 399
#     4  11  21  37  58  81 121 172 207 245 305 365
#
# _framework density 26.829253000000001
#
# number of rings (size 3 to 8) (size 9 to 14) (size 15 to 20)
#    0.000    1.333    0.000    8.500    0.000    0.000 
#    9.000    0.000    0.000    0.000    0.000    0.000 
#    0.000    0.000    0.000    0.000    0.000    0.000 
#
# Total GULP energy -67128.717145 kJ/mol
# GULP energy per Si atom -5594.059762 kJ/mol
# Density = 2.676819 g / cm^3
# Si number density = 26.829253 Si / 1000 Ang^3
#
#
#
# Elastic Constant Matrix: (Units=GPa)
#
#
# Indices 1 2 3 4 5 6 
#
# 1 60.6784 16.8544 15.5483 8.6944 -5.1591 0.5555
# 2 16.8544 211.1850 66.1283 -3.4262 -16.7314 -36.4047
# 3 15.5483 66.1283 148.7681 4.8676 -15.6981 -9.3324
# 4 8.6944 -3.4262 4.8676 64.5075 -6.3079 -15.2958
# 5 -5.1591 -16.7314 -15.6981 -6.3079 38.2753 8.1084
# 6 0.5555 -36.4047 -9.3324 -15.2958 8.1084 24.8638
#
#
#
# Elastic Compliance Matrix: (Units=1/GPa)
#
#
# Indices 1 2 3 4 5 6 
#
# 1 0.018182 -0.002304 -0.000998 -0.004032 0.001907 -0.007256
# 2 -0.002304 0.008160 -0.002675 0.004159 -0.000028 0.013562
# 3 -0.000998 -0.002675 0.008157 -0.000904 0.002349 -0.002154
# 4 -0.004032 0.004159 -0.000904 0.020755 0.000411 0.018474
# 5 0.001907 -0.000028 0.002349 0.000411 0.029197 -0.008471
# 6 -0.007256 0.013562 -0.002154 0.018474 -0.008471 0.073558
#
#
# Mechanical properties :
#
#
# Convention : Reuss Voigt Hill
#
# Bulk Modulus (GPa) = 44.35310 68.63260 56.49285
# Shear Modulus (GPa) = 28.17256 47.00270 37.58763
#
# Velocity S-wave (km/s) = 3.24399 4.19013 3.74705
# Velocity P-wave (km/s) = 5.53162 7.00332 6.31052
#
# Compressibility (1/GPa) = 0.02254634
#
# Stress axis : x y z
#
# Youngs Moduli (GPa) = 54.99868 122.55450 122.58800
#
# Poissons Ratio (x) = 0.28232 0.12239
# Poissons Ratio (y) = 0.12669 0.32787
# Poissons Ratio (z) = 0.05491 0.32778
#
# Static dielectric constant tensor:
#      x y z
#    x 2.191250 0.117530 0.054740 
#    y 0.117530 2.168890 0.061720 
#    z 0.054740 0.061720 2.158320 
# 
# From -- ./inp_files/31882.got.cif
#   From: 2010.05.17/outbox.cif.g08.bks.cpg/sg2_16_cif.got.tgz:31882.got - 2010.06.03 11:33:40.
