data_PCOD9098568
_publ_section_title
;
Structure prediction by ZEFSAII (Michael W. Deem and Ramdas Pophale) SiO2 
 PCOD9098568
Probable space group: P -1
;
_chemical_formula_sum "Si O2"
_cell_formula_units_Z 14
_cell_length_a 9.406927
_cell_length_b 8.967119
_cell_length_c 9.408440
_cell_angle_alpha 67.904004
_cell_angle_beta 98.017241
_cell_angle_gamma 131.647446
_cell_volume 542.439333
_symmetry_space_group_name_H-M "P -1"
_symmetry_group_IT_number 2
_symmetry_cell_setting 'triclinic'
loop_
_space_group_symop_operation_xyz
x,y,z
-x,-y,-z
loop_
_atom_site_type_symbol
_atom_site_label
_atom_site_fract_x
_atom_site_fract_y
_atom_site_fract_z
Si Si1 0.634177 0.705215 0.553282
Si Si2 0.190447 0.961690 0.938123
Si Si3 0.956873 0.889061 0.321285
Si Si4 0.752080 0.114541 0.722888
Si Si5 0.262828 0.609390 0.575611
Si Si6 0.294484 0.744229 0.838193
Si Si7 0.576680 0.443277 0.903999
O O1 0.500000 0.500000 0.500000
O O2 0.832234 0.875986 0.433867
O O3 0.492918 0.749581 0.547656
O O4 0.660117 0.610923 0.727928
O O5 0.041252 0.980424 0.851844
O O6 0.393096 0.209458 0.897820
O O7 0.216127 0.840704 0.871049
O O8 0.154052 0.852336 0.123438
O O9 0.835391 0.637657 0.355763
O O10 0.165514 0.963969 0.340034
O O11 0.794261 0.317665 0.587228
O O12 0.524977 0.935184 0.781649
O O13 0.215862 0.655373 0.702564
O O14 0.278517 0.576388 0.998186
O O15 0.500000 0.500000 0.000000
#
# Coordination Sequence:
#
# PCOD9098568 Si02
#       7
#     2   2   2   2   2   2   2
#     4  10  20  36  69  88 123 158 225 249 306 364
#     4  11  23  42  65  93 130 171 207 258 322 381
#     4  11  23  42  68  91 129 170 211 257 322 375
#     4  11  24  39  66  97 128 163 209 270 321 362
#     4  11  22  44  65  95 120 171 218 259 300 385
#     4  11  24  40  68  93 131 162 217 260 317 372
#     4  11  19  39  66  98 117 167 223 260 293 376
#
# _framework density 25.809335999999998
#
# number of rings (size 3 to 8) (size 9 to 14) (size 15 to 20)
#    0.000    1.143    4.286    3.857    6.000    0.000 
#    0.000    3.571    3.143    0.000    0.000    0.000 
#    0.000    0.000    0.000    0.000    0.000    0.000 
#
# Total GULP energy -78499.141328 kJ/mol
# GULP energy per Si atom -5607.081523 kJ/mol
# Density = 2.575059 g / cm^3
# Si number density = 25.809336 Si / 1000 Ang^3
#
#
#
# Elastic Constant Matrix: (Units=GPa)
#
#
# Indices 1 2 3 4 5 6 
#
# 1 128.5204 40.2186 57.1694 -10.8459 10.7295 -21.9265
# 2 40.2186 90.3216 42.5552 3.6379 6.7291 -25.5357
# 3 57.1694 42.5552 189.1656 -12.9698 19.4550 -25.2843
# 4 -10.8459 3.6379 -12.9698 33.9335 -11.3675 -5.4697
# 5 10.7295 6.7291 19.4550 -11.3675 51.4456 -3.3559
# 6 -21.9265 -25.5357 -25.2843 -5.4697 -3.3559 56.1714
#
#
#
# Elastic Compliance Matrix: (Units=1/GPa)
#
#
# Indices 1 2 3 4 5 6 
#
# 1 0.010245 -0.003235 -0.001868 0.003168 -0.000178 0.001986
# 2 -0.003235 0.014797 -0.001889 -0.002963 -0.000923 0.004270
# 3 -0.001868 -0.001889 0.006763 0.001980 -0.001381 0.001567
# 4 0.003168 -0.002963 0.001980 0.034612 0.006924 0.004565
# 5 -0.000178 -0.000923 -0.001381 0.006924 0.021704 0.000860
# 6 0.001986 0.004270 0.001567 0.004565 0.000860 0.021720
#
#
# Mechanical properties :
#
#
# Convention : Reuss Voigt Hill
#
# Bulk Modulus (GPa) = 56.10788 76.43268 66.27028
# Shear Modulus (GPa) = 38.53140 46.18105 42.35623
#
# Velocity S-wave (km/s) = 3.86803 4.23462 4.05547
# Velocity P-wave (km/s) = 6.46030 7.32038 6.90375
#
# Compressibility (1/GPa) = 0.01782281
#
# Stress axis : x y z
#
# Youngs Moduli (GPa) = 97.60955 67.58020 147.86511
#
# Poissons Ratio (x) = 0.21862 0.27615
# Poissons Ratio (y) = 0.31576 0.27926
# Poissons Ratio (z) = 0.18229 0.12763
#
# Static dielectric constant tensor:
#      x y z
#    x 2.019000 0.076760 -0.005780 
#    y 0.076760 2.135660 0.044530 
#    z -0.005780 0.044530 2.003110 
# 
# From -- ./inp_files/157473.got.cif
#   From: 2010.05.17/outbox.cif.g08.bks.cpg/sg2_79_cif.got.tgz:157473.got - 2010.06.03 11:33:40.
