data_PCOD9098194
_publ_section_title
;
Structure prediction by ZEFSAII (Michael W. Deem and Ramdas Pophale) SiO2 
 PCOD9098194
Probable space group: P -1
;
_chemical_formula_sum "Si O2"
_cell_formula_units_Z 16
_cell_length_a 6.505671
_cell_length_b 18.826472
_cell_length_c 14.837105
_cell_angle_alpha 152.323260
_cell_angle_beta 115.963240
_cell_angle_gamma 74.775964
_cell_volume 724.028023
_symmetry_space_group_name_H-M "P -1"
_symmetry_group_IT_number 2
_symmetry_cell_setting 'triclinic'
loop_
_space_group_symop_operation_xyz
x,y,z
-x,-y,-z
loop_
_atom_site_type_symbol
_atom_site_label
_atom_site_fract_x
_atom_site_fract_y
_atom_site_fract_z
Si Si1 0.128375 0.034571 0.912016
Si Si2 0.155475 0.458200 0.061173
Si Si3 0.690869 0.854422 0.285847
Si Si4 0.473473 0.647123 0.718535
Si Si5 0.142904 0.659454 0.959496
Si Si6 0.367974 0.458320 0.659165
Si Si7 0.936787 0.206023 0.215181
Si Si8 0.974401 0.957513 0.287558
O O1 0.035421 0.950325 0.703567
O O2 0.176032 0.911715 0.855899
O O3 0.352479 0.184967 0.095184
O O4 0.946672 0.107163 0.015134
O O5 0.430382 0.560026 0.252442
O O6 0.994117 0.447119 0.105391
O O7 0.176827 0.282467 0.846525
O O8 0.000000 0.500000 0.000000
O O9 0.751215 0.935070 0.288710
O O10 0.806465 0.967490 0.518105
O O11 0.415033 0.765820 0.149509
O O12 0.500000 0.500000 0.500000
O O13 0.508416 0.591003 0.763175
O O14 0.211985 0.670803 0.691198
O O15 0.176797 0.536894 0.753803
O O16 0.006606 0.791963 0.068950
O O17 0.210627 0.298924 0.400608
#
# Coordination Sequence:
#
# PCOD9098194 Si02
#       8
#     2   2   2   2   2   2   2   2
#     4  11  24  43  63  96 138 172 217 275 338 394
#     4  10  23  40  60  93 130 164 216 273 327 391
#     4   9  20  38  58  93 121 166 224 269 323 392
#     4  12  24  42  71  94 130 176 225 276 321 390
#     4  10  20  36  64  87 126 162 223 272 315 389
#     4  11  24  41  67  99 123 176 226 264 332 394
#     4  11  26  43  63  99 138 173 222 276 334 398
#     4  10  20  37  62  88 126 170 214 270 328 390
#
# _framework density 22.098592
#
# number of rings (size 3 to 8) (size 9 to 14) (size 15 to 20)
#    0.000    1.500    1.250    4.125    3.500    4.000 
#    0.000    0.000    0.000    0.000    0.000    0.000 
#    0.000    0.000    0.000    0.000    0.000    0.000 
#
# Total GULP energy -89287.339671 kJ/mol
# GULP energy per Si atom -5580.458729 kJ/mol
# Density = 2.204829 g / cm^3
# Si number density = 22.098592 Si / 1000 Ang^3
#
#
#
# Elastic Constant Matrix: (Units=GPa)
#
#
# Indices 1 2 3 4 5 6 
#
# 1 80.0248 34.7303 17.5274 -9.5034 -6.3867 0.3376
# 2 34.7303 112.5887 19.1191 -16.0198 -2.8044 7.6179
# 3 17.5274 19.1191 58.7857 -13.9712 5.8217 1.4332
# 4 -9.5034 -16.0198 -13.9712 28.4490 6.9525 -0.7737
# 5 -6.3867 -2.8044 5.8217 6.9525 41.6201 -3.3871
# 6 0.3376 7.6179 1.4332 -0.7737 -3.3871 35.5573
#
#
#
# Elastic Compliance Matrix: (Units=1/GPa)
#
#
# Indices 1 2 3 4 5 6 
#
# 1 0.015265 -0.004068 -0.003373 0.000562 0.002537 0.001117
# 2 -0.004068 0.011108 -0.001244 0.004374 -0.000616 -0.002254
# 3 -0.003373 -0.001244 0.021326 0.009920 -0.005311 -0.000851
# 4 0.000562 0.004374 0.009920 0.044737 -0.008576 -0.001186
# 5 0.002537 -0.000616 -0.005311 -0.008576 0.026769 0.002685
# 6 0.001117 -0.002254 -0.000851 -0.001186 0.002685 0.028860
#
#
# Mechanical properties :
#
#
# Convention : Reuss Voigt Hill
#
# Bulk Modulus (GPa) = 32.97353 43.79474 38.38414
# Shear Modulus (GPa) = 28.48279 33.12678 30.80479
#
# Velocity S-wave (km/s) = 3.59401 3.87595 3.73764
# Velocity P-wave (km/s) = 5.67240 6.31598 6.00282
#
# Compressibility (1/GPa) = 0.03032736
#
# Stress axis : x y z
#
# Youngs Moduli (GPa) = 65.50891 90.02784 46.89191
#
# Poissons Ratio (x) = 0.36627 0.15817
# Poissons Ratio (y) = 0.26652 0.05834
# Poissons Ratio (z) = 0.22097 0.11200
#
# Static dielectric constant tensor:
#      x y z
#    x 1.821880 0.008080 0.009680 
#    y 0.008080 1.847270 -0.013180 
#    z 0.009680 -0.013180 1.852530 
# 
# From -- ./inp_files/98156.got.cif
#   From: 2010.05.17/outbox.cif.g08.bks.cpg/sg2_50_cif.got.tgz:98156.got - 2010.06.03 11:33:40.
