data_PCOD9098422
_publ_section_title
;
Structure prediction by ZEFSAII (Michael W. Deem and Ramdas Pophale) SiO2 
 PCOD9098422
Probable space group: P -1
;
_chemical_formula_sum "Si O2"
_cell_formula_units_Z 15
_cell_length_a 8.798353
_cell_length_b 16.263868
_cell_length_c 9.198754
_cell_angle_alpha 92.116228
_cell_angle_beta 89.694765
_cell_angle_gamma 30.729497
_cell_volume 670.377073
_symmetry_space_group_name_H-M "P -1"
_symmetry_group_IT_number 2
_symmetry_cell_setting 'triclinic'
loop_
_space_group_symop_operation_xyz
x,y,z
-x,-y,-z
loop_
_atom_site_type_symbol
_atom_site_label
_atom_site_fract_x
_atom_site_fract_y
_atom_site_fract_z
Si Si1 0.526972 0.746005 0.264624
Si Si2 0.199852 0.086213 0.484359
Si Si3 0.281010 0.009076 0.150306
Si Si4 0.296901 0.584141 0.310874
Si Si5 0.000000 0.000000 0.500000
Si Si6 0.022394 0.395408 0.538818
Si Si7 0.088532 0.219714 0.954741
Si Si8 0.118161 0.586378 0.759885
O O1 0.363678 0.874214 0.148205
O O2 0.275524 0.838045 0.386676
O O3 0.737975 0.715439 0.341164
O O4 0.727807 0.573597 0.216520
O O5 0.934057 0.257058 0.578442
O O6 0.500000 0.000000 0.500000
O O7 0.143110 0.097570 0.312657
O O8 0.194833 0.994505 0.534404
O O9 0.082482 0.133206 0.025953
O O10 0.589847 0.915274 0.126656
O O11 0.615605 0.476593 0.290571
O O12 0.274074 0.505269 0.381218
O O13 0.162181 0.648197 0.154100
O O14 0.000000 0.500000 0.500000
O O15 0.081683 0.326476 0.378381
O O16 0.049950 0.301088 0.092920
#
# Coordination Sequence:
#
# PCOD9098422 Si02
#       8
#     2   2   2   2   1   2   2   2
#     4  10  20  43  66  96 131 166 218 277 334 383
#     4  11  20  38  70  94 127 173 224 275 334 381
#     4  10  22  40  64  94 130 172 222 267 327 403
#     4  12  21  42  66  94 130 176 218 273 332 399
#     4  10  20  36  66 102 128 164 220 284 324 390
#     4  10  22  41  64  95 126 168 220 273 329 395
#     4  11  23  40  63  96 132 174 222 260 331 414
#     4  11  24  40  67  96 133 172 217 269 334 399
#
# _framework density 22.375468000000001
#
# number of rings (size 3 to 8) (size 9 to 14) (size 15 to 20)
#    0.000    1.333    4.000    2.400    0.000    0.533 
#    2.400    0.667    0.000    0.000    0.000    0.000 
#    0.000    0.000    0.000    0.000    0.000    0.000 
#
# Total GULP energy -83506.765946 kJ/mol
# GULP energy per Si atom -5567.117730 kJ/mol
# Density = 2.232454 g / cm^3
# Si number density = 22.375468 Si / 1000 Ang^3
#
#
#
# Elastic Constant Matrix: (Units=GPa)
#
#
# Indices 1 2 3 4 5 6 
#
# 1 105.7632 12.9635 10.6713 -12.8293 0.0777 8.6373
# 2 12.9635 51.9501 21.9859 1.6695 1.1563 20.9961
# 3 10.6713 21.9859 99.2290 -9.0949 -1.0614 12.1189
# 4 -12.8293 1.6695 -9.0949 38.7542 6.6811 -9.6174
# 5 0.0777 1.1563 -1.0614 6.6811 14.5856 -7.6573
# 6 8.6373 20.9961 12.1189 -9.6174 -7.6573 42.7863
#
#
#
# Elastic Compliance Matrix: (Units=1/GPa)
#
#
# Indices 1 2 3 4 5 6 
#
# 1 0.010244 -0.002426 -0.000210 0.003668 -0.001715 -0.000301
# 2 -0.002426 0.028096 -0.004766 -0.005411 -0.007719 -0.014545
# 3 -0.000210 -0.004766 0.011443 0.002790 -0.000208 -0.000270
# 4 0.003668 -0.005411 0.002790 0.031260 -0.010405 0.006289
# 5 -0.001715 -0.007719 -0.000208 -0.010405 0.082674 0.016650
# 6 -0.000301 -0.014545 -0.000270 0.006289 0.016650 0.035040
#
#
# Mechanical properties :
#
#
# Convention : Reuss Voigt Hill
#
# Bulk Modulus (GPa) = 28.58807 38.68710 33.63758
# Shear Modulus (GPa) = 22.20047 33.31333 27.75690
#
# Velocity S-wave (km/s) = 3.15330 3.86273 3.52590
# Velocity P-wave (km/s) = 5.10510 6.10096 5.62511
#
# Compressibility (1/GPa) = 0.03497963
#
# Stress axis : x y z
#
# Youngs Moduli (GPa) = 97.61538 35.59223 87.39124
#
# Poissons Ratio (x) = 0.08634 0.01832
# Poissons Ratio (y) = 0.23678 0.41654
# Poissons Ratio (z) = 0.02047 0.16965
#
# Static dielectric constant tensor:
#      x y z
#    x 1.879360 0.060390 -0.007660 
#    y 0.060390 1.888840 -0.064270 
#    z -0.007660 -0.064270 1.845280 
# 
# From -- ./inp_files/215135.got.cif
#   From: 2010.05.17/outbox.cif.g08.bks.cpg/sg2_108_cif.got.tgz:215135.got - 2010.06.03 11:33:40.
