data_PCOD9098757
_publ_section_title
;
Structure prediction by ZEFSAII (Michael W. Deem and Ramdas Pophale) SiO2 
 PCOD9098757
Probable space group: P -1
;
_chemical_formula_sum "Si O2"
_cell_formula_units_Z 16
_cell_length_a 11.614271
_cell_length_b 9.877234
_cell_length_c 11.059275
_cell_angle_alpha 57.359533
_cell_angle_beta 60.082068
_cell_angle_gamma 104.131632
_cell_volume 658.440615
_symmetry_space_group_name_H-M "P -1"
_symmetry_group_IT_number 2
_symmetry_cell_setting 'triclinic'
loop_
_space_group_symop_operation_xyz
x,y,z
-x,-y,-z
loop_
_atom_site_type_symbol
_atom_site_label
_atom_site_fract_x
_atom_site_fract_y
_atom_site_fract_z
Si Si1 0.917105 0.906903 0.274468
Si Si2 0.910892 0.638301 0.600403
Si Si3 0.219867 0.530357 0.984979
Si Si4 0.430851 0.718348 0.193973
Si Si5 0.491879 0.400885 0.367032
Si Si6 0.808777 0.260029 0.299984
Si Si7 0.334053 0.920279 0.301017
Si Si8 0.169997 0.368333 0.779943
O O1 0.936580 0.836214 0.428344
O O2 0.721802 0.838939 0.405947
O O3 0.898548 0.748462 0.258738
O O4 0.078214 0.158846 0.019029
O O5 0.792539 0.519068 0.843486
O O6 0.778021 0.434778 0.673941
O O7 0.114437 0.742171 0.469674
O O8 0.998903 0.320566 0.167221
O O9 0.376504 0.555429 0.828488
O O10 0.254092 0.732493 0.802449
O O11 0.467690 0.568906 0.281638
O O12 0.440125 0.849441 0.236505
O O13 0.570123 0.871715 0.937378
O O14 0.609004 0.461393 0.395824
O O15 0.661738 0.056952 0.567360
O O16 0.863816 0.475792 0.238708
#
# Coordination Sequence:
#
# PCOD9098757 Si02
#       8
#     2   2   2   2   2   2   2   2
#     4  10  21  34  58  87 107 137 179 223 274 326
#     4  10  20  38  56  78 111 145 177 224 267 309
#     4   9  20  37  56  76 109 147 185 219 259 317
#     4  10  21  34  58  87 107 137 179 223 274 326
#     4  10  20  38  56  78 111 145 177 224 267 309
#     4   9  18  38  58  76 108 149 180 220 264 315
#     4  10  20  37  57  82 111 139 178 222 272 324
#     4  10  20  37  57  82 111 139 178 222 272 324
#
# _framework density 24.299838999999999
#
# number of rings (size 3 to 8) (size 9 to 14) (size 15 to 20)
#    0.000    2.250    0.000    3.000    0.000    4.000 
#    0.000   28.750    0.000    0.000    0.000    0.000 
#    0.000    0.000    0.000    0.000    0.000    0.000 
#
# Total GULP energy -89271.171519 kJ/mol
# GULP energy per Si atom -5579.448220 kJ/mol
# Density = 2.424453 g / cm^3
# Si number density = 24.299839 Si / 1000 Ang^3
#
#
#
# Elastic Constant Matrix: (Units=GPa)
#
#
# Indices 1 2 3 4 5 6 
#
# 1 84.9031 19.8640 21.5541 13.6657 8.5203 4.5491
# 2 19.8640 51.2522 10.2098 14.2760 1.7556 -0.3689
# 3 21.5541 10.2098 133.3396 38.5274 23.1973 8.2968
# 4 13.6657 14.2760 38.5274 25.1506 9.9274 2.2669
# 5 8.5203 1.7556 23.1973 9.9274 51.4760 7.9056
# 6 4.5491 -0.3689 8.2968 2.2669 7.9056 24.0744
#
#
#
# Elastic Compliance Matrix: (Units=1/GPa)
#
#
# Indices 1 2 3 4 5 6 
#
# 1 0.013670 -0.004133 -0.000550 -0.003730 -0.000875 -0.001818
# 2 -0.004133 0.025545 0.003802 -0.018792 0.001551 0.001122
# 3 -0.000550 0.003802 0.014379 -0.023004 -0.001768 -0.002047
# 4 -0.003730 -0.018792 -0.023004 0.089893 -0.005995 0.001849
# 5 -0.000875 0.001551 -0.001768 -0.005995 0.022391 -0.005990
# 6 -0.001818 0.001122 -0.002047 0.001849 -0.005990 0.044397
#
#
# Mechanical properties :
#
#
# Convention : Reuss Voigt Hill
#
# Bulk Modulus (GPa) = 19.29274 41.41674 30.35474
# Shear Modulus (GPa) = 21.80404 34.66466 28.23435
#
# Velocity S-wave (km/s) = 2.99873 3.78105 3.41239
# Velocity P-wave (km/s) = 4.46616 6.01189 5.29572
#
# Compressibility (1/GPa) = 0.05183297
#
# Stress axis : x y z
#
# Youngs Moduli (GPa) = 73.15116 39.14635 69.54499
#
# Poissons Ratio (x) = 0.16179 0.03827
# Poissons Ratio (y) = 0.30232 -0.26443
# Poissons Ratio (z) = 0.04025 -0.14885
#
# Static dielectric constant tensor:
#      x y z
#    x 1.908000 0.036280 0.010350 
#    y 0.036280 2.020950 -0.005040 
#    z 0.010350 -0.005040 1.996170 
# 
# From -- ./inp_files/389484.got.cif
#   From: 2010.05.17/outbox.cif.g08.bks.cpg/sg2_195_cif.got.tgz:389484.got - 2010.06.03 11:33:40.
