data_PCOD9098513
_publ_section_title
;
Structure prediction by ZEFSAII (Michael W. Deem and Ramdas Pophale) SiO2 
 PCOD9098513
Probable space group: P -1
;
_chemical_formula_sum "Si O2"
_cell_formula_units_Z 16
_cell_length_a 7.447507
_cell_length_b 9.872895
_cell_length_c 14.639619
_cell_angle_alpha 73.165655
_cell_angle_beta 75.654255
_cell_angle_gamma 34.340141
_cell_volume 581.122192
_symmetry_space_group_name_H-M "P -1"
_symmetry_group_IT_number 2
_symmetry_cell_setting 'triclinic'
loop_
_space_group_symop_operation_xyz
x,y,z
-x,-y,-z
loop_
_atom_site_type_symbol
_atom_site_label
_atom_site_fract_x
_atom_site_fract_y
_atom_site_fract_z
Si Si1 0.373295 0.754884 0.581928
Si Si2 0.667279 0.940586 0.784410
Si Si3 0.873943 0.765242 0.090320
Si Si4 0.272158 0.359241 0.271047
Si Si5 0.776459 0.401554 0.099269
Si Si6 0.885207 0.233655 0.636502
Si Si7 0.725565 0.710197 0.392490
Si Si8 0.054096 0.918471 0.133367
O O1 0.489351 0.708660 0.681167
O O2 0.529078 0.503584 0.599708
O O3 0.575076 0.730316 0.494272
O O4 0.024772 0.039736 0.580887
O O5 0.566073 0.855369 0.770091
O O6 0.031965 0.696761 0.811371
O O7 0.472216 0.085338 0.874455
O O8 0.546421 0.115377 0.685576
O O9 0.082538 0.576949 0.184586
O O10 0.871079 0.932300 0.081337
O O11 0.043316 0.631900 0.000138
O O12 0.015979 0.450897 0.355335
O O13 0.418872 0.675811 0.099023
O O14 0.852102 0.188990 0.111741
O O15 0.897534 0.161756 0.751035
O O16 0.114213 0.234945 0.612394
#
# Coordination Sequence:
#
# PCOD9098513 Si02
#       8
#     2   2   2   2   2   2   2   2
#     4  11  20  35  64 108 122 158 220 290 316 373
#     4  11  24  43  67  97 139 175 216 280 335 390
#     4  11  24  45  70  98 126 178 231 279 321 388
#     4  10  20  36  67  95 135 159 219 275 339 365
#     4  12  30  43  67  99 138 179 221 269 337 400
#     4  11  20  38  64  96 128 166 208 278 326 373
#     4  10  21  35  65 101 127 161 222 277 327 377
#     4  12  25  47  68  97 137 177 223 273 328 397
#
# _framework density 27.532935999999999
#
# number of rings (size 3 to 8) (size 9 to 14) (size 15 to 20)
#    0.000    1.000    5.000    3.750    8.750    0.500 
#    0.000    0.000    0.000    4.500    0.000    0.000 
#    0.000    0.000    0.000    0.000    0.000    0.000 
#
# Total GULP energy -89509.215876 kJ/mol
# GULP energy per Si atom -5594.325992 kJ/mol
# Density = 2.747027 g / cm^3
# Si number density = 27.532936 Si / 1000 Ang^3
#
#
#
# Elastic Constant Matrix: (Units=GPa)
#
#
# Indices 1 2 3 4 5 6 
#
# 1 60.0353 22.6042 16.8618 7.2224 5.3306 5.4100
# 2 22.6042 185.1145 56.3826 29.4277 -13.5662 6.2206
# 3 16.8618 56.3826 150.1742 26.1042 -13.0253 -2.6346
# 4 7.2224 29.4277 26.1042 33.8599 -2.3918 3.9022
# 5 5.3306 -13.5662 -13.0253 -2.3918 34.1858 0.6378
# 6 5.4100 6.2206 -2.6346 3.9022 0.6378 35.9662
#
#
#
# Elastic Compliance Matrix: (Units=1/GPa)
#
#
# Indices 1 2 3 4 5 6 
#
# 1 0.018526 -0.001821 -0.001607 -0.001156 -0.004260 -0.002389
# 2 -0.001821 0.006935 -0.001477 -0.004275 0.002185 -0.000609
# 3 -0.001607 -0.001477 0.008499 -0.004933 0.002527 0.001610
# 4 -0.001156 -0.004275 -0.004933 0.037655 -0.000696 -0.003521
# 5 -0.004260 0.002185 0.002527 -0.000696 0.031698 -0.000039
# 6 -0.002389 -0.000609 0.001610 -0.003521 -0.000039 0.028769
#
#
# Mechanical properties :
#
#
# Convention : Reuss Voigt Hill
#
# Bulk Modulus (GPa) = 41.40843 65.22458 53.31651
# Shear Modulus (GPa) = 33.34617 40.76740 37.05678
#
# Velocity S-wave (km/s) = 3.48392 3.85213 3.67264
# Velocity P-wave (km/s) = 5.59069 6.59745 6.11482
#
# Compressibility (1/GPa) = 0.02414967
#
# Stress axis : x y z
#
# Youngs Moduli (GPa) = 53.97709 144.20571 117.66328
#
# Poissons Ratio (x) = 0.26259 0.18908
# Poissons Ratio (y) = 0.09829 0.17380
# Poissons Ratio (z) = 0.08674 0.21301
#
# Static dielectric constant tensor:
#      x y z
#    x 2.235660 0.001320 -0.077600 
#    y 0.001320 2.241870 -0.020290 
#    z -0.077600 -0.020290 2.123360 
# 
# From -- ./inp_files/500263.got.cif
#   From: 2010.05.17/outbox.cif.g08.bks.cpg/sg2_251_cif.got.tgz:500263.got - 2010.06.03 11:33:40.
