data_PCOD9098104
_publ_section_title
;
Structure prediction by ZEFSAII (Michael W. Deem and Ramdas Pophale) SiO2 
 PCOD9098104
Probable space group: P -1
;
_chemical_formula_sum "Si O2"
_cell_formula_units_Z 14
_cell_length_a 14.948526
_cell_length_b 9.268121
_cell_length_c 8.133055
_cell_angle_alpha 115.273318
_cell_angle_beta 88.111448
_cell_angle_gamma 41.796326
_cell_volume 551.854341
_symmetry_space_group_name_H-M "P -1"
_symmetry_group_IT_number 2
_symmetry_cell_setting 'triclinic'
loop_
_space_group_symop_operation_xyz
x,y,z
-x,-y,-z
loop_
_atom_site_type_symbol
_atom_site_label
_atom_site_fract_x
_atom_site_fract_y
_atom_site_fract_z
Si Si1 0.747337 0.861317 0.335279
Si Si2 0.414686 0.970145 0.073339
Si Si3 0.350319 0.656912 0.352193
Si Si4 0.812142 0.200924 0.222633
Si Si5 0.634016 0.689253 0.211551
Si Si6 0.901811 0.124469 0.735508
Si Si7 0.114303 0.269784 0.101746
O O1 0.642594 0.858662 0.342866
O O2 0.817833 0.781820 0.107850
O O3 0.634889 0.178852 0.543734
O O4 0.919457 0.590751 0.291739
O O5 0.495762 0.687718 0.856056
O O6 0.221495 0.225498 0.189726
O O7 0.471798 0.890658 0.218346
O O8 0.500000 0.000000 0.000000
O O9 0.275323 0.709959 0.555668
O O10 0.227256 0.818659 0.281786
O O11 0.700609 0.474451 0.244477
O O12 0.969728 0.065780 0.215040
O O13 0.855022 0.967688 0.019702
O O14 0.780086 0.451791 0.947491
O O15 0.000000 0.000000 0.500000
#
# Coordination Sequence:
#
# PCOD9098104 Si02
#       7
#     2   2   2   2   2   2   2
#     4  10  20  37  65  97 119 162 214 260 297 376
#     4  11  23  42  66  91 122 171 212 254 312 385
#     4   9  22  39  66  91 126 162 215 258 308 372
#     4  10  20  36  63  94 125 165 204 266 314 363
#     4  11  21  38  65  91 127 164 212 256 321 368
#     4   9  18  34  59  90 120 165 207 252 297 373
#     4  10  21  36  63  93 124 160 212 251 312 368
#
# _framework density 25.369014
#
# number of rings (size 3 to 8) (size 9 to 14) (size 15 to 20)
#    0.000    2.000    2.857    0.429    2.000    4.000 
#    0.000    1.429    6.286    0.000    0.000    0.000 
#    0.000    0.000    0.000    0.000    0.000    0.000 
#
# Total GULP energy -78328.154198 kJ/mol
# GULP energy per Si atom -5594.868157 kJ/mol
# Density = 2.531127 g / cm^3
# Si number density = 25.369014 Si / 1000 Ang^3
#
#
#
# Elastic Constant Matrix: (Units=GPa)
#
#
# Indices 1 2 3 4 5 6 
#
# 1 143.1852 80.0830 21.3562 0.6031 18.8631 -4.9872
# 2 80.0830 153.5568 18.4133 -16.5311 23.5417 -16.8834
# 3 21.3562 18.4133 94.4392 -1.0171 23.5469 11.0157
# 4 0.6031 -16.5311 -1.0171 34.0864 7.4484 6.0052
# 5 18.8631 23.5417 23.5469 7.4484 29.2609 5.1166
# 6 -4.9872 -16.8834 11.0157 6.0052 5.1166 55.9094
#
#
#
# Elastic Compliance Matrix: (Units=1/GPa)
#
#
# Indices 1 2 3 4 5 6 
#
# 1 0.010281 -0.005435 -0.001114 -0.002681 -0.000649 -0.000157
# 2 -0.005435 0.011725 0.000936 0.007272 -0.009044 0.002918
# 3 -0.001114 0.000936 0.013869 0.003804 -0.011836 -0.001875
# 4 -0.002681 0.007272 0.003804 0.036815 -0.016336 -0.001252
# 5 -0.000649 -0.009044 -0.011836 -0.016336 0.056226 -0.003848
# 6 -0.000157 0.002918 -0.001875 -0.001252 -0.003848 0.019609
#
#
# Mechanical properties :
#
#
# Convention : Reuss Voigt Hill
#
# Bulk Modulus (GPa) = 40.56954 70.09846 55.33400
# Shear Modulus (GPa) = 29.76774 41.93991 35.85383
#
# Velocity S-wave (km/s) = 3.42919 4.07036 3.76346
# Velocity P-wave (km/s) = 5.63078 7.05563 6.38309
#
# Compressibility (1/GPa) = 0.02464903
#
# Stress axis : x y z
#
# Youngs Moduli (GPa) = 97.26697 85.29094 72.10289
#
# Poissons Ratio (x) = 0.46353 0.08033
# Poissons Ratio (y) = 0.52861 -0.06748
# Poissons Ratio (z) = 0.10836 -0.07983
#
# Static dielectric constant tensor:
#      x y z
#    x 2.010760 -0.030010 -0.055440 
#    y -0.030010 2.028300 -0.018160 
#    z -0.055440 -0.018160 2.034100 
# 
# From -- ./inp_files/299533.got.cif
#   From: 2010.05.17/outbox.cif.g08.bks.cpg/sg2_150_cif.got.tgz:299533.got - 2010.06.03 11:33:40.
