data_PCOD9098201
_publ_section_title
;
Structure prediction by ZEFSAII (Michael W. Deem and Ramdas Pophale) SiO2 
 PCOD9098201
Probable space group: P -1
;
_chemical_formula_sum "Si O2"
_cell_formula_units_Z 15
_cell_length_a 7.598112
_cell_length_b 10.279032
_cell_length_c 18.360268
_cell_angle_alpha 36.478891
_cell_angle_beta 134.573984
_cell_angle_gamma 124.390526
_cell_volume 607.292828
_symmetry_space_group_name_H-M "P -1"
_symmetry_group_IT_number 2
_symmetry_cell_setting 'triclinic'
loop_
_space_group_symop_operation_xyz
x,y,z
-x,-y,-z
loop_
_atom_site_type_symbol
_atom_site_label
_atom_site_fract_x
_atom_site_fract_y
_atom_site_fract_z
Si Si1 0.071085 0.027291 0.685359
Si Si2 0.326994 0.191900 0.121476
Si Si3 0.715380 0.067413 0.907266
Si Si4 0.120843 0.090350 0.833531
Si Si5 0.500000 0.000000 0.500000
Si Si6 0.340808 0.427057 0.351415
Si Si7 0.850351 0.507930 0.530617
Si Si8 0.193588 0.631590 0.798584
O O1 0.137519 0.795951 0.774531
O O2 0.129573 0.238427 0.557199
O O3 0.198504 0.068768 0.782016
O O4 0.774069 0.031318 0.603886
O O5 0.552777 0.266205 0.205819
O O6 0.410842 0.008031 0.170340
O O7 0.087795 0.098351 0.133529
O O8 0.257228 0.398553 0.957386
O O9 0.680393 0.323826 0.795781
O O10 0.000000 0.000000 0.000000
O O11 0.687591 0.937288 0.033043
O O12 0.988087 0.323945 0.699618
O O13 0.414048 0.242457 0.398029
O O14 0.566772 0.437551 0.468645
O O15 0.058872 0.374079 0.317229
O O16 0.000000 0.500000 0.500000
#
# Coordination Sequence:
#
# PCOD9098201 Si02
#       8
#     2   2   2   2   1   2   2   2
#     4  10  21  40  64  93 125 170 207 263 325 372
#     4  10  21  42  63  92 130 170 209 263 321 379
#     4  10  20  39  64  89 124 169 216 255 310 376
#     4  10  20  39  66  95 126 161 224 269 302 380
#     4  10  20  36  64  88 126 166 200 256 330 374
#     4  11  19  38  65  87 122 174 205 257 317 379
#     4  10  20  39  63  87 128 165 211 257 314 377
#     4  10  21  38  66  88 126 172 205 260 331 376
#
# _framework density 24.699781999999999
#
# number of rings (size 3 to 8) (size 9 to 14) (size 15 to 20)
#    0.000    1.867    5.333    0.800    0.000    0.533 
#    0.000   15.333    0.000    0.000    0.000    0.000 
#    0.000    0.000    0.000    0.000    0.000    0.000 
#
# Total GULP energy -83512.731169 kJ/mol
# GULP energy per Si atom -5567.515411 kJ/mol
# Density = 2.464356 g / cm^3
# Si number density = 24.699782 Si / 1000 Ang^3
#
#
#
# Elastic Constant Matrix: (Units=GPa)
#
#
# Indices 1 2 3 4 5 6 
#
# 1 44.4946 13.5342 15.4223 -2.0487 3.6622 1.2267
# 2 13.5342 107.8100 39.7934 -8.9696 2.0031 -2.2409
# 3 15.4223 39.7934 119.4338 -13.2238 16.9287 -19.0273
# 4 -2.0487 -8.9696 -13.2238 57.6602 -4.1681 22.7055
# 5 3.6622 2.0031 16.9287 -4.1681 35.3421 -2.9449
# 6 1.2267 -2.2409 -19.0273 22.7055 -2.9449 42.6593
#
#
#
# Elastic Compliance Matrix: (Units=1/GPa)
#
#
# Indices 1 2 3 4 5 6 
#
# 1 0.024198 -0.002050 -0.002564 0.000838 -0.001271 -0.002481
# 2 -0.002050 0.010964 -0.003692 0.001578 0.001399 -0.001755
# 3 -0.002564 -0.003692 0.011310 -0.000275 -0.004579 0.004755
# 4 0.000838 0.001578 -0.000275 0.022334 0.001603 -0.011840
# 5 -0.001271 0.001399 -0.004579 0.001603 0.030674 -0.000668
# 6 -0.002481 -0.001755 0.004755 -0.011840 -0.000668 0.031797
#
#
# Mechanical properties :
#
#
# Convention : Reuss Voigt Hill
#
# Bulk Modulus (GPa) = 33.48744 45.47093 39.47918
# Shear Modulus (GPa) = 31.67719 40.66488 36.17104
#
# Velocity S-wave (km/s) = 3.58507 4.06195 3.83094
# Velocity P-wave (km/s) = 5.54294 6.35992 5.96543
#
# Compressibility (1/GPa) = 0.02986194
#
# Stress axis : x y z
#
# Youngs Moduli (GPa) = 41.32501 91.20475 88.41750
#
# Poissons Ratio (x) = 0.18693 0.22671
# Poissons Ratio (y) = 0.08470 0.32641
# Poissons Ratio (z) = 0.10596 0.33670
#
# Static dielectric constant tensor:
#      x y z
#    x 2.096180 0.064620 0.039570 
#    y 0.064620 2.008820 0.078150 
#    z 0.039570 0.078150 1.949140 
# 
# From -- ./inp_files/588906.got.cif
#   From: 2010.05.17/outbox.cif.g08.bks.cpg/sg2_295_cif.got.tgz:588906.got - 2010.06.03 11:33:40.
