data_PCOD9098892
_publ_section_title
;
Structure prediction by ZEFSAII (Michael W. Deem and Ramdas Pophale) SiO2 
 PCOD9098892
Probable space group: P -1
;
_chemical_formula_sum "Si O2"
_cell_formula_units_Z 16
_cell_length_a 11.803023
_cell_length_b 10.280845
_cell_length_c 9.096049
_cell_angle_alpha 64.494861
_cell_angle_beta 70.726570
_cell_angle_gamma 35.944116
_cell_volume 584.404950
_symmetry_space_group_name_H-M "P -1"
_symmetry_group_IT_number 2
_symmetry_cell_setting 'triclinic'
loop_
_space_group_symop_operation_xyz
x,y,z
-x,-y,-z
loop_
_atom_site_type_symbol
_atom_site_label
_atom_site_fract_x
_atom_site_fract_y
_atom_site_fract_z
Si Si1 0.225260 0.619970 0.603361
Si Si2 0.704574 0.402042 0.798216
Si Si3 0.597528 0.270128 0.461450
Si Si4 0.042626 0.211893 0.599687
Si Si5 0.835149 0.806041 0.153564
Si Si6 0.706337 0.765423 0.957905
Si Si7 0.431276 0.147709 0.312445
Si Si8 0.856551 0.304426 0.070363
O O1 0.435397 0.355121 0.597852
O O2 0.277128 0.738701 0.489637
O O3 0.137557 0.735168 0.743424
O O4 0.081364 0.653592 0.559388
O O5 0.526635 0.525333 0.711285
O O6 0.667693 0.610693 0.713974
O O7 0.915554 0.198958 0.730732
O O8 0.735450 0.328769 0.989261
O O9 0.746202 0.034181 0.422283
O O10 0.060954 0.309753 0.675932
O O11 0.616239 0.020674 0.197458
O O12 0.843673 0.689403 0.069141
O O13 0.938061 0.848890 0.016617
O O14 0.700369 0.820319 0.762073
O O15 0.742857 0.563551 0.012896
O O16 0.500000 0.000000 0.000000
O O17 0.500000 0.000000 0.500000
#
# Coordination Sequence:
#
# PCOD9098892 Si02
#       8
#     2   2   2   2   2   2   2   2
#     4  10  23  39  62  92 116 157 204 250 300 355
#     4   9  20  39  62  86 123 158 192 251 298 356
#     4  10  20  41  64  84 123 156 199 253 302 350
#     4  10  20  38  62  86 121 155 198 248 299 355
#     4  10  20  37  58  83 119 161 188 245 298 345
#     4   9  20  37  58  82 123 159 196 241 293 355
#     4  10  20  37  61  88 121 159 203 244 295 356
#     4  10  21  40  58  87 124 152 204 246 292 363
#
# _framework density 27.378274999999999
#
# number of rings (size 3 to 8) (size 9 to 14) (size 15 to 20)
#    0.000    2.250    1.250    0.750    0.000    5.500 
#    6.750    8.750    0.000    0.000    0.000    0.000 
#    0.000    0.000    0.000    0.000    0.000    0.000 
#
# Total GULP energy -89138.913301 kJ/mol
# GULP energy per Si atom -5571.182081 kJ/mol
# Density = 2.731596 g / cm^3
# Si number density = 27.378275 Si / 1000 Ang^3
#
#
#
# Elastic Constant Matrix: (Units=GPa)
#
#
# Indices 1 2 3 4 5 6 
#
# 1 104.5439 36.0287 61.1952 -1.8503 54.9229 -8.0987
# 2 36.0287 125.6829 56.6534 41.0153 6.6873 -13.8486
# 3 61.1952 56.6534 169.5585 25.7935 46.5733 -4.6181
# 4 -1.8503 41.0153 25.7935 39.4942 -10.4959 7.2880
# 5 54.9229 6.6873 46.5733 -10.4959 58.0718 7.3509
# 6 -8.0987 -13.8486 -4.6181 7.2880 7.3509 43.4147
#
#
#
# Elastic Compliance Matrix: (Units=1/GPa)
#
#
# Indices 1 2 3 4 5 6 
#
# 1 0.023791 -0.003949 -0.000471 -0.001929 -0.022946 0.007337
# 2 -0.003949 0.016581 -0.000235 -0.019443 -0.002541 0.008221
# 3 -0.000471 -0.000235 0.010796 -0.010502 -0.010660 0.004553
# 4 -0.001929 -0.019443 -0.010502 0.063655 0.026891 -0.022918
# 5 -0.022946 -0.002541 -0.010660 0.026891 0.055165 -0.020079
# 6 0.007337 0.008221 0.004553 -0.022918 -0.020079 0.034756
#
#
# Mechanical properties :
#
#
# Convention : Reuss Voigt Hill
#
# Bulk Modulus (GPa) = 23.89108 78.61554 51.25331
# Shear Modulus (GPa) = 21.92911 44.59003 33.25957
#
# Velocity S-wave (km/s) = 2.83321 4.04005 3.48920
# Velocity P-wave (km/s) = 4.40999 7.10912 5.91555
#
# Compressibility (1/GPa) = 0.04185663
#
# Stress axis : x y z
#
# Youngs Moduli (GPa) = 42.03273 60.31139 92.62791
#
# Poissons Ratio (x) = 0.23816 0.04364
# Poissons Ratio (y) = 0.16598 0.02180
# Poissons Ratio (z) = 0.01981 0.01420
#
# Static dielectric constant tensor:
#      x y z
#    x 2.207280 -0.053470 0.017180 
#    y -0.053470 2.203060 -0.125890 
#    z 0.017180 -0.125890 2.394470 
# 
# From -- ./inp_files/311624.got.cif
#   From: 2010.05.17/outbox.cif.g08.bks.cpg/sg2_156_cif.got.tgz:311624.got - 2010.06.03 11:33:40.
