data_PCOD9098008
_publ_section_title
;
Structure prediction by ZEFSAII (Michael W. Deem and Ramdas Pophale) SiO2 
 PCOD9098008
Probable space group: P -1
;
_chemical_formula_sum "Si O2"
_cell_formula_units_Z 16
_cell_length_a 14.689346
_cell_length_b 9.391038
_cell_length_c 10.592421
_cell_angle_alpha 70.144588
_cell_angle_beta 43.051649
_cell_angle_gamma 50.873071
_cell_volume 753.178724
_symmetry_space_group_name_H-M "P -1"
_symmetry_group_IT_number 2
_symmetry_cell_setting 'triclinic'
loop_
_space_group_symop_operation_xyz
x,y,z
-x,-y,-z
loop_
_atom_site_type_symbol
_atom_site_label
_atom_site_fract_x
_atom_site_fract_y
_atom_site_fract_z
Si Si1 0.924715 0.687053 0.437674
Si Si2 0.767597 0.483650 0.999122
Si Si3 0.104874 0.078827 0.366141
Si Si4 0.613255 0.028171 0.554868
Si Si5 0.176659 0.841749 0.805190
Si Si6 0.534997 0.150685 0.883522
Si Si7 0.240414 0.293160 0.816462
Si Si8 0.950533 0.311168 0.207437
O O1 0.057898 0.637718 0.211696
O O2 0.000000 0.500000 0.500000
O O3 0.908532 0.830303 0.513874
O O4 0.742211 0.805325 0.522667
O O5 0.735976 0.343719 0.138941
O O6 0.625188 0.636266 0.001900
O O7 0.774899 0.604970 0.065527
O O8 0.028767 0.233024 0.287424
O O9 0.298536 0.916126 0.193128
O O10 0.000000 0.000000 0.500000
O O11 0.711321 0.087680 0.356645
O O12 0.573463 0.129306 0.701548
O O13 0.429997 0.114182 0.662478
O O14 0.135355 0.779431 0.735890
O O15 0.000000 0.000000 0.000000
O O16 0.500000 0.000000 0.000000
O O17 0.177532 0.462736 0.732086
O O18 0.103351 0.254987 0.977117
#
# Coordination Sequence:
#
# PCOD9098008 Si02
#       8
#     2   2   2   2   2   2   2   2
#     4  11  21  36  62  89 120 159 201 248 294 361
#     4  10  20  36  63  86 118 152 206 241 298 345
#     4  11  23  37  60  87 124 158 194 243 302 362
#     4  10  20  37  61  90 115 153 210 238 294 356
#     4  11  22  38  62  86 117 158 196 256 297 350
#     4  10  20  37  62  91 118 160 203 244 288 366
#     4   9  20  37  63  88 110 154 197 252 284 355
#     4  10  20  37  60  84 121 152 197 238 306 348
#
# _framework density 21.243297999999999
#
# number of rings (size 3 to 8) (size 9 to 14) (size 15 to 20)
#    0.000    1.750    1.250    5.250    0.000    5.500 
#    0.000    1.250    5.500    0.000    0.000    0.000 
#    0.000    0.000    0.000    0.000    0.000    0.000 
#
# Total GULP energy -89374.882000 kJ/mol
# GULP energy per Si atom -5585.930125 kJ/mol
# Density = 2.119495 g / cm^3
# Si number density = 21.243298 Si / 1000 Ang^3
#
#
#
# Elastic Constant Matrix: (Units=GPa)
#
#
# Indices 1 2 3 4 5 6 
#
# 1 59.1283 32.1810 18.8258 14.4727 -16.5946 -24.3445
# 2 32.1810 104.5054 34.8169 7.2603 -22.6906 -33.6986
# 3 18.8258 34.8169 84.4557 8.9324 -16.5631 -16.9351
# 4 14.4727 7.2603 8.9324 42.1322 -4.1152 -9.2299
# 5 -16.5946 -22.6906 -16.5631 -4.1152 43.9300 8.9605
# 6 -24.3445 -33.6986 -16.9351 -9.2299 8.9605 43.4912
#
#
#
# Elastic Compliance Matrix: (Units=1/GPa)
#
#
# Indices 1 2 3 4 5 6 
#
# 1 0.025526 -0.002995 -0.000961 -0.005484 0.005315 0.009334
# 2 -0.002995 0.014929 -0.003247 0.001296 0.003822 0.008114
# 3 -0.000961 -0.003247 0.014461 -0.001529 0.002932 0.001648
# 4 -0.005484 0.001296 -0.001529 0.026356 -0.000113 0.002955
# 5 0.005315 0.003822 0.002932 -0.000113 0.027560 0.001376
# 6 0.009334 0.008114 0.001648 0.002955 0.001376 0.035491
#
#
# Mechanical properties :
#
#
# Convention : Reuss Voigt Hill
#
# Bulk Modulus (GPa) = 24.68598 46.63743 35.66170
# Shear Modulus (GPa) = 29.03054 36.72840 32.87947
#
# Velocity S-wave (km/s) = 3.70073 4.16256 3.93842
# Velocity P-wave (km/s) = 5.46867 6.71597 6.12416
#
# Compressibility (1/GPa) = 0.04050883
#
# Stress axis : x y z
#
# Youngs Moduli (GPa) = 39.17607 66.98175 69.15264
#
# Poissons Ratio (x) = 0.20062 0.06645
# Poissons Ratio (y) = 0.11734 0.22457
# Poissons Ratio (z) = 0.03765 0.21752
#
# Static dielectric constant tensor:
#      x y z
#    x 1.792380 -0.035560 -0.014370 
#    y -0.035560 1.801880 0.045270 
#    z -0.014370 0.045270 1.739010 
# 
# From -- ./inp_files/181330.got.cif
#   From: 2010.05.17/outbox.cif.g08.bks.cpg/sg2_91_cif.got.tgz:181330.got - 2010.06.03 11:33:40.
