data_PCOD9098315
_publ_section_title
;
Structure prediction by ZEFSAII (Michael W. Deem and Ramdas Pophale) SiO2 
 PCOD9098315
Probable space group: P -1
;
_chemical_formula_sum "Si O2"
_cell_formula_units_Z 16
_cell_length_a 7.990057
_cell_length_b 12.165307
_cell_length_c 17.019264
_cell_angle_alpha 108.683166
_cell_angle_beta 146.438486
_cell_angle_gamma 55.772047
_cell_volume 715.203212
_symmetry_space_group_name_H-M "P -1"
_symmetry_group_IT_number 2
_symmetry_cell_setting 'triclinic'
loop_
_space_group_symop_operation_xyz
x,y,z
-x,-y,-z
loop_
_atom_site_type_symbol
_atom_site_label
_atom_site_fract_x
_atom_site_fract_y
_atom_site_fract_z
Si Si1 0.880827 0.787791 0.037876
Si Si2 0.546680 0.925669 0.705714
Si Si3 0.316455 0.568733 0.527354
Si Si4 0.289418 0.904030 0.970169
Si Si5 0.220201 0.114600 0.477829
Si Si6 0.399485 0.300706 0.228062
Si Si7 0.487471 0.691616 0.378903
Si Si8 0.862449 0.814829 0.294456
O O1 0.534125 0.842153 0.973171
O O2 0.873268 0.698984 0.941884
O O3 0.247647 0.699760 0.213370
O O4 0.839254 0.933693 0.033348
O O5 0.605715 0.780586 0.716022
O O6 0.929384 0.904409 0.830682
O O7 0.279837 0.017731 0.552779
O O8 0.355064 0.024138 0.728578
O O9 0.500000 0.500000 0.500000
O O10 0.585026 0.577070 0.695770
O O11 0.236276 0.464383 0.514020
O O12 0.995344 0.721176 0.403936
O O13 0.560743 0.809745 0.125534
O O14 0.337511 0.223626 0.554898
O O15 0.790139 0.208075 0.315505
O O16 0.500000 0.000000 0.500000
O O17 0.190851 0.771785 0.352734
#
# Coordination Sequence:
#
# PCOD9098315 Si02
#       8
#     2   2   2   2   2   2   2   2
#     4  10  21  40  62  95 132 163 209 264 321 385
#     4  12  22  36  63  99 130 160 208 269 324 378
#     4  10  24  44  65  87 124 179 217 261 312 373
#     4  10  20  36  64  97 132 167 196 261 337 380
#     4  12  25  38  64 101 130 165 205 271 328 378
#     4  12  25  39  63  98 130 163 217 268 314 377
#     4  10  23  44  67  85 131 177 211 252 319 382
#     4  10  20  39  64  94 123 164 214 255 310 383
#
# _framework density 22.371265000000001
#
# number of rings (size 3 to 8) (size 9 to 14) (size 15 to 20)
#    0.000    1.250    3.750    2.250    5.250    1.000 
#    0.000    0.000    2.750    2.250    0.000    0.000 
#    0.000    0.000    0.000    0.000    0.000    0.000 
#
# Total GULP energy -89333.516618 kJ/mol
# GULP energy per Si atom -5583.344789 kJ/mol
# Density = 2.232035 g / cm^3
# Si number density = 22.371265 Si / 1000 Ang^3
#
#
#
# Elastic Constant Matrix: (Units=GPa)
#
#
# Indices 1 2 3 4 5 6 
#
# 1 68.1663 21.4999 17.3750 4.6223 -3.4797 12.7810
# 2 21.4999 62.2717 20.0828 12.0795 -9.5017 19.2991
# 3 17.3750 20.0828 94.6516 6.2059 -7.0307 22.0934
# 4 4.6223 12.0795 6.2059 26.1146 0.2551 -6.2215
# 5 -3.4797 -9.5017 -7.0307 0.2551 43.3333 2.2685
# 6 12.7810 19.2991 22.0934 -6.2215 2.2685 32.7298
#
#
#
# Elastic Compliance Matrix: (Units=1/GPa)
#
#
# Indices 1 2 3 4 5 6 
#
# 1 0.017094 -0.003801 -0.001226 -0.001938 0.000562 -0.004014
# 2 -0.003801 0.027192 0.000927 -0.016677 0.006891 -0.018823
# 3 -0.001226 0.000927 0.013695 -0.006035 0.002920 -0.010662
# 4 -0.001938 -0.016677 -0.006035 0.053887 -0.006436 0.025354
# 5 0.000562 0.006891 0.002920 -0.006436 0.025629 -0.009254
# 6 -0.004014 -0.018823 -0.010662 0.025354 -0.009254 0.055878
#
#
# Mechanical properties :
#
#
# Convention : Reuss Voigt Hill
#
# Bulk Modulus (GPa) = 20.08760 38.11166 29.09963
# Shear Modulus (GPa) = 22.91818 31.51100 27.21459
#
# Velocity S-wave (km/s) = 3.20417 3.75713 3.49162
# Velocity P-wave (km/s) = 4.76315 5.99119 5.41212
#
# Compressibility (1/GPa) = 0.04978195
#
# Stress axis : x y z
#
# Youngs Moduli (GPa) = 58.50025 36.77530 73.02136
#
# Poissons Ratio (x) = 0.13978 0.08950
# Poissons Ratio (y) = 0.22235 -0.06771
# Poissons Ratio (z) = 0.07170 -0.03410
#
# Static dielectric constant tensor:
#      x y z
#    x 1.897610 -0.097150 -0.001830 
#    y -0.097150 1.944810 -0.034080 
#    z -0.001830 -0.034080 1.865360 
# 
# From -- ./inp_files/559160.got.cif
#   From: 2010.05.17/outbox.cif.g08.bks.cpg/sg2_280_cif.got.tgz:559160.got - 2010.06.03 11:33:40.
