data_PCOD9098699
_publ_section_title
;
Structure prediction by ZEFSAII (Michael W. Deem and Ramdas Pophale) SiO2 
 PCOD9098699
Probable space group: P -1
;
_chemical_formula_sum "Si O2"
_cell_formula_units_Z 16
_cell_length_a 8.269478
_cell_length_b 15.229773
_cell_length_c 6.023221
_cell_angle_alpha 75.245604
_cell_angle_beta 88.429398
_cell_angle_gamma 70.864253
_cell_volume 691.724926
_symmetry_space_group_name_H-M "P -1"
_symmetry_group_IT_number 2
_symmetry_cell_setting 'triclinic'
loop_
_space_group_symop_operation_xyz
x,y,z
-x,-y,-z
loop_
_atom_site_type_symbol
_atom_site_label
_atom_site_fract_x
_atom_site_fract_y
_atom_site_fract_z
Si Si1 0.579145 0.570226 0.739314
Si Si2 0.743815 0.402711 0.519216
Si Si3 0.461468 0.913554 0.307484
Si Si4 0.836523 0.546448 0.132048
Si Si5 0.717325 0.712427 0.357433
Si Si6 0.997853 0.211739 0.586532
Si Si7 0.153906 0.902100 0.625224
Si Si8 0.755121 0.978300 0.139518
O O1 0.644491 0.465470 0.687514
O O2 0.378360 0.605398 0.673667
O O3 0.644633 0.642833 0.545340
O O4 0.664914 0.564055 0.979101
O O5 0.849851 0.466658 0.371552
O O6 0.850857 0.296333 0.654876
O O7 0.566644 0.812688 0.244849
O O8 0.331607 0.888529 0.496237
O O9 0.617349 0.955173 0.326979
O O10 0.336141 0.996940 0.106491
O O11 0.813249 0.648161 0.186618
O O12 0.000000 0.500000 0.000000
O O13 0.851002 0.744011 0.480996
O O14 0.081043 0.116776 0.791523
O O15 0.920977 0.180371 0.389152
O O16 0.198727 0.928548 0.850434
O O17 0.000000 0.000000 0.500000
#
# Coordination Sequence:
#
# PCOD9098699 Si02
#       8
#     2   2   2   2   2   2   2   2
#     4  10  21  39  60  84 118 153 193 241 288 345
#     4  10  21  38  59  86 118 153 191 239 294 344
#     4  10  20  39  62  85 117 153 194 242 286 346
#     4  11  22  38  61  88 119 153 194 240 289 348
#     4  10  22  38  59  86 116 156 196 235 291 344
#     4  10  20  37  56  83 119 150 189 238 287 342
#     4  10  21  37  58  85 115 150 191 239 292 340
#     4   9  21  39  60  85 115 154 197 238 290 343
#
# _framework density 23.130579999999998
#
# number of rings (size 3 to 8) (size 9 to 14) (size 15 to 20)
#    0.000    2.000    0.000    3.000    0.000    6.000 
#    0.000   21.250    0.000    0.000    0.000    0.000 
#    0.000    0.000    0.000    0.000    0.000    0.000 
#
# Total GULP energy -89244.490255 kJ/mol
# GULP energy per Si atom -5577.780641 kJ/mol
# Density = 2.307793 g / cm^3
# Si number density = 23.130580 Si / 1000 Ang^3
#
#
#
# Elastic Constant Matrix: (Units=GPa)
#
#
# Indices 1 2 3 4 5 6 
#
# 1 101.8908 49.7302 14.5707 5.4505 5.7485 9.9294
# 2 49.7302 149.4364 18.7538 -0.7961 15.2180 -7.9903
# 3 14.5707 18.7538 23.6249 -5.5269 4.4104 -1.2546
# 4 5.4505 -0.7961 -5.5269 19.0340 -0.7098 9.5529
# 5 5.7485 15.2180 4.4104 -0.7098 38.0802 5.4702
# 6 9.9294 -7.9903 -1.2546 9.5529 5.4702 43.6775
#
#
#
# Elastic Compliance Matrix: (Units=1/GPa)
#
#
# Indices 1 2 3 4 5 6 
#
# 1 0.013050 -0.003801 -0.006289 -0.004190 0.000631 -0.003005
# 2 -0.003801 0.008968 -0.004400 -0.001466 -0.002969 0.003071
# 3 -0.006289 -0.004400 0.054407 0.017984 -0.003063 -0.001362
# 4 -0.004190 -0.001466 0.017984 0.065742 0.002295 -0.013465
# 5 0.000631 -0.002969 -0.003063 0.002295 0.028444 -0.004839
# 6 -0.003005 0.003071 -0.001362 -0.013465 -0.004839 0.027652
#
#
# Mechanical properties :
#
#
# Convention : Reuss Voigt Hill
#
# Bulk Modulus (GPa) = 21.07745 49.00683 35.04214
# Shear Modulus (GPa) = 20.57126 32.95152 26.76139
#
# Velocity S-wave (km/s) = 2.98544 3.77846 3.40512
# Velocity P-wave (km/s) = 4.58431 6.34577 5.53555
#
# Compressibility (1/GPa) = 0.04744407
#
# Stress axis : x y z
#
# Youngs Moduli (GPa) = 76.62597 111.51250 18.38012
#
# Poissons Ratio (x) = 0.42385 0.11560
# Poissons Ratio (y) = 0.29125 0.08087
# Poissons Ratio (z) = 0.48192 0.49066
#
# Static dielectric constant tensor:
#      x y z
#    x 1.940510 0.000950 -0.002850 
#    y 0.000950 1.861200 0.021570 
#    z -0.002850 0.021570 1.881690 
# 
# From -- ./inp_files/38016.got.cif
#   From: 2010.05.17/outbox.cif.g08.bks.cpg/sg2_20_cif.got.tgz:38016.got - 2010.06.03 11:33:40.
