data_PCOD9098394
_publ_section_title
;
Structure prediction by ZEFSAII (Michael W. Deem and Ramdas Pophale) SiO2 
 PCOD9098394
Probable space group: P -1
;
_chemical_formula_sum "Si O2"
_cell_formula_units_Z 16
_cell_length_a 9.339512
_cell_length_b 10.312508
_cell_length_c 17.144018
_cell_angle_alpha 140.776374
_cell_angle_beta 110.055560
_cell_angle_gamma 98.124949
_cell_volume 714.410685
_symmetry_space_group_name_H-M "P -1"
_symmetry_group_IT_number 2
_symmetry_cell_setting 'triclinic'
loop_
_space_group_symop_operation_xyz
x,y,z
-x,-y,-z
loop_
_atom_site_type_symbol
_atom_site_label
_atom_site_fract_x
_atom_site_fract_y
_atom_site_fract_z
Si Si1 0.255188 0.837374 0.222314
Si Si2 0.104277 0.863984 0.792451
Si Si3 0.259246 0.126097 0.108880
Si Si4 0.029851 0.038003 0.716177
Si Si5 0.290640 0.585129 0.709117
Si Si6 0.632226 0.455140 0.554283
Si Si7 0.134604 0.305550 0.706878
Si Si8 0.004276 0.569499 0.895901
O O1 0.210641 0.639117 0.192320
O O2 0.116742 0.912365 0.255063
O O3 0.489313 0.127650 0.389487
O O4 0.167297 0.681693 0.050371
O O5 0.199703 0.726724 0.747987
O O6 0.852053 0.612723 0.628646
O O7 0.155124 0.045739 0.811812
O O8 0.178570 0.045011 0.968618
O O9 0.480832 0.213761 0.191280
O O10 0.311005 0.389679 0.280257
O O11 0.092699 0.852487 0.003519
O O12 0.181885 0.256721 0.777927
O O13 0.866428 0.722784 0.502877
O O14 0.297986 0.529565 0.776547
O O15 0.500000 0.500000 0.500000
O O16 0.008460 0.395202 0.750289
O O17 0.000000 0.000000 0.500000
#
# Coordination Sequence:
#
# PCOD9098394 Si02
#       8
#     2   2   2   2   2   2   2   2
#     4  10  20  39  66  91 123 171 219 259 327 383
#     4  12  24  37  62 104 131 165 222 279 322 384
#     4  12  23  40  66  96 136 171 220 271 330 387
#     4  10  20  40  65  89 128 172 216 263 325 391
#     4  11  22  41  66  95 129 174 219 267 327 387
#     4  12  22  41  66  95 130 179 218 267 329 392
#     4   9  20  38  64  90 127 177 212 258 330 390
#     4  10  20  36  65  95 123 166 216 271 315 385
#
# _framework density 22.396080000000001
#
# number of rings (size 3 to 8) (size 9 to 14) (size 15 to 20)
#    0.000    1.250    5.000    1.125    0.000    0.000 
#    0.000    1.250    0.000    6.000    0.000    0.000 
#    0.000    0.000    0.000    0.000    0.000    0.000 
#
# Total GULP energy -89403.826417 kJ/mol
# GULP energy per Si atom -5587.739151 kJ/mol
# Density = 2.234511 g / cm^3
# Si number density = 22.396080 Si / 1000 Ang^3
#
#
#
# Elastic Constant Matrix: (Units=GPa)
#
#
# Indices 1 2 3 4 5 6 
#
# 1 84.5851 6.0928 9.2269 -1.8518 -2.1171 0.9388
# 2 6.0928 116.3279 7.5484 -12.8987 5.6114 -1.3578
# 3 9.2269 7.5484 62.9651 -7.2113 -12.8844 -2.4453
# 4 -1.8518 -12.8987 -7.2113 24.1210 8.2831 -5.9192
# 5 -2.1171 5.6114 -12.8844 8.2831 34.1102 -2.8463
# 6 0.9388 -1.3578 -2.4453 -5.9192 -2.8463 19.5589
#
#
#
# Elastic Compliance Matrix: (Units=1/GPa)
#
#
# Indices 1 2 3 4 5 6 
#
# 1 0.012060 -0.000554 -0.001719 -0.000147 0.000155 -0.000854
# 2 -0.000554 0.009589 -0.000938 0.006461 -0.003365 0.002041
# 3 -0.001719 -0.000938 0.018137 0.003662 0.006370 0.004320
# 4 -0.000147 0.006461 0.003662 0.053731 -0.011442 0.015509
# 5 0.000155 -0.003365 0.006370 -0.011442 0.035250 0.002222
# 6 -0.000854 0.002041 0.004320 0.015509 0.002222 0.056868
#
#
# Mechanical properties :
#
#
# Convention : Reuss Voigt Hill
#
# Bulk Modulus (GPa) = 29.97239 34.40157 32.18698
# Shear Modulus (GPa) = 24.60909 31.62535 28.11722
#
# Velocity S-wave (km/s) = 3.31843 3.76186 3.54708
# Velocity P-wave (km/s) = 5.30043 5.85343 5.58378
#
# Compressibility (1/GPa) = 0.03336404
#
# Stress axis : x y z
#
# Youngs Moduli (GPa) = 82.91890 104.28869 55.13682
#
# Poissons Ratio (x) = 0.05776 0.09479
# Poissons Ratio (y) = 0.04592 0.05170
# Poissons Ratio (z) = 0.14256 0.09779
#
# Static dielectric constant tensor:
#      x y z
#    x 1.820290 -0.000350 -0.017650 
#    y -0.000350 1.874790 0.003660 
#    z -0.017650 0.003660 1.820720 
# 
# From -- ./inp_files/559304.got.cif
#   From: 2010.05.17/outbox.cif.g08.bks.cpg/sg2_280_cif.got.tgz:559304.got - 2010.06.03 11:33:40.
