data_PCOD9098535
_publ_section_title
;
Structure prediction by ZEFSAII (Michael W. Deem and Ramdas Pophale) SiO2 
 PCOD9098535
Probable space group: P -1
;
_chemical_formula_sum "Si O2"
_cell_formula_units_Z 16
_cell_length_a 16.460762
_cell_length_b 5.217379
_cell_length_c 8.680868
_cell_angle_alpha 87.078973
_cell_angle_beta 80.031596
_cell_angle_gamma 101.863780
_cell_volume 715.688120
_symmetry_space_group_name_H-M "P -1"
_symmetry_group_IT_number 2
_symmetry_cell_setting 'triclinic'
loop_
_space_group_symop_operation_xyz
x,y,z
-x,-y,-z
loop_
_atom_site_type_symbol
_atom_site_label
_atom_site_fract_x
_atom_site_fract_y
_atom_site_fract_z
Si Si1 0.088563 0.297246 0.843561
Si Si2 0.350951 0.765050 0.325496
Si Si3 0.746104 0.593694 0.394569
Si Si4 0.504667 0.447974 0.744003
Si Si5 0.279388 0.036698 0.086617
Si Si6 0.657069 0.404008 0.107630
Si Si7 0.100039 0.784727 0.049202
Si Si8 0.396274 0.136184 0.546748
O O1 0.156555 0.351312 0.683798
O O2 0.111300 0.528830 0.957486
O O3 0.094970 0.019036 0.924220
O O4 0.990833 0.284344 0.835868
O O5 0.275004 0.552389 0.430657
O O6 0.418319 0.656488 0.203770
O O7 0.400942 0.877566 0.461020
O O8 0.320236 0.992945 0.238089
O O9 0.696516 0.441002 0.266711
O O10 0.701216 0.841750 0.410351
O O11 0.439778 0.204173 0.693435
O O12 0.554793 0.638552 0.590926
O O13 0.557466 0.404409 0.151067
O O14 0.298606 0.332413 0.008914
O O15 0.319412 0.850723 0.965571
O O16 0.180163 0.904025 0.123784
#
# Coordination Sequence:
#
# PCOD9098535 Si02
#       8
#     2   2   2   2   2   2   2   2
#     4  10  20  36  68  92 118 155 210 248 293 363
#     4  11  25  37  64  85 132 163 201 255 319 364
#     4  10  21  39  62  94 113 165 213 252 289 374
#     4   9  21  39  59  87 115 164 218 258 292 356
#     4  12  25  42  60  95 132 160 194 261 324 361
#     4  11  25  40  67  88 121 166 214 256 298 365
#     4  10  20  39  61  95 124 154 195 258 307 356
#     4   9  20  38  59  86 121 160 210 257 301 352
#
# _framework density 22.356107000000002
#
# number of rings (size 3 to 8) (size 9 to 14) (size 15 to 20)
#    0.000    1.750    2.500    1.125   10.500    1.000 
#    0.000    0.625    0.000    0.750    0.000    0.000 
#    0.000    0.000    0.000    0.000    0.000    0.000 
#
# Total GULP energy -89382.540243 kJ/mol
# GULP energy per Si atom -5586.408765 kJ/mol
# Density = 2.230522 g / cm^3
# Si number density = 22.356107 Si / 1000 Ang^3
#
#
#
# Elastic Constant Matrix: (Units=GPa)
#
#
# Indices 1 2 3 4 5 6 
#
# 1 130.0499 19.0342 34.5476 -7.8214 -33.4358 10.6838
# 2 19.0342 80.4818 18.6243 -3.4593 -6.7649 -3.6533
# 3 34.5476 18.6243 67.7925 -7.1131 -5.3613 0.2866
# 4 -7.8214 -3.4593 -7.1131 34.9512 -6.6557 -2.4596
# 5 -33.4358 -6.7649 -5.3613 -6.6557 37.4489 1.8181
# 6 10.6838 -3.6533 0.2866 -2.4596 1.8181 26.3033
#
#
#
# Elastic Compliance Matrix: (Units=1/GPa)
#
#
# Indices 1 2 3 4 5 6 
#
# 1 0.012765 -0.001029 -0.004926 0.003521 0.011410 -0.005733
# 2 -0.001029 0.013613 -0.003042 0.000882 0.001148 0.002345
# 3 -0.004926 -0.003042 0.018137 0.002013 -0.002077 0.001713
# 4 0.003521 0.000882 0.002013 0.031715 0.009179 0.001001
# 5 0.011410 0.001148 -0.002077 0.009179 0.038736 -0.006272
# 6 -0.005733 0.002345 0.001713 0.001001 -0.006272 0.041181
#
#
# Mechanical properties :
#
#
# Convention : Reuss Voigt Hill
#
# Bulk Modulus (GPa) = 37.70701 46.97072 42.33886
# Shear Modulus (GPa) = 27.32506 33.48190 30.40348
#
# Velocity S-wave (km/s) = 3.49988 3.87416 3.69177
# Velocity P-wave (km/s) = 5.76501 6.40843 6.09522
#
# Compressibility (1/GPa) = 0.02652027
#
# Stress axis : x y z
#
# Youngs Moduli (GPa) = 78.33948 73.45748 55.13625
#
# Poissons Ratio (x) = 0.07557 0.27162
# Poissons Ratio (y) = 0.08059 0.16774
# Poissons Ratio (z) = 0.38593 0.22348
#
# Static dielectric constant tensor:
#      x y z
#    x 1.842410 0.015040 0.001100 
#    y 0.015040 1.859830 0.012770 
#    z 0.001100 0.012770 1.842620 
# 
# From -- ./inp_files/42012.got.cif
#   From: 2010.05.17/outbox.cif.g08.bks.cpg/sg2_22_cif.got.tgz:42012.got - 2010.06.03 11:33:40.
