data_PCOD9098877
_publ_section_title
;
Structure prediction by ZEFSAII (Michael W. Deem and Ramdas Pophale) SiO2 
 PCOD9098877
Probable space group: P -1
;
_chemical_formula_sum "Si O2"
_cell_formula_units_Z 16
_cell_length_a 9.180830
_cell_length_b 6.791899
_cell_length_c 21.633250
_cell_angle_alpha 123.169454
_cell_angle_beta 129.228957
_cell_angle_gamma 47.155089
_cell_volume 749.688399
_symmetry_space_group_name_H-M "P -1"
_symmetry_group_IT_number 2
_symmetry_cell_setting 'triclinic'
loop_
_space_group_symop_operation_xyz
x,y,z
-x,-y,-z
loop_
_atom_site_type_symbol
_atom_site_label
_atom_site_fract_x
_atom_site_fract_y
_atom_site_fract_z
Si Si1 0.632116 0.195938 0.412614
Si Si2 0.723006 0.750299 0.266592
Si Si3 0.752096 0.107840 0.934373
Si Si4 0.645650 0.836009 0.112258
Si Si5 0.861950 0.522204 0.828284
Si Si6 0.539430 0.538521 0.846277
Si Si7 0.163365 0.672613 0.348030
Si Si8 0.046517 0.200723 0.473730
O O1 0.401364 0.472489 0.406236
O O2 0.829912 0.245621 0.458402
O O3 0.606096 0.036294 0.320338
O O4 0.734069 0.974803 0.456804
O O5 0.689610 0.795052 0.191423
O O6 0.629634 0.562332 0.231721
O O7 0.981414 0.627284 0.325038
O O8 0.768519 0.847380 0.857839
O O9 0.577364 0.173604 0.954066
O O10 0.658113 0.370748 0.910739
O O11 0.000000 0.000000 0.000000
O O12 0.880193 0.618827 0.109921
O O13 0.586973 0.134788 0.125872
O O14 0.723829 0.467805 0.832243
O O15 0.838058 0.403807 0.736705
O O16 0.084490 0.991455 0.391970
O O17 0.000000 0.500000 0.500000
#
# Coordination Sequence:
#
# PCOD9098877 Si02
#       8
#     2   2   2   2   2   2   2   2
#     4  10  20  37  58  82 112 150 193 233 280 339
#     4   9  20  36  58  85 117 149 187 239 287 332
#     4  10  22  40  59  83 119 155 187 231 284 337
#     4   9  20  37  56  86 120 148 190 238 279 335
#     4  10  22  38  59  89 116 145 192 239 281 337
#     4  10  20  37  60  85 115 152 189 230 286 339
#     4  10  20  39  61  83 115 149 189 239 283 336
#     4  10  23  39  55  81 117 151 187 235 287 334
#
# _framework density 21.342200999999999
#
# number of rings (size 3 to 8) (size 9 to 14) (size 15 to 20)
#    0.000    2.250    0.000    2.625    0.000   11.000 
#    0.000    7.500    0.000    0.000    0.000    0.000 
#    0.000    0.000    0.000    0.000    0.000    0.000 
#
# Total GULP energy -89322.300426 kJ/mol
# GULP energy per Si atom -5582.643777 kJ/mol
# Density = 2.129362 g / cm^3
# Si number density = 21.342201 Si / 1000 Ang^3
#
#
#
# Elastic Constant Matrix: (Units=GPa)
#
#
# Indices 1 2 3 4 5 6 
#
# 1 83.4811 73.5106 35.0877 -0.0737 16.0764 -9.7574
# 2 73.5106 151.9107 33.6227 -0.7322 19.5173 -7.4354
# 3 35.0877 33.6227 67.5638 3.4272 20.4622 -0.3165
# 4 -0.0737 -0.7322 3.4272 23.0778 -11.1073 9.9155
# 5 16.0764 19.5173 20.4622 -11.1073 27.7984 -5.6416
# 6 -9.7574 -7.4354 -0.3165 9.9155 -5.6416 43.0858
#
#
#
# Elastic Compliance Matrix: (Units=1/GPa)
#
#
# Indices 1 2 3 4 5 6 
#
# 1 0.024453 -0.009826 -0.007118 -0.001799 -0.001920 0.003952
# 2 -0.009826 0.011658 0.000355 -0.001137 -0.003296 -0.000381
# 3 -0.007118 0.000355 0.024982 -0.012846 -0.019860 -0.001011
# 4 -0.001799 -0.001137 -0.012846 0.067421 0.035896 -0.011513
# 5 -0.001920 -0.003296 -0.019860 0.035896 0.068263 -0.000472
# 6 0.003952 -0.000381 -0.001011 -0.011513 -0.000472 0.026619
#
#
# Mechanical properties :
#
#
# Convention : Reuss Voigt Hill
#
# Bulk Modulus (GPa) = 35.82179 65.26639 50.54409
# Shear Modulus (GPa) = 18.80541 29.50806 24.15674
#
# Velocity S-wave (km/s) = 2.97162 3.72239 3.36799
# Velocity P-wave (km/s) = 5.34742 7.00872 6.23366
#
# Compressibility (1/GPa) = 0.02791597
#
# Stress axis : x y z
#
# Youngs Moduli (GPa) = 40.89444 85.77468 40.02842
#
# Poissons Ratio (x) = 0.84284 0.28493
# Poissons Ratio (y) = 0.40184 -0.01422
# Poissons Ratio (z) = 0.29109 -0.03048
#
# Static dielectric constant tensor:
#      x y z
#    x 1.771830 -0.030620 -0.000580 
#    y -0.030620 1.742110 -0.014320 
#    z -0.000580 -0.014320 1.853900 
# 
# From -- ./inp_files/48472.got.cif
#   From: 2010.05.17/outbox.cif.g08.bks.cpg/sg2_25_cif.got.tgz:48472.got - 2010.06.03 11:33:40.
