data_PCOD9098107
_publ_section_title
;
Structure prediction by ZEFSAII (Michael W. Deem and Ramdas Pophale) SiO2 
 PCOD9098107
Probable space group: P -1
;
_chemical_formula_sum "Si O2"
_cell_formula_units_Z 12
_cell_length_a 14.460561
_cell_length_b 5.218164
_cell_length_c 22.671331
_cell_angle_alpha 127.511609
_cell_angle_beta 160.119295
_cell_angle_gamma 57.829552
_cell_volume 456.313236
_symmetry_space_group_name_H-M "P -1"
_symmetry_group_IT_number 2
_symmetry_cell_setting 'triclinic'
loop_
_space_group_symop_operation_xyz
x,y,z
-x,-y,-z
loop_
_atom_site_type_symbol
_atom_site_label
_atom_site_fract_x
_atom_site_fract_y
_atom_site_fract_z
Si Si1 0.624446 0.032670 0.643021
Si Si2 0.753924 0.687243 0.318293
Si Si3 0.251187 0.016205 0.527125
Si Si4 0.239461 0.257376 0.151738
Si Si5 0.787606 0.414086 0.182208
Si Si6 0.184937 0.903487 0.960209
O O1 0.792422 0.391422 0.796663
O O2 0.500000 0.000000 0.500000
O O3 0.381613 0.061104 0.547389
O O4 0.853972 0.794990 0.759979
O O5 0.813990 0.405615 0.268226
O O6 0.759048 0.677495 0.391483
O O7 0.441136 0.730590 0.114873
O O8 0.000000 0.000000 0.500000
O O9 0.476467 0.833088 0.668618
O O10 0.989427 0.739696 0.330362
O O11 0.252729 0.228586 0.085269
O O12 0.000000 0.000000 0.000000
O O13 0.500000 0.500000 0.000000
O O14 0.819332 0.111779 0.115681
#
# Coordination Sequence:
#
# PCOD9098107 Si02
#       6
#     2   2   2   2   2   2
#     4  12  26  39  61 102 137 167 217 263 328 395
#     4   8  17  36  65  94 119 173 220 262 322 375
#     4  10  21  39  66  92 132 170 213 271 325 381
#     4  11  23  40  64  93 131 174 211 257 332 389
#     4   9  18  36  65  95 123 171 215 261 323 378
#     4  10  20  36  63  94 131 163 211 267 320 385
#
# _framework density 26.297726000000001
#
# number of rings (size 3 to 8) (size 9 to 14) (size 15 to 20)
#    0.000    2.000    1.667    1.500    2.333    1.333 
#    0.000    0.000    0.000   66.000    0.000    0.000 
#    0.000    0.000    0.000    0.000    0.000    0.000 
#
# Total GULP energy -66872.147652 kJ/mol
# GULP energy per Si atom -5572.678971 kJ/mol
# Density = 2.623787 g / cm^3
# Si number density = 26.297726 Si / 1000 Ang^3
#
#
#
# Elastic Constant Matrix: (Units=GPa)
#
#
# Indices 1 2 3 4 5 6 
#
# 1 231.9179 35.9342 85.5435 8.8397 -53.8143 -26.8478
# 2 35.9342 49.6591 28.5001 5.6236 -5.1667 -15.8785
# 3 85.5435 28.5001 172.3267 -10.3098 3.6963 -9.5057
# 4 8.8397 5.6236 -10.3098 28.4702 -14.0304 0.9678
# 5 -53.8143 -5.1667 3.6963 -14.0304 73.7521 12.7087
# 6 -26.8478 -15.8785 -9.5057 0.9678 12.7087 27.8401
#
#
#
# Elastic Compliance Matrix: (Units=1/GPa)
#
#
# Indices 1 2 3 4 5 6 
#
# 1 0.007254 -0.001932 -0.003286 -0.000831 0.004707 0.002652
# 2 -0.001932 0.029056 -0.003437 -0.008636 -0.003504 0.015436
# 3 -0.003286 -0.003437 0.008184 0.003686 -0.002087 -0.001510
# 4 -0.000831 -0.008636 0.003686 0.042928 0.008463 -0.009824
# 5 0.004707 -0.003504 -0.002087 0.008463 0.019752 -0.007483
# 6 0.002652 0.015436 -0.001510 -0.009824 -0.007483 0.050522
#
#
# Mechanical properties :
#
#
# Convention : Reuss Voigt Hill
#
# Bulk Modulus (GPa) = 36.78276 83.76214 60.27245
# Shear Modulus (GPa) = 27.16393 46.27421 36.71907
#
# Velocity S-wave (km/s) = 3.21742 4.19934 3.74074
# Velocity P-wave (km/s) = 5.27445 7.44535 6.45186
#
# Compressibility (1/GPa) = 0.02718665
#
# Stress axis : x y z
#
# Youngs Moduli (GPa) = 137.85157 34.41595 122.18295
#
# Poissons Ratio (x) = 0.06648 0.40149
# Poissons Ratio (y) = 0.26626 0.41990
# Poissons Ratio (z) = 0.45297 0.11828
#
# Static dielectric constant tensor:
#      x y z
#    x 2.180010 -0.059380 0.024980 
#    y -0.059380 2.140430 -0.062310 
#    z 0.024980 -0.062310 2.024630 
# 
# From -- ./inp_files/84181.got.cif
#   From: 2010.05.17/outbox.cif.g08.bks.cpg/sg2_43_cif.got.tgz:84181.got - 2010.06.03 11:33:40.
