data_PCOD9098200
_publ_section_title
;
Structure prediction by ZEFSAII (Michael W. Deem and Ramdas Pophale) SiO2 
 PCOD9098200
Probable space group: P -1
;
_chemical_formula_sum "Si O2"
_cell_formula_units_Z 16
_cell_length_a 22.092496
_cell_length_b 23.481058
_cell_length_c 14.060252
_cell_angle_alpha 162.634735
_cell_angle_beta 152.043202
_cell_angle_gamma 17.861348
_cell_volume 642.069623
_symmetry_space_group_name_H-M "P -1"
_symmetry_group_IT_number 2
_symmetry_cell_setting 'triclinic'
loop_
_space_group_symop_operation_xyz
x,y,z
-x,-y,-z
loop_
_atom_site_type_symbol
_atom_site_label
_atom_site_fract_x
_atom_site_fract_y
_atom_site_fract_z
Si Si1 0.581404 0.635568 0.547269
Si Si2 0.960444 0.270075 0.862803
Si Si3 0.815552 0.062123 0.842658
Si Si4 0.840321 0.881438 0.909540
Si Si5 0.768522 0.568426 0.368065
Si Si6 0.223208 0.868746 0.323590
Si Si7 0.166116 0.384743 0.264958
Si Si8 0.242350 0.601213 0.392111
O O1 0.360649 0.868304 0.564289
O O2 0.716394 0.650993 0.715049
O O3 0.598016 0.641358 0.692481
O O4 0.677597 0.320770 0.143872
O O5 0.776857 0.482648 0.869335
O O6 0.985001 0.315089 0.076802
O O7 0.137487 0.193956 0.938677
O O8 0.000000 0.000000 0.500000
O O9 0.742468 0.148403 0.769334
O O10 0.928933 0.731828 0.489368
O O11 0.000000 0.000000 0.000000
O O12 0.713434 0.832753 0.664030
O O13 0.983005 0.723167 0.763052
O O14 0.722203 0.214512 0.284186
O O15 0.723632 0.648913 0.544294
O O16 0.705843 0.429974 0.028590
O O17 0.984811 0.156391 0.485421
#
# Coordination Sequence:
#
# PCOD9098200 Si02
#       8
#     2   2   2   2   2   2   2   2
#     4  11  21  32  53  85 116 141 170 215 274 328
#     4   9  19  35  59  79  98 146 194 220 264 309
#     4  10  16  31  50  79 115 139 167 213 268 325
#     4   8  16  30  54  79  98 136 182 224 263 308
#     4   9  15  28  52  81 105 133 174 217 270 318
#     4  11  19  32  53  80 116 145 170 215 270 324
#     4  10  18  32  55  84 111 139 174 220 268 326
#     4  10  19  36  54  75 108 145 184 222 258 312
#
# _framework density 24.919415999999998
#
# number of rings (size 3 to 8) (size 9 to 14) (size 15 to 20)
#    0.000    2.250    5.000    1.125    0.000    0.500 
#    0.000    1.250    0.000   12.000    0.000    0.000 
#    0.000    0.000    0.000    0.000    0.000    0.000 
#
# Total GULP energy -89172.460703 kJ/mol
# GULP energy per Si atom -5573.278794 kJ/mol
# Density = 2.486270 g / cm^3
# Si number density = 24.919416 Si / 1000 Ang^3
#
#
#
# Elastic Constant Matrix: (Units=GPa)
#
#
# Indices 1 2 3 4 5 6 
#
# 1 76.1349 36.5950 36.7619 0.4369 9.8173 29.8770
# 2 36.5950 90.3637 30.8075 -21.8423 7.5404 10.0516
# 3 36.7619 30.8075 105.8669 -24.2535 20.5654 -14.4674
# 4 0.4369 -21.8423 -24.2535 19.7185 -9.0942 -11.2746
# 5 9.8173 7.5404 20.5654 -9.0942 42.1763 -5.3581
# 6 29.8770 10.0516 -14.4674 -11.2746 -5.3581 28.8239
#
#
#
# Elastic Compliance Matrix: (Units=1/GPa)
#
#
# Indices 1 2 3 4 5 6 
#
# 1 -0.006086 0.003927 0.011981 0.037470 0.006355 0.026790
# 2 0.003927 0.012736 -0.007889 -0.005388 -0.002415 -0.015027
# 3 0.011981 -0.007889 0.001618 -0.022488 -0.009483 -0.019415
# 4 0.037470 -0.005388 -0.022488 -0.020945 -0.008685 -0.058055
# 5 0.006355 -0.002415 -0.009483 -0.008685 0.024220 -0.009400
# 6 0.026790 -0.015027 -0.019415 -0.058055 -0.009400 -0.022036
#
#
# Mechanical properties :
#
#
# Convention : Reuss Voigt Hill
#
# Bulk Modulus (GPa) = 41.13970 53.41046 47.27508
# Shear Modulus (GPa) = -271.33028 29.35714 -120.98657
#
# Velocity S-wave (km/s) = -10.44603 3.43605 -6.97542
# Velocity P-wave (km/s) = 11.35551 6.10096 6.77222
#
# Compressibility (1/GPa) = 0.02430742
#
# Stress axis : x y z
#
# Youngs Moduli (GPa) = -164.32471 78.51487 618.05804
#
# Poissons Ratio (x) = -0.30829 -7.40509
# Poissons Ratio (y) = 0.64523 4.87558
# Poissons Ratio (z) = 1.96881 0.61937
#
# Static dielectric constant tensor:
#      x y z
#    x 2.057000 -0.002780 -0.095580 
#    y -0.002780 2.001510 0.089720 
#    z -0.095580 0.089720 2.094590 
# 
# From -- ./inp_files/423647.got.cif
#   From: 2010.05.17/outbox.cif.g08.bks.cpg/sg2_212_cif.got.tgz:423647.got - 2010.06.03 11:33:40.
