data_PCOD9098838
_publ_section_title
;
Structure prediction by ZEFSAII (Michael W. Deem and Ramdas Pophale) SiO2 
 PCOD9098838
Probable space group: P -1
;
_chemical_formula_sum "Si O2"
_cell_formula_units_Z 14
_cell_length_a 19.080243
_cell_length_b 8.181076
_cell_length_c 16.083171
_cell_angle_alpha 148.773922
_cell_angle_beta 26.119074
_cell_angle_gamma 138.970949
_cell_volume 571.978094
_symmetry_space_group_name_H-M "P -1"
_symmetry_group_IT_number 2
_symmetry_cell_setting 'triclinic'
loop_
_space_group_symop_operation_xyz
x,y,z
-x,-y,-z
loop_
_atom_site_type_symbol
_atom_site_label
_atom_site_fract_x
_atom_site_fract_y
_atom_site_fract_z
Si Si1 0.697715 0.241781 0.822385
Si Si2 0.164565 0.117280 0.340618
Si Si3 0.786151 0.967122 0.059948
Si Si4 0.464424 0.227619 0.291155
Si Si5 0.268526 0.691998 0.571799
Si Si6 0.570710 0.804740 0.495796
Si Si7 0.011279 0.128323 0.343165
O O1 0.843574 0.065509 0.537387
O O2 0.703810 0.102316 0.847775
O O3 0.540906 0.133157 0.895084
O O4 0.741441 0.601764 0.941004
O O5 0.172526 0.475972 0.518671
O O6 0.151420 0.083772 0.242232
O O7 0.000000 0.000000 0.500000
O O8 0.819312 0.085318 0.168735
O O9 0.621435 0.140677 0.280689
O O10 0.931779 0.032563 0.872530
O O11 0.373197 0.438051 0.406939
O O12 0.602996 0.461573 0.270009
O O13 0.386144 0.189624 0.450753
O O14 0.364412 0.922191 0.511671
O O15 0.000000 0.500000 0.500000
#
# Coordination Sequence:
#
# PCOD9098838 Si02
#       7
#     2   2   2   2   2   2   2
#     4   9  19  37  59  81 119 148 193 242 291 337
#     4   9  19  40  60  82 114 157 188 238 295 343
#     4  10  20  37  57  92 112 150 198 238 283 349
#     4   9  19  38  58  84 117 157 191 239 287 340
#     4  10  21  40  61  83 121 156 192 237 292 346
#     4  10  21  38  60  82 123 157 194 232 295 344
#     4   9  19  36  59  81 115 147 190 238 288 341
#
# _framework density 24.476462000000001
#
# number of rings (size 3 to 8) (size 9 to 14) (size 15 to 20)
#    0.000    2.571    0.000    1.714    4.000    0.571 
#   10.286   21.429    0.000    0.000    0.000    0.000 
#    0.000    0.000    0.000    0.000    0.000    0.000 
#
# Total GULP energy -78070.855347 kJ/mol
# GULP energy per Si atom -5576.489668 kJ/mol
# Density = 2.442075 g / cm^3
# Si number density = 24.476462 Si / 1000 Ang^3
#
#
#
# Elastic Constant Matrix: (Units=GPa)
#
#
# Indices 1 2 3 4 5 6 
#
# 1 71.5349 20.1323 9.7433 1.6300 11.7308 -17.6076
# 2 20.1323 94.3720 27.9581 -4.0642 6.6488 -15.0210
# 3 9.7433 27.9581 93.5765 -4.2218 1.1524 -5.1818
# 4 1.6300 -4.0642 -4.2218 42.5581 -0.1127 11.3731
# 5 11.7308 6.6488 1.1524 -0.1127 18.9657 -4.4959
# 6 -17.6076 -15.0210 -5.1818 11.3731 -4.4959 40.7508
#
#
#
# Elastic Compliance Matrix: (Units=1/GPa)
#
#
# Indices 1 2 3 4 5 6 
#
# 1 0.017784 -0.001971 -0.000912 -0.002761 -0.008693 0.006653
# 2 -0.001971 0.012678 -0.003377 0.000115 -0.002283 0.003108
# 3 -0.000912 -0.003377 0.011805 0.000967 0.000965 -0.000301
# 4 -0.002761 0.000115 0.000967 0.025923 -0.000201 -0.008285
# 5 -0.008693 -0.002283 0.000965 -0.000201 0.059348 0.002129
# 6 0.006653 0.003108 -0.000301 -0.008285 0.002129 0.031069
#
#
# Mechanical properties :
#
#
# Convention : Reuss Voigt Hill
#
# Bulk Modulus (GPa) = 33.61688 41.68342 37.65015
# Shear Modulus (GPa) = 27.61760 33.89825 30.75792
#
# Velocity S-wave (km/s) = 3.36271 3.72551 3.54875
# Velocity P-wave (km/s) = 5.37041 5.96430 5.67513
#
# Compressibility (1/GPa) = 0.02974696
#
# Stress axis : x y z
#
# Youngs Moduli (GPa) = 56.22984 78.87779 84.70671
#
# Poissons Ratio (x) = 0.15549 0.07724
# Poissons Ratio (y) = 0.11084 0.28607
# Poissons Ratio (z) = 0.05127 0.26638
#
# Static dielectric constant tensor:
#      x y z
#    x 1.995730 0.023080 -0.064960 
#    y 0.023080 1.915810 0.004350 
#    z -0.064960 0.004350 2.147320 
# 
# From -- ./inp_files/178168.got.cif
#   From: 2010.05.17/outbox.cif.g08.bks.cpg/sg2_90_cif.got.tgz:178168.got - 2010.06.03 11:33:40.
