data_PCOD9098143
_publ_section_title
;
Structure prediction by ZEFSAII (Michael W. Deem and Ramdas Pophale) SiO2 
 PCOD9098143
Probable space group: P -1
;
_chemical_formula_sum "Si O2"
_cell_formula_units_Z 16
_cell_length_a 8.446262
_cell_length_b 11.790759
_cell_length_c 13.994488
_cell_angle_alpha 129.844310
_cell_angle_beta 137.563977
_cell_angle_gamma 57.924013
_cell_volume 717.467154
_symmetry_space_group_name_H-M "P -1"
_symmetry_group_IT_number 2
_symmetry_cell_setting 'triclinic'
loop_
_space_group_symop_operation_xyz
x,y,z
-x,-y,-z
loop_
_atom_site_type_symbol
_atom_site_label
_atom_site_fract_x
_atom_site_fract_y
_atom_site_fract_z
Si Si1 0.249972 0.995003 0.437127
Si Si2 0.244059 0.443271 0.452241
Si Si3 0.244374 0.191127 0.700522
Si Si4 0.198549 0.599056 0.324595
Si Si5 0.956061 0.300602 0.884341
Si Si6 0.529741 0.422332 0.870076
Si Si7 0.918780 0.261543 0.339448
Si Si8 0.534930 0.733715 0.958486
O O1 0.270505 0.030302 0.577856
O O2 0.067780 0.129273 0.389544
O O3 0.500000 0.000000 0.500000
O O4 0.149968 0.843049 0.284200
O O5 0.183491 0.471199 0.328366
O O6 0.523098 0.387331 0.553638
O O7 0.187093 0.604269 0.565323
O O8 0.085965 0.333732 0.376439
O O9 0.354188 0.297772 0.728919
O O10 0.388733 0.206300 0.871756
O O11 0.978739 0.262995 0.640277
O O12 0.094278 0.581663 0.162521
O O13 0.790561 0.346969 0.924578
O O14 0.233540 0.263352 0.001128
O O15 0.500000 0.500000 0.000000
O O16 0.484016 0.560792 0.853419
O O17 0.704171 0.193384 0.154107
#
# Coordination Sequence:
#
# PCOD9098143 Si02
#       8
#     2   2   2   2   2   2   2   2
#     4  12  24  42  71  91 131 181 228 265 318 405
#     4  10  21  38  65  96 139 163 231 274 334 382
#     4  10  21  41  64  99 127 174 220 267 329 391
#     4  10  20  36  63  98 129 165 215 283 318 382
#     4  11  23  40  65  98 133 177 223 263 333 402
#     4  10  20  38  66  96 130 169 218 278 327 388
#     4  11  23  41  65  95 130 183 215 279 329 390
#     4  10  23  38  65  96 134 166 217 280 340 379
#
# _framework density 22.300671000000001
#
# number of rings (size 3 to 8) (size 9 to 14) (size 15 to 20)
#    0.000    1.500    2.500    2.625    1.750    5.500 
#    0.000    1.875    0.000    0.000    0.000    0.000 
#    0.000    0.000    0.000    0.000    0.000    0.000 
#
# Total GULP energy -89442.923462 kJ/mol
# GULP energy per Si atom -5590.182716 kJ/mol
# Density = 2.224991 g / cm^3
# Si number density = 22.300671 Si / 1000 Ang^3
#
#
#
# Elastic Constant Matrix: (Units=GPa)
#
#
# Indices 1 2 3 4 5 6 
#
# 1 150.8646 27.9699 50.1705 -1.8550 12.4225 -23.1438
# 2 27.9699 44.8952 46.8119 -5.7555 1.8702 -12.7573
# 3 50.1705 46.8119 108.2935 -14.2502 5.2649 -13.0489
# 4 -1.8550 -5.7555 -14.2502 37.5119 -3.4916 2.7584
# 5 12.4225 1.8702 5.2649 -3.4916 37.1573 2.2345
# 6 -23.1438 -12.7573 -13.0489 2.7584 2.2345 33.6204
#
#
#
# Elastic Compliance Matrix: (Units=1/GPa)
#
#
# Indices 1 2 3 4 5 6 
#
# 1 0.008806 -0.000877 -0.003182 -0.001530 -0.002882 0.004811
# 2 -0.000877 0.043441 -0.017346 -0.000649 -0.000050 0.009204
# 3 -0.003182 -0.017346 0.018557 0.004356 -0.000168 -0.001916
# 4 -0.001530 -0.000649 0.004356 0.028549 0.002738 -0.002133
# 5 -0.002882 -0.000050 -0.000168 0.002738 0.028411 -0.004181
# 6 0.004811 0.009204 -0.001916 -0.002133 -0.004181 0.036257
#
#
# Mechanical properties :
#
#
# Convention : Reuss Voigt Hill
#
# Bulk Modulus (GPa) = 35.72205 61.55088 48.63647
# Shear Modulus (GPa) = 23.13070 33.59800 28.36435
#
# Velocity S-wave (km/s) = 3.22408 3.88569 3.57025
# Velocity P-wave (km/s) = 5.46926 6.91317 6.23316
#
# Compressibility (1/GPa) = 0.02799391
#
# Stress axis : x y z
#
# Youngs Moduli (GPa) = 113.56172 23.01959 53.88874
#
# Poissons Ratio (x) = 0.02020 0.17146
# Poissons Ratio (y) = 0.09964 0.93474
# Poissons Ratio (z) = 0.36133 0.39929
#
# Static dielectric constant tensor:
#      x y z
#    x 1.839400 0.023140 -0.017120 
#    y 0.023140 1.841160 0.039930 
#    z -0.017120 0.039930 1.890420 
# 
# From -- ./inp_files/500907.got.cif
#   From: 2010.05.17/outbox.cif.g08.bks.cpg/sg2_251_cif.got.tgz:500907.got - 2010.06.03 11:33:40.
