data_PCOD9098438
_publ_section_title
;
Structure prediction by ZEFSAII (Michael W. Deem and Ramdas Pophale) SiO2 
 PCOD9098438
Probable space group: P -1
;
_chemical_formula_sum "Si O2"
_cell_formula_units_Z 16
_cell_length_a 12.410511
_cell_length_b 5.564201
_cell_length_c 14.799720
_cell_angle_alpha 81.552321
_cell_angle_beta 100.805955
_cell_angle_gamma 52.084748
_cell_volume 745.291461
_symmetry_space_group_name_H-M "P -1"
_symmetry_group_IT_number 2
_symmetry_cell_setting 'triclinic'
loop_
_space_group_symop_operation_xyz
x,y,z
-x,-y,-z
loop_
_atom_site_type_symbol
_atom_site_label
_atom_site_fract_x
_atom_site_fract_y
_atom_site_fract_z
Si Si1 0.048003 0.633178 0.384587
Si Si2 0.234708 0.738843 0.173677
Si Si3 0.351625 0.113610 0.928492
Si Si4 0.816919 0.309268 0.251059
Si Si5 0.790515 0.677099 0.402441
Si Si6 0.876478 0.618242 0.773855
Si Si7 0.110627 0.176148 0.975512
Si Si8 0.426435 0.746155 0.770383
O O1 0.168615 0.506544 0.486513
O O2 0.107389 0.368687 0.331396
O O3 0.906343 0.728124 0.407049
O O4 0.975879 0.955981 0.298678
O O5 0.222100 0.478903 0.219980
O O6 0.404258 0.548627 0.196028
O O7 0.174290 0.054919 0.206297
O O8 0.147566 0.885339 0.056438
O O9 0.225740 0.488142 0.857857
O O10 0.269223 0.060969 0.988291
O O11 0.395300 0.925333 0.850842
O O12 0.500000 0.000000 0.000000
O O13 0.818904 0.468571 0.332190
O O14 0.680248 0.327810 0.239147
O O15 0.630771 0.014610 0.337879
O O16 0.030169 0.303705 0.859563
O O17 0.000000 0.500000 0.000000
#
# Coordination Sequence:
#
# PCOD9098438 Si02
#       8
#     2   2   2   2   2   2   2   2
#     4  10  21  38  64  96 125 160 221 274 335 395
#     4  11  26  43  66  91 133 181 219 269 325 399
#     4  11  24  39  65  97 133 172 221 272 326 393
#     4  10  20  36  66  90 129 163 212 275 330 391
#     4   9  20  39  65  95 123 164 211 278 338 388
#     4  11  25  43  65  96 131 175 223 269 330 389
#     4  10  23  41  63  96 131 176 219 271 324 394
#     4  10  23  41  62  92 127 170 220 269 327 398
#
# _framework density 21.468112999999999
#
# number of rings (size 3 to 8) (size 9 to 14) (size 15 to 20)
#    0.000    1.750    0.000    3.750   12.250    3.000 
#    0.000    1.250    0.000    0.000    0.000    0.000 
#    0.000    0.000    0.000    0.000    0.000    0.000 
#
# Total GULP energy -89238.542504 kJ/mol
# GULP energy per Si atom -5577.408907 kJ/mol
# Density = 2.141925 g / cm^3
# Si number density = 21.468113 Si / 1000 Ang^3
#
#
#
# Elastic Constant Matrix: (Units=GPa)
#
#
# Indices 1 2 3 4 5 6 
#
# 1 60.7072 13.0610 19.3158 -12.2398 3.0407 -4.6690
# 2 13.0610 59.5615 30.9595 -17.5007 5.6441 -5.4039
# 3 19.3158 30.9595 129.6808 -12.5234 18.5425 -9.3905
# 4 -12.2398 -17.5007 -12.5234 19.3034 -0.3903 1.7106
# 5 3.0407 5.6441 18.5425 -0.3903 26.6808 -1.5133
# 6 -4.6690 -5.4039 -9.3905 1.7106 -1.5133 28.4451
#
#
#
# Elastic Compliance Matrix: (Units=1/GPa)
#
#
# Indices 1 2 3 4 5 6 
#
# 1 0.019399 0.000110 -0.001568 0.011191 -0.000869 0.001968
# 2 0.000110 0.024951 -0.003516 0.020161 -0.002424 0.002256
# 3 -0.001568 -0.003516 0.009953 0.001986 -0.005856 0.001929
# 4 0.011191 0.020161 0.001986 0.078235 -0.005701 0.001314
# 5 -0.000869 -0.002424 -0.005856 -0.005701 0.042081 0.000045
# 6 0.001968 0.002256 0.001929 0.001314 0.000045 0.036467
#
#
# Mechanical properties :
#
#
# Convention : Reuss Voigt Hill
#
# Bulk Modulus (GPa) = 22.54553 41.84688 32.19621
# Shear Modulus (GPa) = 21.20268 27.32675 24.26471
#
# Velocity S-wave (km/s) = 3.14608 3.57164 3.36559
# Velocity P-wave (km/s) = 4.87050 6.04514 5.48933
#
# Compressibility (1/GPa) = 0.04435469
#
# Stress axis : x y z
#
# Youngs Moduli (GPa) = 51.54910 40.07857 100.47126
#
# Poissons Ratio (x) = -0.00442 0.15757
# Poissons Ratio (y) = -0.00569 0.35328
# Poissons Ratio (z) = 0.08085 0.14093
#
# Static dielectric constant tensor:
#      x y z
#    x 1.806190 0.068890 -0.041240 
#    y 0.068890 1.821630 -0.025370 
#    z -0.041240 -0.025370 1.818230 
# 
# From -- ./inp_files/47795.got.cif
#   From: 2010.05.17/outbox.cif.g08.bks.cpg/sg2_24_cif.got.tgz:47795.got - 2010.06.03 11:33:40.
