data_PCOD9098193
_publ_section_title
;
Structure prediction by ZEFSAII (Michael W. Deem and Ramdas Pophale) SiO2 
 PCOD9098193
Probable space group: P -1
;
_chemical_formula_sum "Si O2"
_cell_formula_units_Z 16
_cell_length_a 18.313147
_cell_length_b 17.380907
_cell_length_c 7.972364
_cell_angle_alpha 50.267183
_cell_angle_beta 132.251323
_cell_angle_gamma 159.281068
_cell_volume 664.009698
_symmetry_space_group_name_H-M "P -1"
_symmetry_group_IT_number 2
_symmetry_cell_setting 'triclinic'
loop_
_space_group_symop_operation_xyz
x,y,z
-x,-y,-z
loop_
_atom_site_type_symbol
_atom_site_label
_atom_site_fract_x
_atom_site_fract_y
_atom_site_fract_z
Si Si1 0.588263 0.439891 0.928986
Si Si2 0.178627 0.041953 0.668348
Si Si3 0.041131 0.372195 0.765591
Si Si4 0.754213 0.273519 0.976133
Si Si5 0.717287 0.231069 0.603468
Si Si6 0.288061 0.089122 0.247311
Si Si7 0.049855 0.088018 0.169843
Si Si8 0.396863 0.078011 0.758445
O O1 0.401828 0.296953 0.708531
O O2 0.724044 0.659415 0.882514
O O3 0.765392 0.522583 0.018421
O O4 0.468568 0.276805 0.126049
O O5 0.070003 0.995636 0.404910
O O6 0.261365 0.006477 0.797810
O O7 0.031087 0.925540 0.764946
O O8 0.162145 0.563752 0.571132
O O9 0.894006 0.302634 0.761333
O O10 0.872954 0.146747 0.724746
O O11 0.653779 0.193830 0.747193
O O12 0.634533 0.250805 0.928965
O O13 0.715006 0.126339 0.182670
O O14 0.000000 0.500000 0.000000
O O15 0.500000 0.000000 0.500000
O O16 0.392058 0.152786 0.495411
O O17 0.132265 0.045967 0.058099
#
# Coordination Sequence:
#
# PCOD9098193 Si02
#       8
#     2   2   2   2   2   2   2   2
#     4  10  20  36  64  87 125 157 209 257 314 371
#     4  10  22  39  64  95 124 158 208 266 319 379
#     4  10  21  34  61  88 118 163 210 258 311 363
#     4  11  26  42  59  88 135 172 209 258 319 379
#     4  11  23  37  61  88 123 163 222 264 305 373
#     4  10  21  41  60  91 125 165 205 260 314 386
#     4   9  21  41  65  93 122 159 209 265 321 370
#     4  11  25  40  63  88 130 168 208 255 320 374
#
# _framework density 24.096032999999998
#
# number of rings (size 3 to 8) (size 9 to 14) (size 15 to 20)
#    0.000    1.750    0.000    3.375    8.750    3.500 
#    0.000    0.625    0.000    0.000    0.000    0.000 
#    0.000    0.000    0.000    0.000    0.000    0.000 
#
# Total GULP energy -89380.159165 kJ/mol
# GULP energy per Si atom -5586.259948 kJ/mol
# Density = 2.404119 g / cm^3
# Si number density = 24.096033 Si / 1000 Ang^3
#
#
#
# Elastic Constant Matrix: (Units=GPa)
#
#
# Indices 1 2 3 4 5 6 
#
# 1 73.3326 16.6672 4.9683 -5.0173 21.7531 15.9156
# 2 16.6672 132.8633 22.4728 -12.5327 8.7746 16.0023
# 3 4.9683 22.4728 88.0551 -10.9811 7.8546 5.3045
# 4 -5.0173 -12.5327 -10.9811 32.9350 3.8975 2.1891
# 5 21.7531 8.7746 7.8546 3.8975 36.5521 10.1971
# 6 15.9156 16.0023 5.3045 2.1891 10.1971 35.3926
#
#
#
# Elastic Compliance Matrix: (Units=1/GPa)
#
#
# Indices 1 2 3 4 5 6 
#
# 1 0.018095 -0.000722 0.000893 0.004291 -0.009737 -0.005404
# 2 -0.000722 0.008599 -0.001523 0.002957 -0.000697 -0.003317
# 3 0.000893 -0.001523 0.012543 0.004162 -0.003032 -0.000976
# 4 0.004291 0.002957 0.004162 0.034595 -0.006703 -0.004099
# 5 -0.009737 -0.000697 -0.003032 -0.006703 0.036031 -0.004818
# 6 -0.005404 -0.003317 -0.000976 -0.004099 -0.004818 0.033973
#
#
# Mechanical properties :
#
#
# Convention : Reuss Voigt Hill
#
# Bulk Modulus (GPa) = 27.37318 42.49641 34.93480
# Shear Modulus (GPa) = 31.50221 37.65214 34.57717
#
# Velocity S-wave (km/s) = 3.61967 3.95724 3.79221
# Velocity P-wave (km/s) = 5.37159 6.20921 5.80553
#
# Compressibility (1/GPa) = 0.03653211
#
# Stress axis : x y z
#
# Youngs Moduli (GPa) = 55.26382 116.28897 79.72413
#
# Poissons Ratio (x) = 0.08399 -0.07116
# Poissons Ratio (y) = 0.03991 0.12143
# Poissons Ratio (z) = -0.04933 0.17712
#
# Static dielectric constant tensor:
#      x y z
#    x 2.014220 -0.021650 0.017330 
#    y -0.021650 1.920440 0.040470 
#    z 0.017330 0.040470 1.935160 
# 
# From -- ./inp_files/336722.got.cif
#   From: 2010.05.17/outbox.cif.g08.bks.cpg/sg2_169_cif.got.tgz:336722.got - 2010.06.03 11:33:40.
