data_PCOD9098373
_publ_section_title
;
Structure prediction by ZEFSAII (Michael W. Deem and Ramdas Pophale) SiO2 
 PCOD9098373
Probable space group: P -1
;
_chemical_formula_sum "Si O2"
_cell_formula_units_Z 16
_cell_length_a 14.042042
_cell_length_b 7.897727
_cell_length_c 11.216989
_cell_angle_alpha 80.421308
_cell_angle_beta 134.456237
_cell_angle_gamma 69.441719
_cell_volume 654.280376
_symmetry_space_group_name_H-M "P -1"
_symmetry_group_IT_number 2
_symmetry_cell_setting 'triclinic'
loop_
_space_group_symop_operation_xyz
x,y,z
-x,-y,-z
loop_
_atom_site_type_symbol
_atom_site_label
_atom_site_fract_x
_atom_site_fract_y
_atom_site_fract_z
Si Si1 0.482876 0.902360 0.682395
Si Si2 0.953688 0.629105 0.321910
Si Si3 0.726354 0.416188 0.352666
Si Si4 0.237383 0.546143 0.898030
Si Si5 0.979653 0.996224 0.774796
Si Si6 0.264832 0.297025 0.287603
Si Si7 0.422936 0.931905 0.042044
Si Si8 0.962379 0.790535 0.012990
O O1 0.296352 0.143523 0.445397
O O2 0.545085 0.006714 0.809340
O O3 0.568357 0.798418 0.638268
O O4 0.562777 0.674784 0.855639
O O5 0.873221 0.540030 0.186521
O O6 0.000000 0.500000 0.500000
O O7 0.143563 0.554051 0.473454
O O8 0.789109 0.895550 0.180257
O O9 0.760072 0.387899 0.243198
O O10 0.528391 0.662575 0.162413
O O11 0.810098 0.179030 0.519310
O O12 0.129647 0.764372 0.863148
O O13 0.918150 0.949291 0.844714
O O14 0.067528 0.088695 0.903970
O O15 0.147228 0.288076 0.093094
O O16 0.166085 0.553831 0.209250
O O17 0.500000 0.000000 0.000000
#
# Coordination Sequence:
#
# PCOD9098373 Si02
#       8
#     2   2   2   2   2   2   2   2
#     4  10  20  36  65  93 117 151 199 271 306 345
#     4   9  19  35  61  92 113 162 206 249 291 352
#     4  11  22  39  64  92 126 169 197 250 311 369
#     4  10  20  38  60  89 126 159 199 249 304 372
#     4  11  23  38  60  88 129 166 197 243 317 374
#     4  10  21  41  66  89 111 155 218 260 303 344
#     4  11  19  35  60  96 126 149 200 262 302 353
#     4  10  23  41  62  89 116 159 212 259 294 370
#
# _framework density 24.454349000000001
#
# number of rings (size 3 to 8) (size 9 to 14) (size 15 to 20)
#    0.000    1.750    5.000    1.125    3.500    1.000 
#    0.000    1.875    0.000    4.500    0.000    0.000 
#    0.000    0.000    0.000    0.000    0.000    0.000 
#
# Total GULP energy -89202.976146 kJ/mol
# GULP energy per Si atom -5575.186009 kJ/mol
# Density = 2.439869 g / cm^3
# Si number density = 24.454349 Si / 1000 Ang^3
#
#
#
# Elastic Constant Matrix: (Units=GPa)
#
#
# Indices 1 2 3 4 5 6 
#
# 1 42.5782 0.5958 35.9521 -2.6752 -22.9869 -15.7208
# 2 0.5958 116.9353 34.0579 -4.8280 -0.4152 -27.6798
# 3 35.9521 34.0579 175.1723 -17.5360 -38.7018 -16.2018
# 4 -2.6752 -4.8280 -17.5360 39.6216 -1.0334 0.6401
# 5 -22.9869 -0.4152 -38.7018 -1.0334 53.0591 4.5852
# 6 -15.7208 -27.6798 -16.2018 0.6401 4.5852 26.8875
#
#
#
# Elastic Compliance Matrix: (Units=1/GPa)
#
#
# Indices 1 2 3 4 5 6 
#
# 1 0.046671 0.008651 -0.005176 0.001782 0.013897 0.030663
# 2 0.008651 0.013356 -0.002599 0.000797 0.000491 0.017139
# 3 -0.005176 -0.002599 0.008346 0.003155 0.004010 -0.001432
# 4 0.001782 0.000797 0.003155 0.026900 0.003383 0.002546
# 5 0.013897 0.000491 0.004010 0.003383 0.027317 0.006308
# 6 0.030663 0.017139 -0.001432 0.002546 0.006308 0.070765
#
#
# Mechanical properties :
#
#
# Convention : Reuss Voigt Hill
#
# Bulk Modulus (GPa) = 14.26016 52.87748 33.56882
# Shear Modulus (GPa) = 23.25820 41.51898 32.38859
#
# Velocity S-wave (km/s) = 3.08731 4.12493 3.64325
# Velocity P-wave (km/s) = 4.30728 6.66007 5.60844
#
# Compressibility (1/GPa) = 0.07012542
#
# Stress axis : x y z
#
# Youngs Moduli (GPa) = 21.42636 74.87147 119.82391
#
# Poissons Ratio (x) = -0.64770 0.62022
# Poissons Ratio (y) = -0.18536 0.31139
# Poissons Ratio (z) = 0.11090 0.19457
#
# Static dielectric constant tensor:
#      x y z
#    x 2.094380 0.101220 0.012160 
#    y 0.101220 1.969380 -0.053620 
#    z 0.012160 -0.053620 2.029490 
# 
# From -- ./inp_files/445507.got.cif
#   From: 2010.05.17/outbox.cif.g08.bks.cpg/sg2_223_cif.got.tgz:445507.got - 2010.06.03 11:33:40.
