data_PCOD9098991
_publ_section_title
;
Structure prediction by ZEFSAII (Michael W. Deem and Ramdas Pophale) SiO2 
 PCOD9098991
Probable space group: P -1
;
_chemical_formula_sum "Si O2"
_cell_formula_units_Z 16
_cell_length_a 9.143677
_cell_length_b 17.214337
_cell_length_c 5.195132
_cell_angle_alpha 65.913412
_cell_angle_beta 99.672214
_cell_angle_gamma 75.995340
_cell_volume 690.705624
_symmetry_space_group_name_H-M "P -1"
_symmetry_group_IT_number 2
_symmetry_cell_setting 'triclinic'
loop_
_space_group_symop_operation_xyz
x,y,z
-x,-y,-z
loop_
_atom_site_type_symbol
_atom_site_label
_atom_site_fract_x
_atom_site_fract_y
_atom_site_fract_z
Si Si1 0.378720 0.070231 0.558246
Si Si2 0.801211 0.227433 0.734055
Si Si3 0.089232 0.706941 0.840398
Si Si4 0.733377 0.489932 0.977071
Si Si5 0.778828 0.664710 0.648588
Si Si6 0.595060 0.423047 0.435649
Si Si7 0.365713 0.231030 0.055126
Si Si8 0.628746 0.098717 0.994276
O O1 0.292642 0.155711 0.238063
O O2 0.483325 0.099958 0.761531
O O3 0.500000 0.000000 0.500000
O O4 0.295450 0.006332 0.754298
O O5 0.855592 0.244994 0.444389
O O6 0.650201 0.316582 0.642486
O O7 0.751054 0.139725 0.852276
O O8 0.919208 0.236376 0.979766
O O9 0.930652 0.690404 0.733102
O O10 0.215224 0.603372 0.044775
O O11 0.821603 0.556581 0.821305
O O12 0.552249 0.558049 0.829256
O O13 0.739807 0.448140 0.320862
O O14 0.653550 0.707684 0.782076
O O15 0.716366 0.707545 0.294782
O O16 0.500000 0.500000 0.500000
O O17 0.541343 0.168123 0.104276
#
# Coordination Sequence:
#
# PCOD9098991 Si02
#       8
#     2   2   2   2   2   2   2   2
#     4   9  20  39  65 103 129 151 189 256 333 386
#     4  11  24  39  65  89 129 162 207 259 315 374
#     4  11  25  44  57  87 127 178 219 255 291 358
#     4  10  23  38  60  88 123 169 212 265 309 358
#     4  12  25  40  64  87 126 175 222 252 294 361
#     4  10  20  37  58  90 128 153 199 264 326 360
#     4  11  23  39  63  99 125 154 202 267 314 368
#     4  10  21  39  69 102 125 155 197 253 337 382
#
# _framework density 23.164715000000001
#
# number of rings (size 3 to 8) (size 9 to 14) (size 15 to 20)
#    0.000    1.500    2.500    1.875    7.000    0.000 
#    0.000    3.125    0.000    4.500    0.000    0.000 
#    0.000    0.000    0.000    0.000    0.000    0.000 
#
# Total GULP energy -89190.840635 kJ/mol
# GULP energy per Si atom -5574.427540 kJ/mol
# Density = 2.311199 g / cm^3
# Si number density = 23.164715 Si / 1000 Ang^3
#
#
#
# Elastic Constant Matrix: (Units=GPa)
#
#
# Indices 1 2 3 4 5 6 
#
# 1 45.7785 16.8738 22.0900 -21.4505 -7.0880 22.0108
# 2 16.8738 95.4977 52.7879 -18.2869 -21.9196 23.8359
# 3 22.0900 52.7879 139.9591 -16.0179 -24.7608 24.7209
# 4 -21.4505 -18.2869 -16.0179 31.8909 10.9400 -19.7330
# 5 -7.0880 -21.9196 -24.7608 10.9400 15.1608 -9.8863
# 6 22.0108 23.8359 24.7209 -19.7330 -9.8863 37.6641
#
#
#
# Elastic Compliance Matrix: (Units=1/GPa)
#
#
# Indices 1 2 3 4 5 6 
#
# 1 0.036432 -0.000478 -0.003111 0.018859 -0.009966 -0.011682
# 2 -0.000478 0.017029 -0.002446 -0.000792 0.017982 -0.004587
# 3 -0.003111 -0.002446 0.011081 -0.004466 0.014787 -0.002365
# 4 0.018859 -0.000792 -0.004466 0.063481 -0.034616 0.016585
# 5 -0.009966 0.017982 0.014787 -0.034616 0.138326 0.002912
# 6 -0.011682 -0.004587 -0.002365 0.016585 0.002912 0.047286
#
#
# Mechanical properties :
#
#
# Convention : Reuss Voigt Hill
#
# Bulk Modulus (GPa) = 19.05825 51.63765 35.34795
# Shear Modulus (GPa) = 14.56888 29.57539 22.07213
#
# Velocity S-wave (km/s) = 2.51056 3.57703 3.09015
# Velocity P-wave (km/s) = 4.08032 6.27695 5.29382
#
# Compressibility (1/GPa) = 0.05247070
#
# Stress axis : x y z
#
# Youngs Moduli (GPa) = 27.44828 58.72408 90.24134
#
# Poissons Ratio (x) = 0.02807 0.28077
# Poissons Ratio (y) = 0.01312 0.22077
# Poissons Ratio (z) = 0.08540 0.14367
#
# Static dielectric constant tensor:
#      x y z
#    x 1.946580 0.047130 0.048690 
#    y 0.047130 1.917100 -0.030440 
#    z 0.048690 -0.030440 2.129610 
# 
# From -- ./inp_files/43385.got.cif
#   From: 2010.05.17/outbox.cif.g08.bks.cpg/sg2_22_cif.got.tgz:43385.got - 2010.06.03 11:33:40.
