data_PCOD9098664
_publ_section_title
;
Structure prediction by ZEFSAII (Michael W. Deem and Ramdas Pophale) SiO2 
 PCOD9098664
Probable space group: P -1
;
_chemical_formula_sum "Si O2"
_cell_formula_units_Z 16
_cell_length_a 13.632177
_cell_length_b 11.148121
_cell_length_c 9.294751
_cell_angle_alpha 99.038338
_cell_angle_beta 92.386728
_cell_angle_gamma 148.075863
_cell_volume 695.037265
_symmetry_space_group_name_H-M "P -1"
_symmetry_group_IT_number 2
_symmetry_cell_setting 'triclinic'
loop_
_space_group_symop_operation_xyz
x,y,z
-x,-y,-z
loop_
_atom_site_type_symbol
_atom_site_label
_atom_site_fract_x
_atom_site_fract_y
_atom_site_fract_z
Si Si1 0.126928 0.410737 0.564149
Si Si2 0.397662 0.178586 0.155509
Si Si3 0.292215 0.322383 0.666300
Si Si4 0.312819 0.094131 0.471693
Si Si5 0.030003 0.306904 0.974822
Si Si6 0.722447 0.495451 0.699736
Si Si7 0.326924 0.729478 0.886406
Si Si8 0.984548 0.995950 0.825255
O O1 0.200574 0.351118 0.602781
O O2 0.169249 0.464882 0.409460
O O3 0.253962 0.646636 0.702679
O O4 0.900223 0.182409 0.548990
O O5 0.490576 0.412252 0.210331
O O6 0.369704 0.122138 0.315209
O O7 0.565968 0.286554 0.102132
O O8 0.191021 0.920576 0.022906
O O9 0.299805 0.224993 0.529958
O O10 0.158008 0.136517 0.757533
O O11 0.491124 0.239775 0.610457
O O12 0.129885 0.519758 0.929545
O O13 0.993905 0.151228 0.839009
O O14 0.189153 0.448746 0.132617
O O15 0.798214 0.714640 0.723252
O O16 0.500000 0.000000 0.000000
O O17 0.000000 0.000000 0.000000
#
# Coordination Sequence:
#
# PCOD9098664 Si02
#       8
#     2   2   2   2   2   2   2   2
#     4  11  22  39  61  91 126 161 213 261 297 371
#     4  11  22  38  66  91 121 165 208 256 310 366
#     4  11  20  35  62  91 130 169 216 246 293 371
#     4  12  21  35  63  93 125 171 206 246 306 373
#     4  11  23  43  60  91 134 161 207 261 304 369
#     4  11  24  38  59  94 135 168 199 246 311 371
#     4  11  24  45  70  92 115 157 217 271 314 368
#     4  10  20  37  55  88 137 172 197 245 299 362
#
# _framework density 23.020347000000001
#
# number of rings (size 3 to 8) (size 9 to 14) (size 15 to 20)
#    0.000    1.000    7.500    1.500    1.750    1.500 
#    0.000    3.125    0.000    1.500    0.000    0.000 
#    0.000    0.000    0.000    0.000    0.000    0.000 
#
# Total GULP energy -89227.361974 kJ/mol
# GULP energy per Si atom -5576.710123 kJ/mol
# Density = 2.296795 g / cm^3
# Si number density = 23.020347 Si / 1000 Ang^3
#
#
#
# Elastic Constant Matrix: (Units=GPa)
#
#
# Indices 1 2 3 4 5 6 
#
# 1 7.1129 3.7504 8.9721 -0.2280 0.7239 21.0611
# 2 3.7504 85.6700 22.4883 29.3055 -7.2763 24.6674
# 3 8.9721 22.4883 111.6167 16.0739 -2.2826 2.8337
# 4 -0.2280 29.3055 16.0739 47.9951 6.0342 -3.7530
# 5 0.7239 -7.2763 -2.2826 6.0342 23.6283 10.7740
# 6 21.0611 24.6674 2.8337 -3.7530 10.7740 34.7926
#
#
#
# Elastic Compliance Matrix: (Units=1/GPa)
#
#
# Indices 1 2 3 4 5 6 
#
# 1 -0.046233 -0.033443 0.003297 0.030592 -0.048127 0.069631
# 2 -0.033443 0.013874 0.001039 -0.008836 0.003938 0.008150
# 3 0.003297 0.001039 0.009419 -0.004820 0.004882 -0.005531
# 4 0.030592 -0.008836 -0.004820 0.028601 -0.008647 -0.006098
# 5 -0.048127 0.003938 0.004882 -0.008647 0.042251 0.011927
# 6 0.069631 0.008150 -0.005531 -0.006098 0.011927 -0.023087
#
#
# Mechanical properties :
#
#
# Convention : Reuss Voigt Hill
#
# Bulk Modulus (GPa) = -12.32233 30.53569 9.10668
# Shear Modulus (GPa) = 89.30454 32.56245 60.93349
#
# Velocity S-wave (km/s) = 6.23522 3.76507 5.15042
# Velocity P-wave (km/s) = 6.81710 5.67402 6.27166
#
# Compressibility (1/GPa) = -0.08115346
#
# Stress axis : x y z
#
# Youngs Moduli (GPa) = -21.62976 72.07562 106.16614
#
# Poissons Ratio (x) = 2.41043 -0.35001
# Poissons Ratio (y) = -0.72337 -0.11031
# Poissons Ratio (z) = 0.07131 -0.07489
#
# Static dielectric constant tensor:
#      x y z
#    x 1.957320 0.020120 0.028400 
#    y 0.020120 1.893920 0.020220 
#    z 0.028400 0.020220 1.885790 
# 
# From -- ./inp_files/307772.got.cif
#   From: 2010.05.17/outbox.cif.g08.bks.cpg/sg2_154_cif.got.tgz:307772.got - 2010.06.03 11:33:40.
