data_PCOD9098648
_publ_section_title
;
Structure prediction by ZEFSAII (Michael W. Deem and Ramdas Pophale) SiO2 
 PCOD9098648
Probable space group: P -1
;
_chemical_formula_sum "Si O2"
_cell_formula_units_Z 16
_cell_length_a 25.266380
_cell_length_b 11.951094
_cell_length_c 4.991703
_cell_angle_alpha 102.413797
_cell_angle_beta 76.786479
_cell_angle_gamma 147.210510
_cell_volume 793.928578
_symmetry_space_group_name_H-M "P -1"
_symmetry_group_IT_number 2
_symmetry_cell_setting 'triclinic'
loop_
_space_group_symop_operation_xyz
x,y,z
-x,-y,-z
loop_
_atom_site_type_symbol
_atom_site_label
_atom_site_fract_x
_atom_site_fract_y
_atom_site_fract_z
Si Si1 0.608507 0.659378 0.867392
Si Si2 0.808423 0.417733 0.186911
Si Si3 0.217486 0.386718 0.812904
Si Si4 0.884820 0.105907 0.655068
Si Si5 0.094933 0.485168 0.369045
Si Si6 0.095823 0.113729 0.308389
Si Si7 0.771728 0.117701 0.862592
Si Si8 0.697137 0.699578 0.310516
O O1 0.666278 0.709824 0.082288
O O2 0.500000 0.500000 0.000000
O O3 0.617489 0.586657 0.574564
O O4 0.668589 0.876402 0.808989
O O5 0.750755 0.425541 0.146434
O O6 0.850921 0.502448 0.476729
O O7 0.900558 0.563368 0.953199
O O8 0.757170 0.204479 0.105562
O O9 0.182428 0.297371 0.508039
O O10 0.290739 0.413872 0.820137
O O11 0.125579 0.211419 0.032744
O O12 0.843350 0.140935 0.887120
O O13 0.986424 0.317642 0.506277
O O14 0.904751 0.025382 0.756825
O O15 0.799689 0.924320 0.442148
O O16 0.165669 0.719537 0.372956
O O17 0.000000 0.000000 0.500000
#
# Coordination Sequence:
#
# PCOD9098648 Si02
#       8
#     2   2   2   2   2   2   2   2
#     4  11  23  43  67  89 111 139 186 249 302 350
#     4  10  22  35  54  79 118 160 194 224 272 334
#     4  11  20  37  54  79 116 156 191 238 277 329
#     4  10  20  37  55  83 120 153 193 239 272 330
#     4  10  22  35  51  84 116 162 192 221 276 331
#     4  11  22  33  52  79 115 161 207 236 267 317
#     4   9  23  37  57  83 114 148 194 230 293 336
#     4  10  23  38  61  91 113 149 188 240 293 340
#
# _framework density 20.152947000000001
#
# number of rings (size 3 to 8) (size 9 to 14) (size 15 to 20)
#    0.750    1.000    0.000    5.625    3.500    5.500 
#    0.000    0.000    0.000    1.500    0.000    0.000 
#    0.000    0.000    0.000    0.000    0.000    0.000 
#
# Total GULP energy -89182.884815 kJ/mol
# GULP energy per Si atom -5573.930301 kJ/mol
# Density = 2.010708 g / cm^3
# Si number density = 20.152947 Si / 1000 Ang^3
#
#
#
# Elastic Constant Matrix: (Units=GPa)
#
#
# Indices 1 2 3 4 5 6 
#
# 1 121.9018 50.4731 21.1776 -6.3868 -9.8767 -28.0734
# 2 50.4731 61.8463 4.2683 -12.1853 -12.3438 -14.6069
# 3 21.1776 4.2683 66.0576 -7.9814 -1.2900 -12.9823
# 4 -6.3868 -12.1853 -7.9814 23.5034 2.3906 -6.5581
# 5 -9.8767 -12.3438 -1.2900 2.3906 33.7003 -0.8104
# 6 -28.0734 -14.6069 -12.9823 -6.5581 -0.8104 25.4804
#
#
#
# Elastic Compliance Matrix: (Units=1/GPa)
#
#
# Indices 1 2 3 4 5 6 
#
# 1 0.014886 -0.008882 -0.001833 0.001727 0.001178 0.010857
# 2 -0.008882 0.033445 0.007211 0.021762 0.008835 0.018943
# 3 -0.001833 0.007211 0.020227 0.014401 0.002246 0.016198
# 4 0.001727 0.021762 0.014401 0.069793 0.005035 0.039838
# 5 0.001178 0.008835 0.002246 0.005035 0.033220 0.009859
# 6 0.010857 0.018943 0.016198 0.039838 0.009859 0.080886
#
#
# Mechanical properties :
#
#
# Convention : Reuss Voigt Hill
#
# Bulk Modulus (GPa) = 16.24698 44.62707 30.43702
# Shear Modulus (GPa) = 17.85830 28.12928 22.99379
#
# Velocity S-wave (km/s) = 2.98004 3.74008 3.38148
# Velocity P-wave (km/s) = 4.46320 6.39087 5.51196
#
# Compressibility (1/GPa) = 0.06154990
#
# Stress axis : x y z
#
# Youngs Moduli (GPa) = 67.17919 29.89969 49.43835
#
# Poissons Ratio (x) = 0.26558 0.09062
# Poissons Ratio (y) = 0.59670 -0.35651
# Poissons Ratio (z) = 0.12314 -0.21561
#
# Static dielectric constant tensor:
#      x y z
#    x 1.759670 -0.054630 -0.023790 
#    y -0.054630 1.727490 0.017420 
#    z -0.023790 0.017420 1.737880 
# 
# From -- ./inp_files/123166.got.cif
#   From: 2010.05.17/outbox.cif.g08.bks.cpg/sg2_62_cif.got.tgz:123166.got - 2010.06.03 11:33:40.
