data_PCOD9098407
_publ_section_title
;
Structure prediction by ZEFSAII (Michael W. Deem and Ramdas Pophale) SiO2 
 PCOD9098407
Probable space group: P -1
;
_chemical_formula_sum "Si O2"
_cell_formula_units_Z 16
_cell_length_a 5.559310
_cell_length_b 29.878497
_cell_length_c 19.091933
_cell_angle_alpha 160.650997
_cell_angle_beta 124.582618
_cell_angle_gamma 56.202436
_cell_volume 862.550707
_symmetry_space_group_name_H-M "P -1"
_symmetry_group_IT_number 2
_symmetry_cell_setting 'triclinic'
loop_
_space_group_symop_operation_xyz
x,y,z
-x,-y,-z
loop_
_atom_site_type_symbol
_atom_site_label
_atom_site_fract_x
_atom_site_fract_y
_atom_site_fract_z
Si Si1 0.497563 0.553728 0.355070
Si Si2 0.963839 0.289816 0.668970
Si Si3 0.486902 0.128451 0.017691
Si Si4 0.181790 0.838435 0.741823
Si Si5 0.657126 0.548875 0.527840
Si Si6 0.683079 0.631503 0.370051
Si Si7 0.957814 0.988976 0.791820
Si Si8 0.061759 0.532665 0.947019
O O1 0.426315 0.716300 0.587144
O O2 0.524768 0.504559 0.365843
O O3 0.756316 0.555942 0.344523
O O4 0.244889 0.484548 0.168906
O O5 0.637942 0.297985 0.594175
O O6 0.117501 0.145750 0.461032
O O7 0.108725 0.409218 0.827883
O O8 0.940960 0.331761 0.808270
O O9 0.712703 0.098241 0.075501
O O10 0.401327 0.288622 0.237607
O O11 0.187360 0.061785 0.889144
O O12 0.669504 0.074779 0.900294
O O13 0.133726 0.937715 0.815414
O O14 0.900484 0.749585 0.570827
O O15 0.500000 0.500000 0.500000
O O16 0.000000 0.500000 0.500000
O O17 0.710132 0.510221 0.138888
#
# Coordination Sequence:
#
# PCOD9098407 Si02
#       8
#     2   2   2   2   2   2   2   2
#     4   9  20  33  57  84 112 145 195 239 281 340
#     4  10  19  30  49  79 115 169 191 226 264 323
#     4  11  26  36  57  82 114 150 195 230 283 350
#     4  10  20  32  51  76 122 157 190 215 270 334
#     4  11  25  44  66  85 109 141 190 253 304 335
#     4  10  16  31  51  77 118 155 194 233 263 324
#     4  12  21  36  52  84 121 159 188 218 273 344
#     4   9  18  32  50  77 119 152 204 228 269 317
#
# _framework density 18.549633
#
# number of rings (size 3 to 8) (size 9 to 14) (size 15 to 20)
#    0.000    1.750    3.750    2.625    8.750    0.000 
#    0.000    0.000    0.000    0.000    0.000    5.250 
#    0.000    0.000    0.000    0.000    0.000    0.000 
#
# Total GULP energy -89084.632366 kJ/mol
# GULP energy per Si atom -5567.789523 kJ/mol
# Density = 1.850741 g / cm^3
# Si number density = 18.549633 Si / 1000 Ang^3
#
#
#
# Elastic Constant Matrix: (Units=GPa)
#
#
# Indices 1 2 3 4 5 6 
#
# 1 110.0606 35.8928 41.2138 -2.2910 -17.7327 15.9939
# 2 35.8928 64.0012 22.8355 -3.9080 -1.9804 17.1139
# 3 41.2138 22.8355 89.9811 -11.4754 -19.6646 6.7236
# 4 -2.2910 -3.9080 -11.4754 27.3322 7.8509 -4.6360
# 5 -17.7327 -1.9804 -19.6646 7.8509 32.6635 0.8560
# 6 15.9939 17.1139 6.7236 -4.6360 0.8560 25.1936
#
#
#
# Elastic Compliance Matrix: (Units=1/GPa)
#
#
# Indices 1 2 3 4 5 6 
#
# 1 0.013792 -0.005016 -0.003842 -0.003756 0.005910 -0.005215
# 2 -0.005016 0.022460 -0.003198 0.000471 -0.003111 -0.011027
# 3 -0.003842 -0.003198 0.015447 0.004163 0.005991 0.001052
# 4 -0.003756 0.000471 0.004163 0.042493 -0.009956 0.009111
# 5 0.005910 -0.003111 0.005991 -0.009956 0.039804 -0.006422
# 6 -0.005215 -0.011027 0.001052 0.009111 -0.006422 0.052108
#
#
# Mechanical properties :
#
#
# Convention : Reuss Voigt Hill
#
# Bulk Modulus (GPa) = 36.25011 51.54745 43.89878
# Shear Modulus (GPa) = 22.78828 27.97791 25.38309
#
# Velocity S-wave (km/s) = 3.50880 3.88786 3.70319
# Velocity P-wave (km/s) = 6.00002 6.92844 6.48087
#
# Compressibility (1/GPa) = 0.02758612
#
# Stress axis : x y z
#
# Youngs Moduli (GPa) = 72.50403 44.52374 64.73905
#
# Poissons Ratio (x) = 0.22333 0.24873
# Poissons Ratio (y) = 0.36368 0.20705
# Poissons Ratio (z) = 0.27856 0.14240
#
# Static dielectric constant tensor:
#      x y z
#    x 1.797450 0.031880 -0.022110 
#    y 0.031880 1.671970 -0.021250 
#    z -0.022110 -0.021250 1.654710 
# 
# From -- ./inp_files/81048.got.cif
#   From: 2010.05.17/outbox.cif.g08.bks.cpg/sg2_41_cif.got.tgz:81048.got - 2010.06.03 11:33:40.
