data_PCOD9098103
_publ_section_title
;
Structure prediction by ZEFSAII (Michael W. Deem and Ramdas Pophale) SiO2 
 PCOD9098103
Probable space group: P -1
;
_chemical_formula_sum "Si O2"
_cell_formula_units_Z 13
_cell_length_a 9.611505
_cell_length_b 8.340424
_cell_length_c 13.229769
_cell_angle_alpha 137.975111
_cell_angle_beta 61.479513
_cell_angle_gamma 93.987396
_cell_volume 545.623146
_symmetry_space_group_name_H-M "P -1"
_symmetry_group_IT_number 2
_symmetry_cell_setting 'triclinic'
loop_
_space_group_symop_operation_xyz
x,y,z
-x,-y,-z
loop_
_atom_site_type_symbol
_atom_site_label
_atom_site_fract_x
_atom_site_fract_y
_atom_site_fract_z
Si Si1 0.961491 0.559287 0.922047
Si Si2 0.342949 0.763533 0.119547
Si Si3 0.760601 0.263717 0.079964
Si Si4 0.000000 0.000000 0.500000
Si Si5 0.513592 0.177030 0.453573
Si Si6 0.380106 0.043074 0.888245
Si Si7 0.747282 0.032166 0.484691
O O1 0.052495 0.749406 0.958441
O O2 0.070824 0.259620 0.688690
O O3 0.000000 0.500000 0.000000
O O4 0.764186 0.705452 0.012483
O O5 0.168478 0.944399 0.334060
O O6 0.453953 0.916600 0.117328
O O7 0.500000 0.500000 0.000000
O O8 0.270069 0.698132 0.011294
O O9 0.614033 0.545104 0.314586
O O10 0.723773 0.027685 0.023947
O O11 0.168966 0.785281 0.420240
O O12 0.539045 0.195838 0.336229
O O13 0.419326 0.985206 0.414318
O O14 0.699438 0.054244 0.394409
#
# Coordination Sequence:
#
# PCOD9098103 Si02
#       7
#     2   2   2   1   2   2   2
#     4  11  21  39  66  95 126 171 226 272 321 389
#     4  12  26  44  70  99 132 180 228 281 331 400
#     4  11  25  42  66  99 136 176 216 276 344 398
#     4  12  22  40  66  98 128 168 224 278 332 378
#     4  10  21  39  66  94 129 175 217 270 331 394
#     4  12  23  43  66  97 140 174 217 274 345 401
#     4  10  20  36  63  94 125 163 229 277 311 385
#
# _framework density 23.825968
#
# number of rings (size 3 to 8) (size 9 to 14) (size 15 to 20)
#    0.000    0.923    3.077    5.077    2.154    0.000 
#    0.000    0.000    0.000    3.692    0.000    0.000 
#    0.000    0.000    0.000    0.000    0.000    0.000 
#
# Total GULP energy -72411.571305 kJ/mol
# GULP energy per Si atom -5570.120870 kJ/mol
# Density = 2.377174 g / cm^3
# Si number density = 23.825968 Si / 1000 Ang^3
#
#
#
# Elastic Constant Matrix: (Units=GPa)
#
#
# Indices 1 2 3 4 5 6 
#
# 1 158.5480 17.3102 3.9709 -2.6143 -19.0414 14.0616
# 2 17.3102 88.4868 -0.5743 -13.7937 -2.9315 16.9724
# 3 3.9709 -0.5743 90.9629 -16.6014 -6.2166 -3.4443
# 4 -2.6143 -13.7937 -16.6014 23.5170 0.1612 2.3278
# 5 -19.0414 -2.9315 -6.2166 0.1612 25.1032 -13.1054
# 6 14.0616 16.9724 -3.4443 2.3278 -13.1054 37.3050
#
#
#
# Elastic Compliance Matrix: (Units=1/GPa)
#
#
# Indices 1 2 3 4 5 6 
#
# 1 0.007070 -0.001114 0.000044 0.000169 0.005036 -0.000395
# 2 -0.001114 0.014503 0.001523 0.010237 -0.002848 -0.007677
# 3 0.000044 0.001523 0.013162 0.010031 0.004095 0.001318
# 4 0.000169 0.010237 0.010031 0.056370 -0.000456 -0.007472
# 5 0.005036 -0.002848 0.004095 -0.000456 0.054173 0.018835
# 6 -0.000395 -0.007677 0.001318 -0.007472 0.018835 0.037653
#
#
# Mechanical properties :
#
#
# Convention : Reuss Voigt Hill
#
# Bulk Modulus (GPa) = 28.05643 42.15683 35.10663
# Shear Modulus (GPa) = 25.78596 38.33779 32.06187
#
# Velocity S-wave (km/s) = 3.29335 4.01568 3.67232
# Velocity P-wave (km/s) = 5.12471 6.26362 5.72257
#
# Compressibility (1/GPa) = 0.03564245
#
# Stress axis : x y z
#
# Youngs Moduli (GPa) = 141.43344 68.95159 75.97822
#
# Poissons Ratio (x) = 0.07681 -0.00337
# Poissons Ratio (y) = 0.15754 -0.11574
# Poissons Ratio (z) = -0.00627 -0.10503
#
# Static dielectric constant tensor:
#      x y z
#    x 1.717330 -0.079310 -0.145700 
#    y -0.079310 1.900190 -0.059160 
#    z -0.145700 -0.059160 1.844210 
# 
# From -- ./inp_files/150865.got.cif
#   From: 2010.05.17/outbox.cif.g08.bks.cpg/sg2_76_cif.got.tgz:150865.got - 2010.06.03 11:33:40.
