data_PCOD9098346
_publ_section_title
;
Structure prediction by ZEFSAII (Michael W. Deem and Ramdas Pophale) SiO2 
 PCOD9098346
Probable space group: P -1
;
_chemical_formula_sum "Si O2"
_cell_formula_units_Z 16
_cell_length_a 7.554966
_cell_length_b 8.262994
_cell_length_c 12.293404
_cell_angle_alpha 91.479510
_cell_angle_beta 118.191800
_cell_angle_gamma 68.313576
_cell_volume 618.066206
_symmetry_space_group_name_H-M "P -1"
_symmetry_group_IT_number 2
_symmetry_cell_setting 'triclinic'
loop_
_space_group_symop_operation_xyz
x,y,z
-x,-y,-z
loop_
_atom_site_type_symbol
_atom_site_label
_atom_site_fract_x
_atom_site_fract_y
_atom_site_fract_z
Si Si1 0.691823 0.578711 0.182113
Si Si2 0.372174 0.454628 0.183728
Si Si3 0.507532 0.066703 0.753832
Si Si4 0.814515 0.919051 0.519885
Si Si5 0.086446 0.875024 0.129044
Si Si6 0.873836 0.557849 0.582180
Si Si7 0.715339 0.277968 0.462745
Si Si8 0.692417 0.797650 0.989337
O O1 0.579119 0.444839 0.168784
O O2 0.615170 0.724080 0.257791
O O3 0.952350 0.490410 0.270194
O O4 0.615593 0.694451 0.054526
O O5 0.228336 0.664677 0.148928
O O6 0.494362 0.363516 0.328690
O O7 0.238605 0.350149 0.090334
O O8 0.344633 0.022604 0.630112
O O9 0.745378 0.043296 0.776806
O O10 0.540102 0.963679 0.875742
O O11 0.752654 0.769682 0.554277
O O12 0.070121 0.813192 0.557656
O O13 0.762769 0.112497 0.554330
O O14 0.862766 0.861230 0.101808
O O15 0.000000 0.000000 0.000000
O O16 0.741260 0.435925 0.538732
O O17 0.000000 0.500000 0.500000
#
# Coordination Sequence:
#
# PCOD9098346 Si02
#       8
#     2   2   2   2   2   2   2   2
#     4  11  20  33  52  82 116 141 173 230 285 324
#     4  11  19  35  56  81 108 145 182 225 274 335
#     4  10  18  35  56  78 107 148 183 222 269 334
#     4  10  17  30  53  85 109 135 186 235 270 314
#     4   9  21  37  56  73 106 153 192 218 264 332
#     4  10  16  31  51  75 110 142 175 223 270 321
#     4  10  18  29  54  86 107 135 188 230 275 318
#     4  11  22  34  51  84 115 141 179 226 280 330
#
# _framework density 25.887197
#
# number of rings (size 3 to 8) (size 9 to 14) (size 15 to 20)
#    0.000    1.750    6.250    1.875    0.000    0.000 
#    0.000    0.000    0.000    3.000    0.000    1.750 
#    0.000    0.000    0.000    0.000    0.000    0.000 
#
# Total GULP energy -89203.501783 kJ/mol
# GULP energy per Si atom -5575.218861 kJ/mol
# Density = 2.582828 g / cm^3
# Si number density = 25.887197 Si / 1000 Ang^3
#
#
#
# Elastic Constant Matrix: (Units=GPa)
#
#
# Indices 1 2 3 4 5 6 
#
# 1 72.9229 21.9810 34.1763 -1.5212 3.8493 9.7145
# 2 21.9810 157.6635 35.4852 -33.3253 0.7095 29.0053
# 3 34.1763 35.4852 103.0427 -28.4238 2.4500 4.6933
# 4 -1.5212 -33.3253 -28.4238 39.2828 1.4530 5.1423
# 5 3.8493 0.7095 2.4500 1.4530 26.2880 -1.6886
# 6 9.7145 29.0053 4.6933 5.1423 -1.6886 18.2278
#
#
#
# Elastic Compliance Matrix: (Units=1/GPa)
#
#
# Indices 1 2 3 4 5 6 
#
# 1 0.017706 -0.000759 -0.006317 -0.003696 -0.002149 -0.005759
# 2 -0.000759 0.015560 0.001380 0.018244 -0.003384 -0.030171
# 3 -0.006317 0.001380 0.015203 0.012842 -0.001658 -0.006521
# 4 -0.003696 0.018244 0.012842 0.056503 -0.007289 -0.046984
# 5 -0.002149 -0.003384 -0.001658 -0.007289 0.039819 0.012702
# 6 -0.005759 -0.030171 -0.006521 -0.046984 0.012702 0.122052
#
#
# Mechanical properties :
#
#
# Convention : Reuss Voigt Hill
#
# Bulk Modulus (GPa) = 26.96985 57.43490 42.20238
# Shear Modulus (GPa) = 17.20615 32.89216 25.04916
#
# Velocity S-wave (km/s) = 2.58089 3.56841 3.11405
# Velocity P-wave (km/s) = 4.39570 6.26201 5.40995
#
# Compressibility (1/GPa) = 0.03707844
#
# Stress axis : x y z
#
# Youngs Moduli (GPa) = 56.47779 64.26811 65.77445
#
# Poissons Ratio (x) = 0.04876 0.41552
# Poissons Ratio (y) = 0.04285 -0.09080
# Poissons Ratio (z) = 0.35679 -0.08872
#
# Static dielectric constant tensor:
#      x y z
#    x 2.165900 0.019830 0.050570 
#    y 0.019830 2.086450 0.026610 
#    z 0.050570 0.026610 2.041930 
# 
# From -- ./inp_files/179330.got.cif
#   From: 2010.05.17/outbox.cif.g08.bks.cpg/sg2_90_cif.got.tgz:179330.got - 2010.06.03 11:33:40.
