data_PCOD9098382
_publ_section_title
;
Structure prediction by ZEFSAII (Michael W. Deem and Ramdas Pophale) SiO2 
 PCOD9098382
Probable space group: P -1
;
_chemical_formula_sum "Si O2"
_cell_formula_units_Z 12
_cell_length_a 7.287222
_cell_length_b 14.809896
_cell_length_c 4.965590
_cell_angle_alpha 54.959657
_cell_angle_beta 111.890419
_cell_angle_gamma 96.717479
_cell_volume 403.794025
_symmetry_space_group_name_H-M "P -1"
_symmetry_group_IT_number 2
_symmetry_cell_setting 'triclinic'
loop_
_space_group_symop_operation_xyz
x,y,z
-x,-y,-z
loop_
_atom_site_type_symbol
_atom_site_label
_atom_site_fract_x
_atom_site_fract_y
_atom_site_fract_z
Si Si1 0.689032 0.827683 0.414871
Si Si2 0.916135 0.621587 0.617755
Si Si3 0.297558 0.958254 0.255699
Si Si4 0.644285 0.558355 0.188834
Si Si5 0.109048 0.866102 0.829266
Si Si6 0.714738 0.339291 0.959250
O O1 0.737174 0.697929 0.553138
O O2 0.496683 0.881335 0.387778
O O3 0.888873 0.847795 0.651161
O O4 0.680253 0.913143 0.009722
O O5 0.854876 0.607113 0.297395
O O6 0.000000 0.500000 0.000000
O O7 0.109142 0.679983 0.693414
O O8 0.228107 0.928008 0.563621
O O9 0.128593 0.925185 0.017659
O O10 0.685849 0.460101 0.600423
O O11 0.492064 0.664456 0.002723
O O12 0.500000 0.500000 0.000000
O O13 0.237497 0.746318 0.102968
#
# Coordination Sequence:
#
# PCOD9098382 Si02
#       6
#     2   2   2   2   2   2
#     4  10  23  44  71 104 145 189 238 298 360 432
#     4   9  19  41  66  96 140 181 233 292 358 427
#     4  11  25  43  74 107 142 190 242 297 361 429
#     4  10  20  36  65  93 128 178 237 289 351 422
#     4  11  24  44  71 104 146 187 240 296 364 430
#     4   9  21  39  60  92 137 178 230 289 357 420
#
# _framework density 29.718122999999999
#
# number of rings (size 3 to 8) (size 9 to 14) (size 15 to 20)
#    0.000    2.000    0.000    2.000    2.333    4.667 
#    0.000    0.000    0.000    0.000    0.000    0.000 
#    0.000    0.000    0.000    0.000    0.000    0.000 
#
# Total GULP energy -67051.008510 kJ/mol
# GULP energy per Si atom -5587.584043 kJ/mol
# Density = 2.965048 g / cm^3
# Si number density = 29.718123 Si / 1000 Ang^3
#
#
#
# Elastic Constant Matrix: (Units=GPa)
#
#
# Indices 1 2 3 4 5 6 
#
# 1 60.1885 43.1186 56.0880 6.5108 26.0186 -18.3673
# 2 43.1186 182.5401 73.7512 5.7618 20.3153 -13.1095
# 3 56.0880 73.7512 139.9175 22.8996 19.4414 2.0147
# 4 6.5108 5.7618 22.8996 99.7479 13.1099 19.7176
# 5 26.0186 20.3153 19.4414 13.1099 77.1806 -3.8079
# 6 -18.3673 -13.1095 2.0147 19.7176 -3.8079 46.1560
#
#
#
# Elastic Compliance Matrix: (Units=1/GPa)
#
#
# Indices 1 2 3 4 5 6 
#
# 1 0.038882 -0.001619 -0.013594 -0.001296 -0.008274 0.015477
# 2 -0.001619 0.007302 -0.003178 0.000200 -0.000539 0.001439
# 3 -0.013594 -0.003178 0.014322 -0.001199 0.001705 -0.006285
# 4 -0.001296 0.000200 -0.001199 0.011671 -0.001569 -0.005522
# 5 -0.008274 -0.000539 0.001705 -0.001569 0.015648 -0.001559
# 6 0.015477 0.001439 -0.006285 -0.005522 -0.001559 0.030738
#
#
# Mechanical properties :
#
#
# Convention : Reuss Voigt Hill
#
# Bulk Modulus (GPa) = 42.15457 80.95132 61.55294
# Shear Modulus (GPa) = 30.62725 58.59610 44.61167
#
# Velocity S-wave (km/s) = 3.21377 4.44523 3.87868
# Velocity P-wave (km/s) = 5.29024 7.32432 6.38875
#
# Compressibility (1/GPa) = 0.02372222
#
# Stress axis : x y z
#
# Youngs Moduli (GPa) = 25.71866 136.95306 69.82393
#
# Poissons Ratio (x) = 0.22170 0.94922
# Poissons Ratio (y) = 0.04163 0.22193
# Poissons Ratio (z) = 0.34963 0.43530
#
# Static dielectric constant tensor:
#      x y z
#    x 2.497780 0.147380 -0.078280 
#    y 0.147380 2.479870 -0.051260 
#    z -0.078280 -0.051260 2.267670 
# 
# From -- ./inp_files/34858.got.cif
#   From: 2010.05.17/outbox.cif.g08.bks.cpg/sg2_18_cif.got.tgz:34858.got - 2010.06.03 11:33:40.
