data_PCOD9098943
_publ_section_title
;
Structure prediction by ZEFSAII (Michael W. Deem and Ramdas Pophale) SiO2 
 PCOD9098943
Probable space group: P -1
;
_chemical_formula_sum "Si O2"
_cell_formula_units_Z 16
_cell_length_a 11.544808
_cell_length_b 22.235629
_cell_length_c 7.687646
_cell_angle_alpha 58.493886
_cell_angle_beta 61.513079
_cell_angle_gamma 29.558633
_cell_volume 828.847152
_symmetry_space_group_name_H-M "P -1"
_symmetry_group_IT_number 2
_symmetry_cell_setting 'triclinic'
loop_
_space_group_symop_operation_xyz
x,y,z
-x,-y,-z
loop_
_atom_site_type_symbol
_atom_site_label
_atom_site_fract_x
_atom_site_fract_y
_atom_site_fract_z
Si Si1 0.777376 0.372870 0.982902
Si Si2 0.607529 0.010767 0.272721
Si Si3 0.900664 0.751309 0.755076
Si Si4 0.031199 0.839241 0.649663
Si Si5 0.558179 0.136783 0.604619
Si Si6 0.732431 0.148751 0.755457
Si Si7 0.119384 0.239643 0.643007
Si Si8 0.731320 0.110333 0.179408
O O1 0.852883 0.257724 0.134376
O O2 0.909599 0.354671 0.075885
O O3 0.500000 0.500000 0.000000
O O4 0.889755 0.348570 0.759769
O O5 0.366682 0.139123 0.152467
O O6 0.703716 0.040268 0.242390
O O7 0.500000 0.000000 0.500000
O O8 0.795269 0.880284 0.234854
O O9 0.916219 0.719400 0.593162
O O10 0.947159 0.814856 0.617034
O O11 0.212531 0.807098 0.464503
O O12 0.801093 0.984071 0.653041
O O13 0.563235 0.175302 0.723349
O O14 0.335339 0.187255 0.649869
O O15 0.588065 0.177376 0.358920
O O16 0.655526 0.189990 0.947976
O O17 0.994494 0.997847 0.812003
#
# Coordination Sequence:
#
# PCOD9098943 Si02
#       8
#     2   2   2   2   2   2   2   2
#     4  10  24  38  54  79 102 138 188 226 266 307
#     4  10  16  31  53  83 113 133 164 217 274 325
#     4   9  19  34  56  76 110 132 170 224 273 313
#     4   9  19  37  50  75 118 136 171 224 248 315
#     4  11  19  32  51  84 115 135 171 207 259 338
#     4  10  21  31  47  77 114 156 167 192 260 322
#     4  11  19  32  57  80 108 140 164 219 284 309
#     4  10  19  31  48  73 122 144 167 200 247 335
#
# _framework density 19.303920999999999
#
# number of rings (size 3 to 8) (size 9 to 14) (size 15 to 20)
#    0.750    1.250    3.750    3.750    3.500    1.500 
#    2.250    0.000    0.000    0.750    0.000    1.750 
#    0.000    0.000    0.000    0.000    0.000    0.000 
#
# Total GULP energy -89086.856313 kJ/mol
# GULP energy per Si atom -5567.928520 kJ/mol
# Density = 1.925998 g / cm^3
# Si number density = 19.303921 Si / 1000 Ang^3
#
#
#
# Elastic Constant Matrix: (Units=GPa)
#
#
# Indices 1 2 3 4 5 6 
#
# 1 79.4875 4.4886 -1.6012 4.1551 17.6853 -11.1516
# 2 4.4886 58.0807 6.4408 18.9799 12.8906 -19.3747
# 3 -1.6012 6.4408 52.5755 18.4208 6.3116 5.6125
# 4 4.1551 18.9799 18.4208 15.7393 -0.6201 -1.2492
# 5 17.6853 12.8906 6.3116 -0.6201 30.1626 -5.1076
# 6 -11.1516 -19.3747 5.6125 -1.2492 -5.1076 13.7699
#
#
#
# Elastic Compliance Matrix: (Units=1/GPa)
#
#
# Indices 1 2 3 4 5 6 
#
# 1 0.362788 1.064944 0.479374 -1.869239 -0.602755 1.203680
# 2 1.064944 3.272041 1.461274 -5.717218 -1.823691 3.675617
# 3 0.479374 1.461274 0.695120 -2.606693 -0.830933 1.616274
# 4 -1.869239 -5.717218 -2.606693 10.121806 3.211509 -6.386215
# 5 -0.602755 -1.823691 -0.830933 3.211509 1.062083 -2.030166
# 6 1.203680 3.675617 1.616274 -6.386215 -2.030166 4.227987
#
#
# Mechanical properties :
#
#
# Convention : Reuss Voigt Hill
#
# Bulk Modulus (GPa) = 0.09670 23.20003 11.64836
# Shear Modulus (GPa) = 0.29108 23.98873 12.13990
#
# Velocity S-wave (km/s) = 0.38873 3.52900 2.51047
# Velocity P-wave (km/s) = 0.50168 5.35252 3.80139
#
# Compressibility (1/GPa) = 10.34113291
#
# Stress axis : x y z
#
# Youngs Moduli (GPa) = 2.75643 0.30562 1.43860
#
# Poissons Ratio (x) = -0.32547 -0.68963
# Poissons Ratio (y) = -2.93545 -2.10219
# Poissons Ratio (z) = -1.32136 -0.44659
#
# Static dielectric constant tensor:
#      x y z
#    x 1.710760 -0.000740 0.025750 
#    y -0.000740 1.658840 -0.010810 
#    z 0.025750 -0.010810 1.756800 
# 
# From -- ./inp_files/283669.got.cif
#   From: 2010.05.17/outbox.cif.g08.bks.cpg/sg2_142_cif.got.tgz:283669.got - 2010.06.03 11:33:40.
