data_PCOD9098076
_publ_section_title
;
Structure prediction by ZEFSAII (Michael W. Deem and Ramdas Pophale) SiO2 
 PCOD9098076
Probable space group: P -1
;
_chemical_formula_sum "Si O2"
_cell_formula_units_Z 14
_cell_length_a 8.480354
_cell_length_b 9.369706
_cell_length_c 11.517604
_cell_angle_alpha 97.285884
_cell_angle_beta 141.736735
_cell_angle_gamma 96.439421
_cell_volume 527.717483
_symmetry_space_group_name_H-M "P -1"
_symmetry_group_IT_number 2
_symmetry_cell_setting 'triclinic'
loop_
_space_group_symop_operation_xyz
x,y,z
-x,-y,-z
loop_
_atom_site_type_symbol
_atom_site_label
_atom_site_fract_x
_atom_site_fract_y
_atom_site_fract_z
Si Si1 0.578248 0.131552 0.225580
Si Si2 0.368294 0.438771 0.658372
Si Si3 0.861970 0.718646 0.989335
Si Si4 0.720079 0.835388 0.575346
Si Si5 0.228190 0.797367 0.002225
Si Si6 0.179262 0.585059 0.770756
Si Si7 0.810949 0.185207 0.604505
O O1 0.306500 0.166307 0.106158
O O2 0.697476 0.245526 0.200972
O O3 0.796843 0.187388 0.459343
O O4 0.484238 0.949303 0.140009
O O5 0.663752 0.557432 0.810568
O O6 0.330720 0.267747 0.580615
O O7 0.304157 0.481614 0.755804
O O8 0.140549 0.475051 0.450361
O O9 0.137181 0.783773 0.082165
O O10 0.934777 0.708785 0.165317
O O11 0.452563 0.785777 0.494551
O O12 0.966885 0.814993 0.787581
O O13 0.788432 0.012708 0.605322
O O14 0.244061 0.638559 0.945916
#
# Coordination Sequence:
#
# PCOD9098076 Si02
#       7
#     2   2   2   2   2   2   2
#     4  11  21  40  65  96 124 166 204 263 306 374
#     4   9  21  42  62  90 127 168 208 253 308 373
#     4  11  22  39  69  94 124 161 210 263 309 366
#     4  10  20  36  63  92 127 160 205 262 307 367
#     4  11  19  37  66  99 121 161 211 256 315 363
#     4   9  21  39  65  90 126 171 208 246 314 379
#     4  11  22  38  64  97 125 158 210 262 311 359
#
# _framework density 26.529347000000001
#
# number of rings (size 3 to 8) (size 9 to 14) (size 15 to 20)
#    0.000    1.714    2.857    2.571    0.000    2.857 
#    2.571    3.571   12.571    0.000    0.000    0.000 
#    0.000    0.000    0.000    0.000    0.000    0.000 
#
# Total GULP energy -78464.075845 kJ/mol
# GULP energy per Si atom -5604.576846 kJ/mol
# Density = 2.646897 g / cm^3
# Si number density = 26.529347 Si / 1000 Ang^3
#
#
#
# Elastic Constant Matrix: (Units=GPa)
#
#
# Indices 1 2 3 4 5 6 
#
# 1 53.8286 28.9462 17.7618 8.5341 -10.5391 -8.6580
# 2 28.9462 103.0933 46.8380 29.8041 3.8752 -16.5921
# 3 17.7618 46.8380 134.8716 26.3345 -7.7666 -8.2760
# 4 8.5341 29.8041 26.3345 55.9003 -3.5321 3.3810
# 5 -10.5391 3.8752 -7.7666 -3.5321 44.6715 9.7597
# 6 -8.6580 -16.5921 -8.2760 3.3810 9.7597 32.0561
#
#
#
# Elastic Compliance Matrix: (Units=1/GPa)
#
#
# Indices 1 2 3 4 5 6 
#
# 1 0.023505 -0.006561 -0.000509 0.000459 0.005845 0.000993
# 2 -0.006561 0.016797 -0.003366 -0.007275 -0.006058 0.008665
# 3 -0.000509 -0.003366 0.009223 -0.002394 0.001523 0.000291
# 4 0.000459 -0.007275 -0.002394 0.023553 0.003919 -0.007937
# 5 0.005845 -0.006058 0.001523 0.003919 0.027006 -0.009799
# 6 0.000993 0.008665 0.000291 -0.007937 -0.009799 0.039844
#
#
# Mechanical properties :
#
#
# Convention : Reuss Voigt Hill
#
# Bulk Modulus (GPa) = 34.89953 53.20950 44.05452
# Shear Modulus (GPa) = 29.35115 39.74209 34.54662
#
# Velocity S-wave (km/s) = 3.32982 3.87465 3.61252
# Velocity P-wave (km/s) = 5.28840 6.33385 5.83459
#
# Compressibility (1/GPa) = 0.02865368
#
# Stress axis : x y z
#
# Youngs Moduli (GPa) = 42.54403 59.53538 108.42030
#
# Poissons Ratio (x) = 0.39061 0.05519
# Poissons Ratio (y) = 0.27913 0.36492
# Poissons Ratio (z) = 0.02166 0.20038
#
# Static dielectric constant tensor:
#      x y z
#    x 2.040320 0.012200 -0.027190 
#    y 0.012200 2.061610 -0.019120 
#    z -0.027190 -0.019120 2.041550 
# 
# From -- ./inp_files/390852.got.cif
#   From: 2010.05.17/outbox.cif.g08.bks.cpg/sg2_196_cif.got.tgz:390852.got - 2010.06.03 11:33:40.
