data_PCOD9098347
_publ_section_title
;
Structure prediction by ZEFSAII (Michael W. Deem and Ramdas Pophale) SiO2 
 PCOD9098347
Probable space group: P -1
;
_chemical_formula_sum "Si O2"
_cell_formula_units_Z 13
_cell_length_a 7.659727
_cell_length_b 9.502398
_cell_length_c 10.260272
_cell_angle_alpha 71.375581
_cell_angle_beta 42.945506
_cell_angle_gamma 78.951776
_cell_volume 481.125301
_symmetry_space_group_name_H-M "P -1"
_symmetry_group_IT_number 2
_symmetry_cell_setting 'triclinic'
loop_
_space_group_symop_operation_xyz
x,y,z
-x,-y,-z
loop_
_atom_site_type_symbol
_atom_site_label
_atom_site_fract_x
_atom_site_fract_y
_atom_site_fract_z
Si Si1 0.492982 0.220099 0.030592
Si Si2 0.650429 0.516239 0.124545
Si Si3 0.118449 0.010496 0.136617
Si Si4 0.201282 0.414542 0.575128
Si Si5 0.983640 0.270140 0.977092
Si Si6 0.986966 0.712206 0.559961
Si Si7 0.000000 0.000000 0.500000
O O1 0.515091 0.386649 0.911042
O O2 0.746418 0.134440 0.947114
O O3 0.357538 0.122752 0.016905
O O4 0.260559 0.207246 0.268657
O O5 0.482466 0.468420 0.356154
O O6 0.885462 0.628135 0.006818
O O7 0.732095 0.362679 0.062578
O O8 0.960667 0.105614 0.094859
O O9 0.963924 0.984208 0.362858
O O10 0.174755 0.302992 0.742087
O O11 0.072153 0.341803 0.536954
O O12 0.059448 0.565566 0.638499
O O13 0.182750 0.852808 0.434061
#
# Coordination Sequence:
#
# PCOD9098347 Si02
#       7
#     2   2   2   2   2   2   1
#     4   9  17  37  57  89 118 161 208 256 299 374
#     4  10  20  36  65  88 123 167 206 256 316 367
#     4   9  19  35  62  85 120 161 208 255 306 360
#     4  11  22  40  62  98 126 165 206 269 311 365
#     4  10  21  40  59  95 128 160 209 261 308 382
#     4  10  22  39  64  92 129 160 219 260 304 375
#     4  10  20  40  62  88 116 170 210 248 306 384
#
# _framework density 27.019991000000001
#
# number of rings (size 3 to 8) (size 9 to 14) (size 15 to 20)
#    0.000    2.154    1.538    1.385    2.154    1.846 
#   13.846    1.538    0.000    0.000    0.000    0.000 
#    0.000    0.000    0.000    0.000    0.000    0.000 
#
# Total GULP energy -72496.426855 kJ/mol
# GULP energy per Si atom -5576.648220 kJ/mol
# Density = 2.695849 g / cm^3
# Si number density = 27.019991 Si / 1000 Ang^3
#
#
#
# Elastic Constant Matrix: (Units=GPa)
#
#
# Indices 1 2 3 4 5 6 
#
# 1 55.7561 26.1809 23.6420 2.7157 24.4312 -28.7885
# 2 26.1809 195.6111 43.2692 20.3305 25.7532 -18.9724
# 3 23.6420 43.2692 141.0250 13.1905 36.6661 -21.6275
# 4 2.7157 20.3305 13.1905 35.7211 -1.1640 13.7344
# 5 24.4312 25.7532 36.6661 -1.1640 49.4773 -13.3643
# 6 -28.7885 -18.9724 -21.6275 13.7344 -13.3643 48.5292
#
#
#
# Elastic Compliance Matrix: (Units=1/GPa)
#
#
# Indices 1 2 3 4 5 6 
#
# 1 0.034132 -0.000059 0.001947 -0.011719 -0.012909 0.020854
# 2 -0.000059 0.006271 -0.000466 -0.004578 -0.002216 0.002895
# 3 0.001947 -0.000466 0.010040 -0.005811 -0.006893 0.005193
# 4 -0.011719 -0.004578 -0.005811 0.041994 0.007771 -0.021076
# 5 -0.012909 -0.002216 -0.006893 0.007771 0.031658 -0.005077
# 6 0.020854 0.002895 0.005193 -0.021076 -0.005077 0.040990
#
#
# Mechanical properties :
#
#
# Convention : Reuss Voigt Hill
#
# Bulk Modulus (GPa) = 18.76640 64.28625 41.52632
# Shear Modulus (GPa) = 27.77706 46.69888 37.23797
#
# Velocity S-wave (km/s) = 3.20975 4.16180 3.71639
# Velocity P-wave (km/s) = 4.54941 6.85112 5.81528
#
# Compressibility (1/GPa) = 0.05328673
#
# Stress axis : x y z
#
# Youngs Moduli (GPa) = 29.29772 159.45374 99.60469
#
# Poissons Ratio (x) = 0.00936 -0.19388
# Poissons Ratio (y) = 0.00172 0.04643
# Poissons Ratio (z) = -0.05703 0.07433
#
# Static dielectric constant tensor:
#      x y z
#    x 2.110040 -0.132940 0.147890 
#    y -0.132940 1.888250 0.313540 
#    z 0.147890 0.313540 1.743760 
# 
# From -- ./inp_files/200998.got.cif
#   From: 2010.05.17/outbox.cif.g08.bks.cpg/sg2_101_cif.got.tgz:200998.got - 2010.06.03 11:33:40.
