data_PCOD9098678
_publ_section_title
;
Structure prediction by ZEFSAII (Michael W. Deem and Ramdas Pophale) SiO2 
 PCOD9098678
Probable space group: P -1
;
_chemical_formula_sum "Si O2"
_cell_formula_units_Z 14
_cell_length_a 17.106213
_cell_length_b 27.148200
_cell_length_c 16.486802
_cell_angle_alpha 160.833988
_cell_angle_beta 17.290260
_cell_angle_gamma 159.949707
_cell_volume 689.708628
_symmetry_space_group_name_H-M "P -1"
_symmetry_group_IT_number 2
_symmetry_cell_setting 'triclinic'
loop_
_space_group_symop_operation_xyz
x,y,z
-x,-y,-z
loop_
_atom_site_type_symbol
_atom_site_label
_atom_site_fract_x
_atom_site_fract_y
_atom_site_fract_z
Si Si1 0.123379 0.696858 0.408593
Si Si2 0.236411 0.971777 0.275528
Si Si3 0.252522 0.292877 0.463017
Si Si4 0.162618 0.637617 0.913941
Si Si5 0.227277 0.853640 0.716110
Si Si6 0.704415 0.806109 0.905711
Si Si7 0.196022 0.079814 0.656064
O O1 0.142736 0.720536 0.522335
O O2 0.920181 0.517881 0.302971
O O3 0.984343 0.814251 0.688458
O O4 0.434540 0.741046 0.130840
O O5 0.285887 0.088334 0.486429
O O6 0.152267 0.789915 0.110492
O O7 0.000000 0.000000 0.500000
O O8 0.500000 0.000000 0.000000
O O9 0.528778 0.312561 0.272900
O O10 0.331184 0.312603 0.321130
O O11 0.020840 0.107796 0.410387
O O12 0.080109 0.395570 0.828537
O O13 0.526324 0.881131 0.503811
O O14 0.988161 0.823773 0.975771
O O15 0.266798 0.021596 0.891741
#
# Coordination Sequence:
#
# PCOD9098678 Si02
#       7
#     2   2   2   2   2   2   2
#     4  12  24  35  54  81 117 156 187 229 267 314
#     4  11  21  38  65  88 105 131 178 235 284 341
#     4  10  20  37  56  79 116 149 185 233 273 323
#     4  11  23  38  55  84 117 144 177 226 298 338
#     4  11  21  38  57  79 116 154 194 222 256 320
#     4  11  21  35  55  81 110 154 204 230 253 301
#     4  10  20  37  61  84 108 143 183 231 278 321
#
# _framework density 20.298425999999999
#
# number of rings (size 3 to 8) (size 9 to 14) (size 15 to 20)
#    0.000    1.143    0.000   11.143    0.000    3.429 
#    0.000    0.000    0.000    5.143    0.000    0.000 
#    0.000    0.000    0.000    0.000    0.000    0.000 
#
# Total GULP energy -78271.918373 kJ/mol
# GULP energy per Si atom -5590.851312 kJ/mol
# Density = 2.025223 g / cm^3
# Si number density = 20.298426 Si / 1000 Ang^3
#
#
#
# Elastic Constant Matrix: (Units=GPa)
#
#
# Indices 1 2 3 4 5 6 
#
# 1 114.9518 44.5828 59.2011 -11.2595 15.1004 36.2011
# 2 44.5828 46.8093 58.9204 -11.4107 13.4913 28.1141
# 3 59.2011 58.9204 113.4139 -37.3100 13.1450 27.3229
# 4 -11.2595 -11.4107 -37.3100 35.0690 0.1235 2.1316
# 5 15.1004 13.4913 13.1450 0.1235 47.4879 -0.7077
# 6 36.2011 28.1141 27.3229 2.1316 -0.7077 43.8301
#
#
#
# Elastic Compliance Matrix: (Units=1/GPa)
#
#
# Indices 1 2 3 4 5 6 
#
# 1 0.014883 -0.006030 -0.002479 0.000610 -0.002438 -0.006948
# 2 -0.006030 0.111963 -0.050159 -0.016683 -0.016485 -0.035022
# 3 -0.002479 -0.050159 0.044437 0.029840 0.002736 0.005112
# 4 0.000610 -0.016683 0.029840 0.055724 -0.004026 -0.011180
# 5 -0.002438 -0.016485 0.002736 -0.004026 0.025941 0.011497
# 6 -0.006948 -0.035022 0.005112 -0.011180 0.011497 0.048561
#
#
# Mechanical properties :
#
#
# Convention : Reuss Voigt Hill
#
# Bulk Modulus (GPa) = 18.53673 66.73152 42.63412
# Shear Modulus (GPa) = 11.44617 32.77545 22.11081
#
# Velocity S-wave (km/s) = 2.37722 4.02267 3.30402
# Velocity P-wave (km/s) = 4.08495 7.38393 5.96696
#
# Compressibility (1/GPa) = 0.05394694
#
# Stress axis : x y z
#
# Youngs Moduli (GPa) = 67.19152 8.93154 22.50355
#
# Poissons Ratio (x) = 0.05386 0.05578
# Poissons Ratio (y) = 0.40519 1.12876
# Poissons Ratio (z) = 0.16654 0.44800
#
# Static dielectric constant tensor:
#      x y z
#    x 1.728550 -0.015530 0.045920 
#    y -0.015530 1.728720 0.021450 
#    z 0.045920 0.021450 1.761710 
# 
# From -- ./inp_files/359092.got.cif
#   From: 2010.05.17/outbox.cif.g08.bks.cpg/sg2_180_cif.got.tgz:359092.got - 2010.06.03 11:33:40.
