data_PCOD9098482
_publ_section_title
;
Structure prediction by ZEFSAII (Michael W. Deem and Ramdas Pophale) SiO2 
 PCOD9098482
Probable space group: P -1
;
_chemical_formula_sum "Si O2"
_cell_formula_units_Z 16
_cell_length_a 8.558043
_cell_length_b 17.422264
_cell_length_c 14.362046
_cell_angle_alpha 36.008863
_cell_angle_beta 29.041923
_cell_angle_gamma 43.482754
_cell_volume 609.887048
_symmetry_space_group_name_H-M "P -1"
_symmetry_group_IT_number 2
_symmetry_cell_setting 'triclinic'
loop_
_space_group_symop_operation_xyz
x,y,z
-x,-y,-z
loop_
_atom_site_type_symbol
_atom_site_label
_atom_site_fract_x
_atom_site_fract_y
_atom_site_fract_z
Si Si1 0.733532 0.826518 0.490438
Si Si2 0.385514 0.799496 0.884493
Si Si3 0.350603 0.522589 0.249038
Si Si4 0.347986 0.180551 0.985638
Si Si5 0.673165 0.509510 0.272314
Si Si6 0.812651 0.956222 0.971860
Si Si7 0.243862 0.953197 0.500337
Si Si8 0.003687 0.564338 0.647529
O O1 0.485820 0.776832 0.745869
O O2 0.568547 0.857203 0.446387
O O3 0.017802 0.713462 0.459534
O O4 0.897938 0.959409 0.303072
O O5 0.017504 0.856099 0.027332
O O6 0.624545 0.908476 0.678194
O O7 0.412723 0.673781 0.057449
O O8 0.626703 0.466763 0.231370
O O9 0.000000 0.500000 0.500000
O O10 0.298465 0.476781 0.215210
O O11 0.398552 0.132009 0.898786
O O12 0.998368 0.128977 0.233808
O O13 0.320147 0.333127 0.873999
O O14 0.589973 0.074020 0.017155
O O15 0.324967 0.480599 0.527770
O O16 0.957125 0.444975 0.252381
O O17 0.000000 0.000000 0.500000
#
# Coordination Sequence:
#
# PCOD9098482 Si02
#       8
#     2   2   2   2   2   2   2   2
#     4  11  21  43  64  93 136 170 219 261 331 397
#     4  11  21  43  65  90 133 169 209 275 329 382
#     4  10  23  44  64  92 128 169 223 272 319 380
#     4  11  19  37  64  98 126 165 217 263 324 388
#     4  10  21  41  66  91 130 165 224 275 314 379
#     4  10  20  36  66  97 125 167 217 265 317 399
#     4  11  23  40  61  97 136 170 203 269 334 390
#     4  10  22  41  67  93 123 180 217 267 325 376
#
# _framework density 26.234365
#
# number of rings (size 3 to 8) (size 9 to 14) (size 15 to 20)
#    0.000    1.500    3.750    2.250    0.000    0.500 
#    6.750    2.500    0.000    0.000    0.000    0.000 
#    0.000    0.000    0.000    0.000    0.000    0.000 
#
# Total GULP energy -89139.715355 kJ/mol
# GULP energy per Si atom -5571.232210 kJ/mol
# Density = 2.617465 g / cm^3
# Si number density = 26.234365 Si / 1000 Ang^3
#
#
#
# Elastic Constant Matrix: (Units=GPa)
#
#
# Indices 1 2 3 4 5 6 
#
# 1 211.2351 45.3140 18.5269 -4.8016 -19.9405 -42.6083
# 2 45.3140 71.4888 11.3680 -6.1000 -0.6986 -22.9756
# 3 18.5269 11.3680 67.5009 2.2748 2.6316 10.5276
# 4 -4.8016 -6.1000 2.2748 33.7368 1.1276 -2.9659
# 5 -19.9405 -0.6986 2.6316 1.1276 38.4772 1.4033
# 6 -42.6083 -22.9756 10.5276 -2.9659 1.4033 38.3251
#
#
#
# Elastic Compliance Matrix: (Units=1/GPa)
#
#
# Indices 1 2 3 4 5 6 
#
# 1 0.007359 -0.001297 -0.003295 0.001642 0.003665 0.008302
# 2 -0.001297 0.019993 -0.005078 0.004876 -0.000554 0.012337
# 3 -0.003295 -0.005078 0.018670 -0.003618 -0.002532 -0.012023
# 4 0.001642 0.004876 -0.003618 0.031723 -0.000041 0.008199
# 5 0.003665 -0.000554 -0.002532 -0.000041 0.027928 0.003412
# 6 0.008302 0.012337 -0.012023 0.008199 0.003412 0.046530
#
#
# Mechanical properties :
#
#
# Convention : Reuss Voigt Hill
#
# Bulk Modulus (GPa) = 37.47600 55.62697 46.55148
# Shear Modulus (GPa) = 27.71065 40.44221 34.07643
#
# Velocity S-wave (km/s) = 3.25356 3.93055 3.60797
# Velocity P-wave (km/s) = 5.33201 6.46907 5.92786
#
# Compressibility (1/GPa) = 0.02668375
#
# Stress axis : x y z
#
# Youngs Moduli (GPa) = 135.88695 50.01747 53.56257
#
# Poissons Ratio (x) = 0.06485 0.17646
# Poissons Ratio (y) = 0.17619 0.27199
# Poissons Ratio (z) = 0.44768 0.25399
#
# Static dielectric constant tensor:
#      x y z
#    x 2.198850 0.029400 0.060600 
#    y 0.029400 2.144550 0.034640 
#    z 0.060600 0.034640 2.105620 
# 
# From -- ./inp_files/214496.got.cif
#   From: 2010.05.17/outbox.cif.g08.bks.cpg/sg2_108_cif.got.tgz:214496.got - 2010.06.03 11:33:40.
