data_PCOD9098876
_publ_section_title
;
Structure prediction by ZEFSAII (Michael W. Deem and Ramdas Pophale) SiO2 
 PCOD9098876
Probable space group: P -1
;
_chemical_formula_sum "Si O2"
_cell_formula_units_Z 16
_cell_length_a 27.641022
_cell_length_b 16.238690
_cell_length_c 16.982998
_cell_angle_alpha 155.238063
_cell_angle_beta 23.622867
_cell_angle_gamma 163.243244
_cell_volume 848.886325
_symmetry_space_group_name_H-M "P -1"
_symmetry_group_IT_number 2
_symmetry_cell_setting 'triclinic'
loop_
_space_group_symop_operation_xyz
x,y,z
-x,-y,-z
loop_
_atom_site_type_symbol
_atom_site_label
_atom_site_fract_x
_atom_site_fract_y
_atom_site_fract_z
Si Si1 0.818778 0.506933 0.982350
Si Si2 0.851512 0.818416 0.878323
Si Si3 0.904337 0.283633 0.767106
Si Si4 0.386512 0.404810 0.376055
Si Si5 0.733352 0.392498 0.547879
Si Si6 0.306330 0.544771 0.046281
Si Si7 0.534646 0.753703 0.300905
Si Si8 0.618025 0.233420 0.189641
O O1 0.796595 0.520433 0.935952
O O2 0.635444 0.304165 0.131812
O O3 0.882117 0.362425 0.783190
O O4 0.963615 0.833072 0.087721
O O5 0.818861 0.667025 0.878058
O O6 0.688090 0.777199 0.077645
O O7 0.834298 0.645731 0.682477
O O8 0.116784 0.501138 0.646248
O O9 0.788552 0.946154 0.656536
O O10 0.799208 0.318952 0.007324
O O11 0.562315 0.479521 0.190298
O O12 0.408083 0.520555 0.357291
O O13 0.383233 0.576603 0.591623
O O14 0.583536 0.339057 0.679863
O O15 0.634580 0.079445 0.458056
O O16 0.443172 0.886061 0.162701
#
# Coordination Sequence:
#
# PCOD9098876 Si02
#       8
#     2   2   2   2   2   2   2   2
#     4  10  20  38  55  79 119 144 181 225 265 322
#     4  11  21  38  59  81 112 144 183 226 275 324
#     4   9  21  36  55  79 115 144 179 229 264 321
#     4  10  20  37  58  82 112 145 181 226 273 320
#     4  11  21  39  61  80 108 148 179 228 283 322
#     4  10  21  36  55  84 114 144 182 228 264 319
#     4  10  22  38  59  85 108 137 188 231 272 329
#     4   9  19  36  56  78 114 145 183 219 267 322
#
# _framework density 18.848224999999999
#
# number of rings (size 3 to 8) (size 9 to 14) (size 15 to 20)
#    0.750    1.250    1.250    2.625    0.000    1.000 
#    2.250    1.250    0.000    0.000    0.000    0.000 
#    0.000    0.000    0.000    0.000    0.000    0.000 
#
# Total GULP energy -89180.246315 kJ/mol
# GULP energy per Si atom -5573.765395 kJ/mol
# Density = 1.880533 g / cm^3
# Si number density = 18.848225 Si / 1000 Ang^3
#
#
#
# Elastic Constant Matrix: (Units=GPa)
#
#
# Indices 1 2 3 4 5 6 
#
# 1 26.4538 -9.5944 48.0599 4.5079 -23.9689 -36.0939
# 2 -9.5944 34.9005 74.3662 11.5609 -26.6014 -53.5886
# 3 48.0599 74.3662 -3.9474 31.3315 15.6222 15.1263
# 4 4.5079 11.5609 31.3315 18.7383 -5.5608 -15.0807
# 5 -23.9689 -26.6014 15.6222 -5.5608 8.5570 -6.4623
# 6 -36.0939 -53.5886 15.1263 -15.0807 -6.4623 7.6629
#
#
#
# Elastic Compliance Matrix: (Units=1/GPa)
#
#
# Indices 1 2 3 4 5 6 
#
# 1 0.022736 -0.007693 0.011606 -0.018330 0.006539 -0.000175
# 2 -0.007693 0.015079 0.009567 -0.022191 -0.004206 0.003114
# 3 0.011606 0.009567 0.027369 -0.026878 0.016188 0.028299
# 4 -0.018330 -0.022191 -0.026878 0.096335 -0.021503 -0.017012
# 5 0.006539 -0.004206 0.016188 -0.021503 0.064794 -0.018248
# 6 -0.000175 0.003114 0.028299 -0.017012 -0.018248 0.046718
#
#
# Mechanical properties :
#
#
# Convention : Reuss Voigt Hill
#
# Bulk Modulus (GPa) = 10.85269 31.45225 21.15247
# Shear Modulus (GPa) = 18.06450 3.29665 10.68058
#
# Velocity S-wave (km/s) = 3.09919 1.32395 2.38305
# Velocity P-wave (km/s) = 4.31012 4.36583 4.33806
#
# Compressibility (1/GPa) = 0.09214309
#
# Stress axis : x y z
#
# Youngs Moduli (GPa) = 43.98327 66.31743 36.53798
#
# Poissons Ratio (x) = 0.51016 -0.42406
# Poissons Ratio (y) = 0.33835 -0.34954
# Poissons Ratio (z) = -0.51047 -0.63443
#
# Static dielectric constant tensor:
#      x y z
#    x 1.655810 -0.013290 -0.010590 
#    y -0.013290 1.648170 -0.014300 
#    z -0.010590 -0.014300 1.645770 
# 
# From -- ./inp_files/543060.got.cif
#   From: 2010.05.17/outbox.cif.g08.bks.cpg/sg2_272_cif.got.tgz:543060.got - 2010.06.03 11:33:40.
