data_PCOD9098617
_publ_section_title
;
Structure prediction by ZEFSAII (Michael W. Deem and Ramdas Pophale) SiO2 
 PCOD9098617
Probable space group: P -1
;
_chemical_formula_sum "Si O2"
_cell_formula_units_Z 14
_cell_length_a 9.747971
_cell_length_b 11.430869
_cell_length_c 14.441689
_cell_angle_alpha 31.293363
_cell_angle_beta 108.457411
_cell_angle_gamma 83.601933
_cell_volume 500.792641
_symmetry_space_group_name_H-M "P -1"
_symmetry_group_IT_number 2
_symmetry_cell_setting 'triclinic'
loop_
_space_group_symop_operation_xyz
x,y,z
-x,-y,-z
loop_
_atom_site_type_symbol
_atom_site_label
_atom_site_fract_x
_atom_site_fract_y
_atom_site_fract_z
Si Si1 0.540557 0.192973 0.252578
Si Si2 0.750090 0.876296 0.220138
Si Si3 0.831492 0.180314 0.561164
Si Si4 0.340685 0.123687 0.003192
Si Si5 0.014179 0.138671 0.998515
Si Si6 0.376407 0.490098 0.214081
Si Si7 0.042977 0.707804 0.752549
O O1 0.451526 0.284041 0.276530
O O2 0.822963 0.840095 0.569748
O O3 0.500000 0.500000 0.000000
O O4 0.321314 0.325346 0.064203
O O5 0.000000 0.500000 0.500000
O O6 0.601264 0.882814 0.244909
O O7 0.637721 0.019562 0.996888
O O8 0.746400 0.122789 0.101123
O O9 0.884525 0.127900 0.715650
O O10 0.603782 0.310221 0.426866
O O11 0.988808 0.829959 0.767016
O O12 0.782535 0.483963 0.301363
O O13 0.177699 0.152377 0.004317
O O14 0.000000 0.000000 0.000000
O O15 0.762254 0.476172 0.760828
O O16 0.000000 0.000000 0.500000
#
# Coordination Sequence:
#
# PCOD9098617 Si02
#       7
#     2   2   2   2   2   2   2
#     4   9  17  31  55  89 113 149 204 254 303 364
#     4  10  20  37  55  77 114 155 200 244 286 354
#     4  10  22  39  58  81 122 154 203 251 293 369
#     4  10  23  37  55  84 115 157 201 243 301 353
#     4  12  23  37  56  87 119 160 202 239 305 359
#     4  10  20  37  54  83 116 158 200 246 303 358
#     4   9  17  32  59  88 113 152 202 252 306 362
#
# _framework density 27.955683000000001
#
# number of rings (size 3 to 8) (size 9 to 14) (size 15 to 20)
#    0.000    2.000    2.857    0.857    0.000    1.714 
#    0.000    0.000    0.000    0.857    0.000    3.000 
#    0.000    0.000    0.000    0.000    0.000    0.000 
#
# Total GULP energy -78103.587422 kJ/mol
# GULP energy per Si atom -5578.827673 kJ/mol
# Density = 2.789206 g / cm^3
# Si number density = 27.955683 Si / 1000 Ang^3
#
#
#
# Elastic Constant Matrix: (Units=GPa)
#
#
# Indices 1 2 3 4 5 6 
#
# 1 284.6537 67.0540 70.6244 -14.4932 17.9882 -28.0279
# 2 67.0540 86.2769 32.4947 5.4622 -6.6450 -26.4805
# 3 70.6244 32.4947 107.3691 8.1775 39.7362 1.9930
# 4 -14.4932 5.4622 8.1775 41.7281 -8.6165 5.2816
# 5 17.9882 -6.6450 39.7362 -8.6165 51.8119 -8.0514
# 6 -28.0279 -26.4805 1.9930 5.2816 -8.0514 58.3070
#
#
#
# Elastic Compliance Matrix: (Units=1/GPa)
#
#
# Indices 1 2 3 4 5 6 
#
# 1 0.005097 -0.002395 -0.003277 0.002782 0.001113 0.001376
# 2 -0.002395 0.021402 -0.009737 -0.000471 0.012627 0.010688
# 3 -0.003277 -0.009737 0.022529 -0.007282 -0.019978 -0.008867
# 4 0.002782 -0.000471 -0.007282 0.028325 0.009283 0.000088
# 5 0.001113 0.012627 -0.019978 0.009283 0.039190 0.011523
# 6 0.001376 0.010688 -0.008867 0.000088 0.011523 0.024552
#
#
# Mechanical properties :
#
#
# Convention : Reuss Voigt Hill
#
# Bulk Modulus (GPa) = 54.91799 90.96065 72.93932
# Shear Modulus (GPa) = 28.09224 50.91116 39.50170
#
# Velocity S-wave (km/s) = 3.17343 4.27211 3.76308
# Velocity P-wave (km/s) = 5.75455 7.54603 6.71035
#
# Compressibility (1/GPa) = 0.01820897
#
# Stress axis : x y z
#
# Youngs Moduli (GPa) = 196.18790 46.72422 44.38682
#
# Poissons Ratio (x) = 0.11191 0.14546
# Poissons Ratio (y) = 0.46991 0.43221
# Poissons Ratio (z) = 0.64294 0.45497
#
# Static dielectric constant tensor:
#      x y z
#    x 2.281930 -0.034700 0.176400 
#    y -0.034700 2.291880 -0.210280 
#    z 0.176400 -0.210280 2.606380 
# 
# From -- ./inp_files/504997.got.cif
#   From: 2010.05.17/outbox.cif.g08.bks.cpg/sg2_253_cif.got.tgz:504997.got - 2010.06.03 11:33:40.
