data_PCOD9098130
_publ_section_title
;
Structure prediction by ZEFSAII (Michael W. Deem and Ramdas Pophale) SiO2 
 PCOD9098130
Probable space group: P -1
;
_chemical_formula_sum "Si O2"
_cell_formula_units_Z 9
_cell_length_a 13.733965
_cell_length_b 10.129091
_cell_length_c 9.145873
_cell_angle_alpha 145.923708
_cell_angle_beta 27.915326
_cell_angle_gamma 145.426042
_cell_volume 312.786915
_symmetry_space_group_name_H-M "P -1"
_symmetry_group_IT_number 2
_symmetry_cell_setting 'triclinic'
loop_
_space_group_symop_operation_xyz
x,y,z
-x,-y,-z
loop_
_atom_site_type_symbol
_atom_site_label
_atom_site_fract_x
_atom_site_fract_y
_atom_site_fract_z
Si Si1 0.747979 0.826451 0.201687
Si Si2 0.130360 0.472876 0.449939
Si Si3 0.500000 0.000000 0.500000
Si Si4 0.198206 0.812917 0.112216
Si Si5 0.226974 0.307662 0.627769
O O1 0.576393 0.969322 0.540275
O O2 0.757384 0.702872 0.229141
O O3 0.706809 0.666104 0.958289
O O4 0.000000 0.000000 0.000000
O O5 0.280445 0.736951 0.559201
O O6 0.000000 0.500000 0.500000
O O7 0.960951 0.296674 0.632106
O O8 0.022362 0.792718 0.198002
O O9 0.326496 0.106452 0.244835
O O10 0.306855 0.600008 0.749442
#
# Coordination Sequence:
#
# PCOD9098130 Si02
#       5
#     2   2   1   2   2
#     4  12  22  41  67  94 131 171 219 273 326 386
#     4  12  22  41  67  94 131 171 219 273 326 386
#     4  12  26  40  66  98 128 172 224 268 332 388
#     4  10  20  36  63  96 129 171 216 264 328 390
#     4  10  20  36  63  96 129 171 216 264 328 390
#
# _framework density 28.773579999999999
#
# number of rings (size 3 to 8) (size 9 to 14) (size 15 to 20)
#    0.000    0.889    6.667    0.667    0.000    0.000 
#    0.000    1.111    0.000    2.667    0.000    0.000 
#    0.000    0.000    0.000    0.000    0.000    0.000 
#
# Total GULP energy -50144.174048 kJ/mol
# GULP energy per Si atom -5571.574894 kJ/mol
# Density = 2.870809 g / cm^3
# Si number density = 28.773580 Si / 1000 Ang^3
#
#
#
# Elastic Constant Matrix: (Units=GPa)
#
#
# Indices 1 2 3 4 5 6 
#
# 1 202.1223 61.9856 22.4704 -17.3680 -12.2762 -4.9839
# 2 61.9856 128.4596 60.5988 35.7299 -0.3253 14.1349
# 3 22.4704 60.5988 124.0130 29.3480 26.5265 0.1382
# 4 -17.3680 35.7299 29.3480 43.2646 3.1984 1.7200
# 5 -12.2762 -0.3253 26.5265 3.1984 41.4232 5.6000
# 6 -4.9839 14.1349 0.1382 1.7200 5.6000 74.0784
#
#
#
# Elastic Compliance Matrix: (Units=1/GPa)
#
#
# Indices 1 2 3 4 5 6 
#
# 1 0.007646 -0.005617 -0.001028 0.008203 0.002079 0.001241
# 2 -0.005617 0.016706 -0.004712 -0.012935 0.002953 -0.003480
# 3 -0.001028 -0.004712 0.013694 -0.005214 -0.008924 0.001600
# 4 0.008203 -0.012935 -0.005214 0.040380 0.002291 0.001919
# 5 0.002079 0.002953 -0.008924 0.002291 0.030694 -0.002781
# 6 0.001241 -0.003480 0.001600 0.001919 -0.002781 0.014409
#
#
# Mechanical properties :
#
#
# Convention : Reuss Voigt Hill
#
# Bulk Modulus (GPa) = 65.22750 82.74495 73.98623
# Shear Modulus (GPa) = 33.03483 52.38924 42.71204
#
# Velocity S-wave (km/s) = 3.39203 4.27164 3.85700
# Velocity P-wave (km/s) = 6.16925 7.29033 6.75309
#
# Compressibility (1/GPa) = 0.01533096
#
# Stress axis : x y z
#
# Youngs Moduli (GPa) = 130.78378 59.85742 73.02708
#
# Poissons Ratio (x) = 0.33625 0.07506
# Poissons Ratio (y) = 0.73467 0.34413
# Poissons Ratio (z) = 0.13442 0.28207
#
# Static dielectric constant tensor:
#      x y z
#    x 2.210180 -0.093620 -0.430800 
#    y -0.093620 2.342320 0.953720 
#    z -0.430800 0.953720 7.676280 
# 
# From -- ./inp_files/130027.got.cif
#   From: 2010.05.17/outbox.cif.g08.bks.cpg/sg2_66_cif.got.tgz:130027.got - 2010.06.03 11:33:40.
