data_PCOD9098869
_publ_section_title
;
Structure prediction by ZEFSAII (Michael W. Deem and Ramdas Pophale) SiO2 
 PCOD9098869
Probable space group: P -1
;
_chemical_formula_sum "Si O2"
_cell_formula_units_Z 14
_cell_length_a 7.392822
_cell_length_b 14.224041
_cell_length_c 9.314258
_cell_angle_alpha 85.427713
_cell_angle_beta 104.101518
_cell_angle_gamma 145.017352
_cell_volume 531.810761
_symmetry_space_group_name_H-M "P -1"
_symmetry_group_IT_number 2
_symmetry_cell_setting 'triclinic'
loop_
_space_group_symop_operation_xyz
x,y,z
-x,-y,-z
loop_
_atom_site_type_symbol
_atom_site_label
_atom_site_fract_x
_atom_site_fract_y
_atom_site_fract_z
Si Si1 0.649223 0.336252 0.031401
Si Si2 0.058280 0.476959 0.358662
Si Si3 0.006209 0.724138 0.482960
Si Si4 0.932423 0.775416 0.026022
Si Si5 0.828468 0.000950 0.205927
Si Si6 0.784759 0.013949 0.655978
Si Si7 0.196673 0.725162 0.236454
O O1 0.741347 0.339581 0.208054
O O2 0.439743 0.344558 0.005493
O O3 0.404932 0.161779 0.924188
O O4 0.000000 0.500000 0.000000
O O5 0.264108 0.643319 0.293642
O O6 0.000000 0.500000 0.500000
O O7 0.176269 0.419232 0.419158
O O8 0.994029 0.829368 0.430451
O O9 0.952812 0.655807 0.324127
O O10 0.396710 0.864919 0.569538
O O11 0.132335 0.911758 0.177175
O O12 0.030135 0.707655 0.070410
O O13 0.036461 0.859013 0.881778
O O14 0.564591 0.922803 0.282325
O O15 0.102764 0.047053 0.317375
#
# Coordination Sequence:
#
# PCOD9098869 Si02
#       7
#     2   2   2   2   2   2   2
#     4  11  21  38  62  86 114 153 196 243 287 342
#     4  10  20  37  58  81 117 157 185 235 294 343
#     4   9  18  35  58  79 114 154 195 231 298 339
#     4  10  21  36  60  84 116 154 195 237 296 337
#     4  11  20  36  58  88 116 148 198 244 287 337
#     4   9  18  34  57  83 106 151 196 241 278 344
#     4  10  21  35  55  85 120 153 193 241 282 351
#
# _framework density 26.325153
#
# number of rings (size 3 to 8) (size 9 to 14) (size 15 to 20)
#    0.000    2.000    1.429    3.857    0.000    1.143 
#    0.000    0.714    6.286    0.000    0.000    0.000 
#    0.000    0.000    0.000    0.000    0.000    0.000 
#
# Total GULP energy -78118.474519 kJ/mol
# GULP energy per Si atom -5579.891037 kJ/mol
# Density = 2.626524 g / cm^3
# Si number density = 26.325153 Si / 1000 Ang^3
#
#
#
# Elastic Constant Matrix: (Units=GPa)
#
#
# Indices 1 2 3 4 5 6 
#
# 1 67.9641 25.5729 38.5846 -15.2276 28.2633 -1.4149
# 2 25.5729 101.5416 34.2444 -44.7329 22.7259 -4.3829
# 3 38.5846 34.2444 138.5654 -41.5498 32.9466 -12.9366
# 4 -15.2276 -44.7329 -41.5498 58.3227 -25.3201 5.5683
# 5 28.2633 22.7259 32.9466 -25.3201 56.5190 0.0463
# 6 -1.4149 -4.3829 -12.9366 5.5683 0.0463 28.3755
#
#
#
# Elastic Compliance Matrix: (Units=1/GPa)
#
#
# Indices 1 2 3 4 5 6 
#
# 1 0.021099 -0.003802 -0.004200 -0.003961 -0.008348 -0.000659
# 2 -0.003802 0.015616 0.000580 0.011583 0.000473 0.000213
# 3 -0.004200 0.000580 0.010775 0.005909 -0.001770 0.003636
# 4 -0.003961 0.011583 0.005909 0.033226 0.008765 -0.002249
# 5 -0.008348 0.000473 -0.001770 0.008765 0.026638 -0.002914
# 6 -0.000659 0.000213 0.003636 -0.002249 -0.002914 0.037345
#
#
# Mechanical properties :
#
#
# Convention : Reuss Voigt Hill
#
# Bulk Modulus (GPa) = 30.63140 56.09722 43.36431
# Shear Modulus (GPa) = 29.33827 42.62139 35.97983
#
# Velocity S-wave (km/s) = 3.34197 4.02809 3.70097
# Velocity P-wave (km/s) = 5.15294 6.55665 5.89671
#
# Compressibility (1/GPa) = 0.03264624
#
# Stress axis : x y z
#
# Youngs Moduli (GPa) = 47.39563 64.03595 92.80643
#
# Poissons Ratio (x) = 0.24349 0.38977
# Poissons Ratio (y) = 0.18022 -0.05384
# Poissons Ratio (z) = 0.19905 -0.03715
#
# Static dielectric constant tensor:
#      x y z
#    x 2.179130 -0.045680 -0.079990 
#    y -0.045680 2.112840 0.002090 
#    z -0.079990 0.002090 2.086300 
# 
# From -- ./inp_files/180237.got.cif
#   From: 2010.05.17/outbox.cif.g08.bks.cpg/sg2_91_cif.got.tgz:180237.got - 2010.06.03 11:33:40.
