data_PCOD9098436
_publ_section_title
;
Structure prediction by ZEFSAII (Michael W. Deem and Ramdas Pophale) SiO2 
 PCOD9098436
Probable space group: P -1
;
_chemical_formula_sum "Si O2"
_cell_formula_units_Z 15
_cell_length_a 11.075527
_cell_length_b 10.885652
_cell_length_c 16.984958
_cell_angle_alpha 29.324341
_cell_angle_beta 136.558680
_cell_angle_gamma 140.626531
_cell_volume 627.204721
_symmetry_space_group_name_H-M "P -1"
_symmetry_group_IT_number 2
_symmetry_cell_setting 'triclinic'
loop_
_space_group_symop_operation_xyz
x,y,z
-x,-y,-z
loop_
_atom_site_type_symbol
_atom_site_label
_atom_site_fract_x
_atom_site_fract_y
_atom_site_fract_z
Si Si1 0.102969 0.305570 0.131201
Si Si2 0.296894 0.021913 0.639285
Si Si3 0.658795 0.531187 0.176141
Si Si4 0.980793 0.828006 0.463988
Si Si5 0.529535 0.727582 0.145818
Si Si6 0.500000 0.000000 0.500000
Si Si7 0.749665 0.580846 0.023157
Si Si8 0.346382 0.632675 0.481700
O O1 0.326603 0.474959 0.167470
O O2 0.096475 0.262751 0.058601
O O3 0.026025 0.026320 0.299600
O O4 0.000000 0.500000 0.000000
O O5 0.292174 0.740414 0.828651
O O6 0.168198 0.935411 0.547384
O O7 0.182677 0.135402 0.579961
O O8 0.510118 0.231283 0.598875
O O9 0.659308 0.756414 0.113991
O O10 0.793701 0.642742 0.101470
O O11 0.653756 0.280384 0.367528
O O12 0.447733 0.402249 0.105580
O O13 0.877213 0.509944 0.567966
O O14 0.605193 0.610142 0.320385
O O15 0.500000 0.000000 0.000000
O O16 0.400070 0.857575 0.449496
#
# Coordination Sequence:
#
# PCOD9098436 Si02
#       8
#     2   2   2   2   2   1   2   2
#     4  11  20  37  61  92 132 173 211 277 329 388
#     4  11  22  42  64  95 137 168 218 281 327 392
#     4   9  20  37  63  98 121 177 222 261 333 389
#     4  11  24  40  64  99 131 172 223 272 333 396
#     4  10  21  37  64  94 130 170 222 272 330 395
#     4  10  20  40  70  90 130 168 220 276 312 394
#     4  10  20  36  66  89 129 178 212 269 336 380
#     4  11  22  41  68  94 125 177 218 268 335 393
#
# _framework density 23.915638000000001
#
# number of rings (size 3 to 8) (size 9 to 14) (size 15 to 20)
#    0.000    1.600    4.000    1.200    1.867    0.000 
#    0.000    0.667    2.933    8.000    0.000    0.000 
#    0.000    0.000    0.000    0.000    0.000    0.000 
#
# Total GULP energy -83609.637443 kJ/mol
# GULP energy per Si atom -5573.975830 kJ/mol
# Density = 2.386121 g / cm^3
# Si number density = 23.915638 Si / 1000 Ang^3
#
#
#
# Elastic Constant Matrix: (Units=GPa)
#
#
# Indices 1 2 3 4 5 6 
#
# 1 108.1082 29.2829 25.1885 2.6310 -45.1169 -21.2778
# 2 29.2829 91.8037 21.7977 -25.5177 -15.9054 5.9008
# 3 25.1885 21.7977 98.4679 5.3717 -32.3404 -2.8564
# 4 2.6310 -25.5177 5.3717 29.2302 0.2806 1.8039
# 5 -45.1169 -15.9054 -32.3404 0.2806 43.5885 -1.9709
# 6 -21.2778 5.9008 -2.8564 1.8039 -1.9709 38.8542
#
#
#
# Elastic Compliance Matrix: (Units=1/GPa)
#
#
# Indices 1 2 3 4 5 6 
#
# 1 0.027162 -0.010061 0.006519 -0.013892 0.030232 0.019061
# 2 -0.010061 0.020576 -0.006038 0.020699 -0.007991 -0.010445
# 3 0.006519 -0.006038 0.016071 -0.009402 0.016844 0.006959
# 4 -0.013892 0.020699 -0.009402 0.056316 -0.014835 -0.014810
# 5 0.030232 -0.007991 0.016844 -0.014835 0.064950 0.022991
# 6 0.019061 -0.010445 0.006959 -0.014810 0.022991 0.040127
#
#
# Mechanical properties :
#
#
# Convention : Reuss Voigt Hill
#
# Bulk Modulus (GPa) = 22.39638 50.10202 36.24920
# Shear Modulus (GPa) = 19.28672 37.14196 28.21434
#
# Velocity S-wave (km/s) = 2.84288 3.94514 3.43847
# Velocity P-wave (km/s) = 4.49011 6.46120 5.56364
#
# Compressibility (1/GPa) = 0.04465008
#
# Stress axis : x y z
#
# Youngs Moduli (GPa) = 36.81555 48.60041 62.22197
#
# Poissons Ratio (x) = 0.48896 -0.40561
# Poissons Ratio (y) = 0.37039 0.37569
# Poissons Ratio (z) = -0.23999 0.29344
#
# Static dielectric constant tensor:
#      x y z
#    x 2.101210 0.048310 0.105680 
#    y 0.048310 1.931320 0.041500 
#    z 0.105680 0.041500 1.950670 
# 
# From -- ./inp_files/280115.got.cif
#   From: 2010.05.17/outbox.cif.g08.bks.cpg/sg2_141_cif.got.tgz:280115.got - 2010.06.03 11:33:40.
