data_PCOD9098337
_publ_section_title
;
Structure prediction by ZEFSAII (Michael W. Deem and Ramdas Pophale) SiO2 
 PCOD9098337
Probable space group: P -1
;
_chemical_formula_sum "Si O2"
_cell_formula_units_Z 14
_cell_length_a 19.861602
_cell_length_b 4.777296
_cell_length_c 7.558802
_cell_angle_alpha 82.920468
_cell_angle_beta 53.837061
_cell_angle_gamma 86.656391
_cell_volume 574.530538
_symmetry_space_group_name_H-M "P -1"
_symmetry_group_IT_number 2
_symmetry_cell_setting 'triclinic'
loop_
_space_group_symop_operation_xyz
x,y,z
-x,-y,-z
loop_
_atom_site_type_symbol
_atom_site_label
_atom_site_fract_x
_atom_site_fract_y
_atom_site_fract_z
Si Si1 0.779679 0.088623 0.779805
Si Si2 0.060909 0.728335 0.288117
Si Si3 0.066524 0.307828 0.020324
Si Si4 0.335891 0.707272 0.511677
Si Si5 0.767519 0.785058 0.443608
Si Si6 0.685936 0.590863 0.059295
Si Si7 0.489956 0.225744 0.655409
O O1 0.872944 0.181818 0.673451
O O2 0.773027 0.926849 0.616939
O O3 0.720601 0.349648 0.896137
O O4 0.753566 0.835295 0.968919
O O5 0.963848 0.980709 0.803555
O O6 0.000000 0.500000 0.500000
O O7 0.101289 0.532532 0.091675
O O8 0.000000 0.500000 0.000000
O O9 0.140494 0.232703 0.778326
O O10 0.282853 0.510041 0.475873
O O11 0.331731 0.553793 0.716892
O O12 0.433857 0.775063 0.323454
O O13 0.289270 0.996112 0.586522
O O14 0.601556 0.749960 0.118367
O O15 0.500000 0.500000 0.500000
O O16 0.500000 0.000000 0.500000
#
# Coordination Sequence:
#
# PCOD9098337 Si02
#       7
#     2   2   2   2   2   2   2
#     4  12  26  46  69 101 141 185 233 290 356 430
#     4  12  28  50  76 107 143 187 239 301 367 438
#     4  12  28  50  76 107 143 187 239 301 367 438
#     4  11  22  42  70 100 136 185 238 290 349 423
#     4  12  26  46  69 101 141 185 233 290 356 430
#     4  11  22  42  70 100 136 185 238 290 349 423
#     4  10  20  36  65 104 139 178 235 294 347 414
#
# _framework density 24.367719000000001
#
# number of rings (size 3 to 8) (size 9 to 14) (size 15 to 20)
#    0.000    0.571    0.000   10.286    0.000    5.714 
#    0.000    7.143    0.000    0.000    0.000    0.000 
#    0.000    0.000    0.000    0.000    0.000    0.000 
#
# Total GULP energy -78214.174070 kJ/mol
# GULP energy per Si atom -5586.726719 kJ/mol
# Density = 2.431226 g / cm^3
# Si number density = 24.367719 Si / 1000 Ang^3
#
#
#
# Elastic Constant Matrix: (Units=GPa)
#
#
# Indices 1 2 3 4 5 6 
#
# 1 69.6847 9.9760 42.8756 8.9415 -11.6577 -7.1714
# 2 9.9760 161.1740 31.9095 21.2550 -8.4420 -5.7875
# 3 42.8756 31.9095 77.5757 29.9481 -8.5473 -0.5079
# 4 8.9415 21.2550 29.9481 47.4967 5.0410 2.9518
# 5 -11.6577 -8.4420 -8.5473 5.0410 47.4422 9.7452
# 6 -7.1714 -5.7875 -0.5079 2.9518 9.7452 47.1256
#
#
#
# Elastic Compliance Matrix: (Units=1/GPa)
#
#
# Indices 1 2 3 4 5 6 
#
# 1 0.023351 0.001158 -0.014602 0.003872 0.002323 0.002815
# 2 0.001158 0.006993 -0.002693 -0.001817 0.001051 0.000902
# 3 -0.014602 -0.002693 0.027624 -0.013634 0.002763 -0.001973
# 4 0.003872 -0.001817 -0.013634 0.030298 -0.004911 -0.000663
# 5 0.002323 0.001051 0.002763 -0.004911 0.023694 -0.004080
# 6 0.002815 0.000902 -0.001973 -0.000663 -0.004080 0.022623
#
#
# Mechanical properties :
#
#
# Convention : Reuss Voigt Hill
#
# Bulk Modulus (GPa) = 38.92168 53.10629 46.01399
# Shear Modulus (GPa) = 28.50264 43.32446 35.91355
#
# Velocity S-wave (km/s) = 3.42378 4.22114 3.84320
# Velocity P-wave (km/s) = 5.62468 6.75266 6.21432
#
# Compressibility (1/GPa) = 0.02569262
#
# Stress axis : x y z
#
# Youngs Moduli (GPa) = 42.82521 142.99800 36.20016
#
# Poissons Ratio (x) = -0.16558 0.52861
# Poissons Ratio (y) = -0.04959 0.09750
# Poissons Ratio (z) = 0.62535 0.38514
#
# Static dielectric constant tensor:
#      x y z
#    x 2.059800 -0.062620 -0.043620 
#    y -0.062620 2.018690 -0.052470 
#    z -0.043620 -0.052470 1.987530 
# 
# From -- ./inp_files/323813.got.cif
#   From: 2010.05.17/outbox.cif.g08.bks.cpg/sg2_162_cif.got.tgz:323813.got - 2010.06.03 11:33:40.
