data_PCOD9098780
_publ_section_title
;
Structure prediction by ZEFSAII (Michael W. Deem and Ramdas Pophale) SiO2 
 PCOD9098780
Probable space group: P -1
;
_chemical_formula_sum "Si O2"
_cell_formula_units_Z 16
_cell_length_a 6.680337
_cell_length_b 16.114125
_cell_length_c 16.317113
_cell_angle_alpha 143.637156
_cell_angle_beta 58.356621
_cell_angle_gamma 130.622402
_cell_volume 790.457985
_symmetry_space_group_name_H-M "P -1"
_symmetry_group_IT_number 2
_symmetry_cell_setting 'triclinic'
loop_
_space_group_symop_operation_xyz
x,y,z
-x,-y,-z
loop_
_atom_site_type_symbol
_atom_site_label
_atom_site_fract_x
_atom_site_fract_y
_atom_site_fract_z
Si Si1 0.410666 0.389674 0.009734
Si Si2 0.512276 0.109312 0.813221
Si Si3 0.781081 0.177038 0.983542
Si Si4 0.539561 0.352685 0.273416
Si Si5 0.569242 0.483114 0.716803
Si Si6 0.127888 0.623700 0.641702
Si Si7 0.904115 0.891663 0.732712
Si Si8 0.407094 0.169890 0.405506
O O1 0.533894 0.265542 0.887957
O O2 0.091108 0.294896 0.999407
O O3 0.500000 0.500000 0.000000
O O4 0.490580 0.490878 0.157022
O O5 0.606894 0.161546 0.927697
O O6 0.657228 0.999576 0.677439
O O7 0.209119 0.986455 0.763413
O O8 0.782979 0.013079 0.870026
O O9 0.655366 0.234426 0.127473
O O10 0.575940 0.462680 0.276868
O O11 0.709736 0.436137 0.381975
O O12 0.242737 0.252308 0.288537
O O13 0.499374 0.306558 0.562602
O O14 0.877103 0.607096 0.734010
O O15 0.347884 0.776301 0.669948
O O16 0.000000 0.500000 0.500000
O O17 0.827685 0.841842 0.614237
#
# Coordination Sequence:
#
# PCOD9098780 Si02
#       8
#     2   2   2   2   2   2   2   2
#     4  11  24  42  62  84 107 144 200 255 294 330
#     4  10  20  40  58  82 115 156 184 238 288 335
#     4  10  20  37  57  84 115 149 192 233 283 343
#     4  11  19  32  54  88 121 154 188 223 278 341
#     4  11  21  36  57  86 116 153 195 237 278 339
#     4   9  19  33  52  84 126 157 186 221 272 339
#     4   9  20  33  55  85 122 155 183 220 273 349
#     4   9  20  35  56  85 120 154 184 221 281 350
#
# _framework density 20.241429
#
# number of rings (size 3 to 8) (size 9 to 14) (size 15 to 20)
#    0.000    2.000    2.500    1.125    0.000    7.500 
#    0.000    0.625    0.000    6.750    0.000    0.000 
#    0.000    0.000    0.000    0.000    0.000    0.000 
#
# Total GULP energy -89142.631326 kJ/mol
# GULP energy per Si atom -5571.414458 kJ/mol
# Density = 2.019536 g / cm^3
# Si number density = 20.241429 Si / 1000 Ang^3
#
#
#
# Elastic Constant Matrix: (Units=GPa)
#
#
# Indices 1 2 3 4 5 6 
#
# 1 87.4633 25.5044 26.1501 2.4132 25.6810 -23.7892
# 2 25.5044 85.1185 47.5584 -1.5540 7.9339 -31.0725
# 3 26.1501 47.5584 99.3562 11.4352 18.7133 -17.2032
# 4 2.4132 -1.5540 11.4352 13.5882 -0.4710 4.2576
# 5 25.6810 7.9339 18.7133 -0.4710 30.2748 2.1107
# 6 -23.7892 -31.0725 -17.2032 4.2576 2.1107 30.5133
#
#
#
# Elastic Compliance Matrix: (Units=1/GPa)
#
#
# Indices 1 2 3 4 5 6 
#
# 1 0.026486 0.003264 0.004345 -0.018687 -0.028460 0.030999
# 2 0.003264 0.023776 -0.007180 0.000752 -0.006156 0.023030
# 3 0.004345 -0.007180 0.019746 -0.022297 -0.015149 0.011368
# 4 -0.018687 0.000752 -0.022297 0.110799 0.034241 -0.044202
# 5 -0.028460 -0.006156 -0.015149 0.034241 0.071941 -0.046752
# 6 0.030999 0.023030 0.011368 -0.044202 -0.046752 0.096203
#
#
# Mechanical properties :
#
#
# Convention : Reuss Voigt Hill
#
# Bulk Modulus (GPa) = 14.11102 52.26264 33.18683
# Shear Modulus (GPa) = 13.45119 26.39027 19.92073
#
# Velocity S-wave (km/s) = 2.58066 3.61470 3.14053
# Velocity P-wave (km/s) = 3.98324 6.58005 5.43890
#
# Compressibility (1/GPa) = 0.07086661
#
# Stress axis : x y z
#
# Youngs Moduli (GPa) = 37.75585 42.05863 50.64435
#
# Poissons Ratio (x) = -0.13728 -0.22006
# Poissons Ratio (y) = -0.12323 0.36361
# Poissons Ratio (z) = -0.16405 0.30197
#
# Static dielectric constant tensor:
#      x y z
#    x 1.787170 0.006930 -0.015150 
#    y 0.006930 1.712260 0.016530 
#    z -0.015150 0.016530 1.750820 
# 
# From -- ./inp_files/94545.got.cif
#   From: 2010.05.17/outbox.cif.g08.bks.cpg/sg2_48_cif.got.tgz:94545.got - 2010.06.03 11:33:40.
