data_PCOD9098579
_publ_section_title
;
Structure prediction by ZEFSAII (Michael W. Deem and Ramdas Pophale) SiO2 
 PCOD9098579
Probable space group: P -1
;
_chemical_formula_sum "Si O2"
_cell_formula_units_Z 15
_cell_length_a 8.977653
_cell_length_b 9.521943
_cell_length_c 14.527009
_cell_angle_alpha 51.400194
_cell_angle_beta 79.715841
_cell_angle_gamma 50.248567
_cell_volume 694.146366
_symmetry_space_group_name_H-M "P -1"
_symmetry_group_IT_number 2
_symmetry_cell_setting 'triclinic'
loop_
_space_group_symop_operation_xyz
x,y,z
-x,-y,-z
loop_
_atom_site_type_symbol
_atom_site_label
_atom_site_fract_x
_atom_site_fract_y
_atom_site_fract_z
Si Si1 0.500000 0.500000 0.500000
Si Si2 0.869560 0.738603 0.512565
Si Si3 0.046567 0.836829 0.974292
Si Si4 0.335446 0.300818 0.123553
Si Si5 0.945349 0.734825 0.709278
Si Si6 0.330029 0.237578 0.636223
Si Si7 0.268314 0.242035 0.951105
Si Si8 0.954059 0.077859 0.690032
O O1 0.451931 0.323298 0.607182
O O2 0.712409 0.329892 0.608268
O O3 0.088778 0.452389 0.605121
O O4 0.910049 0.874160 0.386699
O O5 0.842275 0.825885 0.583696
O O6 0.688207 0.777265 0.466591
O O7 0.269378 0.550097 0.067203
O O8 0.022816 0.963179 0.830137
O O9 0.874248 0.818480 0.999790
O O10 0.000000 0.000000 0.000000
O O11 0.193841 0.276124 0.205776
O O12 0.560392 0.026312 0.223427
O O13 0.270302 0.343576 0.006778
O O14 0.167799 0.454566 0.799496
O O15 0.969700 0.904707 0.685164
O O16 0.500000 0.000000 0.000000
#
# Coordination Sequence:
#
# PCOD9098579 Si02
#       8
#     1   2   2   2   2   2   2   2
#     4  10  20  36  70  86 124 174 210 260 322 390
#     4  10  24  37  64  94 136 168 209 271 327 377
#     4  11  24  44  67  97 130 173 218 274 331 380
#     4  11  21  42  69  91 130 173 218 272 318 396
#     4  11  20  40  65  92 126 171 219 261 325 390
#     4  10  21  42  60  95 128 171 217 266 323 383
#     4  11  22  40  69  93 123 172 221 269 324 389
#     4  11  21  43  62  92 134 168 219 263 320 392
#
# _framework density 21.609273000000002
#
# number of rings (size 3 to 8) (size 9 to 14) (size 15 to 20)
#    0.000    1.333    4.000    2.000    0.000    9.067 
#    4.800    1.333    0.000    0.000    0.000    0.000 
#    0.000    0.000    0.000    0.000    0.000    0.000 
#
# Total GULP energy -83528.278221 kJ/mol
# GULP energy per Si atom -5568.551881 kJ/mol
# Density = 2.156009 g / cm^3
# Si number density = 21.609273 Si / 1000 Ang^3
#
#
#
# Elastic Constant Matrix: (Units=GPa)
#
#
# Indices 1 2 3 4 5 6 
#
# 1 43.3064 4.7510 12.6418 12.2134 -2.1200 7.0364
# 2 4.7510 84.8600 28.6489 11.3348 -6.3299 28.3288
# 3 12.6418 28.6489 102.3107 -6.3958 0.0176 13.7536
# 4 12.2134 11.3348 -6.3958 38.7292 3.6365 11.2546
# 5 -2.1200 -6.3299 0.0176 3.6365 20.9721 -1.4566
# 6 7.0364 28.3288 13.7536 11.2546 -1.4566 30.2080
#
#
#
# Elastic Compliance Matrix: (Units=1/GPa)
#
#
# Indices 1 2 3 4 5 6 
#
# 1 0.027567 0.002610 -0.004345 -0.009778 0.005065 -0.003003
# 2 0.002610 0.018748 -0.003735 -0.003048 0.005406 -0.015092
# 3 -0.004345 -0.003735 0.012152 0.005682 -0.002789 -0.003270
# 4 -0.009778 -0.003048 0.005682 0.034685 -0.008677 -0.010792
# 5 0.005065 0.005406 -0.002789 -0.008677 0.051384 0.000731
# 6 -0.003003 -0.015092 -0.003270 -0.010792 0.000731 0.053502
#
#
# Mechanical properties :
#
#
# Convention : Reuss Voigt Hill
#
# Bulk Modulus (GPa) = 21.04104 35.84007 28.44055
# Shear Modulus (GPa) = 22.24006 30.27756 26.25881
#
# Velocity S-wave (km/s) = 3.21158 3.74724 3.48970
# Velocity P-wave (km/s) = 4.84876 5.94507 5.42468
#
# Compressibility (1/GPa) = 0.04752618
#
# Stress axis : x y z
#
# Youngs Moduli (GPa) = 36.27541 53.34022 82.29001
#
# Poissons Ratio (x) = -0.13922 0.35759
# Poissons Ratio (y) = -0.09468 0.30734
# Poissons Ratio (z) = 0.15763 0.19922
#
# Static dielectric constant tensor:
#      x y z
#    x 1.810820 -0.010720 0.031620 
#    y -0.010720 1.877940 -0.046800 
#    z 0.031620 -0.046800 1.797550 
# 
# From -- ./inp_files/378857.got.cif
#   From: 2010.05.17/outbox.cif.g08.bks.cpg/sg2_190_cif.got.tgz:378857.got - 2010.06.03 11:33:40.
