data_PCOD9098477
_publ_section_title
;
Structure prediction by ZEFSAII (Michael W. Deem and Ramdas Pophale) SiO2 
 PCOD9098477
Probable space group: P -1
;
_chemical_formula_sum "Si O2"
_cell_formula_units_Z 15
_cell_length_a 7.069465
_cell_length_b 15.232888
_cell_length_c 19.766914
_cell_angle_alpha 23.075976
_cell_angle_beta 44.829735
_cell_angle_gamma 48.045585
_cell_volume 587.210536
_symmetry_space_group_name_H-M "P -1"
_symmetry_group_IT_number 2
_symmetry_cell_setting 'triclinic'
loop_
_space_group_symop_operation_xyz
x,y,z
-x,-y,-z
loop_
_atom_site_type_symbol
_atom_site_label
_atom_site_fract_x
_atom_site_fract_y
_atom_site_fract_z
Si Si1 0.501441 0.388894 0.465843
Si Si2 0.000000 0.500000 0.500000
Si Si3 0.313239 0.264183 0.314350
Si Si4 0.196626 0.964673 0.189026
Si Si5 0.363149 0.093179 0.271812
Si Si6 0.243748 0.261773 0.750004
Si Si7 0.884756 0.154547 0.261021
Si Si8 0.911489 0.249762 0.958799
O O1 0.235391 0.322367 0.628752
O O2 0.673100 0.520297 0.381984
O O3 0.308729 0.524255 0.368140
O O4 0.647203 0.171361 0.552840
O O5 0.939950 0.264046 0.634270
O O6 0.338666 0.146768 0.318343
O O7 0.620453 0.318043 0.213609
O O8 0.126799 0.488606 0.200625
O O9 0.216637 0.085772 0.518599
O O10 0.492062 0.902798 0.188511
O O11 0.022541 0.104889 0.189727
O O12 0.169938 0.126554 0.016208
O O13 0.112513 0.217207 0.210498
O O14 0.643508 0.153014 0.125149
O O15 0.969922 0.208558 0.894033
#
# Coordination Sequence:
#
# PCOD9098477 Si02
#       8
#     2   1   2   2   2   2   2   2
#     4  10  20  40  65  95 130 179 223 279 323 412
#     4  10  20  36  66  96 128 182 216 268 336 402
#     4  11  26  46  71  98 140 178 236 286 333 406
#     4  11  22  44  69  97 143 175 226 280 344 406
#     4  12  23  44  70 100 139 179 227 285 339 402
#     4  10  23  40  68  97 136 178 225 274 345 409
#     4  11  24  46  74 100 127 190 236 275 336 409
#     4  12  25  43  65 102 142 178 217 291 352 393
#
# _framework density 25.544502000000001
#
# number of rings (size 3 to 8) (size 9 to 14) (size 15 to 20)
#    0.000    1.067    4.000    2.000    3.733    1.067 
#    0.000    0.000    0.000    0.000    0.000    0.000 
#    0.000    0.000    0.000    0.000    0.000    0.000 
#
# Total GULP energy -83783.147286 kJ/mol
# GULP energy per Si atom -5585.543152 kJ/mol
# Density = 2.548636 g / cm^3
# Si number density = 25.544502 Si / 1000 Ang^3
#
#
#
# Elastic Constant Matrix: (Units=GPa)
#
#
# Indices 1 2 3 4 5 6 
#
# 1 110.8749 9.2814 6.6273 -0.6808 5.6282 -18.5444
# 2 9.2814 99.6594 20.2695 3.4311 8.9640 -3.9605
# 3 6.6273 20.2695 55.8578 -15.3047 9.1838 -2.4528
# 4 -0.6808 3.4311 -15.3047 37.3967 -2.0150 4.4831
# 5 5.6282 8.9640 9.1838 -2.0150 31.1773 0.1384
# 6 -18.5444 -3.9605 -2.4528 4.4831 0.1384 30.5727
#
#
#
# Elastic Compliance Matrix: (Units=1/GPa)
#
#
# Indices 1 2 3 4 5 6 
#
# 1 0.010215 -0.000365 -0.000802 -0.000941 -0.001591 0.006229
# 2 -0.000365 0.011342 -0.004544 -0.003181 -0.002068 0.001359
# 3 -0.000802 -0.004544 0.023038 0.009652 -0.004708 -0.000621
# 4 -0.000941 -0.003181 0.009652 0.031561 0.000303 -0.004838
# 5 -0.001591 -0.002068 -0.004708 0.000303 0.034371 -0.001811
# 6 0.006229 0.001359 -0.000621 -0.004838 -0.001811 0.037331
#
#
# Mechanical properties :
#
#
# Convention : Reuss Voigt Hill
#
# Bulk Modulus (GPa) = 30.14648 37.63870 33.89259
# Shear Modulus (GPa) = 29.35323 35.17694 32.26508
#
# Velocity S-wave (km/s) = 3.39352 3.71493 3.55786
# Velocity P-wave (km/s) = 5.21362 5.75913 5.49315
#
# Compressibility (1/GPa) = 0.03317137
#
# Stress axis : x y z
#
# Youngs Moduli (GPa) = 97.89936 88.16774 43.40621
#
# Poissons Ratio (x) = 0.03218 0.03482
# Poissons Ratio (y) = 0.03574 0.19726
# Poissons Ratio (z) = 0.07854 0.40067
#
# Static dielectric constant tensor:
#      x y z
#    x 2.270840 -0.147790 0.068090 
#    y -0.147790 2.035970 -0.004050 
#    z 0.068090 -0.004050 2.185690 
# 
# From -- ./inp_files/608378.got.cif
#   From: 2010.05.17/outbox.cif.g08.bks.cpg/sg2_305_cif.got.tgz:608378.got - 2010.06.03 11:33:40.
