data_PCOD9098904
_publ_section_title
;
Structure prediction by ZEFSAII (Michael W. Deem and Ramdas Pophale) SiO2 
 PCOD9098904
Probable space group: P -1
;
_chemical_formula_sum "Si O2"
_cell_formula_units_Z 16
_cell_length_a 7.004331
_cell_length_b 19.702857
_cell_length_c 19.827080
_cell_angle_alpha 159.315005
_cell_angle_beta 107.461761
_cell_angle_gamma 84.308760
_cell_volume 776.694808
_symmetry_space_group_name_H-M "P -1"
_symmetry_group_IT_number 2
_symmetry_cell_setting 'triclinic'
loop_
_space_group_symop_operation_xyz
x,y,z
-x,-y,-z
loop_
_atom_site_type_symbol
_atom_site_label
_atom_site_fract_x
_atom_site_fract_y
_atom_site_fract_z
Si Si1 0.634404 0.133974 0.240137
Si Si2 0.460226 0.260283 0.033133
Si Si3 0.584298 0.142724 0.727404
Si Si4 0.219068 0.109900 0.572268
Si Si5 0.901350 0.414005 0.138631
Si Si6 0.840673 0.117140 0.456954
Si Si7 0.212138 0.053497 0.023846
Si Si8 0.243860 0.406820 0.250817
O O1 0.422819 0.093968 0.132164
O O2 0.722184 0.366055 0.503871
O O3 0.547713 0.924875 0.088377
O O4 0.825393 0.133312 0.209552
O O5 0.268778 0.102899 0.808436
O O6 0.707398 0.413142 0.163964
O O7 0.412631 0.422183 0.223284
O O8 0.465180 0.254653 0.775366
O O9 0.716070 0.056646 0.613582
O O10 0.352729 0.948982 0.565312
O O11 0.773483 0.295780 0.945894
O O12 0.102257 0.190349 0.579606
O O13 0.000000 0.000000 0.500000
O O14 0.116881 0.665505 0.376778
O O15 0.991613 0.280415 0.067738
O O16 0.269396 0.269445 0.185982
O O17 0.000000 0.000000 0.000000
#
# Coordination Sequence:
#
# PCOD9098904 Si02
#       8
#     2   2   2   2   2   2   2   2
#     4  10  21  40  59  85 121 149 198 246 285 353
#     4  10  22  40  57  86 123 151 196 249 288 347
#     4   9  20  37  58  83 116 153 195 244 289 344
#     4   9  18  37  59  81 116 156 192 246 292 338
#     4  11  22  37  59  87 117 156 198 238 295 355
#     4  10  20  37  58  84 118 151 195 243 290 348
#     4  10  22  38  60  86 117 156 194 244 294 343
#     4  11  22  38  60  86 118 159 195 240 298 349
#
# _framework density 20.600110999999998
#
# number of rings (size 3 to 8) (size 9 to 14) (size 15 to 20)
#    0.000    2.000    1.250    1.875    0.000    3.000 
#    2.250    5.625    0.000    0.000    0.000    0.000 
#    0.000    0.000    0.000    0.000    0.000    0.000 
#
# Total GULP energy -89107.532446 kJ/mol
# GULP energy per Si atom -5569.220778 kJ/mol
# Density = 2.055322 g / cm^3
# Si number density = 20.600111 Si / 1000 Ang^3
#
#
#
# Elastic Constant Matrix: (Units=GPa)
#
#
# Indices 1 2 3 4 5 6 
#
# 1 134.5329 37.5748 38.7240 -8.3227 -28.5372 23.2881
# 2 37.5748 121.8178 26.2691 9.5983 -14.8885 -24.1853
# 3 38.7240 26.2691 48.9707 -3.6398 -20.6238 3.6353
# 4 -8.3227 9.5983 -3.6398 64.1213 -4.0883 -20.0772
# 5 -28.5372 -14.8885 -20.6238 -4.0883 27.5022 -6.1602
# 6 23.2881 -24.1853 3.6353 -20.0772 -6.1602 57.8877
#
#
#
# Elastic Compliance Matrix: (Units=1/GPa)
#
#
# Indices 1 2 3 4 5 6 
#
# 1 0.011764 -0.002838 -0.004829 0.000570 0.006064 -0.004772
# 2 -0.002838 0.011327 -0.003493 -0.000187 0.001936 0.006235
# 3 -0.004829 -0.003493 0.034705 0.003682 0.020055 0.001715
# 4 0.000570 -0.000187 0.003682 0.018471 0.007490 0.006665
# 5 0.006064 0.001936 0.020055 0.007490 0.061249 0.006226
# 6 -0.004772 0.006235 0.001715 0.006665 0.006226 0.024666
#
#
# Mechanical properties :
#
#
# Convention : Reuss Voigt Hill
#
# Bulk Modulus (GPa) = 28.18874 56.71749 42.45311
# Shear Modulus (GPa) = 25.46787 43.41915 34.44351
#
# Velocity S-wave (km/s) = 3.51992 4.59597 4.09345
# Velocity P-wave (km/s) = 5.49848 7.46701 6.55704
#
# Compressibility (1/GPa) = 0.03547516
#
# Stress axis : x y z
#
# Youngs Moduli (GPa) = 85.00869 88.28574 28.81426
#
# Poissons Ratio (x) = 0.25058 0.13914
# Poissons Ratio (y) = 0.24128 0.10064
# Poissons Ratio (z) = 0.41051 0.30837
#
# Static dielectric constant tensor:
#      x y z
#    x 1.758310 -0.005580 -0.009730 
#    y -0.005580 1.848800 -0.048980 
#    z -0.009730 -0.048980 1.761700 
# 
# From -- ./inp_files/120373.got.cif
#   From: 2010.05.17/outbox.cif.g08.bks.cpg/sg2_61_cif.got.tgz:120373.got - 2010.06.03 11:33:40.
