data_PCOD9098630
_publ_section_title
;
Structure prediction by ZEFSAII (Michael W. Deem and Ramdas Pophale) SiO2 
 PCOD9098630
Probable space group: P -1
;
_chemical_formula_sum "Si O2"
_cell_formula_units_Z 14
_cell_length_a 14.276718
_cell_length_b 17.459377
_cell_length_c 7.548653
_cell_angle_alpha 131.405253
_cell_angle_beta 54.669535
_cell_angle_gamma 156.602970
_cell_volume 557.815561
_symmetry_space_group_name_H-M "P -1"
_symmetry_group_IT_number 2
_symmetry_cell_setting 'triclinic'
loop_
_space_group_symop_operation_xyz
x,y,z
-x,-y,-z
loop_
_atom_site_type_symbol
_atom_site_label
_atom_site_fract_x
_atom_site_fract_y
_atom_site_fract_z
Si Si1 0.162155 0.868152 0.803709
Si Si2 0.114733 0.045073 0.674336
Si Si3 0.833487 0.708874 0.205720
Si Si4 0.117342 0.550009 0.165968
Si Si5 0.333255 0.782153 0.627120
Si Si6 0.853465 0.218868 0.699619
Si Si7 0.642371 0.774075 0.947494
O O1 0.268530 0.845012 0.721188
O O2 0.088834 0.795742 0.567157
O O3 0.944657 0.731713 0.956631
O O4 0.348390 0.106609 0.968088
O O5 0.038855 0.889601 0.402246
O O6 0.865818 0.890066 0.792780
O O7 0.213148 0.213437 0.703128
O O8 0.291589 0.163303 0.821890
O O9 0.594358 0.475422 0.185606
O O10 0.275643 0.664772 0.343564
O O11 0.206551 0.712428 0.199332
O O12 0.859889 0.387308 0.271497
O O13 0.059978 0.404089 0.895891
O O14 0.604635 0.988041 0.698424
#
# Coordination Sequence:
#
# PCOD9098630 Si02
#       7
#     2   2   2   2   2   2   2
#     4  10  22  34  51  85 113 136 184 223 261 323
#     4   9  20  38  60  83 104 140 185 210 262 336
#     4  10  20  37  58  82 111 140 175 223 266 316
#     4   9  19  34  57  76  95 143 190 219 267 316
#     4  10  20  37  55  76 108 145 183 226 264 312
#     4  10  20  37  55  77 108 144 184 225 264 315
#     4  10  20  37  58  80 111 143 171 222 271 314
#
# _framework density 25.097902000000001
#
# number of rings (size 3 to 8) (size 9 to 14) (size 15 to 20)
#    0.000    2.286    0.000    3.000    0.000    5.714 
#    0.000    8.571    0.000    0.000    0.000    0.000 
#    0.000    0.000    0.000    0.000    0.000    0.000 
#
# Total GULP energy -78420.006696 kJ/mol
# GULP energy per Si atom -5601.429050 kJ/mol
# Density = 2.504078 g / cm^3
# Si number density = 25.097902 Si / 1000 Ang^3
#
#
#
# Elastic Constant Matrix: (Units=GPa)
#
#
# Indices 1 2 3 4 5 6 
#
# 1 65.6954 18.4859 13.8439 17.2721 -6.2273 2.6327
# 2 18.4859 122.8940 19.4561 29.6179 -9.8641 -9.2974
# 3 13.8439 19.4561 118.9646 18.9465 -7.0884 5.8780
# 4 17.2721 29.6179 18.9465 47.5310 -8.3327 -5.8576
# 5 -6.2273 -9.8641 -7.0884 -8.3327 33.4599 1.6770
# 6 2.6327 -9.2974 5.8780 -5.8576 1.6770 24.0835
#
#
#
# Elastic Compliance Matrix: (Units=1/GPa)
#
#
# Indices 1 2 3 4 5 6 
#
# 1 0.017466 -0.001373 -0.000672 -0.005409 0.001542 -0.003698
# 2 -0.001373 0.009943 -0.000773 -0.004824 0.001164 0.002923
# 3 -0.000672 -0.000773 0.009352 -0.003243 0.000989 -0.003365
# 4 -0.005409 -0.004824 -0.003243 0.028726 0.003725 0.006248
# 5 0.001542 0.001164 0.000989 0.003725 0.031717 -0.001263
# 6 -0.003698 0.002923 -0.003365 0.006248 -0.001263 0.045484
#
#
# Mechanical properties :
#
#
# Convention : Reuss Voigt Hill
#
# Bulk Modulus (GPa) = 32.12847 45.68066 38.90456
# Shear Modulus (GPa) = 31.50576 38.06608 34.78592
#
# Velocity S-wave (km/s) = 3.54689 3.89871 3.72695
# Velocity P-wave (km/s) = 5.44086 6.20541 5.83567
#
# Compressibility (1/GPa) = 0.03112504
#
# Stress axis : x y z
#
# Youngs Moduli (GPa) = 57.25330 100.56977 106.92614
#
# Poissons Ratio (x) = 0.13812 0.07184
# Poissons Ratio (y) = 0.07863 0.08266
# Poissons Ratio (z) = 0.03847 0.07775
#
# Static dielectric constant tensor:
#      x y z
#    x 2.004990 -0.018160 -0.018080 
#    y -0.018160 1.931080 -0.007480 
#    z -0.018080 -0.007480 2.023370 
# 
# From -- ./inp_files/337904.got.cif
#   From: 2010.05.17/outbox.cif.g08.bks.cpg/sg2_169_cif.got.tgz:337904.got - 2010.06.03 11:33:40.
