data_PCOD9098219
_publ_section_title
;
Structure prediction by ZEFSAII (Michael W. Deem and Ramdas Pophale) SiO2 
 PCOD9098219
Probable space group: P -1
;
_chemical_formula_sum "Si O2"
_cell_formula_units_Z 16
_cell_length_a 15.250275
_cell_length_b 11.265826
_cell_length_c 6.859621
_cell_angle_alpha 138.030398
_cell_angle_beta 56.651865
_cell_angle_gamma 129.848734
_cell_volume 598.873528
_symmetry_space_group_name_H-M "P -1"
_symmetry_group_IT_number 2
_symmetry_cell_setting 'triclinic'
loop_
_space_group_symop_operation_xyz
x,y,z
-x,-y,-z
loop_
_atom_site_type_symbol
_atom_site_label
_atom_site_fract_x
_atom_site_fract_y
_atom_site_fract_z
Si Si1 0.222086 0.593348 0.210990
Si Si2 0.031074 0.511838 0.746176
Si Si3 0.146014 0.938238 0.214127
Si Si4 0.435511 0.946093 0.305802
Si Si5 0.955777 0.866879 0.702773
Si Si6 0.475834 0.673643 0.623015
Si Si7 0.634388 0.538233 0.838529
Si Si8 0.708537 0.731426 0.336473
O O1 0.296385 0.815068 0.320209
O O2 0.082788 0.354741 0.456172
O O3 0.087449 0.550284 0.306942
O O4 0.219023 0.396496 0.863998
O O5 0.121613 0.735076 0.893952
O O6 0.000000 0.500000 0.000000
O O7 0.054474 0.907902 0.465879
O O8 0.133790 0.075779 0.230490
O O9 0.260643 0.069204 0.345313
O O10 0.307111 0.587944 0.275741
O O11 0.500000 0.000000 0.500000
O O12 0.480805 0.144719 0.368356
O O13 0.468585 0.787227 0.960969
O O14 0.000000 0.000000 0.000000
O O15 0.366651 0.511629 0.446618
O O16 0.579123 0.604228 0.407943
O O17 0.500000 0.500000 0.000000
O O18 0.705806 0.740485 0.114608
#
# Coordination Sequence:
#
# PCOD9098219 Si02
#       8
#     2   2   2   2   2   2   2   2
#     4  10  20  36  64  90 125 170 216 264 336 394
#     4  10  22  40  67  96 131 178 224 271 336 396
#     4  10  21  43  68  90 137 173 209 287 332 385
#     4  11  22  38  60  89 128 165 211 276 319 389
#     4  10  22  41  64  92 130 172 230 271 327 396
#     4  10  21  39  60  91 124 165 212 261 333 397
#     4   8  17  37  60  86 126 159 208 271 317 396
#     4   9  19  38  66  91 123 168 213 262 338 394
#
# _framework density 26.716823999999999
#
# number of rings (size 3 to 8) (size 9 to 14) (size 15 to 20)
#    0.750    1.500    1.250    2.250    3.500    1.000 
#    2.250    3.750    0.000    0.000    0.000    0.000 
#    0.000    0.000    0.000    0.000    0.000    0.000 
#
# Total GULP energy -89270.289157 kJ/mol
# GULP energy per Si atom -5579.393072 kJ/mol
# Density = 2.665602 g / cm^3
# Si number density = 26.716824 Si / 1000 Ang^3
#
#
#
# Elastic Constant Matrix: (Units=GPa)
#
#
# Indices 1 2 3 4 5 6 
#
# 1 116.5053 54.4387 62.4792 11.6180 21.1235 -12.0835
# 2 54.4387 76.2778 52.2310 19.2608 7.3320 5.4110
# 3 62.4792 52.2310 198.1518 32.9568 39.6140 -11.6885
# 4 11.6180 19.2608 32.9568 57.4653 3.1975 2.3459
# 5 21.1235 7.3320 39.6140 3.1975 55.1203 0.5813
# 6 -12.0835 5.4110 -11.6885 2.3459 0.5813 45.1048
#
#
#
# Elastic Compliance Matrix: (Units=1/GPa)
#
#
# Indices 1 2 3 4 5 6 
#
# 1 0.015064 -0.010183 -0.001222 0.001071 -0.003654 0.004932
# 2 -0.010183 0.023875 -0.003525 -0.003860 0.003551 -0.006351
# 3 -0.001222 -0.003525 0.007911 -0.002948 -0.004602 0.002358
# 4 0.001071 -0.003860 -0.002948 0.020155 0.001064 -0.001076
# 5 -0.003654 0.003551 -0.004602 0.001064 0.022347 -0.002941
# 6 0.004932 -0.006351 0.002358 -0.001076 -0.002941 0.024959
#
#
# Mechanical properties :
#
#
# Convention : Reuss Voigt Hill
#
# Bulk Modulus (GPa) = 58.86020 81.02586 69.94303
# Shear Modulus (GPa) = 33.37018 46.32384 39.84701
#
# Velocity S-wave (km/s) = 3.53800 4.16851 3.86613
# Velocity P-wave (km/s) = 6.22647 7.31861 6.79452
#
# Compressibility (1/GPa) = 0.01698941
#
# Stress axis : x y z
#
# Youngs Moduli (GPa) = 66.38177 41.88441 126.41240
#
# Poissons Ratio (x) = 0.42652 0.15452
# Poissons Ratio (y) = 0.67598 0.44558
# Poissons Ratio (z) = 0.08114 0.14764
#
# Static dielectric constant tensor:
#      x y z
#    x 2.108310 0.019850 0.000460 
#    y 0.019850 2.424490 -0.108980 
#    z 0.000460 -0.108980 2.130430 
# 
# From -- ./inp_files/109914.got.cif
#   From: 2010.05.17/outbox.cif.g08.bks.cpg/sg2_55_cif.got.tgz:109914.got - 2010.06.03 11:33:40.
