data_PCOD9098742
_publ_section_title
;
Structure prediction by ZEFSAII (Michael W. Deem and Ramdas Pophale) SiO2 
 PCOD9098742
Probable space group: P -1
;
_chemical_formula_sum "Si O2"
_cell_formula_units_Z 16
_cell_length_a 7.955474
_cell_length_b 12.371587
_cell_length_c 12.233120
_cell_angle_alpha 91.911820
_cell_angle_beta 105.988459
_cell_angle_gamma 37.650599
_cell_volume 671.118680
_symmetry_space_group_name_H-M "P -1"
_symmetry_group_IT_number 2
_symmetry_cell_setting 'triclinic'
loop_
_space_group_symop_operation_xyz
x,y,z
-x,-y,-z
loop_
_atom_site_type_symbol
_atom_site_label
_atom_site_fract_x
_atom_site_fract_y
_atom_site_fract_z
Si Si1 0.077278 0.707149 0.128707
Si Si2 0.700670 0.461630 0.620504
Si Si3 0.171787 0.171042 0.128324
Si Si4 0.263958 0.061236 0.381097
Si Si5 0.786102 0.164229 0.381008
Si Si6 0.374462 0.875928 0.867256
Si Si7 0.786762 0.662053 0.376825
Si Si8 0.373169 0.251752 0.876298
O O1 0.314663 0.586908 0.265046
O O2 0.869245 0.913868 0.129362
O O3 0.899488 0.684656 0.124133
O O4 0.106447 0.693914 0.002493
O O5 0.500000 0.500000 0.500000
O O6 0.540380 0.657088 0.619268
O O7 0.034172 0.318472 0.629712
O O8 0.156289 0.173246 0.255147
O O9 0.354615 0.187438 0.132746
O O10 0.382020 0.961730 0.126110
O O11 0.962736 0.186313 0.395629
O O12 0.500000 0.000000 0.500000
O O13 0.460607 0.856850 0.373216
O O14 0.753357 0.128619 0.254856
O O15 0.000000 0.000000 0.500000
O O16 0.488220 0.758684 0.993635
O O17 0.727001 0.635674 0.247161
O O18 0.000000 0.500000 0.500000
#
# Coordination Sequence:
#
# PCOD9098742 Si02
#       8
#     2   2   2   2   2   2   2   2
#     4   8  15  32  57  78 102 144 185 211 256 329
#     4  11  22  38  56  78 108 145 181 219 267 325
#     4   8  15  32  57  78 102 144 185 211 256 329
#     4  11  22  38  56  78 108 145 181 219 267 325
#     4  12  24  36  53  84 113 138 176 229 275 310
#     4   9  16  33  58  82 105 137 182 228 261 308
#     4  10  20  37  57  80 106 140 182 220 259 317
#     4   7  14  30  55  80 105 141 181 211 258 329
#
# _framework density 23.840789999999998
#
# number of rings (size 3 to 8) (size 9 to 14) (size 15 to 20)
#    0.000    2.500    0.000    5.250    0.000    0.000 
#    0.000   14.375    0.000    0.000    0.000    0.000 
#    0.000    0.000    0.000    0.000    0.000    0.000 
#
# Total GULP energy -89199.263765 kJ/mol
# GULP energy per Si atom -5574.953985 kJ/mol
# Density = 2.378653 g / cm^3
# Si number density = 23.840790 Si / 1000 Ang^3
#
#
#
# Elastic Constant Matrix: (Units=GPa)
#
#
# Indices 1 2 3 4 5 6 
#
# 1 28.7210 1.4257 33.6536 3.9359 -6.0767 -7.7957
# 2 1.4257 48.9988 19.9529 -5.9896 -3.7541 -6.6288
# 3 33.6536 19.9529 274.4419 -8.8208 -18.8220 8.6957
# 4 3.9359 -5.9896 -8.8208 28.2533 6.7811 -0.6197
# 5 -6.0767 -3.7541 -18.8220 6.7811 40.0787 -1.8408
# 6 -7.7957 -6.6288 8.6957 -0.6197 -1.8408 17.7955
#
#
#
# Elastic Compliance Matrix: (Units=1/GPa)
#
#
# Indices 1 2 3 4 5 6 
#
# 1 0.055232 0.005080 -0.007871 -0.010402 0.008311 0.030432
# 2 0.005080 0.023517 -0.002498 0.003338 0.001810 0.012510
# 3 -0.007871 -0.002498 0.005089 0.001929 0.000326 -0.006764
# 4 -0.010402 0.003338 0.001929 0.039817 -0.007261 -0.003621
# 5 0.008311 0.001810 0.000326 -0.007261 0.028075 0.006807
# 6 0.030432 0.012510 -0.006764 -0.003621 0.006807 0.078068
#
#
# Mechanical properties :
#
#
# Convention : Reuss Voigt Hill
#
# Bulk Modulus (GPa) = 13.64968 51.35846 32.50407
# Shear Modulus (GPa) = 18.88254 37.03413 27.95834
#
# Velocity S-wave (km/s) = 2.81735 3.94559 3.42820
# Velocity P-wave (km/s) = 4.03993 6.50737 5.41604
#
# Compressibility (1/GPa) = 0.07326181
#
# Stress axis : x y z
#
# Youngs Moduli (GPa) = 18.10543 42.52242 196.49579
#
# Poissons Ratio (x) = -0.21602 1.54657
# Poissons Ratio (y) = -0.09198 0.49079
# Poissons Ratio (z) = 0.14250 0.10621
#
# Static dielectric constant tensor:
#      x y z
#    x 1.956340 0.020870 -0.063710 
#    y 0.020870 1.982110 -0.029450 
#    z -0.063710 -0.029450 2.077850 
# 
# From -- ./inp_files/399203.got.cif
#   From: 2010.05.17/outbox.cif.g08.bks.cpg/sg2_200_cif.got.tgz:399203.got - 2010.06.03 11:33:40.
