data_PCOD9098260
_publ_section_title
;
Structure prediction by ZEFSAII (Michael W. Deem and Ramdas Pophale) SiO2 
 PCOD9098260
Probable space group: P -1
;
_chemical_formula_sum "Si O2"
_cell_formula_units_Z 14
_cell_length_a 17.962503
_cell_length_b 12.682156
_cell_length_c 10.821878
_cell_angle_alpha 36.265429
_cell_angle_beta 35.457021
_cell_angle_gamma 31.578172
_cell_volume 695.776697
_symmetry_space_group_name_H-M "P -1"
_symmetry_group_IT_number 2
_symmetry_cell_setting 'triclinic'
loop_
_space_group_symop_operation_xyz
x,y,z
-x,-y,-z
loop_
_atom_site_type_symbol
_atom_site_label
_atom_site_fract_x
_atom_site_fract_y
_atom_site_fract_z
Si Si1 0.687661 0.350075 0.893417
Si Si2 0.347453 0.093724 0.201172
Si Si3 0.214059 0.670269 0.499972
Si Si4 0.522184 0.374010 0.463068
Si Si5 0.259546 0.512089 0.063264
Si Si6 0.018907 0.058484 0.058397
Si Si7 0.895129 0.917687 0.591659
O O1 0.733437 0.351684 0.690311
O O2 0.500000 0.500000 0.000000
O O3 0.751943 0.447335 0.812209
O O4 0.793091 0.091569 0.031464
O O5 0.197910 0.179234 0.236640
O O6 0.372268 0.882607 0.429662
O O7 0.320323 0.273538 0.163094
O O8 0.500000 0.000000 0.000000
O O9 0.348582 0.450597 0.588578
O O10 0.035137 0.756234 0.647492
O O11 0.211801 0.859791 0.397340
O O12 0.500000 0.500000 0.500000
O O13 0.609931 0.443246 0.190564
O O14 0.101645 0.681095 0.038653
O O15 0.955902 0.982638 0.327725
O O16 0.000000 0.000000 0.000000
#
# Coordination Sequence:
#
# PCOD9098260 Si02
#       7
#     2   2   2   2   2   2   2
#     4  10  20  36  64  93 123 167 209 251 310 376
#     4  12  24  37  63  98 126 158 216 260 308 373
#     4  10  20  37  64  90 124 165 208 253 313 371
#     4  12  20  38  64  89 123 166 202 257 312 365
#     4  11  21  39  62  93 125 161 211 255 305 373
#     4   9  19  37  63  91 121 163 207 246 309 370
#     4  10  20  38  63  92 125 163 205 259 311 367
#
# _framework density 20.121397000000002
#
# number of rings (size 3 to 8) (size 9 to 14) (size 15 to 20)
#    0.000    1.429    5.714    0.000    0.000    0.000 
#    0.000    9.286    0.000    0.000    0.000    0.000 
#    0.000    0.000    0.000    0.000    0.000    0.000 
#
# Total GULP energy -77935.226555 kJ/mol
# GULP energy per Si atom -5566.801897 kJ/mol
# Density = 2.007560 g / cm^3
# Si number density = 20.121397 Si / 1000 Ang^3
#
#
#
# Elastic Constant Matrix: (Units=GPa)
#
#
# Indices 1 2 3 4 5 6 
#
# 1 105.5218 45.2893 19.0536 -7.4187 1.1796 -7.2283
# 2 45.2893 124.1684 15.5146 -5.7525 -6.7338 -7.5297
# 3 19.0536 15.5146 30.4525 -4.2912 -3.1578 16.8745
# 4 -7.4187 -5.7525 -4.2912 25.4534 6.3674 2.8033
# 5 1.1796 -6.7338 -3.1578 6.3674 23.5830 8.5371
# 6 -7.2283 -7.5297 16.8745 2.8033 8.5371 62.1063
#
#
#
# Elastic Compliance Matrix: (Units=1/GPa)
#
#
# Indices 1 2 3 4 5 6 
#
# 1 0.013106 -0.003595 -0.008805 0.002316 -0.004955 0.004058
# 2 -0.003595 0.009991 -0.003433 -0.000044 0.002062 0.001444
# 3 -0.008805 -0.003433 0.051406 0.004369 0.011379 -0.017169
# 4 0.002316 -0.000044 0.004369 0.043543 -0.010792 -0.001405
# 5 -0.004955 0.002062 0.011379 -0.010792 0.051291 -0.009982
# 6 0.004058 0.001444 -0.017169 -0.001405 -0.009982 0.022849
#
#
# Mechanical properties :
#
#
# Convention : Reuss Voigt Hill
#
# Bulk Modulus (GPa) = 23.34484 46.65086 34.99785
# Shear Modulus (GPa) = 20.99673 34.24755 27.62214
#
# Velocity S-wave (km/s) = 3.23383 4.13006 3.70912
# Velocity P-wave (km/s) = 5.05675 6.78073 5.98118
#
# Compressibility (1/GPa) = 0.04283602
#
# Stress axis : x y z
#
# Youngs Moduli (GPa) = 76.30145 100.08644 19.45308
#
# Poissons Ratio (x) = 0.35986 0.17128
# Poissons Ratio (y) = 0.27434 0.06679
# Poissons Ratio (z) = 0.67182 0.34362
#
# Static dielectric constant tensor:
#      x y z
#    x 1.755390 -0.054490 0.046030 
#    y -0.054490 1.825040 0.029520 
#    z 0.046030 0.029520 1.762160 
# 
# From -- ./inp_files/308741.got.cif
#   From: 2010.05.17/outbox.cif.g08.bks.cpg/sg2_155_cif.got.tgz:308741.got - 2010.06.03 11:33:40.
