data_PCOD9098563
_publ_section_title
;
Structure prediction by ZEFSAII (Michael W. Deem and Ramdas Pophale) SiO2 
 PCOD9098563
Probable space group: P -1
;
_chemical_formula_sum "Si O2"
_cell_formula_units_Z 16
_cell_length_a 9.330294
_cell_length_b 19.739805
_cell_length_c 9.755453
_cell_angle_alpha 140.984575
_cell_angle_beta 48.290321
_cell_angle_gamma 146.233531
_cell_volume 627.705040
_symmetry_space_group_name_H-M "P -1"
_symmetry_group_IT_number 2
_symmetry_cell_setting 'triclinic'
loop_
_space_group_symop_operation_xyz
x,y,z
-x,-y,-z
loop_
_atom_site_type_symbol
_atom_site_label
_atom_site_fract_x
_atom_site_fract_y
_atom_site_fract_z
Si Si1 0.032448 0.683549 0.563574
Si Si2 0.533697 0.867859 0.373258
Si Si3 0.638351 0.134901 0.803016
Si Si4 0.277815 0.831319 0.910344
Si Si5 0.850023 0.834787 0.289440
Si Si6 0.781902 0.686523 0.363910
Si Si7 0.189181 0.175416 0.158029
Si Si8 0.745901 0.458849 0.172727
O O1 0.240969 0.744827 0.408004
O O2 0.949838 0.777403 0.758222
O O3 0.814163 0.525310 0.388883
O O4 0.177202 0.721048 0.675262
O O5 0.553038 0.916535 0.282653
O O6 0.615245 0.997699 0.621858
O O7 0.511802 0.709488 0.906949
O O8 0.615514 0.182281 0.039144
O O9 0.932302 0.252913 0.754381
O O10 0.033312 0.810913 0.078314
O O11 0.500000 0.000000 0.000000
O O12 0.702959 0.723132 0.335641
O O13 0.678349 0.816216 0.246749
O O14 0.000000 0.000000 0.500000
O O15 0.802061 0.778823 0.619126
O O16 0.653535 0.529243 0.254901
O O17 0.000000 0.000000 0.000000
O O18 0.000000 0.500000 0.000000
#
# Coordination Sequence:
#
# PCOD9098563 Si02
#       8
#     2   2   2   2   2   2   2   2
#     4  11  23  44  75 109 158 210 259 334 406 472
#     4  11  20  38  68 107 152 212 268 326 391 475
#     4  10  20  36  69 101 158 204 265 319 400 459
#     4  11  22  41  62 109 168 209 260 337 394 470
#     4  11  22  39  68 110 167 208 269 332 400 478
#     4  10  21  45  74 109 157 208 260 328 404 475
#     4  11  26  46  79 124 157 205 270 329 409 490
#     4  11  26  51  79 116 168 212 269 334 413 490
#
# _framework density 25.489678000000001
#
# number of rings (size 3 to 8) (size 9 to 14) (size 15 to 20)
#    0.000    1.250    6.250    1.500    1.750    3.000 
#    0.000    0.625    2.750   24.750    0.000    0.000 
#    0.000    0.000    0.000    0.000    0.000    0.000 
#
# Total GULP energy -89311.236251 kJ/mol
# GULP energy per Si atom -5581.952266 kJ/mol
# Density = 2.543166 g / cm^3
# Si number density = 25.489678 Si / 1000 Ang^3
#
#
#
# Elastic Constant Matrix: (Units=GPa)
#
#
# Indices 1 2 3 4 5 6 
#
# 1 123.3452 58.4470 38.8962 -16.7779 15.5993 -34.2110
# 2 58.4470 119.3684 66.5749 3.9181 8.1169 -2.3372
# 3 38.8962 66.5749 147.8399 3.1372 24.4239 -17.4799
# 4 -16.7779 3.9181 3.1372 57.8962 -7.3942 3.9118
# 5 15.5993 8.1169 24.4239 -7.3942 45.9471 -15.9912
# 6 -34.2110 -2.3372 -17.4799 3.9118 -15.9912 56.0305
#
#
#
# Elastic Compliance Matrix: (Units=1/GPa)
#
#
# Indices 1 2 3 4 5 6 
#
# 1 0.014191 -0.007123 0.000400 0.003985 -0.000302 0.008128
# 2 -0.007123 0.014849 -0.005456 -0.002359 0.000536 -0.005114
# 3 0.000400 -0.005456 0.010018 -0.000694 -0.003885 0.002082
# 4 0.003985 -0.002359 -0.000694 0.018902 0.003056 0.001671
# 5 -0.000302 0.000536 -0.003885 0.003056 0.026399 0.005947
# 6 0.008128 -0.005114 0.002082 0.001671 0.005947 0.024827
#
#
# Mechanical properties :
#
#
# Convention : Reuss Voigt Hill
#
# Bulk Modulus (GPa) = 68.02050 79.82110 73.92080
# Shear Modulus (GPa) = 36.11629 47.08377 41.60003
#
# Velocity S-wave (km/s) = 3.76826 4.30253 4.04423
# Velocity P-wave (km/s) = 6.75843 7.48769 7.13239
#
# Compressibility (1/GPa) = 0.01470145
#
# Stress axis : x y z
#
# Youngs Moduli (GPa) = 70.46827 67.34633 99.81801
#
# Poissons Ratio (x) = 0.47968 -0.03996
# Poissons Ratio (y) = 0.50192 0.54458
# Poissons Ratio (z) = -0.02821 0.36742
#
# Static dielectric constant tensor:
#      x y z
#    x 2.258670 0.032810 0.026990 
#    y 0.032810 2.139330 0.027000 
#    z 0.026990 0.027000 2.101240 
# 
# From -- ./inp_files/318796.got.cif
#   From: 2010.05.17/outbox.cif.g08.bks.cpg/sg2_160_cif.got.tgz:318796.got - 2010.06.03 11:33:40.
