data_PCOD9098762
_publ_section_title
;
Structure prediction by ZEFSAII (Michael W. Deem and Ramdas Pophale) SiO2 
 PCOD9098762
Probable space group: P -1
;
_chemical_formula_sum "Si O2"
_cell_formula_units_Z 16
_cell_length_a 10.374734
_cell_length_b 8.456325
_cell_length_c 18.025836
_cell_angle_alpha 55.453884
_cell_angle_beta 91.513148
_cell_angle_gamma 136.507827
_cell_volume 658.073569
_symmetry_space_group_name_H-M "P -1"
_symmetry_group_IT_number 2
_symmetry_cell_setting 'triclinic'
loop_
_space_group_symop_operation_xyz
x,y,z
-x,-y,-z
loop_
_atom_site_type_symbol
_atom_site_label
_atom_site_fract_x
_atom_site_fract_y
_atom_site_fract_z
Si Si1 0.666521 0.987514 0.840122
Si Si2 0.118033 0.933400 0.427143
Si Si3 0.334956 0.912403 0.348536
Si Si4 0.380537 0.092457 0.673328
Si Si5 0.151633 0.950287 0.860824
Si Si6 0.115739 0.000022 0.582477
Si Si7 0.401817 0.950221 0.933572
Si Si8 0.111942 0.073406 0.061209
O O1 0.601669 0.117527 0.833640
O O2 0.392205 0.529004 0.951240
O O3 0.762410 0.124525 0.720889
O O4 0.836831 0.081136 0.874180
O O5 0.353106 0.113160 0.352016
O O6 0.872213 0.500167 0.510158
O O7 0.099814 0.133626 0.353794
O O8 0.085708 0.895619 0.525425
O O9 0.565892 0.065921 0.289944
O O10 0.177135 0.901943 0.661204
O O11 0.638321 0.542054 0.539550
O O12 0.290845 0.059559 0.759473
O O13 0.324205 0.073475 0.894673
O O14 0.870017 0.495285 0.971875
O O15 0.079517 0.076331 0.842136
O O16 0.500000 0.000000 0.000000
O O17 0.000000 0.000000 0.000000
#
# Coordination Sequence:
#
# PCOD9098762 Si02
#       8
#     2   2   2   2   2   2   2   2
#     4  10  21  38  57  83 114 149 186 236 282 331
#     4   9  20  38  58  84 111 148 190 228 282 343
#     4  10  20  37  58  83 116 145 185 239 283 333
#     4  10  20  37  57  82 117 148 182 236 286 331
#     4  10  21  36  57  85 112 146 191 232 278 342
#     4   9  20  38  58  81 114 148 187 230 280 345
#     4  10  20  37  58  81 114 147 186 235 282 331
#     4  10  22  39  56  81 117 149 188 232 283 341
#
# _framework density 24.313392
#
# number of rings (size 3 to 8) (size 9 to 14) (size 15 to 20)
#    0.000    2.250    1.250    0.750    1.750    2.500 
#    4.500    0.000    0.000    0.000    0.000    0.000 
#    0.000    0.000    0.000    0.000    0.000    0.000 
#
# Total GULP energy -89333.584989 kJ/mol
# GULP energy per Si atom -5583.349062 kJ/mol
# Density = 2.425805 g / cm^3
# Si number density = 24.313392 Si / 1000 Ang^3
#
#
#
# Elastic Constant Matrix: (Units=GPa)
#
#
# Indices 1 2 3 4 5 6 
#
# 1 212.5374 55.6751 50.6625 24.1027 -7.0628 5.3305
# 2 55.6751 65.5709 10.7772 2.1693 -2.2910 20.5356
# 3 50.6625 10.7772 56.6522 2.4622 -12.4283 0.6775
# 4 24.1027 2.1693 2.4622 49.3813 -1.9582 5.0506
# 5 -7.0628 -2.2910 -12.4283 -1.9582 38.4700 11.2496
# 6 5.3305 20.5356 0.6775 5.0506 11.2496 42.5231
#
#
#
# Elastic Compliance Matrix: (Units=1/GPa)
#
#
# Indices 1 2 3 4 5 6 
#
# 1 0.008408 -0.007125 -0.006524 -0.003916 -0.002224 0.003544
# 2 -0.007125 0.024975 0.002720 0.003774 0.005050 -0.012996
# 3 -0.006524 0.002720 0.024660 0.002492 0.008025 -0.003308
# 4 -0.003916 0.003774 0.002492 0.022476 0.002858 -0.004797
# 5 -0.002224 0.005050 0.008025 0.002858 0.031858 -0.011055
# 6 0.003544 -0.012996 -0.003308 -0.004797 -0.011055 0.032895
#
#
# Mechanical properties :
#
#
# Convention : Reuss Voigt Hill
#
# Bulk Modulus (GPa) = 27.63562 63.22111 45.42836
# Shear Modulus (GPa) = 27.90329 40.58459 34.24394
#
# Velocity S-wave (km/s) = 3.39138 4.09005 3.75699
# Velocity P-wave (km/s) = 5.16975 6.95440 6.12740
#
# Compressibility (1/GPa) = 0.03618519
#
# Stress axis : x y z
#
# Youngs Moduli (GPa) = 118.93751 40.04038 40.55183
#
# Poissons Ratio (x) = 0.28528 0.26454
# Poissons Ratio (y) = 0.84741 -0.11029
# Poissons Ratio (z) = 0.77589 -0.10890
#
# Static dielectric constant tensor:
#      x y z
#    x 1.977770 0.000460 -0.030830 
#    y 0.000460 1.971230 -0.034640 
#    z -0.030830 -0.034640 1.946510 
# 
# From -- ./inp_files/556084.got.cif
#   From: 2010.05.17/outbox.cif.g08.bks.cpg/sg2_279_cif.got.tgz:556084.got - 2010.06.03 11:33:40.
