data_PCOD9098176
_publ_section_title
;
Structure prediction by ZEFSAII (Michael W. Deem and Ramdas Pophale) SiO2 
 PCOD9098176
Probable space group: P -1
;
_chemical_formula_sum "Si O2"
_cell_formula_units_Z 12
_cell_length_a 8.217339
_cell_length_b 14.654654
_cell_length_c 11.365055
_cell_angle_alpha 33.103991
_cell_angle_beta 39.158964
_cell_angle_gamma 41.900376
_cell_volume 453.842223
_symmetry_space_group_name_H-M "P -1"
_symmetry_group_IT_number 2
_symmetry_cell_setting 'triclinic'
loop_
_space_group_symop_operation_xyz
x,y,z
-x,-y,-z
loop_
_atom_site_type_symbol
_atom_site_label
_atom_site_fract_x
_atom_site_fract_y
_atom_site_fract_z
Si Si1 0.308696 0.414679 0.942182
Si Si2 0.399192 0.816852 0.151659
Si Si3 0.226655 0.598723 0.146331
Si Si4 0.651331 0.743337 0.683841
Si Si5 0.777529 0.869759 0.247118
Si Si6 0.244832 0.944665 0.335564
O O1 0.473910 0.363987 0.785285
O O2 0.307807 0.249388 0.206915
O O3 0.505995 0.489778 0.830875
O O4 0.000000 0.500000 0.000000
O O5 0.224016 0.946758 0.010903
O O6 0.662157 0.889143 0.945516
O O7 0.237624 0.831798 0.345737
O O8 0.175622 0.447274 0.257702
O O9 0.002618 0.709183 0.239043
O O10 0.342636 0.734186 0.859373
O O11 0.728468 0.872237 0.411380
O O12 0.501869 0.847201 0.371602
O O13 0.000000 0.000000 0.500000
#
# Coordination Sequence:
#
# PCOD9098176 Si02
#       6
#     2   2   2   2   2   2
#     4  10  22  40  61  86 127 159 192 252 298 353
#     4   9  22  38  59  94 120 153 201 248 305 343
#     4   9  21  39  59  88 118 163 197 240 295 349
#     4   9  21  38  63  88 115 166 199 234 306 345
#     4  10  20  36  64  85 118 152 210 244 284 368
#     4   9  21  37  60  89 119 160 191 246 304 352
#
# _framework density 26.440905999999998
#
# number of rings (size 3 to 8) (size 9 to 14) (size 15 to 20)
#    2.000    0.667    0.000    0.500    4.667    2.667 
#    3.000    0.833    0.000    0.000    0.000    0.000 
#    0.000    0.000    0.000    0.000    0.000    0.000 
#
# Total GULP energy -66930.715008 kJ/mol
# GULP energy per Si atom -5577.559584 kJ/mol
# Density = 2.638073 g / cm^3
# Si number density = 26.440906 Si / 1000 Ang^3
#
#
#
# Elastic Constant Matrix: (Units=GPa)
#
#
# Indices 1 2 3 4 5 6 
#
# 1 73.9981 37.3759 15.7825 20.9669 18.3003 -3.2085
# 2 37.3759 107.8601 29.7424 36.3830 6.1383 -2.4413
# 3 15.7825 29.7424 133.1406 38.6367 15.8405 -1.6652
# 4 20.9669 36.3830 38.6367 51.3971 11.7105 3.0244
# 5 18.3003 6.1383 15.8405 11.7105 30.1958 12.1397
# 6 -3.2085 -2.4413 -1.6652 3.0244 12.1397 43.4831
#
#
#
# Elastic Compliance Matrix: (Units=1/GPa)
#
#
# Indices 1 2 3 4 5 6 
#
# 1 0.020179 -0.005630 0.001171 -0.002523 -0.012708 0.004941
# 2 -0.005630 0.013836 -0.000604 -0.007964 0.004107 -0.000254
# 3 0.001171 -0.000604 0.009968 -0.006748 -0.004013 0.002024
# 4 -0.002523 -0.007964 -0.006748 0.032487 -0.005232 -0.001691
# 5 -0.012708 0.004107 -0.004013 -0.005232 0.049921 -0.014434
# 6 0.004941 -0.000254 0.002024 -0.001691 -0.014434 0.027573
#
#
# Mechanical properties :
#
#
# Convention : Reuss Voigt Hill
#
# Bulk Modulus (GPa) = 29.53490 53.42228 41.47859
# Shear Modulus (GPa) = 28.51041 40.48838 34.49939
#
# Velocity S-wave (km/s) = 3.28726 3.91740 3.61608
# Velocity P-wave (km/s) = 5.05989 6.38041 5.75813
#
# Compressibility (1/GPa) = 0.03385825
#
# Stress axis : x y z
#
# Youngs Moduli (GPa) = 49.55569 72.27758 100.32091
#
# Poissons Ratio (x) = 0.40689 -0.11751
# Poissons Ratio (y) = 0.27898 0.06060
# Poissons Ratio (z) = -0.05805 0.04366
#
# Static dielectric constant tensor:
#      x y z
#    x 2.205340 0.006770 -0.041660 
#    y 0.006770 2.066100 -0.081800 
#    z -0.041660 -0.081800 2.197780 
# 
# From -- ./inp_files/401758.got.cif
#   From: 2010.05.17/outbox.cif.g08.bks.cpg/sg2_201_cif.got.tgz:401758.got - 2010.06.03 11:33:40.
