data_PCOD9098035
_publ_section_title
;
Structure prediction by ZEFSAII (Michael W. Deem and Ramdas Pophale) SiO2 
 PCOD9098035
Probable space group: P -1
;
_chemical_formula_sum "Si O2"
_cell_formula_units_Z 16
_cell_length_a 9.407061
_cell_length_b 14.110306
_cell_length_c 8.393757
_cell_angle_alpha 45.876035
_cell_angle_beta 133.348775
_cell_angle_gamma 112.014069
_cell_volume 570.141653
_symmetry_space_group_name_H-M "P -1"
_symmetry_group_IT_number 2
_symmetry_cell_setting 'triclinic'
loop_
_space_group_symop_operation_xyz
x,y,z
-x,-y,-z
loop_
_atom_site_type_symbol
_atom_site_label
_atom_site_fract_x
_atom_site_fract_y
_atom_site_fract_z
Si Si1 0.820207 0.417936 0.860419
Si Si2 0.421933 0.175561 0.360647
Si Si3 0.261772 0.333426 0.327100
Si Si4 0.617051 0.299017 0.102792
Si Si5 0.674933 0.065234 0.236031
Si Si6 0.890139 0.905168 0.335216
Si Si7 0.074640 0.282982 0.724969
Si Si8 0.718752 0.456601 0.412097
O O1 0.693708 0.565309 0.625578
O O2 0.801500 0.337836 0.103110
O O3 0.735961 0.371606 0.688022
O O4 0.049930 0.415879 0.002865
O O5 0.411439 0.290288 0.351044
O O6 0.427255 0.038330 0.620302
O O7 0.593327 0.194995 0.347290
O O8 0.211591 0.212217 0.059576
O O9 0.191941 0.201743 0.491270
O O10 0.492515 0.443454 0.891865
O O11 0.545294 0.212160 0.002866
O O12 0.893961 0.063624 0.486977
O O13 0.728352 0.034431 0.127055
O O14 0.905975 0.833283 0.258943
O O15 0.163950 0.418472 0.608851
O O16 0.845924 0.353924 0.505183
#
# Coordination Sequence:
#
# PCOD9098035 Si02
#       8
#     2   2   2   2   2   2   2   2
#     4  11  20  36  62  91 122 161 202 248 309 368
#     4  10  22  40  62  86 124 164 202 262 292 355
#     4  10  20  36  63  89 119 157 208 251 300 361
#     4  11  23  39  60  89 131 164 195 250 314 364
#     4  10  22  41  62  90 120 164 214 246 297 355
#     4  10  20  39  67  89 115 161 212 262 283 361
#     4  10  20  39  63  95 119 159 208 245 316 358
#     4  10  21  36  61  92 134 155 190 257 312 374
#
# _framework density 28.063203000000001
#
# number of rings (size 3 to 8) (size 9 to 14) (size 15 to 20)
#    0.000    1.750    3.750    0.750    0.000    1.000 
#    2.250    2.500    2.750    0.000    0.000    0.000 
#    0.000    0.000    0.000    0.000    0.000    0.000 
#
# Total GULP energy -89281.466950 kJ/mol
# GULP energy per Si atom -5580.091684 kJ/mol
# Density = 2.799933 g / cm^3
# Si number density = 28.063203 Si / 1000 Ang^3
#
#
#
# Elastic Constant Matrix: (Units=GPa)
#
#
# Indices 1 2 3 4 5 6 
#
# 1 138.6882 42.1973 20.2312 -2.9462 -4.5190 -19.6956
# 2 42.1973 170.8319 34.7448 -14.4797 -1.1909 -34.1645
# 3 20.2312 34.7448 69.8433 -1.7217 1.2457 4.0343
# 4 -2.9462 -14.4797 -1.7217 43.2481 5.1528 5.2758
# 5 -4.5190 -1.1909 1.2457 5.1528 38.0305 -4.9736
# 6 -19.6956 -34.1645 4.0343 5.2758 -4.9736 60.4797
#
#
#
# Elastic Compliance Matrix: (Units=1/GPa)
#
#
# Indices 1 2 3 4 5 6 
#
# 1 0.008219 -0.001201 -0.001947 -0.000357 0.001348 0.002270
# 2 -0.001201 0.007929 -0.003805 0.001842 0.000533 0.004225
# 3 -0.001947 -0.003805 0.017031 -0.000067 -0.001427 -0.004031
# 4 -0.000357 0.001842 -0.000067 0.024306 -0.003469 -0.001477
# 5 0.001348 0.000533 -0.001427 -0.003469 0.027432 0.003394
# 6 0.002270 0.004225 -0.004031 -0.001477 0.003394 0.020337
#
#
# Mechanical properties :
#
#
# Convention : Reuss Voigt Hill
#
# Bulk Modulus (GPa) = 51.88581 63.74554 57.81567
# Shear Modulus (GPa) = 39.81415 47.16432 43.48923
#
# Velocity S-wave (km/s) = 3.77069 4.10402 3.94088
# Velocity P-wave (km/s) = 6.12262 6.72470 6.43071
#
# Compressibility (1/GPa) = 0.01927309
#
# Stress axis : x y z
#
# Youngs Moduli (GPa) = 121.67580 126.11955 58.71601
#
# Poissons Ratio (x) = 0.15147 0.11433
# Poissons Ratio (y) = 0.14613 0.22339
# Poissons Ratio (z) = 0.23692 0.47984
#
# Static dielectric constant tensor:
#      x y z
#    x 2.215280 0.039120 0.052130 
#    y 0.039120 2.316120 0.013310 
#    z 0.052130 0.013310 2.211280 
# 
# From -- ./inp_files/199748.got.cif
#   From: 2010.05.17/outbox.cif.g08.bks.cpg/sg2_100_cif.got.tgz:199748.got - 2010.06.03 11:33:40.
