data_PCOD9098154
_publ_section_title
;
Structure prediction by ZEFSAII (Michael W. Deem and Ramdas Pophale) SiO2 
 PCOD9098154
Probable space group: P -1
;
_chemical_formula_sum "Si O2"
_cell_formula_units_Z 16
_cell_length_a 8.397739
_cell_length_b 14.286451
_cell_length_c 9.279891
_cell_angle_alpha 67.871946
_cell_angle_beta 114.568045
_cell_angle_gamma 140.354260
_cell_volume 642.974187
_symmetry_space_group_name_H-M "P -1"
_symmetry_group_IT_number 2
_symmetry_cell_setting 'triclinic'
loop_
_space_group_symop_operation_xyz
x,y,z
-x,-y,-z
loop_
_atom_site_type_symbol
_atom_site_label
_atom_site_fract_x
_atom_site_fract_y
_atom_site_fract_z
Si Si1 0.810098 0.000417 0.858555
Si Si2 0.206465 0.452719 0.194250
Si Si3 0.049433 0.426447 0.460250
Si Si4 0.233710 0.302614 0.726266
Si Si5 0.681748 0.200921 0.007416
Si Si6 0.213546 0.221389 0.437452
Si Si7 0.327592 0.015617 0.744976
Si Si8 0.513793 0.848966 0.550240
O O1 0.996480 0.175551 0.812995
O O2 0.548362 0.883278 0.916839
O O3 0.720739 0.940952 0.698552
O O4 0.000000 0.000000 0.000000
O O5 0.163849 0.490362 0.308808
O O6 0.486665 0.600913 0.157302
O O7 0.223121 0.339927 0.308864
O O8 0.954928 0.363334 0.054064
O O9 0.211734 0.410351 0.612986
O O10 0.000000 0.500000 0.500000
O O11 0.766505 0.261792 0.425960
O O12 0.213517 0.236691 0.601789
O O13 0.731187 0.101675 0.102750
O O14 0.544266 0.167187 0.825126
O O15 0.432005 0.235226 0.461887
O O16 0.950776 0.066186 0.361373
O O17 0.451527 0.049059 0.615547
#
# Coordination Sequence:
#
# PCOD9098154 Si02
#       8
#     2   2   2   2   2   2   2   2
#     4  12  26  42  65  99 140 175 226 286 333 384
#     4  10  21  42  66  95 137 178 213 276 343 407
#     4  11  22  40  67 102 134 169 227 281 333 399
#     4  11  23  41  67  97 137 181 221 271 340 402
#     4  10  22  42  62  98 136 176 220 279 336 395
#     4  10  20  36  64 100 131 170 224 273 331 401
#     4  10  21  37  67  95 132 178 225 270 334 404
#     4  12  22  38  67 100 131 171 229 280 328 398
#
# _framework density 24.884357000000001
#
# number of rings (size 3 to 8) (size 9 to 14) (size 15 to 20)
#    0.000    1.250    2.500    4.875    1.750    1.000 
#    0.000    1.875    0.000   12.000    0.000    0.000 
#    0.000    0.000    0.000    0.000    0.000    0.000 
#
# Total GULP energy -89430.687704 kJ/mol
# GULP energy per Si atom -5589.417982 kJ/mol
# Density = 2.482772 g / cm^3
# Si number density = 24.884357 Si / 1000 Ang^3
#
#
#
# Elastic Constant Matrix: (Units=GPa)
#
#
# Indices 1 2 3 4 5 6 
#
# 1 101.1044 40.1983 22.1392 23.7440 13.2100 18.7093
# 2 40.1983 108.3564 50.2037 33.4807 22.5360 24.8561
# 3 22.1392 50.2037 126.2468 28.9087 16.5622 7.1858
# 4 23.7440 33.4807 28.9087 35.4468 8.2008 11.6104
# 5 13.2100 22.5360 16.5622 8.2008 22.4884 9.9553
# 6 18.7093 24.8561 7.1858 11.6104 9.9553 55.2194
#
#
#
# Elastic Compliance Matrix: (Units=1/GPa)
#
#
# Indices 1 2 3 4 5 6 
#
# 1 0.012650 -0.002209 0.000377 -0.005508 -0.002739 -0.001689
# 2 -0.002209 0.016604 -0.002872 -0.008895 -0.008692 -0.002914
# 3 0.000377 -0.002872 0.010779 -0.006002 -0.003854 0.001719
# 4 -0.005508 -0.008895 -0.006002 0.045972 0.001239 -0.003238
# 5 -0.002739 -0.008692 -0.003854 0.001239 0.059687 -0.005679
# 6 -0.001689 -0.002914 0.001719 -0.003238 -0.005679 0.021475
#
#
# Mechanical properties :
#
#
# Convention : Reuss Voigt Hill
#
# Bulk Modulus (GPa) = 32.65333 62.31000 47.48167
# Shear Modulus (GPa) = 26.76889 37.50868 32.13879
#
# Velocity S-wave (km/s) = 3.28339 3.88663 3.59768
# Velocity P-wave (km/s) = 5.24640 6.72573 6.03159
#
# Compressibility (1/GPa) = 0.03062475
#
# Stress axis : x y z
#
# Youngs Moduli (GPa) = 79.04917 60.22704 92.77102
#
# Poissons Ratio (x) = 0.13301 -0.03493
# Poissons Ratio (y) = 0.17458 0.26647
# Poissons Ratio (z) = -0.02976 0.17299
#
# Static dielectric constant tensor:
#      x y z
#    x 2.017450 -0.044640 0.006070 
#    y -0.044640 2.070740 -0.015190 
#    z 0.006070 -0.015190 1.917690 
# 
# From -- ./inp_files/207101.got.cif
#   From: 2010.05.17/outbox.cif.g08.bks.cpg/sg2_104_cif.got.tgz:207101.got - 2010.06.03 11:33:40.
