data_PCOD9098866
_publ_section_title
;
Structure prediction by ZEFSAII (Michael W. Deem and Ramdas Pophale) SiO2 
 PCOD9098866
Probable space group: P -1
;
_chemical_formula_sum "Si O2"
_cell_formula_units_Z 14
_cell_length_a 6.636930
_cell_length_b 7.813330
_cell_length_c 15.456343
_cell_angle_alpha 65.226553
_cell_angle_beta 102.456217
_cell_angle_gamma 68.558925
_cell_volume 609.459821
_symmetry_space_group_name_H-M "P -1"
_symmetry_group_IT_number 2
_symmetry_cell_setting 'triclinic'
loop_
_space_group_symop_operation_xyz
x,y,z
-x,-y,-z
loop_
_atom_site_type_symbol
_atom_site_label
_atom_site_fract_x
_atom_site_fract_y
_atom_site_fract_z
Si Si1 0.627244 0.054484 0.923176
Si Si2 0.180863 0.125713 0.794756
Si Si3 0.900749 0.303471 0.914019
Si Si4 0.441844 0.928324 0.416895
Si Si5 0.469047 0.777677 0.767098
Si Si6 0.955596 0.176400 0.383369
Si Si7 0.119194 0.481953 0.424562
O O1 0.408658 0.163533 0.812712
O O2 0.718664 0.214684 0.926931
O O3 0.500000 0.000000 0.000000
O O4 0.873252 0.825475 0.972286
O O5 0.032609 0.205037 0.854183
O O6 0.982336 0.282632 0.675078
O O7 0.324573 0.877838 0.822480
O O8 0.735123 0.565469 0.845869
O O9 0.599146 0.668408 0.498490
O O10 0.500000 0.000000 0.500000
O O11 0.523285 0.029149 0.326594
O O12 0.159513 0.033089 0.362335
O O13 0.306732 0.720686 0.702953
O O14 0.023330 0.353725 0.383543
O O15 0.000000 0.000000 0.500000
O O16 0.000000 0.500000 0.500000
#
# Coordination Sequence:
#
# PCOD9098866 Si02
#       7
#     2   2   2   2   2   2   2
#     4   9  21  45  68  93 123 160 201 262 322 380
#     4  11  23  40  63  95 129 161 213 257 307 371
#     4  10  22  42  69  92 123 162 205 257 324 370
#     4  10  20  37  58  80 126 166 209 252 302 347
#     4  12  23  40  62  94 125 165 212 257 305 375
#     4  11  21  36  56  82 119 165 214 254 299 357
#     4  11  20  39  59  87 129 168 207 257 299 360
#
# _framework density 22.971160999999999
#
# number of rings (size 3 to 8) (size 9 to 14) (size 15 to 20)
#    0.000    1.429    4.286    2.571    0.000    2.857 
#    2.571    7.857    0.000    0.000    0.000    0.000 
#    0.000    0.000    0.000    0.000    0.000    0.000 
#
# Total GULP energy -78050.518498 kJ/mol
# GULP energy per Si atom -5575.037036 kJ/mol
# Density = 2.291888 g / cm^3
# Si number density = 22.971161 Si / 1000 Ang^3
#
#
#
# Elastic Constant Matrix: (Units=GPa)
#
#
# Indices 1 2 3 4 5 6 
#
# 1 83.4570 22.0958 11.5626 -3.1129 9.6503 -1.9764
# 2 22.0958 100.0942 30.3323 -14.4956 4.7492 -18.3222
# 3 11.5626 30.3323 64.6235 -31.4553 12.9486 -14.3185
# 4 -3.1129 -14.4956 -31.4553 33.3158 -13.8568 5.5622
# 5 9.6503 4.7492 12.9486 -13.8568 28.1180 0.1228
# 6 -1.9764 -18.3222 -14.3185 5.5622 0.1228 34.6901
#
#
#
# Elastic Compliance Matrix: (Units=1/GPa)
#
#
# Indices 1 2 3 4 5 6 
#
# 1 0.013454 -0.002811 -0.002257 -0.004052 -0.005096 -0.000982
# 2 -0.002811 0.012845 -0.004201 0.001093 0.001247 0.004711
# 3 -0.002257 -0.004201 0.032950 0.027968 0.000063 0.006768
# 4 -0.004052 0.001093 0.027968 0.064676 0.020193 0.001448
# 5 -0.005096 0.001247 0.000063 0.020193 0.047038 -0.003010
# 6 -0.000982 0.004711 0.006768 0.001448 -0.003010 0.033831
#
#
# Mechanical properties :
#
#
# Convention : Reuss Voigt Hill
#
# Bulk Modulus (GPa) = 24.56237 41.79511 33.17874
# Shear Modulus (GPa) = 21.10584 31.50372 26.30478
#
# Velocity S-wave (km/s) = 3.03446 3.70732 3.38764
# Velocity P-wave (km/s) = 4.79512 6.04647 5.45678
#
# Compressibility (1/GPa) = 0.04071268
#
# Stress axis : x y z
#
# Youngs Moduli (GPa) = 74.32757 77.84874 30.34917
#
# Poissons Ratio (x) = 0.21882 0.06849
# Poissons Ratio (y) = 0.20892 0.12749
# Poissons Ratio (z) = 0.16774 0.32702
#
# Static dielectric constant tensor:
#      x y z
#    x 1.872150 -0.001290 0.031230 
#    y -0.001290 1.960610 -0.025520 
#    z 0.031230 -0.025520 1.970360 
# 
# From -- ./inp_files/213440.got.cif
#   From: 2010.05.17/outbox.cif.g08.bks.cpg/sg2_107_cif.got.tgz:213440.got - 2010.06.03 11:33:40.
