data_PCOD9098553
_publ_section_title
;
Structure prediction by ZEFSAII (Michael W. Deem and Ramdas Pophale) SiO2 
 PCOD9098553
Probable space group: P -1
;
_chemical_formula_sum "Si O2"
_cell_formula_units_Z 15
_cell_length_a 14.983427
_cell_length_b 13.513631
_cell_length_c 7.624005
_cell_angle_alpha 73.653158
_cell_angle_beta 44.267367
_cell_angle_gamma 41.162451
_cell_volume 587.191725
_symmetry_space_group_name_H-M "P -1"
_symmetry_group_IT_number 2
_symmetry_cell_setting 'triclinic'
loop_
_space_group_symop_operation_xyz
x,y,z
-x,-y,-z
loop_
_atom_site_type_symbol
_atom_site_label
_atom_site_fract_x
_atom_site_fract_y
_atom_site_fract_z
Si Si1 0.538031 0.861814 0.294391
Si Si2 0.839735 0.755141 0.194278
Si Si3 0.031617 0.867086 0.326130
Si Si4 0.171735 0.567112 0.087709
Si Si5 0.500000 0.500000 0.500000
Si Si6 0.803952 0.341964 0.441758
Si Si7 0.574335 0.232214 0.231565
Si Si8 0.519682 0.198457 0.951634
O O1 0.764591 0.734105 0.149752
O O2 0.444175 0.820950 0.539172
O O3 0.541824 0.847102 0.086578
O O4 0.371512 0.062397 0.490543
O O5 0.006307 0.606203 0.187383
O O6 0.974620 0.759561 0.911405
O O7 0.123685 0.767218 0.433228
O O8 0.055871 0.748608 0.230866
O O9 0.200827 0.845555 0.039078
O O10 0.770624 0.067174 0.606676
O O11 0.352171 0.494786 0.737440
O O12 0.311125 0.414136 0.111437
O O13 0.661650 0.362488 0.506873
O O14 0.627868 0.551851 0.623070
O O15 0.555297 0.165883 0.127126
#
# Coordination Sequence:
#
# PCOD9098553 Si02
#       8
#     2   2   2   2   1   2   2   2
#     4  11  25  48  70 103 137 186 242 286 348 412
#     4  10  24  48  72  95 141 184 235 299 341 408
#     4  12  24  44  65 106 148 175 225 287 350 416
#     4  11  22  42  68  99 136 184 228 281 353 407
#     4  10  20  36  68  96 130 186 224 268 348 412
#     4  11  22  42  70 100 141 183 226 285 350 405
#     4  12  25  43  69 105 143 180 230 289 344 426
#     4  12  26  43  69 106 138 186 236 279 351 421
#
# _framework density 25.545318999999999
#
# number of rings (size 3 to 8) (size 9 to 14) (size 15 to 20)
#    0.000    0.800    4.000    4.000    0.000    4.800 
#    2.400    3.333    0.000    0.000    0.000    0.000 
#    0.000    0.000    0.000    0.000    0.000    0.000 
#
# Total GULP energy -83642.401633 kJ/mol
# GULP energy per Si atom -5576.160109 kJ/mol
# Density = 2.548718 g / cm^3
# Si number density = 25.545319 Si / 1000 Ang^3
#
#
#
# Elastic Constant Matrix: (Units=GPa)
#
#
# Indices 1 2 3 4 5 6 
#
# 1 404.3210 96.7508 61.4856 42.4923 8.3411 20.6600
# 2 96.7508 93.5783 21.8564 20.8150 -4.7738 5.8884
# 3 61.4856 21.8564 44.9597 16.6653 -5.8368 6.5216
# 4 42.4923 20.8150 16.6653 28.1353 -3.8548 3.7271
# 5 8.3411 -4.7738 -5.8368 -3.8548 31.5707 13.6398
# 6 20.6600 5.8884 6.5216 3.7271 13.6398 49.0010
#
#
#
# Elastic Compliance Matrix: (Units=1/GPa)
#
#
# Indices 1 2 3 4 5 6 
#
# 1 0.003989 -0.002956 -0.003566 -0.002051 -0.002398 -0.000029
# 2 -0.002956 0.015450 -0.000782 -0.006050 0.002562 -0.000759
# 3 -0.003566 -0.000782 0.033619 -0.012437 0.007224 -0.003942
# 4 -0.002051 -0.006050 -0.012437 0.051337 0.004410 -0.001885
# 5 -0.002398 0.002562 0.007224 0.004410 0.039587 -0.011613
# 6 -0.000029 -0.000759 -0.003942 -0.001885 -0.011613 0.024412
#
#
# Mechanical properties :
#
#
# Convention : Reuss Voigt Hill
#
# Bulk Modulus (GPa) = 26.00856 100.33829 63.17343
# Shear Modulus (GPa) = 25.53390 45.92583 35.72986
#
# Velocity S-wave (km/s) = 3.16500 4.24467 3.74396
# Velocity P-wave (km/s) = 4.85384 7.96158 6.59342
#
# Compressibility (1/GPa) = 0.03844888
#
# Stress axis : x y z
#
# Youngs Moduli (GPa) = 250.66540 64.72642 29.74549
#
# Poissons Ratio (x) = 0.19134 0.10606
# Poissons Ratio (y) = 0.74102 0.02327
# Poissons Ratio (z) = 0.89379 0.05065
#
# Static dielectric constant tensor:
#      x y z
#    x 2.079150 -0.020970 0.081220 
#    y -0.020970 2.063000 0.034710 
#    z 0.081220 0.034710 2.053530 
# 
# From -- ./inp_files/315052.got.cif
#   From: 2010.05.17/outbox.cif.g08.bks.cpg/sg2_158_cif.got.tgz:315052.got - 2010.06.03 11:33:40.
