data_PCOD9098514
_publ_section_title
;
Structure prediction by ZEFSAII (Michael W. Deem and Ramdas Pophale) SiO2 
 PCOD9098514
Probable space group: P -1
;
_chemical_formula_sum "Si O2"
_cell_formula_units_Z 14
_cell_length_a 7.994878
_cell_length_b 24.593249
_cell_length_c 9.037607
_cell_angle_alpha 150.884147
_cell_angle_beta 46.081119
_cell_angle_gamma 140.791991
_cell_volume 545.762618
_symmetry_space_group_name_H-M "P -1"
_symmetry_group_IT_number 2
_symmetry_cell_setting 'triclinic'
loop_
_space_group_symop_operation_xyz
x,y,z
-x,-y,-z
loop_
_atom_site_type_symbol
_atom_site_label
_atom_site_fract_x
_atom_site_fract_y
_atom_site_fract_z
Si Si1 0.133464 0.301726 0.619711
Si Si2 0.668595 0.782752 0.458865
Si Si3 0.142463 0.938169 0.944206
Si Si4 0.635694 0.003560 0.579490
Si Si5 0.845017 0.221609 0.162457
Si Si6 0.459515 0.738749 0.147732
Si Si7 0.786747 0.532784 0.295335
O O1 0.233806 0.306875 0.735488
O O2 0.297606 0.411922 0.663093
O O3 0.096725 0.169300 0.258029
O O4 0.832682 0.278940 0.746982
O O5 0.410638 0.760610 0.659091
O O6 0.550066 0.754862 0.301086
O O7 0.869750 0.934074 0.710703
O O8 0.407768 0.979111 0.782928
O O9 0.180729 0.871427 0.906714
O O10 0.661224 0.874550 0.273760
O O11 0.500000 0.000000 0.500000
O O12 0.863836 0.144240 0.825170
O O13 0.063549 0.357094 0.413447
O O14 0.415500 0.597575 0.808845
O O15 0.000000 0.500000 0.000000
#
# Coordination Sequence:
#
# PCOD9098514 Si02
#       7
#     2   2   2   2   2   2   2
#     4   9  18  25  45  77  98 122 156 193 239 286
#     4  11  15  26  50  72  98 127 152 194 242 278
#     4   9  16  31  46  72 101 117 158 203 236 280
#     4  10  18  30  52  73  91 128 168 194 233 287
#     4  10  16  31  52  70  97 129 154 197 243 279
#     4  10  18  33  45  69 105 123 153 201 237 279
#     4   9  16  31  45  70 106 122 148 203 238 277
#
# _framework density 25.652177999999999
#
# number of rings (size 3 to 8) (size 9 to 14) (size 15 to 20)
#    0.000    2.286    7.143    1.286    0.000    0.571 
#    0.000    0.714    0.000    3.429    0.000    4.000 
#    0.000    0.000    0.000    0.000    0.000    0.000 
#
# Total GULP energy -78197.421860 kJ/mol
# GULP energy per Si atom -5585.530133 kJ/mol
# Density = 2.559379 g / cm^3
# Si number density = 25.652178 Si / 1000 Ang^3
#
#
#
# Elastic Constant Matrix: (Units=GPa)
#
#
# Indices 1 2 3 4 5 6 
#
# 1 152.5090 48.4063 38.2009 6.9223 0.6668 -32.8580
# 2 48.4063 77.2925 53.6672 25.0514 -2.2067 -14.2994
# 3 38.2009 53.6672 151.2375 36.1650 18.8110 -13.4035
# 4 6.9223 25.0514 36.1650 46.9482 3.5537 -10.6610
# 5 0.6668 -2.2067 18.8110 3.5537 22.6337 -4.3793
# 6 -32.8580 -14.2994 -13.4035 -10.6610 -4.3793 36.1756
#
#
#
# Elastic Compliance Matrix: (Units=1/GPa)
#
#
# Indices 1 2 3 4 5 6 
#
# 1 0.010019 -0.005377 -0.000957 0.003846 0.000893 0.007862
# 2 -0.005377 0.023465 -0.006232 -0.007381 0.008977 0.000994
# 3 -0.000957 -0.006232 0.011261 -0.004886 -0.009510 -0.001751
# 4 0.003846 -0.007381 -0.004886 0.030176 -0.000029 0.007655
# 5 0.000893 0.008977 -0.009510 -0.000029 0.054373 0.007409
# 6 0.007862 0.000994 -0.001751 0.007655 0.007409 0.037680
#
#
# Mechanical properties :
#
#
# Convention : Reuss Voigt Hill
#
# Bulk Modulus (GPa) = 50.98438 73.50978 62.24708
# Shear Modulus (GPa) = 25.17083 37.20246 31.18664
#
# Velocity S-wave (km/s) = 3.13587 3.81237 3.49054
# Velocity P-wave (km/s) = 5.74717 6.93523 6.36896
#
# Compressibility (1/GPa) = 0.01961385
#
# Stress axis : x y z
#
# Youngs Moduli (GPa) = 99.81522 42.61714 88.79984
#
# Poissons Ratio (x) = 0.22915 0.08495
# Poissons Ratio (y) = 0.53669 0.55338
# Poissons Ratio (z) = 0.09549 0.26558
#
# Static dielectric constant tensor:
#      x y z
#    x 2.011300 0.124430 -0.030330 
#    y 0.124430 2.119920 -0.010060 
#    z -0.030330 -0.010060 2.126200 
# 
# From -- ./inp_files/199769.got.cif
#   From: 2010.05.17/outbox.cif.g08.bks.cpg/sg2_100_cif.got.tgz:199769.got - 2010.06.03 11:33:40.
