data_PCOD9098006
_publ_section_title
;
Structure prediction by ZEFSAII (Michael W. Deem and Ramdas Pophale) SiO2 
 PCOD9098006
Probable space group: P -1
;
_chemical_formula_sum "Si O2"
_cell_formula_units_Z 16
_cell_length_a 16.891615
_cell_length_b 9.162486
_cell_length_c 8.909042
_cell_angle_alpha 47.643183
_cell_angle_beta 126.910858
_cell_angle_gamma 109.588638
_cell_volume 809.061451
_symmetry_space_group_name_H-M "P -1"
_symmetry_group_IT_number 2
_symmetry_cell_setting 'triclinic'
loop_
_space_group_symop_operation_xyz
x,y,z
-x,-y,-z
loop_
_atom_site_type_symbol
_atom_site_label
_atom_site_fract_x
_atom_site_fract_y
_atom_site_fract_z
Si Si1 0.183108 0.785473 0.199957
Si Si2 0.700133 0.983642 0.586785
Si Si3 0.261733 0.840728 0.809748
Si Si4 0.094894 0.071181 0.638688
Si Si5 0.089514 0.482975 0.494607
Si Si6 0.757804 0.562368 0.043840
Si Si7 0.562899 0.689808 0.621023
Si Si8 0.360096 0.601094 0.343114
O O1 0.257205 0.891081 0.319421
O O2 0.105950 0.679068 0.285203
O O3 0.255873 0.626182 0.295270
O O4 0.125203 0.944947 0.911525
O O5 0.706131 0.093973 0.360975
O O6 0.589975 0.912450 0.522349
O O7 0.767217 0.766134 0.823738
O O8 0.206083 0.642267 0.857898
O O9 0.188473 0.016924 0.674338
O O10 0.345368 0.767900 0.078445
O O11 0.077011 0.301438 0.497671
O O12 0.000000 0.000000 0.500000
O O13 0.189641 0.432598 0.741835
O O14 0.000000 0.500000 0.500000
O O15 0.637298 0.567315 0.909268
O O16 0.449966 0.649065 0.518440
O O17 0.606923 0.602458 0.569635
#
# Coordination Sequence:
#
# PCOD9098006 Si02
#       8
#     2   2   2   2   2   2   2   2
#     4  11  24  41  64  88 120 159 198 246 295 354
#     4  10  20  36  63  86 116 163 195 235 299 345
#     4  10  20  36  63  86 121 157 196 248 290 350
#     4  11  25  41  60  92 118 148 203 250 295 358
#     4  12  25  41  64  88 120 157 198 250 301 352
#     4   9  19  39  58  86 122 154 196 246 289 347
#     4   8  18  36  63  83 125 160 193 242 295 346
#     4   9  19  38  59  90 124 154 199 245 293 346
#
# _framework density 19.776002999999999
#
# number of rings (size 3 to 8) (size 9 to 14) (size 15 to 20)
#    0.750    1.250    2.500    0.750    1.750    3.000 
#    0.000    0.625    0.000    0.000    0.000    0.000 
#    0.000    0.000    0.000    0.000    0.000    0.000 
#
# Total GULP energy -89089.738137 kJ/mol
# GULP energy per Si atom -5568.108634 kJ/mol
# Density = 1.973099 g / cm^3
# Si number density = 19.776003 Si / 1000 Ang^3
#
#
#
# Elastic Constant Matrix: (Units=GPa)
#
#
# Indices 1 2 3 4 5 6 
#
# 1 39.8779 4.8371 4.2583 -4.5595 -7.4230 1.3855
# 2 4.8371 98.0084 1.0408 6.5401 5.2724 6.7135
# 3 4.2583 1.0408 54.0231 20.6682 -8.2316 9.6021
# 4 -4.5595 6.5401 20.6682 39.4647 2.5701 8.3332
# 5 -7.4230 5.2724 -8.2316 2.5701 22.1046 -0.2799
# 6 1.3855 6.7135 9.6021 8.3332 -0.2799 19.8855
#
#
#
# Elastic Compliance Matrix: (Units=1/GPa)
#
#
# Indices 1 2 3 4 5 6 
#
# 1 0.027709 -0.001965 -0.002277 0.004591 0.008367 -0.001974
# 2 -0.001965 0.010767 0.000656 -0.001487 -0.002852 -0.003232
# 3 -0.002277 0.000656 0.026734 -0.013549 0.010519 -0.007146
# 4 0.004591 -0.001487 -0.013549 0.035429 -0.007373 -0.008226
# 5 0.008367 -0.002852 0.010519 -0.007373 0.053493 -0.000857
# 6 -0.001974 -0.003232 -0.007146 -0.008226 -0.000857 0.058402
#
#
# Mechanical properties :
#
#
# Convention : Reuss Voigt Hill
#
# Bulk Modulus (GPa) = 17.22976 23.57575 20.40275
# Shear Modulus (GPa) = 20.91598 28.40919 24.66259
#
# Velocity S-wave (km/s) = 3.25567 3.79429 3.53526
# Velocity P-wave (km/s) = 4.78162 5.58058 5.19648
#
# Compressibility (1/GPa) = 0.05803913
#
# Stress axis : x y z
#
# Youngs Moduli (GPa) = 36.08938 92.87450 37.40564
#
# Poissons Ratio (x) = 0.18246 0.08518
# Poissons Ratio (y) = 0.07090 -0.02455
# Poissons Ratio (z) = 0.08218 -0.06095
#
# Static dielectric constant tensor:
#      x y z
#    x 1.701130 -0.005690 0.022540 
#    y -0.005690 1.739780 0.002290 
#    z 0.022540 0.002290 1.717050 
# 
# From -- ./inp_files/328511.got.cif
#   From: 2010.05.17/outbox.cif.g08.bks.cpg/sg2_165_cif.got.tgz:328511.got - 2010.06.03 11:33:40.
