data_PCOD9098776
_publ_section_title
;
Structure prediction by ZEFSAII (Michael W. Deem and Ramdas Pophale) SiO2 
 PCOD9098776
Probable space group: P -1
;
_chemical_formula_sum "Si O2"
_cell_formula_units_Z 16
_cell_length_a 16.585892
_cell_length_b 7.924802
_cell_length_c 7.246470
_cell_angle_alpha 124.061860
_cell_angle_beta 54.979375
_cell_angle_gamma 127.995608
_cell_volume 582.288707
_symmetry_space_group_name_H-M "P -1"
_symmetry_group_IT_number 2
_symmetry_cell_setting 'triclinic'
loop_
_space_group_symop_operation_xyz
x,y,z
-x,-y,-z
loop_
_atom_site_type_symbol
_atom_site_label
_atom_site_fract_x
_atom_site_fract_y
_atom_site_fract_z
Si Si1 0.239150 0.763273 0.744320
Si Si2 0.657176 0.737624 0.238199
Si Si3 0.979980 0.787774 0.673115
Si Si4 0.082515 0.878497 0.212962
Si Si5 0.288122 0.139523 0.347217
Si Si6 0.180685 0.677573 0.375581
Si Si7 0.540553 0.170399 0.332506
Si Si8 0.473445 0.714175 0.999874
O O1 0.221817 0.647167 0.500681
O O2 0.338138 0.743976 0.702772
O O3 0.273948 0.025954 0.804858
O O4 0.132765 0.712255 0.973914
O O5 0.537475 0.728162 0.423291
O O6 0.628593 0.528817 0.011628
O O7 0.702712 0.743868 0.391604
O O8 0.961134 0.012875 0.825713
O O9 0.882680 0.576786 0.769304
O O10 0.089520 0.774078 0.589431
O O11 0.993397 0.759296 0.415918
O O12 0.182402 0.078923 0.320304
O O13 0.270650 0.883222 0.270220
O O14 0.402446 0.260910 0.164272
O O15 0.543304 0.218035 0.142519
O O16 0.479839 0.896569 0.254746
#
# Coordination Sequence:
#
# PCOD9098776 Si02
#       8
#     2   2   2   2   2   2   2   2
#     4  11  22  38  54  89 115 147 191 242 275 341
#     4  10  22  38  57  84 123 158 192 233 282 329
#     4   9  20  40  59  83 104 152 180 235 303 342
#     4  10  20  37  60  81 116 140 191 235 287 345
#     4   9  17  36  57  79 114 151 187 234 273 337
#     4   9  20  37  60  80 112 144 186 235 292 344
#     4  10  20  37  57  83 119 157 191 238 281 325
#     4  10  20  37  59  83 116 165 194 229 280 336
#
# _framework density 27.477778000000001
#
# number of rings (size 3 to 8) (size 9 to 14) (size 15 to 20)
#    0.000    2.250    1.250    1.875    0.000    3.500 
#    9.000    0.000    0.000    0.000    0.000    0.000 
#    0.000    0.000    0.000    0.000    0.000    0.000 
#
# Total GULP energy -89488.957484 kJ/mol
# GULP energy per Si atom -5593.059843 kJ/mol
# Density = 2.741524 g / cm^3
# Si number density = 27.477778 Si / 1000 Ang^3
#
#
#
# Elastic Constant Matrix: (Units=GPa)
#
#
# Indices 1 2 3 4 5 6 
#
# 1 126.8697 -13.3820 16.1967 -2.8367 10.1663 -6.1506
# 2 -13.3820 91.9405 2.0857 10.2491 2.1643 10.6649
# 3 16.1967 2.0857 72.3496 -1.0561 -15.8254 0.2211
# 4 -2.8367 10.2491 -1.0561 28.9806 10.3690 4.1266
# 5 10.1663 2.1643 -15.8254 10.3690 26.8133 -8.1905
# 6 -6.1506 10.6649 0.2211 4.1266 -8.1905 33.5237
#
#
#
# Elastic Compliance Matrix: (Units=1/GPa)
#
#
# Indices 1 2 3 4 5 6 
#
# 1 0.009065 0.001335 -0.003558 0.002913 -0.007019 -0.000811
# 2 0.001335 0.011893 -0.001153 -0.002799 -0.002202 -0.003724
# 3 -0.003558 -0.001153 0.017906 -0.005325 0.015287 0.003986
# 4 0.002913 -0.002799 -0.005325 0.045978 -0.024946 -0.010294
# 5 -0.007019 -0.002202 0.015287 -0.024946 0.064333 0.018100
# 6 -0.000811 -0.003724 0.003986 -0.010294 0.018100 0.036529
#
#
# Mechanical properties :
#
#
# Convention : Reuss Voigt Hill
#
# Bulk Modulus (GPa) = 31.14138 33.44007 32.29073
# Shear Modulus (GPa) = 24.61119 36.94748 30.77933
#
# Velocity S-wave (km/s) = 2.99603 3.67090 3.35050
# Velocity P-wave (km/s) = 4.82972 5.49214 5.17155
#
# Compressibility (1/GPa) = 0.03211161
#
# Stress axis : x y z
#
# Youngs Moduli (GPa) = 110.30938 84.08355 55.84874
#
# Poissons Ratio (x) = -0.11224 0.19873
# Poissons Ratio (y) = -0.14725 0.06438
# Poissons Ratio (z) = 0.39251 0.09692
#
# Static dielectric constant tensor:
#      x y z
#    x 2.135920 -0.056340 -0.019440 
#    y -0.056340 2.211360 0.044020 
#    z -0.019440 0.044020 2.155950 
# 
# From -- ./inp_files/203795.got.cif
#   From: 2010.05.17/outbox.cif.g08.bks.cpg/sg2_102_cif.got.tgz:203795.got - 2010.06.03 11:33:40.
