data_PCOD9098498
_publ_section_title
;
Structure prediction by ZEFSAII (Michael W. Deem and Ramdas Pophale) SiO2 
 PCOD9098498
Probable space group: P -1
;
_chemical_formula_sum "Si O2"
_cell_formula_units_Z 16
_cell_length_a 12.995589
_cell_length_b 9.511460
_cell_length_c 10.815699
_cell_angle_alpha 45.702070
_cell_angle_beta 63.589803
_cell_angle_gamma 47.798840
_cell_volume 708.071802
_symmetry_space_group_name_H-M "P -1"
_symmetry_group_IT_number 2
_symmetry_cell_setting 'triclinic'
loop_
_space_group_symop_operation_xyz
x,y,z
-x,-y,-z
loop_
_atom_site_type_symbol
_atom_site_label
_atom_site_fract_x
_atom_site_fract_y
_atom_site_fract_z
Si Si1 0.662561 0.220490 0.583465
Si Si2 0.058739 0.240832 0.266241
Si Si3 0.636174 0.568898 0.192703
Si Si4 0.858243 0.330731 0.519616
Si Si5 0.037154 0.245200 0.977315
Si Si6 0.528868 0.977647 0.162077
Si Si7 0.752198 0.859581 0.281554
Si Si8 0.132270 0.909869 0.769114
O O1 0.590305 0.431290 0.390746
O O2 0.726030 0.311426 0.596335
O O3 0.580465 0.098012 0.730995
O O4 0.810118 0.990007 0.600501
O O5 0.069949 0.212678 0.128404
O O6 0.917706 0.294327 0.369798
O O7 0.053548 0.471914 0.162886
O O8 0.653001 0.745635 0.162726
O O9 0.766789 0.346068 0.192722
O O10 0.530781 0.771684 0.026854
O O11 0.816811 0.582254 0.439627
O O12 0.994658 0.122275 0.643555
O O13 0.941126 0.155418 0.049353
O O14 0.169383 0.131456 0.888026
O O15 0.592714 0.976611 0.258546
O O16 0.780465 0.990132 0.291449
#
# Coordination Sequence:
#
# PCOD9098498 Si02
#       8
#     2   2   2   2   2   2   2   2
#     4  12  21  41  71  99 130 172 219 285 339 380
#     4  10  20  36  67 103 130 154 221 289 330 385
#     4  11  25  42  70  98 129 175 230 279 324 387
#     4  11  22  39  68 102 131 166 219 278 339 391
#     4  10  22  36  65 100 129 170 212 274 346 387
#     4  11  27  44  65  99 135 176 230 275 322 394
#     4  11  26  44  62  94 144 177 214 270 328 410
#     4  12  23  43  68  97 134 177 215 269 345 402
#
# _framework density 22.596578000000001
#
# number of rings (size 3 to 8) (size 9 to 14) (size 15 to 20)
#    0.000    1.000    3.750    3.000    7.000    0.500 
#    0.000    0.625    0.000    0.000    0.000    0.000 
#    0.000    0.000    0.000    0.000    0.000    0.000 
#
# Total GULP energy -89180.996726 kJ/mol
# GULP energy per Si atom -5573.812295 kJ/mol
# Density = 2.254515 g / cm^3
# Si number density = 22.596578 Si / 1000 Ang^3
#
#
#
# Elastic Constant Matrix: (Units=GPa)
#
#
# Indices 1 2 3 4 5 6 
#
# 1 143.5011 46.0891 47.3952 -27.3620 -8.5249 14.5863
# 2 46.0891 76.8641 39.7215 -26.0513 4.1672 6.1754
# 3 47.3952 39.7215 126.2311 -49.4288 -1.2806 1.6081
# 4 -27.3620 -26.0513 -49.4288 36.6797 -9.5994 -0.8195
# 5 -8.5249 4.1672 -1.2806 -9.5994 31.9608 -4.6610
# 6 14.5863 6.1754 1.6081 -0.8195 -4.6610 24.2677
#
#
#
# Elastic Compliance Matrix: (Units=1/GPa)
#
#
# Indices 1 2 3 4 5 6 
#
# 1 0.009997 -0.003960 -0.000450 0.005019 0.004086 -0.004017
# 2 -0.003960 0.019198 -0.001076 0.008839 -0.001295 -0.002384
# 3 -0.000450 -0.001076 0.019116 0.027117 0.009217 0.001963
# 4 0.005019 0.008839 0.027117 0.080524 0.025540 0.000562
# 5 0.004086 -0.001295 0.009217 0.025540 0.041476 0.006091
# 6 -0.004017 -0.002384 0.001963 0.000562 0.006091 0.045287
#
#
# Mechanical properties :
#
#
# Convention : Reuss Voigt Hill
#
# Bulk Modulus (GPa) = 26.78052 68.11198 47.44625
# Shear Modulus (GPa) = 20.91915 32.80767 26.86341
#
# Velocity S-wave (km/s) = 3.04594 3.81450 3.45168
# Velocity P-wave (km/s) = 4.92419 7.04333 6.07685
#
# Compressibility (1/GPa) = 0.03734057
#
# Stress axis : x y z
#
# Youngs Moduli (GPa) = 100.03114 52.08905 52.31148
#
# Poissons Ratio (x) = 0.20626 0.02351
# Poissons Ratio (y) = 0.39610 0.05629
# Poissons Ratio (z) = 0.04496 0.05605
#
# Static dielectric constant tensor:
#      x y z
#    x 1.896030 -0.061490 -0.005910 
#    y -0.061490 1.894950 0.057120 
#    z -0.005910 0.057120 1.930630 
# 
# From -- ./inp_files/416304.got.cif
#   From: 2010.05.17/outbox.cif.g08.bks.cpg/sg2_209_cif.got.tgz:416304.got - 2010.06.03 11:33:40.
