data_PCOD9098873
_publ_section_title
;
Structure prediction by ZEFSAII (Michael W. Deem and Ramdas Pophale) SiO2 
 PCOD9098873
Probable space group: P -1
;
_chemical_formula_sum "Si O2"
_cell_formula_units_Z 14
_cell_length_a 11.147247
_cell_length_b 6.428316
_cell_length_c 14.806622
_cell_angle_alpha 64.736746
_cell_angle_beta 47.484611
_cell_angle_gamma 62.436233
_cell_volume 682.655677
_symmetry_space_group_name_H-M "P -1"
_symmetry_group_IT_number 2
_symmetry_cell_setting 'triclinic'
loop_
_space_group_symop_operation_xyz
x,y,z
-x,-y,-z
loop_
_atom_site_type_symbol
_atom_site_label
_atom_site_fract_x
_atom_site_fract_y
_atom_site_fract_z
Si Si1 0.428511 0.190365 0.394073
Si Si2 0.211993 0.238610 0.942929
Si Si3 0.015302 0.082319 0.838761
Si Si4 0.728269 0.543447 0.938720
Si Si5 0.519597 0.786657 0.837181
Si Si6 0.246414 0.662535 0.722979
Si Si7 0.315487 0.277958 0.622211
O O1 0.388222 0.240204 0.301120
O O2 0.588280 0.291648 0.321956
O O3 0.293473 0.281123 0.524820
O O4 0.503892 0.905716 0.418759
O O5 0.189582 0.473853 0.851382
O O6 0.389435 0.046705 0.866218
O O7 0.214957 0.325754 0.029177
O O8 0.071148 0.091987 0.028573
O O9 0.874480 0.331242 0.859379
O O10 0.182638 0.162822 0.763340
O O11 0.097082 0.903687 0.748461
O O12 0.642911 0.727698 0.870586
O O13 0.591355 0.406509 0.067906
O O14 0.294880 0.532627 0.628132
#
# Coordination Sequence:
#
# PCOD9098873 Si02
#       7
#     2   2   2   2   2   2   2
#     4  10  20  37  58  82 107 144 185 226 270 315
#     4  11  20  34  57  85 111 140 180 225 278 320
#     4  10  23  35  54  82 115 146 178 215 280 326
#     4  10  21  37  56  80 114 143 181 226 267 324
#     4  10  20  37  58  82 107 144 185 226 270 315
#     4  11  20  34  57  85 111 140 180 225 278 320
#     4  10  21  37  56  80 114 143 181 226 267 324
#
# _framework density 20.508141999999999
#
# number of rings (size 3 to 8) (size 9 to 14) (size 15 to 20)
#    0.000    1.714    2.857    2.143    0.000    1.143 
#    0.000    0.714    0.000    1.714    0.000    0.000 
#    0.000    0.000    0.000    0.000    0.000    0.000 
#
# Total GULP energy -78064.237904 kJ/mol
# GULP energy per Si atom -5576.016993 kJ/mol
# Density = 2.046146 g / cm^3
# Si number density = 20.508142 Si / 1000 Ang^3
#
#
#
# Elastic Constant Matrix: (Units=GPa)
#
#
# Indices 1 2 3 4 5 6 
#
# 1 67.8877 37.5790 44.2410 3.7106 14.7398 13.1691
# 2 37.5790 109.7902 41.3249 22.7850 12.8034 8.6312
# 3 44.2410 41.3249 97.0958 12.2603 21.0115 5.5208
# 4 3.7106 22.7850 12.2603 33.5052 10.9563 0.2923
# 5 14.7398 12.8034 21.0115 10.9563 36.7551 -3.5469
# 6 13.1691 8.6312 5.5208 0.2923 -3.5469 29.3133
#
#
#
# Elastic Compliance Matrix: (Units=1/GPa)
#
#
# Indices 1 2 3 4 5 6 
#
# 1 0.026191 -0.005592 -0.008393 0.006183 -0.006507 -0.009388
# 2 -0.005592 0.013527 -0.002412 -0.008098 0.001248 -0.000785
# 3 -0.008393 -0.002412 0.016308 -0.001950 -0.004450 0.000890
# 4 0.006183 -0.008098 -0.001950 0.038750 -0.010254 -0.001653
# 5 -0.006507 0.001248 -0.004450 -0.010254 0.035737 0.007820
# 6 -0.009388 -0.000785 0.000890 -0.001653 0.007820 0.039358
#
#
# Mechanical properties :
#
#
# Convention : Reuss Voigt Hill
#
# Bulk Modulus (GPa) = 43.04239 57.89596 50.46917
# Shear Modulus (GPa) = 23.76337 30.02330 26.89333
#
# Velocity S-wave (km/s) = 3.40770 3.83034 3.62518
# Velocity P-wave (km/s) = 6.04291 6.91766 6.49503
#
# Compressibility (1/GPa) = 0.02323291
#
# Stress axis : x y z
#
# Youngs Moduli (GPa) = 38.18146 73.92604 61.31847
#
# Poissons Ratio (x) = 0.41339 0.51462
# Poissons Ratio (y) = 0.21351 0.14791
# Poissons Ratio (z) = 0.32044 0.17832
#
# Static dielectric constant tensor:
#      x y z
#    x 1.724370 0.032140 -0.013500 
#    y 0.032140 1.743280 0.016110 
#    z -0.013500 0.016110 1.810470 
# 
# From -- ./inp_files/63517.got.cif
#   From: 2010.05.17/outbox.cif.g08.bks.cpg/sg2_32_cif.got.tgz:63517.got - 2010.06.03 11:33:40.
