data_PCOD9098697
_publ_section_title
;
Structure prediction by ZEFSAII (Michael W. Deem and Ramdas Pophale) SiO2 
 PCOD9098697
Probable space group: P -1
;
_chemical_formula_sum "Si O2"
_cell_formula_units_Z 16
_cell_length_a 15.807914
_cell_length_b 14.375576
_cell_length_c 14.987010
_cell_angle_alpha 29.788789
_cell_angle_beta 153.546116
_cell_angle_gamma 150.727140
_cell_volume 680.270925
_symmetry_space_group_name_H-M "P -1"
_symmetry_group_IT_number 2
_symmetry_cell_setting 'triclinic'
loop_
_space_group_symop_operation_xyz
x,y,z
-x,-y,-z
loop_
_atom_site_type_symbol
_atom_site_label
_atom_site_fract_x
_atom_site_fract_y
_atom_site_fract_z
Si Si1 0.564985 0.856037 0.119491
Si Si2 0.831310 0.568899 0.936072
Si Si3 0.221404 0.301941 0.756779
Si Si4 0.780364 0.798257 0.965291
Si Si5 0.587173 0.002853 0.307613
Si Si6 0.544783 0.707007 0.653595
Si Si7 0.001155 0.030386 0.325442
Si Si8 0.887533 0.440108 0.285052
O O1 0.374957 0.623553 0.137906
O O2 0.811297 0.903356 0.321505
O O3 0.500000 0.000000 0.000000
O O4 0.553228 0.941918 0.938408
O O5 0.751377 0.717016 0.791767
O O6 0.970842 0.732601 0.857196
O O7 0.928410 0.486819 0.177167
O O8 0.286512 0.245744 0.959021
O O9 0.412190 0.464177 0.745328
O O10 0.082587 0.431886 0.527223
O O11 0.084690 0.104325 0.733749
O O12 0.820438 0.604892 0.128455
O O13 0.611237 0.811529 0.725742
O O14 0.000000 0.000000 0.000000
O O15 0.460226 0.817249 0.410238
O O16 0.766699 0.966561 0.449765
O O17 0.708280 0.206992 0.311363
#
# Coordination Sequence:
#
# PCOD9098697 Si02
#       8
#     2   2   2   2   2   2   2   2
#     4  11  23  40  65  94 120 153 201 253 301 367
#     4   9  19  39  60  84 121 158 197 242 298 369
#     4  11  20  34  59  86 112 160 205 242 298 346
#     4  11  21  36  54  81 122 158 201 248 295 341
#     4   9  21  41  61  87 121 157 202 244 301 369
#     4  10  20  37  56  83 117 155 200 244 289 359
#     4  10  21  40  64  85 123 166 194 244 315 350
#     4   9  19  35  56  81 115 160 196 246 294 346
#
# _framework density 23.520042
#
# number of rings (size 3 to 8) (size 9 to 14) (size 15 to 20)
#    0.000    2.000    1.250    3.750    1.750    1.000 
#    0.000    3.750    0.000    0.000    0.000    0.000 
#    0.000    0.000    0.000    0.000    0.000    0.000 
#
# Total GULP energy -89255.178025 kJ/mol
# GULP energy per Si atom -5578.448627 kJ/mol
# Density = 2.346651 g / cm^3
# Si number density = 23.520042 Si / 1000 Ang^3
#
#
#
# Elastic Constant Matrix: (Units=GPa)
#
#
# Indices 1 2 3 4 5 6 
#
# 1 33.8215 17.9516 -3.8508 -7.1301 15.9123 2.9769
# 2 17.9516 134.8829 7.4105 -23.2298 -4.6211 25.4460
# 3 -3.8508 7.4105 52.9862 -1.6212 -0.5313 10.4858
# 4 -7.1301 -23.2298 -1.6212 34.1242 5.3338 -1.2883
# 5 15.9123 -4.6211 -0.5313 5.3338 23.3475 -3.2361
# 6 2.9769 25.4460 10.4858 -1.2883 -3.2361 26.1151
#
#
#
# Elastic Compliance Matrix: (Units=1/GPa)
#
#
# Indices 1 2 3 4 5 6 
#
# 1 0.058972 -0.005335 0.006877 0.015858 -0.045990 -0.009202
# 2 -0.005335 0.010955 0.000152 0.005486 0.003244 -0.009455
# 3 0.006877 0.000152 0.021393 0.003158 -0.006298 -0.010146
# 4 0.015858 0.005486 0.003158 0.039270 -0.019861 -0.008945
# 5 -0.045990 0.003244 -0.006298 -0.019861 0.081108 0.013681
# 6 -0.009202 -0.009455 -0.010146 -0.008945 0.013681 0.053881
#
#
# Mechanical properties :
#
#
# Convention : Reuss Voigt Hill
#
# Bulk Modulus (GPa) = 10.55888 29.41259 19.98573
# Shear Modulus (GPa) = 17.02069 30.06265 23.54167
#
# Velocity S-wave (km/s) = 2.69303 3.57903 3.16716
# Velocity P-wave (km/s) = 3.76416 5.44167 4.67871
#
# Compressibility (1/GPa) = 0.09470705
#
# Stress axis : x y z
#
# Youngs Moduli (GPa) = 16.95718 91.28122 46.74488
#
# Poissons Ratio (x) = 0.48699 -0.32147
# Poissons Ratio (y) = 0.09047 -0.00708
# Poissons Ratio (z) = -0.11662 -0.01383
#
# Static dielectric constant tensor:
#      x y z
#    x 1.989550 0.076770 -0.003810 
#    y 0.076770 1.913340 0.005390 
#    z -0.003810 0.005390 1.964710 
# 
# From -- ./inp_files/352116.got.cif
#   From: 2010.05.17/outbox.cif.g08.bks.cpg/sg2_177_cif.got.tgz:352116.got - 2010.06.03 11:33:40.
