data_PCOD9098911
_publ_section_title
;
Structure prediction by ZEFSAII (Michael W. Deem and Ramdas Pophale) SiO2 
 PCOD9098911
Probable space group: P -1
;
_chemical_formula_sum "Si O2"
_cell_formula_units_Z 16
_cell_length_a 10.305946
_cell_length_b 8.755419
_cell_length_c 13.289131
_cell_angle_alpha 133.516416
_cell_angle_beta 89.824470
_cell_angle_gamma 62.152897
_cell_volume 663.000335
_symmetry_space_group_name_H-M "P -1"
_symmetry_group_IT_number 2
_symmetry_cell_setting 'triclinic'
loop_
_space_group_symop_operation_xyz
x,y,z
-x,-y,-z
loop_
_atom_site_type_symbol
_atom_site_label
_atom_site_fract_x
_atom_site_fract_y
_atom_site_fract_z
Si Si1 0.994803 0.754125 0.886835
Si Si2 0.668900 0.832330 0.301828
Si Si3 0.137567 0.180640 0.879488
Si Si4 0.775217 0.333986 0.413927
Si Si5 0.490290 0.262256 0.894825
Si Si6 0.823434 0.662711 0.694516
Si Si7 0.624981 0.672896 0.869787
Si Si8 0.526248 0.399015 0.614633
O O1 0.952615 0.697529 0.754251
O O2 0.166971 0.462189 0.792341
O O3 0.851720 0.845671 0.012682
O O4 0.000000 0.000000 0.000000
O O5 0.704241 0.921617 0.236598
O O6 0.543963 0.789435 0.239372
O O7 0.607325 0.083070 0.487722
O O8 0.092979 0.993741 0.754413
O O9 0.000000 0.500000 0.000000
O O10 0.854928 0.465279 0.514874
O O11 0.641423 0.400846 0.531589
O O12 0.657153 0.458869 0.370646
O O13 0.658346 0.969184 0.801152
O O14 0.500000 0.500000 0.000000
O O15 0.347530 0.368513 0.029783
O O16 0.783414 0.556534 0.744218
O O17 0.535050 0.552219 0.776284
O O18 0.500000 0.000000 0.000000
#
# Coordination Sequence:
#
# PCOD9098911 Si02
#       8
#     2   2   2   2   2   2   2   2
#     4  11  23  39  57  81 116 154 189 234 285 335
#     4  10  20  39  58  82 116 151 188 230 284 339
#     4   9  20  36  59  85 106 153 192 229 277 340
#     4   9  17  32  60  86 114 143 186 236 283 332
#     4  11  21  35  55  85 117 146 187 236 281 329
#     4  10  20  37  58  85 108 150 195 229 279 334
#     4   9  20  33  57  89 111 141 189 238 271 337
#     4   9  17  33  58  88 114 144 181 237 289 325
#
# _framework density 24.132718000000001
#
# number of rings (size 3 to 8) (size 9 to 14) (size 15 to 20)
#    0.000    2.250    1.250    1.500    8.750    0.000 
#    0.000   15.000    0.000    0.000    0.000    0.000 
#    0.000    0.000    0.000    0.000    0.000    0.000 
#
# Total GULP energy -89353.922373 kJ/mol
# GULP energy per Si atom -5584.620148 kJ/mol
# Density = 2.407779 g / cm^3
# Si number density = 24.132718 Si / 1000 Ang^3
#
#
#
# Elastic Constant Matrix: (Units=GPa)
#
#
# Indices 1 2 3 4 5 6 
#
# 1 55.6831 61.4489 43.4512 -6.7498 39.5715 2.5882
# 2 61.4489 28.5358 91.1006 1.0414 2.9017 -18.2349
# 3 43.4512 91.1006 192.8690 1.1126 61.3020 3.2287
# 4 -6.7498 1.0414 1.1126 51.5353 3.0740 1.2088
# 5 39.5715 2.9017 61.3020 3.0740 53.2263 -11.5681
# 6 2.5882 -18.2349 3.2287 1.2088 -11.5681 36.6161
#
#
#
# Elastic Compliance Matrix: (Units=1/GPa)
#
#
# Indices 1 2 3 4 5 6 
#
# 1 0.009602 0.011145 -0.008736 0.000838 0.003744 0.006797
# 2 0.011145 -0.003110 0.003430 0.002434 -0.013742 -0.007061
# 3 -0.008736 0.003430 0.005243 -0.001427 0.000824 0.002171
# 4 0.000838 0.002434 -0.001427 0.019488 -0.000107 0.000601
# 5 0.003744 -0.013742 0.000824 -0.000107 0.015301 -0.002343
# 6 0.006797 -0.007061 0.002171 0.000601 -0.002343 0.022362
#
#
# Mechanical properties :
#
#
# Convention : Reuss Voigt Hill
#
# Bulk Modulus (GPa) = 42.71214 74.34323 58.52769
# Shear Modulus (GPa) = 76.90940 33.68135 55.29538
#
# Velocity S-wave (km/s) = 5.65142 3.73992 4.79195
# Velocity P-wave (km/s) = 7.76672 7.03720 7.41094
#
# Compressibility (1/GPa) = 0.02341255
#
# Stress axis : x y z
#
# Youngs Moduli (GPa) = 104.14494 -321.50875 190.74229
#
# Poissons Ratio (x) = 3.58313 1.66632
# Poissons Ratio (y) = -1.16067 -0.65431
# Poissons Ratio (z) = 0.90981 1.10289
#
# Static dielectric constant tensor:
#      x y z
#    x 2.229420 0.198790 -0.010650 
#    y 0.198790 1.993790 -0.040950 
#    z -0.010650 -0.040950 1.935950 
# 
# From -- ./inp_files/281923.got.cif
#   From: 2010.05.17/outbox.cif.g08.bks.cpg/sg2_141_cif.got.tgz:281923.got - 2010.06.03 11:33:40.
