data_PCOD9098632
_publ_section_title
;
Structure prediction by ZEFSAII (Michael W. Deem and Ramdas Pophale) SiO2 
 PCOD9098632
Probable space group: P -1
;
_chemical_formula_sum "Si O2"
_cell_formula_units_Z 16
_cell_length_a 15.850040
_cell_length_b 15.399934
_cell_length_c 8.200988
_cell_angle_alpha 94.445688
_cell_angle_beta 116.276199
_cell_angle_gamma 30.734806
_cell_volume 688.180091
_symmetry_space_group_name_H-M "P -1"
_symmetry_group_IT_number 2
_symmetry_cell_setting 'triclinic'
loop_
_space_group_symop_operation_xyz
x,y,z
-x,-y,-z
loop_
_atom_site_type_symbol
_atom_site_label
_atom_site_fract_x
_atom_site_fract_y
_atom_site_fract_z
Si Si1 0.627414 0.799552 0.622664
Si Si2 0.206617 0.984253 0.980768
Si Si3 0.036113 0.865924 0.541235
Si Si4 0.282821 0.571871 0.219632
Si Si5 0.533316 0.409511 0.755259
Si Si6 0.631275 0.117252 0.399477
Si Si7 0.860303 0.655297 0.142593
Si Si8 0.531373 0.103908 0.980031
O O1 0.433102 0.888209 0.501878
O O2 0.847914 0.590628 0.656541
O O3 0.500000 0.000000 0.500000
O O4 0.762886 0.695249 0.897652
O O5 0.437756 0.847254 0.119476
O O6 0.282560 0.824606 0.081612
O O7 0.079430 0.078730 0.710722
O O8 0.001138 0.199281 0.953092
O O9 0.321234 0.599405 0.736486
O O10 0.000000 0.000000 0.500000
O O11 0.882748 0.957167 0.573679
O O12 0.408388 0.489592 0.488421
O O13 0.335866 0.610137 0.159659
O O14 0.417653 0.371652 0.240855
O O15 0.615728 0.068538 0.222205
O O16 0.724946 0.863740 0.064697
O O17 0.737082 0.705782 0.190964
#
# Coordination Sequence:
#
# PCOD9098632 Si02
#       8
#     2   2   2   2   2   2   2   2
#     4  10  21  36  60  88 109 143 184 226 274 330
#     4  10  21  35  57  83 107 143 196 222 273 335
#     4  10  20  38  55  76 114 147 179 230 278 320
#     4  10  20  37  55  76 114 146 184 233 275 321
#     4  10  21  36  56  79 107 151 188 228 277 322
#     4  10  20  37  58  81 112 149 184 224 281 328
#     4   9  19  39  60  78 118 143 176 228 281 325
#     4   9  19  37  58  82 110 150 178 226 280 329
#
# _framework density 23.249727
#
# number of rings (size 3 to 8) (size 9 to 14) (size 15 to 20)
#    0.000    2.250    1.250    1.125    0.000    2.500 
#    0.000    5.625    0.000    0.000    0.000    0.000 
#    0.000    0.000    0.000    0.000    0.000    0.000 
#
# Total GULP energy -89441.881102 kJ/mol
# GULP energy per Si atom -5590.117569 kJ/mol
# Density = 2.319681 g / cm^3
# Si number density = 23.249727 Si / 1000 Ang^3
#
#
#
# Elastic Constant Matrix: (Units=GPa)
#
#
# Indices 1 2 3 4 5 6 
#
# 1 156.1350 28.2517 15.0369 -10.8076 6.4343 -31.8859
# 2 28.2517 109.1172 10.2490 -17.5049 14.0703 -22.9697
# 3 15.0369 10.2490 58.7061 2.4459 9.0753 -21.0471
# 4 -10.8076 -17.5049 2.4459 25.3776 -1.3712 10.2362
# 5 6.4343 14.0703 9.0753 -1.3712 24.2187 -1.0777
# 6 -31.8859 -22.9697 -21.0471 10.2362 -1.0777 36.4242
#
#
#
# Elastic Compliance Matrix: (Units=1/GPa)
#
#
# Indices 1 2 3 4 5 6 
#
# 1 0.007929 -0.000380 0.000889 0.000043 -0.001898 0.007146
# 2 -0.000380 0.012211 0.001060 0.005248 -0.006813 0.006304
# 3 0.000889 0.001060 0.025079 -0.009198 -0.009959 0.018229
# 4 0.000043 0.005248 -0.009198 0.050561 0.002532 -0.016102
# 5 -0.001898 -0.006813 -0.009959 0.002532 0.049140 -0.010971
# 6 0.007146 0.006304 0.018229 -0.016102 -0.010971 0.052419
#
#
# Mechanical properties :
#
#
# Convention : Reuss Voigt Hill
#
# Bulk Modulus (GPa) = 20.67959 47.89260 34.28609
# Shear Modulus (GPa) = 23.77340 35.23215 29.50278
#
# Velocity S-wave (km/s) = 3.20116 3.89701 3.56610
# Velocity P-wave (km/s) = 4.75154 6.39475 5.63338
#
# Compressibility (1/GPa) = 0.04835686
#
# Stress axis : x y z
#
# Youngs Moduli (GPa) = 126.12651 81.89621 39.87342
#
# Poissons Ratio (x) = 0.03114 -0.03546
# Poissons Ratio (y) = 0.04796 -0.04227
# Poissons Ratio (z) = -0.11217 -0.08682
#
# Static dielectric constant tensor:
#      x y z
#    x 1.913030 -0.039660 0.048630 
#    y -0.039660 1.852880 0.042050 
#    z 0.048630 0.042050 1.874330 
# 
# From -- ./inp_files/137947.got.cif
#   From: 2010.05.17/outbox.cif.g08.bks.cpg/sg2_69_cif.got.tgz:137947.got - 2010.06.03 11:33:40.
