data_PCOD9098999
_publ_section_title
;
Structure prediction by ZEFSAII (Michael W. Deem and Ramdas Pophale) SiO2 
 PCOD9098999
Probable space group: P -1
;
_chemical_formula_sum "Si O2"
_cell_formula_units_Z 14
_cell_length_a 6.627683
_cell_length_b 7.169816
_cell_length_c 12.086561
_cell_angle_alpha 113.945117
_cell_angle_beta 98.554129
_cell_angle_gamma 79.635149
_cell_volume 514.512998
_symmetry_space_group_name_H-M "P -1"
_symmetry_group_IT_number 2
_symmetry_cell_setting 'triclinic'
loop_
_space_group_symop_operation_xyz
x,y,z
-x,-y,-z
loop_
_atom_site_type_symbol
_atom_site_label
_atom_site_fract_x
_atom_site_fract_y
_atom_site_fract_z
Si Si1 0.980826 0.693783 0.127260
Si Si2 0.137850 0.510594 0.324554
Si Si3 0.490793 0.275373 0.600131
Si Si4 0.779117 0.097676 0.960441
Si Si5 0.083211 0.234254 0.427511
Si Si6 0.267453 0.978691 0.620858
Si Si7 0.622745 0.088972 0.162108
O O1 0.778787 0.866274 0.131580
O O2 0.011995 0.597034 0.228216
O O3 0.000000 0.500000 0.000000
O O4 0.177415 0.796676 0.125140
O O5 0.374198 0.541206 0.327042
O O6 0.085733 0.291052 0.311772
O O7 0.059731 0.635636 0.460363
O O8 0.304333 0.288308 0.500166
O O9 0.660570 0.111536 0.514040
O O10 0.385689 0.180456 0.673933
O O11 0.689282 0.215672 0.093334
O O12 0.608305 0.950020 0.889428
O O13 0.000000 0.000000 0.000000
O O14 0.975635 0.024852 0.379299
O O15 0.356160 0.834182 0.693589
#
# Coordination Sequence:
#
# PCOD9098999 Si02
#       7
#     2   2   2   2   2   2   2
#     4  11  24  40  62  90 126 167 213 254 308 373
#     4  10  22  39  59  87 127 165 206 254 314 372
#     4  10  20  37  58  91 122 158 209 256 315 373
#     4   9  21  41  63  86 119 159 212 257 309 368
#     4  10  21  38  61  90 124 162 205 256 315 375
#     4  10  21  34  61  92 120 155 209 255 313 376
#     4  10  21  41  63  89 123 164 205 263 313 362
#
# _framework density 27.210194999999999
#
# number of rings (size 3 to 8) (size 9 to 14) (size 15 to 20)
#    0.000    2.000    0.000    2.571    2.000    5.143 
#    5.143    0.000    0.000    0.000    0.000    0.000 
#    0.000    0.000    0.000    0.000    0.000    0.000 
#
# Total GULP energy -78007.410585 kJ/mol
# GULP energy per Si atom -5571.957899 kJ/mol
# Density = 2.714826 g / cm^3
# Si number density = 27.210195 Si / 1000 Ang^3
#
#
#
# Elastic Constant Matrix: (Units=GPa)
#
#
# Indices 1 2 3 4 5 6 
#
# 1 210.5487 61.6004 46.3781 -21.8789 9.1567 43.8007
# 2 61.6004 85.3585 35.5913 -21.1025 -11.1421 22.6994
# 3 46.3781 35.5913 121.4854 -42.1344 -9.1597 5.8329
# 4 -21.8789 -21.1025 -42.1344 52.6485 7.3409 -13.5105
# 5 9.1567 -11.1421 -9.1597 7.3409 57.1327 -15.8188
# 6 43.8007 22.6994 5.8329 -13.5105 -15.8188 54.0358
#
#
#
# Elastic Compliance Matrix: (Units=1/GPa)
#
#
# Indices 1 2 3 4 5 6 
#
# 1 0.007565 -0.003805 -0.002138 -0.001022 -0.003731 -0.005651
# 2 -0.003805 0.017039 -0.002425 0.002314 0.002559 -0.002484
# 3 -0.002138 -0.002425 0.012927 0.009306 0.001922 0.004245
# 4 -0.001022 0.002314 0.009306 0.028469 0.000111 0.006003
# 5 -0.003731 0.002559 0.001922 0.000111 0.021094 0.007944
# 6 -0.005651 -0.002484 0.004245 0.006003 0.007944 0.027498
#
#
# Mechanical properties :
#
#
# Convention : Reuss Voigt Hill
#
# Bulk Modulus (GPa) = 48.08650 78.28134 63.18392
# Shear Modulus (GPa) = 36.16407 51.01824 43.59115
#
# Velocity S-wave (km/s) = 3.64959 4.33479 4.00686
# Velocity P-wave (km/s) = 5.95566 7.34067 6.68414
#
# Compressibility (1/GPa) = 0.02079586
#
# Stress axis : x y z
#
# Youngs Moduli (GPa) = 132.18410 58.68928 77.35944
#
# Poissons Ratio (x) = 0.22332 0.16537
# Poissons Ratio (y) = 0.50298 0.18756
# Poissons Ratio (z) = 0.28257 0.14230
#
# Static dielectric constant tensor:
#      x y z
#    x 2.126870 -0.049510 0.022500 
#    y -0.049510 2.431620 0.060650 
#    z 0.022500 0.060650 2.231810 
# 
# From -- ./inp_files/288755.got.cif
#   From: 2010.05.17/outbox.cif.g08.bks.cpg/sg2_145_cif.got.tgz:288755.got - 2010.06.03 11:33:40.
