data_PCOD9098026
_publ_section_title
;
Structure prediction by ZEFSAII (Michael W. Deem and Ramdas Pophale) SiO2 
 PCOD9098026
Probable space group: P -1
;
_chemical_formula_sum "Si O2"
_cell_formula_units_Z 16
_cell_length_a 9.115766
_cell_length_b 14.331823
_cell_length_c 9.109683
_cell_angle_alpha 72.031311
_cell_angle_beta 86.405495
_cell_angle_gamma 129.892403
_cell_volume 811.359964
_symmetry_space_group_name_H-M "P -1"
_symmetry_group_IT_number 2
_symmetry_cell_setting 'triclinic'
loop_
_space_group_symop_operation_xyz
x,y,z
-x,-y,-z
loop_
_atom_site_type_symbol
_atom_site_label
_atom_site_fract_x
_atom_site_fract_y
_atom_site_fract_z
Si Si1 0.109214 0.965076 0.724312
Si Si2 0.283167 0.925328 0.477578
Si Si3 0.088198 0.266037 0.923389
Si Si4 0.958622 0.611240 0.600018
Si Si5 0.154191 0.976909 0.183591
Si Si6 0.914290 0.367091 0.749885
Si Si7 0.449462 0.185271 0.813769
Si Si8 0.485805 0.554908 0.324924
O O1 0.169533 0.955212 0.566799
O O2 0.321154 0.074573 0.747822
O O3 0.989010 0.011283 0.729817
O O4 0.974476 0.820354 0.885392
O O5 0.278788 0.966473 0.293067
O O6 0.144614 0.763848 0.565017
O O7 0.500000 0.000000 0.500000
O O8 0.328874 0.386742 0.821506
O O9 0.989376 0.155961 0.848753
O O10 0.988600 0.326369 0.886788
O O11 0.959926 0.501754 0.715103
O O12 0.741109 0.560557 0.670002
O O13 0.974550 0.606847 0.423776
O O14 0.308594 0.107346 0.004373
O O15 0.672139 0.243927 0.797883
O O16 0.484930 0.315437 0.709836
O O17 0.500000 0.500000 0.500000
#
# Coordination Sequence:
#
# PCOD9098026 Si02
#       8
#     2   2   2   2   2   2   2   2
#     4  11  23  39  63  91 126 157 203 245 309 363
#     4  12  26  43  61  87 126 165 201 245 310 366
#     4  11  20  38  66  98 116 154 206 256 301 351
#     4  10  22  39  57  91 120 158 202 250 294 364
#     4  11  21  41  62  91 127 154 208 252 295 359
#     4  10  20  36  63  88 124 149 206 249 304 341
#     4  10  21  36  65  95 120 155 202 260 300 347
#     4  11  18  35  63  91 122 151 201 254 297 348
#
# _framework density 19.719978000000001
#
# number of rings (size 3 to 8) (size 9 to 14) (size 15 to 20)
#    0.000    1.250    5.000    1.875    1.750    1.000 
#    0.000    1.250    0.000    0.000    0.000    0.000 
#    0.000    0.000    0.000    0.000    0.000    0.000 
#
# Total GULP energy -89406.934854 kJ/mol
# GULP energy per Si atom -5587.933428 kJ/mol
# Density = 1.967509 g / cm^3
# Si number density = 19.719978 Si / 1000 Ang^3
#
#
#
# Elastic Constant Matrix: (Units=GPa)
#
#
# Indices 1 2 3 4 5 6 
#
# 1 92.7418 29.1391 19.0928 -15.5944 8.3634 11.7055
# 2 29.1391 86.6696 27.2348 -21.9212 3.0845 15.2587
# 3 19.0928 27.2348 59.5443 -7.8627 2.0559 5.5236
# 4 -15.5944 -21.9212 -7.8627 27.5646 -1.1932 -7.0885
# 5 8.3634 3.0845 2.0559 -1.1932 21.4094 -4.1358
# 6 11.7055 15.2587 5.5236 -7.0885 -4.1358 29.5105
#
#
#
# Elastic Compliance Matrix: (Units=1/GPa)
#
#
# Indices 1 2 3 4 5 6 
#
# 1 0.013522 -0.001876 -0.002389 0.004312 -0.005247 -0.003646
# 2 -0.001876 0.017320 -0.005503 0.009767 -0.001669 -0.005069
# 3 -0.002389 -0.005503 0.020083 -0.000007 -0.000202 0.000004
# 4 0.004312 0.009767 -0.000007 0.047733 0.000492 0.004775
# 5 -0.005247 -0.001669 -0.000202 0.000492 0.051025 0.010251
# 6 -0.003646 -0.005069 0.000004 0.004775 0.010251 0.040536
#
#
# Mechanical properties :
#
#
# Convention : Reuss Voigt Hill
#
# Bulk Modulus (GPa) = 31.85816 43.32100 37.58958
# Shear Modulus (GPa) = 22.70460 26.59617 24.65039
#
# Velocity S-wave (km/s) = 3.39684 3.67644 3.53940
# Velocity P-wave (km/s) = 5.61916 6.32751 5.98383
#
# Compressibility (1/GPa) = 0.03138914
#
# Stress axis : x y z
#
# Youngs Moduli (GPa) = 73.95175 57.73528 49.79367
#
# Poissons Ratio (x) = 0.10834 0.11895
# Poissons Ratio (y) = 0.13877 0.27401
# Poissons Ratio (z) = 0.17667 0.31771
#
# Static dielectric constant tensor:
#      x y z
#    x 1.707300 -0.006040 -0.010400 
#    y -0.006040 1.672210 -0.008940 
#    z -0.010400 -0.008940 1.689400 
# 
# From -- ./inp_files/179053.got.cif
#   From: 2010.05.17/outbox.cif.g08.bks.cpg/sg2_90_cif.got.tgz:179053.got - 2010.06.03 11:33:40.
