data_PCOD9098967
_publ_section_title
;
Structure prediction by ZEFSAII (Michael W. Deem and Ramdas Pophale) SiO2 
 PCOD9098967
Probable space group: P -1
;
_chemical_formula_sum "Si O2"
_cell_formula_units_Z 16
_cell_length_a 20.998833
_cell_length_b 11.058603
_cell_length_c 20.200862
_cell_angle_alpha 31.436890
_cell_angle_beta 161.065566
_cell_angle_gamma 137.335683
_cell_volume 719.104046
_symmetry_space_group_name_H-M "P -1"
_symmetry_group_IT_number 2
_symmetry_cell_setting 'triclinic'
loop_
_space_group_symop_operation_xyz
x,y,z
-x,-y,-z
loop_
_atom_site_type_symbol
_atom_site_label
_atom_site_fract_x
_atom_site_fract_y
_atom_site_fract_z
Si Si1 0.800509 0.325277 0.199164
Si Si2 0.251007 0.770556 0.277389
Si Si3 0.319562 0.455455 0.885558
Si Si4 0.276367 0.266048 0.240073
Si Si5 0.986866 0.695948 0.162174
Si Si6 0.153761 0.094796 0.824471
Si Si7 0.024076 0.723770 0.958397
Si Si8 0.832375 0.182765 0.155180
O O1 0.649315 0.505967 0.023512
O O2 0.711961 0.291238 0.056135
O O3 0.968839 0.452149 0.289463
O O4 0.936158 0.040662 0.492970
O O5 0.479607 0.777176 0.496947
O O6 0.075667 0.067528 0.960544
O O7 0.209256 0.623673 0.243597
O O8 0.195693 0.659951 0.341781
O O9 0.300175 0.199679 0.961187
O O10 0.075826 0.672642 0.529733
O O11 0.500000 0.500000 0.000000
O O12 0.204915 0.196884 0.132054
O O13 0.198682 0.146401 0.279433
O O14 0.146193 0.575571 0.969092
O O15 0.085887 0.906910 0.888153
O O16 0.260897 0.945633 0.931375
O O17 0.000000 0.500000 0.000000
#
# Coordination Sequence:
#
# PCOD9098967 Si02
#       8
#     2   2   2   2   2   2   2   2
#     4   9  18  36  64  83 116 160 196 246 305 354
#     4  10  21  36  57  86 118 159 201 248 298 358
#     4  10  22  41  62  90 117 156 201 250 299 357
#     4  10  20  37  58  88 122 155 199 246 299 362
#     4   9  19  37  58  84 119 155 199 248 304 349
#     4  10  21  40  61  85 123 157 200 247 299 356
#     4  11  22  37  58  85 121 161 195 243 300 352
#     4   9  18  37  58  86 119 155 194 247 296 356
#
# _framework density 22.249908000000001
#
# number of rings (size 3 to 8) (size 9 to 14) (size 15 to 20)
#    0.000    2.250    1.250    1.125    0.000    2.500 
#    2.250   11.250    0.000    0.000    0.000    0.000 
#    0.000    0.000    0.000    0.000    0.000    0.000 
#
# Total GULP energy -89232.932934 kJ/mol
# GULP energy per Si atom -5577.058308 kJ/mol
# Density = 2.219927 g / cm^3
# Si number density = 22.249908 Si / 1000 Ang^3
#
#
#
# Elastic Constant Matrix: (Units=GPa)
#
#
# Indices 1 2 3 4 5 6 
#
# 1 155.8809 75.4008 17.5151 11.4925 9.7039 -21.2179
# 2 75.4008 151.5235 28.0626 3.7339 15.9693 -15.9215
# 3 17.5151 28.0626 28.9498 10.4013 2.9733 1.6169
# 4 11.4925 3.7339 10.4013 38.6117 11.4496 0.4660
# 5 9.7039 15.9693 2.9733 11.4496 9.0039 0.9315
# 6 -21.2179 -15.9215 1.6169 0.4660 0.9315 47.2768
#
#
#
# Elastic Compliance Matrix: (Units=1/GPa)
#
#
# Indices 1 2 3 4 5 6 
#
# 1 0.008955 -0.003913 -0.001047 -0.002010 -0.000095 0.002759
# 2 -0.003913 0.015048 -0.013817 0.014164 -0.036373 0.004361
# 3 -0.001047 -0.013817 0.053716 -0.024567 0.039911 -0.007504
# 4 -0.002010 0.014164 -0.024567 0.058204 -0.089466 0.005897
# 5 -0.000095 -0.036373 0.039911 -0.089466 0.278152 -0.018255
# 6 0.002759 0.004361 -0.007504 0.005897 -0.018255 0.024417
#
#
# Mechanical properties :
#
#
# Convention : Reuss Voigt Hill
#
# Bulk Modulus (GPa) = 24.89681 64.25679 44.57680
# Shear Modulus (GPa) = 10.21588 33.33687 21.77637
#
# Velocity S-wave (km/s) = 2.14509 3.87498 3.13184
# Velocity P-wave (km/s) = 4.16523 6.99735 5.75812
#
# Compressibility (1/GPa) = 0.04016578
#
# Stress axis : x y z
#
# Youngs Moduli (GPa) = 111.66783 66.45297 18.61647
#
# Poissons Ratio (x) = 0.26002 0.01950
# Poissons Ratio (y) = 0.43694 0.25722
# Poissons Ratio (z) = 0.11694 0.91816
#
# Static dielectric constant tensor:
#      x y z
#    x 1.895510 -0.058660 -0.003800 
#    y -0.058660 1.837300 -0.025250 
#    z -0.003800 -0.025250 1.813680 
# 
# From -- ./inp_files/118664.got.cif
#   From: 2010.05.17/outbox.cif.g08.bks.cpg/sg2_60_cif.got.tgz:118664.got - 2010.06.03 11:33:40.
