data_PCOD9098468
_publ_section_title
;
Structure prediction by ZEFSAII (Michael W. Deem and Ramdas Pophale) SiO2 
 PCOD9098468
Probable space group: P -1
;
_chemical_formula_sum "Si O2"
_cell_formula_units_Z 14
_cell_length_a 16.568550
_cell_length_b 10.894919
_cell_length_c 9.061612
_cell_angle_alpha 126.971687
_cell_angle_beta 106.058525
_cell_angle_gamma 33.934160
_cell_volume 632.389099
_symmetry_space_group_name_H-M "P -1"
_symmetry_group_IT_number 2
_symmetry_cell_setting 'triclinic'
loop_
_space_group_symop_operation_xyz
x,y,z
-x,-y,-z
loop_
_atom_site_type_symbol
_atom_site_label
_atom_site_fract_x
_atom_site_fract_y
_atom_site_fract_z
Si Si1 0.518786 0.644990 0.891123
Si Si2 0.815899 0.238771 0.528247
Si Si3 0.739388 0.685829 0.694214
Si Si4 0.016828 0.464150 0.659939
Si Si5 0.320663 0.162043 0.576202
Si Si6 0.215398 0.902903 0.875766
Si Si7 0.340965 0.464034 0.820290
O O1 0.686017 0.390649 0.696839
O O2 0.399053 0.690522 0.828158
O O3 0.580632 0.555531 0.026658
O O4 0.398734 0.985763 0.063210
O O5 0.731663 0.523453 0.619411
O O6 0.824403 0.095079 0.304204
O O7 0.000000 0.000000 0.500000
O O8 0.924951 0.456031 0.658263
O O9 0.718585 0.744339 0.549754
O O10 0.000000 0.500000 0.500000
O O11 0.206166 0.205094 0.605079
O O12 0.910428 0.769778 0.895747
O O13 0.290511 0.375119 0.790816
O O14 0.511290 0.810448 0.418110
O O15 0.205348 0.774846 0.889883
#
# Coordination Sequence:
#
# PCOD9098468 Si02
#       7
#     2   2   2   2   2   2   2
#     4  10  23  41  64  88 125 163 205 247 309 371
#     4  12  26  41  60  91 126 163 211 254 298 361
#     4   9  19  42  61  84 122 169 197 246 307 370
#     4   9  20  37  62  90 124 157 199 252 311 361
#     4   9  18  35  61  96 123 150 200 253 310 359
#     4  11  23  42  64  92 125 163 203 256 308 360
#     4  10  20  36  66  95 119 156 205 254 305 367
#
# _framework density 22.138268
#
# number of rings (size 3 to 8) (size 9 to 14) (size 15 to 20)
#    0.000    2.000    1.429    2.143    2.000    4.000 
#    0.000    2.857    0.000    0.000    0.000    0.000 
#    0.000    0.000    0.000    0.000    0.000    0.000 
#
# Total GULP energy -78186.552511 kJ/mol
# GULP energy per Si atom -5584.753751 kJ/mol
# Density = 2.208788 g / cm^3
# Si number density = 22.138268 Si / 1000 Ang^3
#
#
#
# Elastic Constant Matrix: (Units=GPa)
#
#
# Indices 1 2 3 4 5 6 
#
# 1 67.5235 13.3704 39.7153 -7.8863 0.8332 -25.3442
# 2 13.3704 52.3570 24.3535 -16.4897 -0.2307 -20.9510
# 3 39.7153 24.3535 101.0132 -21.2923 6.2285 -15.3872
# 4 -7.8863 -16.4897 -21.2923 20.8849 -11.1882 10.4239
# 5 0.8332 -0.2307 6.2285 -11.1882 30.9406 6.0751
# 6 -25.3442 -20.9510 -15.3872 10.4239 6.0751 41.8318
#
#
#
# Elastic Compliance Matrix: (Units=1/GPa)
#
#
# Indices 1 2 3 4 5 6 
#
# 1 0.024821 0.001025 -0.009442 -0.009991 -0.005387 0.015351
# 2 0.001025 0.029972 -0.002316 0.020870 0.006514 0.008634
# 3 -0.009442 -0.002316 0.016527 0.016196 0.003825 -0.005393
# 4 -0.009991 0.020870 0.016196 0.111347 0.042041 -0.023495
# 5 -0.005387 0.006514 0.003825 0.042041 0.050157 -0.016355
# 6 0.015351 0.008634 -0.005393 -0.023495 -0.016355 0.043776
#
#
# Mechanical properties :
#
#
# Convention : Reuss Voigt Hill
#
# Bulk Modulus (GPa) = 20.05839 41.75244 30.90541
# Shear Modulus (GPa) = 15.88898 28.29510 22.09204
#
# Velocity S-wave (km/s) = 2.68193 3.57894 3.16240
# Velocity P-wave (km/s) = 4.32094 5.99827 5.22732
#
# Compressibility (1/GPa) = 0.04985446
#
# Stress axis : x y z
#
# Youngs Moduli (GPa) = 40.28806 33.36477 60.50726
#
# Poissons Ratio (x) = -0.03421 0.57129
# Poissons Ratio (y) = -0.04131 0.14016
# Poissons Ratio (z) = 0.38039 0.07729
#
# Static dielectric constant tensor:
#      x y z
#    x 1.863660 -0.022390 0.022380 
#    y -0.022390 1.816280 0.009670 
#    z 0.022380 0.009670 1.793940 
# 
# From -- ./inp_files/159724.got.cif
#   From: 2010.05.17/outbox.cif.g08.bks.cpg/sg2_80_cif.got.tgz:159724.got - 2010.06.03 11:33:40.
