data_PCOD9098441
_publ_section_title
;
Structure prediction by ZEFSAII (Michael W. Deem and Ramdas Pophale) SiO2 
 PCOD9098441
Probable space group: P -1
;
_chemical_formula_sum "Si O2"
_cell_formula_units_Z 14
_cell_length_a 15.813752
_cell_length_b 7.223118
_cell_length_c 7.647995
_cell_angle_alpha 83.314214
_cell_angle_beta 45.185229
_cell_angle_gamma 96.098475
_cell_volume 593.112676
_symmetry_space_group_name_H-M "P -1"
_symmetry_group_IT_number 2
_symmetry_cell_setting 'triclinic'
loop_
_space_group_symop_operation_xyz
x,y,z
-x,-y,-z
loop_
_atom_site_type_symbol
_atom_site_label
_atom_site_fract_x
_atom_site_fract_y
_atom_site_fract_z
Si Si1 0.750019 0.734110 0.523103
Si Si2 0.272416 0.600923 0.173176
Si Si3 0.837111 0.477992 0.210591
Si Si4 0.035343 0.617834 0.641894
Si Si5 0.809376 0.020862 0.730469
Si Si6 0.394433 0.699577 0.629209
Si Si7 0.337823 0.113460 0.712228
O O1 0.684375 0.528131 0.731926
O O2 0.860343 0.681174 0.256910
O O3 0.786090 0.878124 0.616894
O O4 0.681102 0.814083 0.461503
O O5 0.120532 0.517136 0.409215
O O6 0.278584 0.827401 0.172878
O O7 0.343181 0.590725 0.894575
O O8 0.885700 0.346391 0.291252
O O9 0.693259 0.407799 0.383948
O O10 0.907304 0.498959 0.922026
O O11 0.055883 0.826419 0.501103
O O12 0.773131 0.918413 0.981621
O O13 0.540568 0.742349 0.397085
O O14 0.364482 0.906622 0.667700
#
# Coordination Sequence:
#
# PCOD9098441 Si02
#       7
#     2   2   2   2   2   2   2
#     4  11  22  38  65  92 123 164 204 250 306 360
#     4   8  20  40  61  90 124 160 205 246 310 359
#     4  10  20  36  66  91 119 163 207 248 310 357
#     4   8  18  40  60  91 120 160 204 249 307 365
#     4   9  20  43  60  89 131 152 206 254 296 374
#     4  10  21  42  63  88 129 162 203 256 302 368
#     4  10  23  41  62  93 124 165 204 250 310 357
#
# _framework density 23.604282000000001
#
# number of rings (size 3 to 8) (size 9 to 14) (size 15 to 20)
#    0.857    1.714    0.000    0.857    2.000    2.286 
#    5.143    5.000    0.000    0.000    0.000    0.000 
#    0.000    0.000    0.000    0.000    0.000    0.000 
#
# Total GULP energy -77971.743310 kJ/mol
# GULP energy per Si atom -5569.410236 kJ/mol
# Density = 2.355056 g / cm^3
# Si number density = 23.604282 Si / 1000 Ang^3
#
#
#
# Elastic Constant Matrix: (Units=GPa)
#
#
# Indices 1 2 3 4 5 6 
#
# 1 55.5217 14.2551 13.5893 -7.8418 27.8920 -16.2199
# 2 14.2551 79.6111 25.4012 14.4155 15.2289 0.4593
# 3 13.5893 25.4012 62.3251 -4.5381 12.8794 -13.8035
# 4 -7.8418 14.4155 -4.5381 31.7721 -3.7371 7.8896
# 5 27.8920 15.2289 12.8794 -3.7371 30.3359 -7.7427
# 6 -16.2199 0.4593 -13.8035 7.8896 -7.7427 28.3869
#
#
#
# Elastic Compliance Matrix: (Units=1/GPa)
#
#
# Indices 1 2 3 4 5 6 
#
# 1 0.038009 -0.002428 0.002321 0.003860 -0.030816 0.013408
# 2 -0.002428 0.018244 -0.007280 -0.009585 -0.006094 -0.004220
# 3 0.002321 -0.007280 0.021940 0.004040 -0.004828 0.009673
# 4 0.003860 -0.009585 0.004040 0.039124 0.002898 -0.005758
# 5 -0.030816 -0.006094 -0.004828 0.002898 0.066091 -0.002635
# 6 0.013408 -0.004220 0.009673 -0.005758 -0.002635 0.048542
#
#
# Mechanical properties :
#
#
# Convention : Reuss Voigt Hill
#
# Bulk Modulus (GPa) = 15.76800 33.77212 24.77006
# Shear Modulus (GPa) = 18.66628 27.71315 23.18971
#
# Velocity S-wave (km/s) = 2.81517 3.43019 3.13779
# Velocity P-wave (km/s) = 4.15470 5.47969 4.86254
#
# Compressibility (1/GPa) = 0.06341958
#
# Stress axis : x y z
#
# Youngs Moduli (GPa) = 26.30947 54.81203 45.57926
#
# Poissons Ratio (x) = 0.13307 -0.10577
# Poissons Ratio (y) = 0.06387 0.33180
# Poissons Ratio (z) = -0.06105 0.39901
#
# Static dielectric constant tensor:
#      x y z
#    x 1.996160 -0.020880 -0.040540 
#    y -0.020880 1.960100 0.003460 
#    z -0.040540 0.003460 1.928080 
# 
# From -- ./inp_files/341953.got.cif
#   From: 2010.05.17/outbox.cif.g08.bks.cpg/sg2_171_cif.got.tgz:341953.got - 2010.06.03 11:33:40.
