data_PCOD9098179
_publ_section_title
;
Structure prediction by ZEFSAII (Michael W. Deem and Ramdas Pophale) SiO2 
 PCOD9098179
Probable space group: P -1
;
_chemical_formula_sum "Si O2"
_cell_formula_units_Z 16
_cell_length_a 9.988627
_cell_length_b 8.184299
_cell_length_c 12.386370
_cell_angle_alpha 95.925273
_cell_angle_beta 53.639155
_cell_angle_gamma 99.911599
_cell_volume 803.261892
_symmetry_space_group_name_H-M "P -1"
_symmetry_group_IT_number 2
_symmetry_cell_setting 'triclinic'
loop_
_space_group_symop_operation_xyz
x,y,z
-x,-y,-z
loop_
_atom_site_type_symbol
_atom_site_label
_atom_site_fract_x
_atom_site_fract_y
_atom_site_fract_z
Si Si1 0.507441 0.299669 0.851938
Si Si2 0.135234 0.358504 0.772445
Si Si3 0.180993 0.074263 0.064762
Si Si4 0.165609 0.993277 0.821840
Si Si5 0.600164 0.758657 0.507677
Si Si6 0.246618 0.740886 0.080814
Si Si7 0.390510 0.597942 0.797566
Si Si8 0.538553 0.088730 0.615420
O O1 0.647438 0.322163 0.877818
O O2 0.475501 0.460683 0.812743
O O3 0.556643 0.172931 0.728483
O O4 0.331794 0.220666 0.986387
O O5 0.149942 0.185379 0.815613
O O6 0.250896 0.338434 0.611245
O O7 0.221713 0.507014 0.814980
O O8 0.940420 0.358348 0.842526
O O9 0.226692 0.935724 0.115988
O O10 0.161194 0.980021 0.951699
O O11 0.990666 0.114793 0.169885
O O12 0.353711 0.976254 0.697405
O O13 0.508199 0.673678 0.649555
O O14 0.483109 0.776577 0.458377
O O15 0.659350 0.952811 0.523044
O O16 0.343250 0.719992 0.921242
#
# Coordination Sequence:
#
# PCOD9098179 Si02
#       8
#     2   2   2   2   2   2   2   2
#     4  11  21  37  55  84 121 150 182 233 289 340
#     4  10  20  38  57  85 114 147 191 240 274 327
#     4   9  16  31  54  76 110 145 183 224 278 319
#     4   8  14  29  53  81 106 136 180 237 269 310
#     4  10  20  36  64  86 106 146 195 239 275 330
#     4  11  24  36  56  85 118 153 187 229 285 340
#     4  12  21  37  60  83 113 152 193 229 282 334
#     4   9  18  36  60  86 109 141 194 237 280 329
#
# _framework density 19.918783000000001
#
# number of rings (size 3 to 8) (size 9 to 14) (size 15 to 20)
#    0.000    2.000    3.750    3.000    0.000    0.000 
#    2.250    1.250    0.000    1.500    0.000    0.000 
#    0.000    0.000    0.000    0.000    0.000    0.000 
#
# Total GULP energy -89201.649549 kJ/mol
# GULP energy per Si atom -5575.103097 kJ/mol
# Density = 1.987345 g / cm^3
# Si number density = 19.918783 Si / 1000 Ang^3
#
#
#
# Elastic Constant Matrix: (Units=GPa)
#
#
# Indices 1 2 3 4 5 6 
#
# 1 98.3277 21.7445 38.4593 -13.7733 6.9516 -16.3229
# 2 21.7445 36.5764 9.9924 -14.8932 6.5823 -10.9891
# 3 38.4593 9.9924 90.2052 -11.7547 11.1455 2.6366
# 4 -13.7733 -14.8932 -11.7547 33.2488 -2.4296 5.8522
# 5 6.9516 6.5823 11.1455 -2.4296 10.3276 1.0684
# 6 -16.3229 -10.9891 2.6366 5.8522 1.0684 9.9588
#
#
#
# Elastic Compliance Matrix: (Units=1/GPa)
#
#
# Indices 1 2 3 4 5 6 
#
# 1 0.020672 0.005212 -0.009332 -0.001016 -0.011955 0.043984
# 2 0.005212 0.059541 -0.004324 0.011375 -0.041685 0.073176
# 3 -0.009332 -0.004324 0.017710 0.004737 -0.006180 -0.026876
# 4 -0.001016 0.011375 0.004737 0.038607 -0.001259 -0.012921
# 5 -0.011955 -0.041685 -0.006180 -0.001259 0.145977 -0.078877
# 6 0.043984 0.073176 -0.026876 -0.012921 -0.078877 0.276421
#
#
# Mechanical properties :
#
#
# Convention : Reuss Voigt Hill
#
# Bulk Modulus (GPa) = 12.34026 40.61130 26.47578
# Shear Modulus (GPa) = 8.29424 21.03457 14.66441
#
# Velocity S-wave (km/s) = 2.04281 3.25317 2.71626
# Velocity P-wave (km/s) = 3.43116 5.87737 4.81229
#
# Compressibility (1/GPa) = 0.08103559
#
# Stress axis : x y z
#
# Youngs Moduli (GPa) = 48.37525 16.79513 56.46533
#
# Poissons Ratio (x) = -0.08754 0.52692
# Poissons Ratio (y) = -0.25214 0.24416
# Poissons Ratio (z) = 0.45143 0.07262
#
# Static dielectric constant tensor:
#      x y z
#    x 1.706280 -0.004740 -0.045900 
#    y -0.004740 1.735510 0.006690 
#    z -0.045900 0.006690 1.784320 
# 
# From -- ./inp_files/382225.got.cif
#   From: 2010.05.17/outbox.cif.g08.bks.cpg/sg2_192_cif.got.tgz:382225.got - 2010.06.03 11:33:40.
