data_PCOD9098013
_publ_section_title
;
Structure prediction by ZEFSAII (Michael W. Deem and Ramdas Pophale) SiO2 
 PCOD9098013
Probable space group: P -1
;
_chemical_formula_sum "Si O2"
_cell_formula_units_Z 14
_cell_length_a 8.585814
_cell_length_b 12.348185
_cell_length_c 18.442744
_cell_angle_alpha 27.162597
_cell_angle_beta 53.451941
_cell_angle_gamma 53.000128
_cell_volume 703.142893
_symmetry_space_group_name_H-M "P -1"
_symmetry_group_IT_number 2
_symmetry_cell_setting 'triclinic'
loop_
_space_group_symop_operation_xyz
x,y,z
-x,-y,-z
loop_
_atom_site_type_symbol
_atom_site_label
_atom_site_fract_x
_atom_site_fract_y
_atom_site_fract_z
Si Si1 0.616194 0.813594 0.460203
Si Si2 0.538516 0.640357 0.202856
Si Si3 0.781183 0.610490 0.019657
Si Si4 0.216937 0.386604 0.607583
Si Si5 0.591531 0.150403 0.736297
Si Si6 0.787660 0.487253 0.727031
Si Si7 0.524014 0.624226 0.843199
O O1 0.464976 0.628334 0.604313
O O2 0.784032 0.722379 0.407911
O O3 0.712269 0.746045 0.552777
O O4 0.515135 0.087313 0.313043
O O5 0.732788 0.630623 0.106964
O O6 0.491449 0.819805 0.176078
O O7 0.350201 0.674117 0.179757
O O8 0.641076 0.442522 0.125086
O O9 0.000000 0.500000 0.000000
O O10 0.708039 0.882166 0.849345
O O11 0.403284 0.223789 0.692970
O O12 0.269034 0.653141 0.428790
O O13 0.014514 0.395293 0.700665
O O14 0.728544 0.517511 0.808938
O O15 0.500000 0.500000 0.000000
#
# Coordination Sequence:
#
# PCOD9098013 Si02
#       7
#     2   2   2   2   2   2   2
#     4   9  19  37  63  81 114 146 196 237 271 339
#     4   8  20  37  58  81 110 151 195 230 279 332
#     4  11  24  36  56  83 118 156 186 227 287 348
#     4  10  20  36  63  87 109 149 191 242 282 328
#     4  10  21  37  55  86 122 142 185 238 288 336
#     4   9  20  36  62  85 106 149 200 229 279 332
#     4  11  23  39  56  86 119 150 188 240 285 331
#
# _framework density 19.910603999999999
#
# number of rings (size 3 to 8) (size 9 to 14) (size 15 to 20)
#    0.857    1.429    0.000    2.143    2.000    1.143 
#    0.000    6.429    0.000    6.857    0.000    0.000 
#    0.000    0.000    0.000    0.000    0.000    0.000 
#
# Total GULP energy -78077.731124 kJ/mol
# GULP energy per Si atom -5576.980795 kJ/mol
# Density = 1.986529 g / cm^3
# Si number density = 19.910604 Si / 1000 Ang^3
#
#
#
# Elastic Constant Matrix: (Units=GPa)
#
#
# Indices 1 2 3 4 5 6 
#
# 1 23.4687 23.7258 14.7094 9.0496 -3.9714 -7.6095
# 2 23.7258 121.1232 60.7020 25.6791 -6.5682 -19.9843
# 3 14.7094 60.7020 74.9638 -1.8444 4.4918 -12.3422
# 4 9.0496 25.6791 -1.8444 48.8602 2.0143 -2.6665
# 5 -3.9714 -6.5682 4.4918 2.0143 21.6880 7.8811
# 6 -7.6095 -19.9843 -12.3422 -2.6665 7.8811 28.9217
#
#
#
# Elastic Compliance Matrix: (Units=1/GPa)
#
#
# Indices 1 2 3 4 5 6 
#
# 1 0.058888 -0.003962 -0.008253 -0.009246 0.010106 0.005628
# 2 -0.003962 0.020194 -0.015899 -0.010685 0.008665 0.002780
# 3 -0.008253 -0.015899 0.029851 0.011912 -0.015385 0.004872
# 4 -0.009246 -0.010685 0.011912 0.028710 -0.010327 0.000729
# 5 0.010106 0.008665 -0.015385 -0.010327 0.060289 -0.015300
# 6 0.005628 0.002780 0.004872 0.000729 -0.015300 0.044293
#
#
# Mechanical properties :
#
#
# Convention : Reuss Voigt Hill
#
# Bulk Modulus (GPa) = 18.97386 46.42557 32.69972
# Shear Modulus (GPa) = 15.82168 27.92188 21.87178
#
# Velocity S-wave (km/s) = 2.82199 3.74888 3.31796
# Velocity P-wave (km/s) = 4.49092 6.48894 5.58009
#
# Compressibility (1/GPa) = 0.05270409
#
# Stress axis : x y z
#
# Youngs Moduli (GPa) = 16.98125 49.51942 33.50009
#
# Poissons Ratio (x) = 0.19621 0.27648
# Poissons Ratio (y) = 0.06729 0.53262
# Poissons Ratio (z) = 0.14015 0.78732
#
# Static dielectric constant tensor:
#      x y z
#    x 1.692780 0.028890 0.015110 
#    y 0.028890 1.706700 0.027850 
#    z 0.015110 0.027850 1.754770 
# 
# From -- ./inp_files/354265.got.cif
#   From: 2010.05.17/outbox.cif.g08.bks.cpg/sg2_178_cif.got.tgz:354265.got - 2010.06.03 11:33:40.
