data_PCOD9098862
_publ_section_title
;
Structure prediction by ZEFSAII (Michael W. Deem and Ramdas Pophale) SiO2 
 PCOD9098862
Probable space group: P -1
;
_chemical_formula_sum "Si O2"
_cell_formula_units_Z 16
_cell_length_a 5.529630
_cell_length_b 17.822369
_cell_length_c 7.908735
_cell_angle_alpha 118.187885
_cell_angle_beta 55.078574
_cell_angle_gamma 99.572902
_cell_volume 557.405073
_symmetry_space_group_name_H-M "P -1"
_symmetry_group_IT_number 2
_symmetry_cell_setting 'triclinic'
loop_
_space_group_symop_operation_xyz
x,y,z
-x,-y,-z
loop_
_atom_site_type_symbol
_atom_site_label
_atom_site_fract_x
_atom_site_fract_y
_atom_site_fract_z
Si Si1 0.813836 0.038493 0.948162
Si Si2 0.334601 0.571300 0.386213
Si Si3 0.281224 0.326093 0.871722
Si Si4 0.570393 0.839570 0.569099
Si Si5 0.209456 0.361237 0.501816
Si Si6 0.191602 0.911008 0.463171
Si Si7 0.765141 0.397729 0.026182
Si Si8 0.442564 0.231373 0.025829
O O1 0.050362 0.010013 0.672016
O O2 0.315983 0.864861 0.840769
O O3 0.500000 0.000000 0.000000
O O4 0.000000 0.000000 0.000000
O O5 0.449002 0.623076 0.232333
O O6 0.479392 0.610463 0.534823
O O7 0.982806 0.588792 0.519041
O O8 0.507776 0.475634 0.203808
O O9 0.335024 0.257654 0.623833
O O10 0.006513 0.401253 0.080554
O O11 0.248849 0.261706 0.970901
O O12 0.881507 0.871945 0.528812
O O13 0.397577 0.881690 0.513897
O O14 0.263927 0.263678 0.300268
O O15 0.007909 0.392314 0.775324
O O16 0.398847 0.865661 0.178831
O O17 0.665816 0.303314 0.988462
#
# Coordination Sequence:
#
# PCOD9098862 Si02
#       8
#     2   2   2   2   2   2   2   2
#     4   8  14  25  43  71 110 133 169 219 261 313
#     4  11  25  42  58  78 114 148 183 236 278 328
#     4  10  20  37  58  80 114 146 186 229 280 320
#     4   9  16  27  50  77 104 140 180 217 263 323
#     4  11  25  41  58  85 108 146 191 225 286 328
#     4   9  17  30  46  78 110 137 172 224 268 314
#     4  11  23  42  57  79 115 146 186 233 282 323
#     4  11  23  36  62  82 113 146 186 231 275 333
#
# _framework density 28.704439000000001
#
# number of rings (size 3 to 8) (size 9 to 14) (size 15 to 20)
#    0.000    2.000    2.500    1.875    3.500    1.000 
#    0.000    0.000    0.000    0.000    0.000    4.375 
#    0.000    0.000    0.000    0.000    0.000    0.000 
#
# Total GULP energy -89189.698399 kJ/mol
# GULP energy per Si atom -5574.356150 kJ/mol
# Density = 2.863911 g / cm^3
# Si number density = 28.704439 Si / 1000 Ang^3
#
#
#
# Elastic Constant Matrix: (Units=GPa)
#
#
# Indices 1 2 3 4 5 6 
#
# 1 160.8711 27.3716 49.6385 12.1754 -13.1105 -21.0564
# 2 27.3716 77.2607 35.7710 12.1500 -13.6489 -9.8215
# 3 49.6385 35.7710 196.1355 22.2159 6.6589 -18.8841
# 4 12.1754 12.1500 22.2159 59.9528 -9.3188 -19.2131
# 5 -13.1105 -13.6489 6.6589 -9.3188 44.6435 7.6636
# 6 -21.0564 -9.8215 -18.8841 -19.2131 7.6636 39.0269
#
#
#
# Elastic Compliance Matrix: (Units=1/GPa)
#
#
# Indices 1 2 3 4 5 6 
#
# 1 0.007361 -0.001374 -0.001445 0.000477 0.001567 0.002854
# 2 -0.001374 0.015596 -0.002466 -0.001096 0.004403 0.000586
# 3 -0.001445 -0.002466 0.006314 -0.001501 -0.002681 0.001443
# 4 0.000477 -0.001096 -0.001501 0.020639 0.002816 0.008863
# 5 0.001567 0.004403 -0.002681 0.002816 0.025710 -0.003006
# 6 0.002854 0.000586 0.001443 0.008863 -0.003006 0.032962
#
#
# Mechanical properties :
#
#
# Convention : Reuss Voigt Hill
#
# Bulk Modulus (GPa) = 53.47113 73.31439 63.39276
# Shear Modulus (GPa) = 39.87712 50.15705 45.01709
#
# Velocity S-wave (km/s) = 3.73128 4.18468 3.96447
# Velocity P-wave (km/s) = 6.10180 6.99609 6.56419
#
# Compressibility (1/GPa) = 0.01870168
#
# Stress axis : x y z
#
# Youngs Moduli (GPa) = 135.85323 64.11769 158.38521
#
# Poissons Ratio (x) = 0.08812 0.22882
# Poissons Ratio (y) = 0.18671 0.39050
# Poissons Ratio (z) = 0.19627 0.15808
#
# Static dielectric constant tensor:
#      x y z
#    x 2.680320 -0.143880 0.166260 
#    y -0.143880 2.253570 -0.114020 
#    z 0.166260 -0.114020 2.281650 
# 
# From -- ./inp_files/143290.got.cif
#   From: 2010.05.17/outbox.cif.g08.bks.cpg/sg2_72_cif.got.tgz:143290.got - 2010.06.03 11:33:40.
