data_PCOD9098705
_publ_section_title
;
Structure prediction by ZEFSAII (Michael W. Deem and Ramdas Pophale) SiO2 
 PCOD9098705
Probable space group: P -1
;
_chemical_formula_sum "Si O2"
_cell_formula_units_Z 16
_cell_length_a 24.097051
_cell_length_b 9.426830
_cell_length_c 11.735125
_cell_angle_alpha 135.519461
_cell_angle_beta 155.305101
_cell_angle_gamma 46.038351
_cell_volume 770.668959
_symmetry_space_group_name_H-M "P -1"
_symmetry_group_IT_number 2
_symmetry_cell_setting 'triclinic'
loop_
_space_group_symop_operation_xyz
x,y,z
-x,-y,-z
loop_
_atom_site_type_symbol
_atom_site_label
_atom_site_fract_x
_atom_site_fract_y
_atom_site_fract_z
Si Si1 0.100370 0.890518 0.288935
Si Si2 0.555780 0.150300 0.465327
Si Si3 0.709870 0.387078 0.067135
Si Si4 0.537773 0.224199 0.840931
Si Si5 0.823997 0.011583 0.763817
Si Si6 0.465221 0.237353 0.106404
Si Si7 0.958158 0.285304 0.329266
Si Si8 0.354819 0.596299 0.633844
O O1 0.165444 0.971203 0.341877
O O2 0.200418 0.696052 0.407681
O O3 0.074479 0.086878 0.437416
O O4 0.950847 0.849379 0.951925
O O5 0.621617 0.303836 0.754687
O O6 0.680921 0.007398 0.552157
O O7 0.464036 0.247212 0.246222
O O8 0.477987 0.010885 0.319435
O O9 0.656873 0.293114 0.028068
O O10 0.668228 0.632860 0.123346
O O11 0.863163 0.312584 0.277837
O O12 0.401808 0.360575 0.617670
O O13 0.565318 0.287384 0.057696
O O14 0.869667 0.218570 0.020415
O O15 0.584077 0.350034 0.342256
O O16 0.500000 0.000000 0.000000
O O17 0.000000 0.500000 0.500000
#
# Coordination Sequence:
#
# PCOD9098705 Si02
#       8
#     2   2   2   2   2   2   2   2
#     4   9  17  36  57  79 112 146 182 242 278 324
#     4  11  19  37  59  86 117 150 188 237 297 331
#     4  10  23  38  54  84 125 146 188 234 290 350
#     4  10  22  37  56  84 119 158 184 232 288 345
#     4   8  18  32  57  85 111 139 186 239 283 326
#     4  11  21  33  59  90 109 145 196 245 284 333
#     4   9  19  33  56  83 112 145 187 234 287 325
#     4  10  20  37  56  85 113 148 201 238 276 334
#
# _framework density 20.761184
#
# number of rings (size 3 to 8) (size 9 to 14) (size 15 to 20)
#    0.750    1.500    2.500    0.750    1.750    0.000 
#    0.000    1.250    2.750    0.000    0.000    0.000 
#    0.000    0.000    0.000    0.000    0.000    0.000 
#
# Total GULP energy -89157.628452 kJ/mol
# GULP energy per Si atom -5572.351778 kJ/mol
# Density = 2.071393 g / cm^3
# Si number density = 20.761184 Si / 1000 Ang^3
#
#
#
# Elastic Constant Matrix: (Units=GPa)
#
#
# Indices 1 2 3 4 5 6 
#
# 1 90.8238 39.1706 7.9327 -5.2253 15.9646 -3.8841
# 2 39.1706 72.4535 12.0558 -13.0381 8.7236 4.3218
# 3 7.9327 12.0558 24.7789 -6.3779 4.8200 6.4010
# 4 -5.2253 -13.0381 -6.3779 31.8496 -8.6874 5.9352
# 5 15.9646 8.7236 4.8200 -8.6874 24.9124 -3.5364
# 6 -3.8841 4.3218 6.4010 5.9352 -3.5364 32.8466
#
#
#
# Elastic Compliance Matrix: (Units=1/GPa)
#
#
# Indices 1 2 3 4 5 6 
#
# 1 0.016050 -0.008369 -0.001285 -0.003804 -0.007996 0.003076
# 2 -0.008369 0.020491 -0.004635 0.007096 0.000997 -0.003957
# 3 -0.001285 -0.004635 0.049177 0.008256 -0.005785 -0.011240
# 4 -0.003804 0.007096 0.008256 0.040024 0.011030 -0.009037
# 5 -0.007996 0.000997 -0.005785 0.011030 0.050375 0.003481
# 6 0.003076 -0.003957 -0.011240 -0.009037 0.003481 0.035527
#
#
# Mechanical properties :
#
#
# Convention : Reuss Voigt Hill
#
# Bulk Modulus (GPa) = 17.50091 34.04161 25.77126
# Shear Modulus (GPa) = 19.28498 26.51487 22.89992
#
# Velocity S-wave (km/s) = 3.05109 3.57758 3.32477
# Velocity P-wave (km/s) = 4.56729 5.78773 5.21334
#
# Compressibility (1/GPa) = 0.05713990
#
# Stress axis : x y z
#
# Youngs Moduli (GPa) = 62.30537 48.80307 20.33454
#
# Poissons Ratio (x) = 0.40841 0.02613
# Poissons Ratio (y) = 0.52141 0.09426
# Poissons Ratio (z) = 0.08006 0.22623
#
# Static dielectric constant tensor:
#      x y z
#    x 1.762140 -0.043990 0.007720 
#    y -0.043990 1.772490 -0.014130 
#    z 0.007720 -0.014130 1.776260 
# 
# From -- ./inp_files/474329.got.cif
#   From: 2010.05.17/outbox.cif.g08.bks.cpg/sg2_238_cif.got.tgz:474329.got - 2010.06.03 11:33:40.
