data_PCOD9098118
_publ_section_title
;
Structure prediction by ZEFSAII (Michael W. Deem and Ramdas Pophale) SiO2 
 PCOD9098118
Probable space group: P -1
;
_chemical_formula_sum "Si O2"
_cell_formula_units_Z 16
_cell_length_a 8.874095
_cell_length_b 7.007852
_cell_length_c 19.570805
_cell_angle_alpha 143.111132
_cell_angle_beta 127.282817
_cell_angle_gamma 57.912912
_cell_volume 578.491323
_symmetry_space_group_name_H-M "P -1"
_symmetry_group_IT_number 2
_symmetry_cell_setting 'triclinic'
loop_
_space_group_symop_operation_xyz
x,y,z
-x,-y,-z
loop_
_atom_site_type_symbol
_atom_site_label
_atom_site_fract_x
_atom_site_fract_y
_atom_site_fract_z
Si Si1 0.536295 0.866588 0.630998
Si Si2 0.107352 0.010029 0.184226
Si Si3 0.325621 0.848913 0.874541
Si Si4 0.935032 0.366821 0.060775
Si Si5 0.239062 0.577809 0.289820
Si Si6 0.314591 0.213089 0.778293
Si Si7 0.983166 0.871163 0.535984
Si Si8 0.357081 0.430007 0.647844
O O1 0.500000 0.500000 0.500000
O O2 0.755641 0.922681 0.696210
O O3 0.506587 0.020238 0.744298
O O4 0.413039 0.114037 0.619389
O O5 0.141254 0.330992 0.241795
O O6 0.888119 0.989960 0.137679
O O7 0.143529 0.707973 0.056761
O O8 0.300172 0.519884 0.812569
O O9 0.389509 0.755753 0.789410
O O10 0.500000 0.000000 0.000000
O O11 0.772758 0.595452 0.123126
O O12 0.136893 0.511476 0.170479
O O13 0.000000 0.000000 0.000000
O O14 0.465638 0.583738 0.358344
O O15 0.158882 0.913085 0.393181
O O16 0.181970 0.935970 0.641928
O O17 0.871947 0.558285 0.416633
O O18 0.000000 0.000000 0.500000
#
# Coordination Sequence:
#
# PCOD9098118 Si02
#       8
#     2   2   2   2   2   2   2   2
#     4  11  25  39  62  92 136 172 214 258 333 386
#     4  11  21  39  66  95 127 173 209 264 327 382
#     4  11  21  36  64  95 123 162 222 262 311 382
#     4   9  17  35  64  89 122 162 217 264 313 374
#     4  10  20  36  63  96 121 159 218 271 313 370
#     4  10  21  38  62  94 123 172 215 265 319 382
#     4  11  17  35  63  89 118 163 224 258 306 370
#     4  11  23  37  63  95 127 167 217 266 315 384
#
# _framework density 27.658152000000001
#
# number of rings (size 3 to 8) (size 9 to 14) (size 15 to 20)
#    0.000    1.500    6.250    1.875    3.500    0.500 
#    0.000    5.625    5.500    3.750    0.000    0.000 
#    0.000    0.000    0.000    0.000    0.000    0.000 
#
# Total GULP energy -89188.368426 kJ/mol
# GULP energy per Si atom -5574.273027 kJ/mol
# Density = 2.759520 g / cm^3
# Si number density = 27.658152 Si / 1000 Ang^3
#
#
#
# Elastic Constant Matrix: (Units=GPa)
#
#
# Indices 1 2 3 4 5 6 
#
# 1 131.0100 13.0418 44.1343 0.3122 8.3310 -18.9229
# 2 13.0418 69.6296 33.2643 15.0130 13.8900 -7.5777
# 3 44.1343 33.2643 176.9013 -13.4702 10.4630 -12.0555
# 4 0.3122 15.0130 -13.4702 52.3596 -10.2040 13.6007
# 5 8.3310 13.8900 10.4630 -10.2040 65.1104 5.2163
# 6 -18.9229 -7.5777 -12.0555 13.6007 5.2163 42.6004
#
#
#
# Elastic Compliance Matrix: (Units=1/GPa)
#
#
# Indices 1 2 3 4 5 6 
#
# 1 0.009047 0.000637 -0.002148 -0.002269 -0.001661 0.004452
# 2 0.000637 0.019996 -0.003863 -0.009537 -0.005741 0.006494
# 3 -0.002148 -0.003863 0.007080 0.003236 0.000527 -0.000735
# 4 -0.002269 -0.009537 0.003236 0.026949 0.006929 -0.011241
# 5 -0.001661 -0.005741 0.000527 0.006929 0.018283 -0.006060
# 6 0.004452 0.006494 -0.000735 -0.011241 -0.006060 0.030729
#
#
# Mechanical properties :
#
#
# Convention : Reuss Voigt Hill
#
# Bulk Modulus (GPa) = 39.40878 62.04686 50.72782
# Shear Modulus (GPa) = 38.08293 51.15411 44.61852
#
# Velocity S-wave (km/s) = 3.71471 4.30526 4.02084
# Velocity P-wave (km/s) = 5.71648 6.86993 6.31958
#
# Compressibility (1/GPa) = 0.02537505
#
# Stress axis : x y z
#
# Youngs Moduli (GPa) = 110.53033 50.00928 141.23774
#
# Poissons Ratio (x) = -0.03184 0.30339
# Poissons Ratio (y) = -0.07036 0.54559
# Poissons Ratio (z) = 0.23743 0.19318
#
# Static dielectric constant tensor:
#      x y z
#    x 2.214450 0.106420 0.062780 
#    y 0.106420 2.292940 -0.155010 
#    z 0.062780 -0.155010 2.182360 
# 
# From -- ./inp_files/606960.got.cif
#   From: 2010.05.17/outbox.cif.g08.bks.cpg/sg2_304_cif.got.tgz:606960.got - 2010.06.03 11:33:40.
