data_PCOD9098037
_publ_section_title
;
Structure prediction by ZEFSAII (Michael W. Deem and Ramdas Pophale) SiO2 
 PCOD9098037
Probable space group: P -1
;
_chemical_formula_sum "Si O2"
_cell_formula_units_Z 16
_cell_length_a 8.325217
_cell_length_b 10.725624
_cell_length_c 13.194268
_cell_angle_alpha 53.445776
_cell_angle_beta 90.198475
_cell_angle_gamma 127.665752
_cell_volume 617.160061
_symmetry_space_group_name_H-M "P -1"
_symmetry_group_IT_number 2
_symmetry_cell_setting 'triclinic'
loop_
_space_group_symop_operation_xyz
x,y,z
-x,-y,-z
loop_
_atom_site_type_symbol
_atom_site_label
_atom_site_fract_x
_atom_site_fract_y
_atom_site_fract_z
Si Si1 0.424818 0.056780 0.381798
Si Si2 0.711595 0.236921 0.952662
Si Si3 0.604922 0.533761 0.611246
Si Si4 0.066644 0.038911 0.315207
Si Si5 0.433166 0.551343 0.108807
Si Si6 0.066923 0.250689 0.732842
Si Si7 0.964393 0.526468 0.610918
Si Si8 0.847912 0.615834 0.093805
O O1 0.230637 0.794873 0.457298
O O2 0.500000 0.000000 0.500000
O O3 0.235506 0.063231 0.381488
O O4 0.674235 0.334703 0.222488
O O5 0.579893 0.275544 0.997451
O O6 0.897689 0.454788 0.766101
O O7 0.881707 0.240246 0.013112
O O8 0.500000 0.000000 0.000000
O O9 0.562363 0.461996 0.763295
O O10 0.748002 0.484894 0.596325
O O11 0.343271 0.397261 0.637638
O O12 0.792187 0.813109 0.462504
O O13 0.177332 0.289606 0.198422
O O14 0.079981 0.968401 0.238405
O O15 0.661484 0.608007 0.052476
O O16 0.981751 0.362560 0.656287
O O17 0.074110 0.260059 0.852728
#
# Coordination Sequence:
#
# PCOD9098037 Si02
#       8
#     2   2   2   2   2   2   2   2
#     4  10  16  31  50  73 102 134 164 200 241 295
#     4  10  19  32  54  78  96 125 171 216 251 288
#     4   9  18  31  48  71 102 138 167 200 247 294
#     4  10  20  29  48  76 104 135 171 199 246 305
#     4   9  19  34  49  71 101 128 166 212 246 293
#     4  10  18  31  47  71 106 136 164 201 246 303
#     4   9  19  33  51  73 103 132 169 206 251 295
#     4   9  19  34  53  75 101 134 166 201 258 296
#
# _framework density 25.925204000000001
#
# number of rings (size 3 to 8) (size 9 to 14) (size 15 to 20)
#    0.000    2.500    2.500    0.750    0.000    6.500 
#    0.000    2.500    0.000    3.000    0.000   21.875 
#    0.000    0.000    0.000    0.000    0.000    0.000 
#
# Total GULP energy -89125.693267 kJ/mol
# GULP energy per Si atom -5570.355829 kJ/mol
# Density = 2.586620 g / cm^3
# Si number density = 25.925204 Si / 1000 Ang^3
#
#
#
# Elastic Constant Matrix: (Units=GPa)
#
#
# Indices 1 2 3 4 5 6 
#
# 1 171.9690 34.6074 60.5690 -39.2810 -21.3576 10.7753
# 2 34.6074 46.3354 17.0768 -9.5325 -7.6352 14.0449
# 3 60.5690 17.0768 80.5178 -21.4071 1.8037 2.7030
# 4 -39.2810 -9.5325 -21.4071 35.2597 -8.1501 -2.5223
# 5 -21.3576 -7.6352 1.8037 -8.1501 29.1439 -16.2441
# 6 10.7753 14.0449 2.7030 -2.5223 -16.2441 34.2848
#
#
#
# Elastic Compliance Matrix: (Units=1/GPa)
#
#
# Indices 1 2 3 4 5 6 
#
# 1 0.014342 -0.004435 -0.006333 0.015746 0.018437 0.007702
# 2 -0.004435 0.028875 -0.002299 0.000322 -0.001569 -0.010974
# 3 -0.006333 -0.002299 0.018351 0.001787 -0.006765 -0.001588
# 4 0.015746 0.000322 0.001787 0.056639 0.036369 0.016176
# 5 0.018437 -0.001569 -0.006765 0.036369 0.077344 0.034703
# 6 0.007702 -0.010974 -0.001588 0.016176 0.034703 0.049000
#
#
# Mechanical properties :
#
#
# Convention : Reuss Voigt Hill
#
# Bulk Modulus (GPa) = 28.22073 58.14762 43.18418
# Shear Modulus (GPa) = 17.69932 32.17562 24.93747
#
# Velocity S-wave (km/s) = 2.61570 3.52674 3.10482
# Velocity P-wave (km/s) = 4.47567 6.24992 5.43568
#
# Compressibility (1/GPa) = 0.03543494
#
# Stress axis : x y z
#
# Youngs Moduli (GPa) = 69.72525 34.63156 54.49194
#
# Poissons Ratio (x) = 0.15359 0.34511
# Poissons Ratio (y) = 0.30923 0.12526
# Poissons Ratio (z) = 0.44159 0.07961
#
# Static dielectric constant tensor:
#      x y z
#    x 2.112010 -0.094660 0.020370 
#    y -0.094660 2.276530 0.072160 
#    z 0.020370 0.072160 2.148150 
# 
# From -- ./inp_files/235211.got.cif
#   From: 2010.05.17/outbox.cif.g08.bks.cpg/sg2_118_cif.got.tgz:235211.got - 2010.06.03 11:33:40.
