data_PCOD9098461
_publ_section_title
;
Structure prediction by ZEFSAII (Michael W. Deem and Ramdas Pophale) SiO2 
 PCOD9098461
Probable space group: P -1
;
_chemical_formula_sum "Si O2"
_cell_formula_units_Z 13
_cell_length_a 16.719743
_cell_length_b 12.914789
_cell_length_c 9.890521
_cell_angle_alpha 34.275135
_cell_angle_beta 30.087153
_cell_angle_gamma 36.526684
_cell_volume 572.513495
_symmetry_space_group_name_H-M "P -1"
_symmetry_group_IT_number 2
_symmetry_cell_setting 'triclinic'
loop_
_space_group_symop_operation_xyz
x,y,z
-x,-y,-z
loop_
_atom_site_type_symbol
_atom_site_label
_atom_site_fract_x
_atom_site_fract_y
_atom_site_fract_z
Si Si1 0.923857 0.172278 0.320505
Si Si2 0.133709 0.858978 0.861054
Si Si3 0.905969 0.532457 0.355084
Si Si4 0.483580 0.864977 0.460371
Si Si5 0.415240 0.276029 0.227297
Si Si6 0.000000 0.500000 0.500000
Si Si7 0.671005 0.474325 0.542185
O O1 0.887547 0.088230 0.322719
O O2 0.759142 0.331308 0.449369
O O3 0.000000 0.000000 0.500000
O O4 0.048676 0.299931 0.971752
O O5 0.311022 0.853784 0.666949
O O6 0.095842 0.657030 0.142366
O O7 0.000000 0.000000 0.000000
O O8 0.788466 0.636626 0.547535
O O9 0.046996 0.392267 0.390856
O O10 0.803367 0.434296 0.516379
O O11 0.519954 0.787170 0.646479
O O12 0.623856 0.705199 0.341375
O O13 0.472157 0.088007 0.252314
O O14 0.504877 0.426587 0.883488
#
# Coordination Sequence:
#
# PCOD9098461 Si02
#       7
#     2   2   2   2   2   1   2
#     4  11  27  42  65  99 142 173 217 272 342 401
#     4  11  24  43  68  99 128 178 221 279 327 391
#     4  10  21  42  65  99 130 180 220 275 327 389
#     4  10  21  38  65  92 127 169 223 272 319 388
#     4  10  21  38  68  96 128 168 228 270 322 396
#     4  10  20  36  66  94 128 158 230 270 308 382
#     4  11  23  40  65  95 131 178 216 275 338 386
#
# _framework density 22.706889
#
# number of rings (size 3 to 8) (size 9 to 14) (size 15 to 20)
#    0.000    1.538    0.000    6.000   10.769    0.615 
#    0.000    0.769    0.000    0.000    0.000    0.000 
#    0.000    0.000    0.000    0.000    0.000    0.000 
#
# Total GULP energy -72411.631779 kJ/mol
# GULP energy per Si atom -5570.125521 kJ/mol
# Density = 2.265521 g / cm^3
# Si number density = 22.706889 Si / 1000 Ang^3
#
#
#
# Elastic Constant Matrix: (Units=GPa)
#
#
# Indices 1 2 3 4 5 6 
#
# 1 123.6608 22.2472 21.3006 -1.1753 -0.4411 12.1717
# 2 22.2472 108.1921 13.6217 15.6199 13.9875 18.7017
# 3 21.3006 13.6217 85.4640 -9.4540 3.0513 0.6331
# 4 -1.1753 15.6199 -9.4540 36.3072 2.3400 1.6463
# 5 -0.4411 13.9875 3.0513 2.3400 36.0799 -5.8313
# 6 12.1717 18.7017 0.6331 1.6463 -5.8313 30.4587
#
#
#
# Elastic Compliance Matrix: (Units=1/GPa)
#
#
# Indices 1 2 3 4 5 6 
#
# 1 0.008919 -0.001201 -0.001977 0.000398 0.000271 -0.002755
# 2 -0.001201 0.012634 -0.002034 -0.005272 -0.005698 -0.008041
# 3 -0.001977 -0.002034 0.012979 0.004147 -0.000364 0.001476
# 4 0.000398 -0.005272 0.004147 0.030850 -0.000092 0.001307
# 5 0.000271 -0.005698 -0.000364 -0.000092 0.031490 0.009432
# 6 -0.002755 -0.008041 0.001476 0.001307 0.009432 0.040574
#
#
# Mechanical properties :
#
#
# Convention : Reuss Voigt Hill
#
# Bulk Modulus (GPa) = 41.48265 47.96175 44.72220
# Shear Modulus (GPa) = 32.07068 37.91232 34.99150
#
# Velocity S-wave (km/s) = 3.76224 4.09056 3.92983
# Velocity P-wave (km/s) = 6.09762 6.59380 6.35056
#
# Compressibility (1/GPa) = 0.02410646
#
# Stress axis : x y z
#
# Youngs Moduli (GPa) = 112.11769 79.15335 77.05016
#
# Poissons Ratio (x) = 0.09510 0.15230
# Poissons Ratio (y) = 0.13470 0.15675
# Poissons Ratio (z) = 0.22162 0.16103
#
# Static dielectric constant tensor:
#      x y z
#    x 1.502170 0.161880 -0.048490 
#    y 0.161880 1.825740 0.054360 
#    z -0.048490 0.054360 1.826310 
# 
# From -- ./inp_files/331506.got.cif
#   From: 2010.05.17/outbox.cif.g08.bks.cpg/sg2_166_cif.got.tgz:331506.got - 2010.06.03 11:33:40.
