data_PCOD9098361
_publ_section_title
;
Structure prediction by ZEFSAII (Michael W. Deem and Ramdas Pophale) SiO2 
 PCOD9098361
Probable space group: P -1
;
_chemical_formula_sum "Si O2"
_cell_formula_units_Z 14
_cell_length_a 7.138451
_cell_length_b 12.083286
_cell_length_c 11.855848
_cell_angle_alpha 41.892700
_cell_angle_beta 66.658610
_cell_angle_gamma 51.564680
_cell_volume 530.541513
_symmetry_space_group_name_H-M "P -1"
_symmetry_group_IT_number 2
_symmetry_cell_setting 'triclinic'
loop_
_space_group_symop_operation_xyz
x,y,z
-x,-y,-z
loop_
_atom_site_type_symbol
_atom_site_label
_atom_site_fract_x
_atom_site_fract_y
_atom_site_fract_z
Si Si1 0.388220 0.309614 0.243351
Si Si2 0.858053 0.257991 0.931611
Si Si3 0.981848 0.315094 0.638510
Si Si4 0.733126 0.650650 0.994286
Si Si5 0.775203 0.007354 0.765453
Si Si6 0.136082 0.091376 0.540510
Si Si7 0.461798 0.693059 0.219933
O O1 0.276953 0.510746 0.185237
O O2 0.301105 0.136638 0.152376
O O3 0.216040 0.221445 0.356141
O O4 0.645743 0.132404 0.358278
O O5 0.050987 0.219097 0.817556
O O6 0.690639 0.207861 0.935390
O O7 0.996530 0.128845 0.103121
O O8 0.694594 0.395511 0.633533
O O9 0.000000 0.500000 0.500000
O O10 0.118809 0.171635 0.611840
O O11 0.582253 0.647613 0.926031
O O12 0.711666 0.584315 0.177014
O O13 0.000000 0.500000 0.000000
O O14 0.573529 0.166233 0.777075
O O15 0.884621 0.097256 0.585378
#
# Coordination Sequence:
#
# PCOD9098361 Si02
#       7
#     2   2   2   2   2   2   2
#     4  11  23  39  60  93 124 156 198 248 310 352
#     4  10  20  36  65  91 114 152 203 259 293 349
#     4   9  18  37  65  91 115 148 198 265 296 340
#     4  12  25  39  57  87 131 165 193 238 301 373
#     4  11  22  39  62  87 119 160 204 248 297 354
#     4  10  22  39  64  90 117 155 206 257 295 346
#     4   9  22  37  61  88 117 153 209 248 289 347
#
# _framework density 26.388131000000001
#
# number of rings (size 3 to 8) (size 9 to 14) (size 15 to 20)
#    0.857    0.857    2.857    1.714    4.000    1.714 
#    0.000    0.000    0.000    2.571    0.000    0.000 
#    0.000    0.000    0.000    0.000    0.000    0.000 
#
# Total GULP energy -78171.413152 kJ/mol
# GULP energy per Si atom -5583.672368 kJ/mol
# Density = 2.632807 g / cm^3
# Si number density = 26.388131 Si / 1000 Ang^3
#
#
#
# Elastic Constant Matrix: (Units=GPa)
#
#
# Indices 1 2 3 4 5 6 
#
# 1 52.0860 -7.0036 -16.6133 -6.7094 3.6014 7.6341
# 2 -7.0036 119.8221 6.3661 5.6675 17.3731 7.0295
# 3 -16.6133 6.3661 47.3313 5.4903 0.6163 -1.2970
# 4 -6.7094 5.6675 5.4903 45.4956 -0.4642 -7.7037
# 5 3.6014 17.3731 0.6163 -0.4642 26.0923 1.0857
# 6 7.6341 7.0295 -1.2970 -7.7037 1.0857 40.3380
#
#
#
# Elastic Compliance Matrix: (Units=1/GPa)
#
#
# Indices 1 2 3 4 5 6 
#
# 1 0.022929 0.001722 0.007585 0.001533 -0.004297 -0.003987
# 2 0.001722 0.009609 -0.000509 -0.001302 -0.006560 -0.002089
# 3 0.007585 -0.000509 0.024070 -0.001888 -0.001273 -0.000899
# 4 0.001533 -0.001302 -0.001888 0.023335 0.000936 0.004308
# 5 -0.004297 -0.006560 -0.001273 0.000936 0.043294 0.000929
# 6 -0.003987 -0.002089 -0.000899 0.004308 0.000929 0.026678
#
#
# Mechanical properties :
#
#
# Convention : Reuss Voigt Hill
#
# Bulk Modulus (GPa) = 13.47649 20.52643 17.00146
# Shear Modulus (GPa) = 31.83656 38.15119 34.99388
#
# Velocity S-wave (km/s) = 3.47720 3.80645 3.64555
# Velocity P-wave (km/s) = 4.60862 5.20714 4.91700
#
# Compressibility (1/GPa) = 0.07420329
#
# Stress axis : x y z
#
# Youngs Moduli (GPa) = 43.61324 104.07362 41.54633
#
# Poissons Ratio (x) = -0.17918 -0.31514
# Poissons Ratio (y) = -0.07509 0.02114
# Poissons Ratio (z) = -0.33082 0.05296
#
# Static dielectric constant tensor:
#      x y z
#    x 2.195620 -0.188050 0.000800 
#    y -0.188050 2.260880 0.236070 
#    z 0.000800 0.236070 2.410040 
# 
# From -- ./inp_files/570054.got.cif
#   From: 2010.05.17/outbox.cif.g08.bks.cpg/sg2_286_cif.got.tgz:570054.got - 2010.06.03 11:33:40.
