data_PCOD9098138
_publ_section_title
;
Structure prediction by ZEFSAII (Michael W. Deem and Ramdas Pophale) SiO2 
 PCOD9098138
Probable space group: P -1
;
_chemical_formula_sum "Si O2"
_cell_formula_units_Z 14
_cell_length_a 5.265885
_cell_length_b 10.749122
_cell_length_c 14.911838
_cell_angle_alpha 95.313628
_cell_angle_beta 129.257417
_cell_angle_gamma 57.531289
_cell_volume 510.435717
_symmetry_space_group_name_H-M "P -1"
_symmetry_group_IT_number 2
_symmetry_cell_setting 'triclinic'
loop_
_space_group_symop_operation_xyz
x,y,z
-x,-y,-z
loop_
_atom_site_type_symbol
_atom_site_label
_atom_site_fract_x
_atom_site_fract_y
_atom_site_fract_z
Si Si1 0.573326 0.959497 0.764945
Si Si2 0.022423 0.641398 0.497624
Si Si3 0.087595 0.087763 0.849587
Si Si4 0.115782 0.349099 0.898853
Si Si5 0.999757 0.458344 0.699250
Si Si6 0.795064 0.791725 0.629623
Si Si7 0.374491 0.284912 0.146948
O O1 0.477926 0.920283 0.642638
O O2 0.840041 0.781785 0.857488
O O3 0.236359 0.051901 0.776183
O O4 0.814260 0.032696 0.811091
O O5 0.500045 0.566037 0.617784
O O6 0.952690 0.655792 0.376809
O O7 0.000000 0.500000 0.500000
O O8 0.710910 0.787113 0.504982
O O9 0.875954 0.274612 0.826209
O O10 0.500000 0.000000 0.000000
O O11 0.280188 0.348058 0.837896
O O12 0.856102 0.532770 0.875029
O O13 0.387141 0.266249 0.042307
O O14 0.999244 0.607794 0.689812
O O15 0.165478 0.804342 0.717872
#
# Coordination Sequence:
#
# PCOD9098138 Si02
#       7
#     2   2   2   2   2   2   2
#     4  12  23  43  64  91 131 183 220 255 327 392
#     4   9  19  36  60  95 127 166 212 281 334 383
#     4  12  26  43  62  90 138 186 218 258 324 400
#     4  11  23  41  62  99 137 168 221 272 323 387
#     4  10  20  36  63  97 129 166 215 281 332 374
#     4  11  19  38  66  96 133 165 224 267 325 392
#     4  11  23  40  64 100 129 174 214 277 324 381
#
# _framework density 27.427547000000001
#
# number of rings (size 3 to 8) (size 9 to 14) (size 15 to 20)
#    0.000    1.143    5.714    0.429    0.000    1.714 
#    2.571    0.000    0.000    1.714    0.000    0.000 
#    0.000    0.000    0.000    0.000    0.000    0.000 
#
# Total GULP energy -78189.953592 kJ/mol
# GULP energy per Si atom -5584.996685 kJ/mol
# Density = 2.736512 g / cm^3
# Si number density = 27.427547 Si / 1000 Ang^3
#
#
#
# Elastic Constant Matrix: (Units=GPa)
#
#
# Indices 1 2 3 4 5 6 
#
# 1 189.8590 69.3703 54.7472 26.6962 -15.7571 30.7588
# 2 69.3703 151.4575 49.5061 38.5924 -1.3881 30.2726
# 3 54.7472 49.5061 154.5432 44.2616 -40.2507 -17.1090
# 4 26.6962 38.5924 44.2616 51.7740 -11.5140 -7.8632
# 5 -15.7571 -1.3881 -40.2507 -11.5140 41.5397 19.3749
# 6 30.7588 30.2726 -17.1090 -7.8632 19.3749 50.0949
#
#
#
# Elastic Compliance Matrix: (Units=1/GPa)
#
#
# Indices 1 2 3 4 5 6 
#
# 1 0.007776 -0.001313 -0.001490 -0.001849 0.003879 -0.006280
# 2 -0.001313 0.011225 -0.002054 -0.007215 -0.000573 -0.007590
# 3 -0.001490 -0.002054 0.011555 -0.005465 0.008055 0.002129
# 4 -0.001849 -0.007215 -0.005465 0.031306 -0.001884 0.009271
# 5 0.003879 -0.000573 0.008055 -0.001884 0.039791 -0.014970
# 6 -0.006280 -0.007590 0.002129 0.009271 -0.014970 0.036377
#
#
# Mechanical properties :
#
#
# Convention : Reuss Voigt Hill
#
# Bulk Modulus (GPa) = 47.97666 93.67855 70.82761
# Shear Modulus (GPa) = 32.32262 50.16410 41.24336
#
# Velocity S-wave (km/s) = 3.43661 4.28128 3.88199
# Velocity P-wave (km/s) = 5.76864 7.65952 6.78032
#
# Compressibility (1/GPa) = 0.02084347
#
# Stress axis : x y z
#
# Youngs Moduli (GPa) = 128.60898 89.08519 86.54215
#
# Poissons Ratio (x) = 0.11693 0.12891
# Poissons Ratio (y) = 0.16881 0.17776
# Poissons Ratio (z) = 0.19157 0.18298
#
# Static dielectric constant tensor:
#      x y z
#    x 2.175930 -0.072160 -0.086900 
#    y -0.072160 2.233260 -0.005350 
#    z -0.086900 -0.005350 2.181030 
# 
# From -- ./inp_files/116238.got.cif
#   From: 2010.05.17/outbox.cif.g08.bks.cpg/sg2_59_cif.got.tgz:116238.got - 2010.06.03 11:33:40.
