data_PCOD9098509
_publ_section_title
;
Structure prediction by ZEFSAII (Michael W. Deem and Ramdas Pophale) SiO2 
 PCOD9098509
Probable space group: P -1
;
_chemical_formula_sum "Si O2"
_cell_formula_units_Z 16
_cell_length_a 21.813254
_cell_length_b 8.891052
_cell_length_c 15.082303
_cell_angle_alpha 64.327636
_cell_angle_beta 17.658686
_cell_angle_gamma 56.032969
_cell_volume 676.327004
_symmetry_space_group_name_H-M "P -1"
_symmetry_group_IT_number 2
_symmetry_cell_setting 'triclinic'
loop_
_space_group_symop_operation_xyz
x,y,z
-x,-y,-z
loop_
_atom_site_type_symbol
_atom_site_label
_atom_site_fract_x
_atom_site_fract_y
_atom_site_fract_z
Si Si1 0.942954 0.920462 0.234426
Si Si2 0.259157 0.352363 0.415942
Si Si3 0.337061 0.732423 0.593741
Si Si4 0.909139 0.594188 0.696012
Si Si5 0.802121 0.601296 0.322090
Si Si6 0.633561 0.376286 0.175421
Si Si7 0.471754 0.029580 0.640448
Si Si8 0.764857 0.006018 0.854020
O O1 0.802427 0.814073 0.476570
O O2 0.109248 0.809030 0.949652
O O3 0.149413 0.845408 0.044396
O O4 0.767790 0.143787 0.386496
O O5 0.126321 0.471688 0.658250
O O6 0.143868 0.505715 0.456793
O O7 0.539650 0.220745 0.082276
O O8 0.463244 0.503021 0.458736
O O9 0.499422 0.798948 0.402569
O O10 0.000000 0.500000 0.500000
O O11 0.769101 0.828589 0.840002
O O12 0.750867 0.504541 0.964206
O O13 0.558967 0.609058 0.631296
O O14 0.714039 0.830091 0.386903
O O15 0.000000 0.500000 0.000000
O O16 0.500000 0.000000 0.500000
O O17 0.274215 0.029825 0.978597
O O18 0.000000 0.000000 0.500000
#
# Coordination Sequence:
#
# PCOD9098509 Si02
#       8
#     2   2   2   2   2   2   2   2
#     4  10  20  36  67  93 130 180 222 283 347 412
#     4  10  23  47  69 100 146 181 239 301 356 429
#     4  11  20  39  65  96 135 183 229 280 352 418
#     4  11  26  46  75 100 132 191 250 293 355 428
#     4  11  24  41  66 106 146 183 229 293 365 425
#     4  11  23  41  66  96 135 177 237 286 348 414
#     4  11  24  43  68 106 145 183 236 293 358 432
#     4  11  25  49  74 102 145 191 237 300 365 425
#
# _framework density 23.657195000000002
#
# number of rings (size 3 to 8) (size 9 to 14) (size 15 to 20)
#    0.000    1.250    3.750    1.875    7.000    2.000 
#    0.000    0.000    0.000    0.000    0.000    0.000 
#    0.000    0.000    0.000    0.000    0.000    0.000 
#
# Total GULP energy -89258.354611 kJ/mol
# GULP energy per Si atom -5578.647163 kJ/mol
# Density = 2.360335 g / cm^3
# Si number density = 23.657195 Si / 1000 Ang^3
#
#
#
# Elastic Constant Matrix: (Units=GPa)
#
#
# Indices 1 2 3 4 5 6 
#
# 1 144.7151 23.0038 37.6485 10.4272 3.0359 11.1120
# 2 23.0038 76.5171 28.3924 3.2132 -3.1418 6.2599
# 3 37.6485 28.3924 127.1556 -4.2691 -1.7629 -5.6076
# 4 10.4272 3.2132 -4.2691 38.1687 7.0235 -2.2852
# 5 3.0359 -3.1418 -1.7629 7.0235 41.2910 3.0886
# 6 11.1120 6.2599 -5.6076 -2.2852 3.0886 29.8201
#
#
#
# Elastic Compliance Matrix: (Units=1/GPa)
#
#
# Indices 1 2 3 4 5 6 
#
# 1 0.008174 -0.001182 -0.002396 -0.002590 -0.000096 -0.003437
# 2 -0.001182 0.015060 -0.003211 -0.001831 0.001679 -0.003639
# 3 -0.002396 -0.003211 0.009519 0.002260 -0.000313 0.003563
# 4 -0.002590 -0.001831 0.002260 0.028509 -0.005037 0.004481
# 5 -0.000096 0.001679 -0.000313 -0.005037 0.025451 -0.003398
# 6 -0.003437 -0.003639 0.003563 0.004481 -0.003398 0.036944
#
#
# Mechanical properties :
#
#
# Convention : Reuss Voigt Hill
#
# Bulk Modulus (GPa) = 52.15437 58.49745 55.32591
# Shear Modulus (GPa) = 34.81237 39.14550 36.97893
#
# Velocity S-wave (km/s) = 3.84022 4.07221 3.95791
# Velocity P-wave (km/s) = 6.46195 6.84772 6.65763
#
# Compressibility (1/GPa) = 0.01917385
#
# Stress axis : x y z
#
# Youngs Moduli (GPa) = 122.34077 66.40323 105.04776
#
# Poissons Ratio (x) = 0.07851 0.25169
# Poissons Ratio (y) = 0.14465 0.33733
# Poissons Ratio (z) = 0.29313 0.21323
#
# Static dielectric constant tensor:
#      x y z
#    x 1.993700 -0.023490 0.170170 
#    y -0.023490 1.900880 -0.063870 
#    z 0.170170 -0.063870 1.631080 
# 
# From -- ./inp_files/540455.got.cif
#   From: 2010.05.17/outbox.cif.g08.bks.cpg/sg2_271_cif.got.tgz:540455.got - 2010.06.03 11:33:40.
