data_PCOD9098882
_publ_section_title
;
Structure prediction by ZEFSAII (Michael W. Deem and Ramdas Pophale) SiO2 
 PCOD9098882
Probable space group: P -1
;
_chemical_formula_sum "Si O2"
_cell_formula_units_Z 16
_cell_length_a 13.332097
_cell_length_b 14.185722
_cell_length_c 17.739671
_cell_angle_alpha 38.162680
_cell_angle_beta 158.071670
_cell_angle_gamma 130.732977
_cell_volume 729.990801
_symmetry_space_group_name_H-M "P -1"
_symmetry_group_IT_number 2
_symmetry_cell_setting 'triclinic'
loop_
_space_group_symop_operation_xyz
x,y,z
-x,-y,-z
loop_
_atom_site_type_symbol
_atom_site_label
_atom_site_fract_x
_atom_site_fract_y
_atom_site_fract_z
Si Si1 0.368156 0.929817 0.883525
Si Si2 0.499024 0.500840 0.118304
Si Si3 0.285048 0.012315 0.608306
Si Si4 0.674444 0.338743 0.500996
Si Si5 0.313432 0.283433 0.004294
Si Si6 0.070217 0.358982 0.074672
Si Si7 0.898243 0.651240 0.665672
Si Si8 0.459407 0.670532 0.220716
O O1 0.026674 0.005036 0.598938
O O2 0.445796 0.950792 0.838794
O O3 0.458958 0.747173 0.090730
O O4 0.500000 0.000000 0.000000
O O5 0.660153 0.409933 0.361627
O O6 0.664674 0.593239 0.125118
O O7 0.400640 0.372442 0.080442
O O8 0.205286 0.635630 0.856170
O O9 0.214330 0.206670 0.440200
O O10 0.464760 0.894829 0.743985
O O11 0.563158 0.481590 0.394931
O O12 0.003814 0.261834 0.801013
O O13 0.408877 0.268810 0.360772
O O14 0.949880 0.471959 0.846563
O O15 0.857210 0.263371 0.006708
O O16 0.000000 0.500000 0.000000
O O17 0.676837 0.697938 0.414256
#
# Coordination Sequence:
#
# PCOD9098882 Si02
#       8
#     2   2   2   2   2   2   2   2
#     4  11  22  37  59  87 125 158 193 243 299 354
#     4  10  21  36  57  84 117 160 199 241 290 352
#     4  11  23  37  57  91 128 157 190 240 304 360
#     4  10  20  37  58  82 117 150 201 248 295 338
#     4  11  22  35  55  85 124 159 193 237 298 365
#     4   9  20  36  62  90 111 150 205 263 285 333
#     4  11  20  39  61  91 119 153 200 248 294 352
#     4  11  20  37  64  90 113 154 206 254 292 340
#
# _framework density 21.918082999999999
#
# number of rings (size 3 to 8) (size 9 to 14) (size 15 to 20)
#    0.000    1.500    2.500    5.250    0.000    1.000 
#    0.000    0.000    0.000    7.500    0.000    0.000 
#    0.000    0.000    0.000    0.000    0.000    0.000 
#
# Total GULP energy -89200.935342 kJ/mol
# GULP energy per Si atom -5575.058459 kJ/mol
# Density = 2.186820 g / cm^3
# Si number density = 21.918083 Si / 1000 Ang^3
#
#
#
# Elastic Constant Matrix: (Units=GPa)
#
#
# Indices 1 2 3 4 5 6 
#
# 1 48.8544 8.7964 4.2150 6.4556 -10.6299 -13.2993
# 2 8.7964 61.3459 27.8241 6.9853 -6.7396 -29.0592
# 3 4.2150 27.8241 80.5312 11.6215 4.7817 -23.8739
# 4 6.4556 6.9853 11.6215 33.5830 -10.3192 -4.1405
# 5 -10.6299 -6.7396 4.7817 -10.3192 30.4812 -0.3897
# 6 -13.2993 -29.0592 -23.8739 -4.1405 -0.3897 29.8153
#
#
#
# Elastic Compliance Matrix: (Units=1/GPa)
#
#
# Indices 1 2 3 4 5 6 
#
# 1 0.026777 0.005400 0.001894 -0.001574 0.009940 0.018635
# 2 0.005400 0.033515 -0.002678 0.000123 0.010178 0.033080
# 3 0.001894 -0.002678 0.017819 -0.005953 -0.004594 0.011617
# 4 -0.001574 0.000123 -0.005953 0.035957 0.012583 -0.000191
# 5 0.009940 0.010178 -0.004594 0.012583 0.043671 0.012994
# 6 0.018635 0.033080 0.011617 -0.000191 0.012994 0.083538
#
#
# Mechanical properties :
#
#
# Convention : Reuss Voigt Hill
#
# Bulk Modulus (GPa) = 11.44895 30.26696 20.85796
# Shear Modulus (GPa) = 19.14538 28.76896 23.95717
#
# Velocity S-wave (km/s) = 2.95870 3.62687 3.30969
# Velocity P-wave (km/s) = 4.11178 5.60161 4.91349
#
# Compressibility (1/GPa) = 0.08734425
#
# Stress axis : x y z
#
# Youngs Moduli (GPa) = 37.34535 29.83723 56.11909
#
# Poissons Ratio (x) = -0.16112 -0.10630
# Poissons Ratio (y) = -0.20166 0.15028
# Poissons Ratio (z) = -0.07074 0.07990
#
# Static dielectric constant tensor:
#      x y z
#    x 1.860960 0.085140 -0.000030 
#    y 0.085140 1.932920 0.016810 
#    z -0.000030 0.016810 1.810680 
# 
# From -- ./inp_files/598215.got.cif
#   From: 2010.05.17/outbox.cif.g08.bks.cpg/sg2_300_cif.got.tgz:598215.got - 2010.06.03 11:33:40.
