data_PCOD9098128
_publ_section_title
;
Structure prediction by ZEFSAII (Michael W. Deem and Ramdas Pophale) SiO2 
 PCOD9098128
Probable space group: P -1
;
_chemical_formula_sum "Si O2"
_cell_formula_units_Z 14
_cell_length_a 14.560073
_cell_length_b 9.723893
_cell_length_c 8.084405
_cell_angle_alpha 116.143230
_cell_angle_beta 99.276807
_cell_angle_gamma 32.906269
_cell_volume 504.499240
_symmetry_space_group_name_H-M "P -1"
_symmetry_group_IT_number 2
_symmetry_cell_setting 'triclinic'
loop_
_space_group_symop_operation_xyz
x,y,z
-x,-y,-z
loop_
_atom_site_type_symbol
_atom_site_label
_atom_site_fract_x
_atom_site_fract_y
_atom_site_fract_z
Si Si1 0.214075 0.608056 0.502787
Si Si2 0.333234 0.172750 0.927678
Si Si3 0.562341 0.024319 0.721334
Si Si4 0.172712 0.865197 0.937856
Si Si5 0.305441 0.992887 0.549320
Si Si6 0.891432 0.686625 0.841565
Si Si7 0.769811 0.222180 0.720061
O O1 0.319506 0.301166 0.410209
O O2 0.256151 0.600896 0.322206
O O3 0.248553 0.691996 0.693013
O O4 0.994382 0.882582 0.599283
O O5 0.360999 0.969774 0.735637
O O6 0.353555 0.272656 0.846067
O O7 0.140311 0.406437 0.083330
O O8 0.500000 0.000000 0.000000
O O9 0.571679 0.085665 0.581227
O O10 0.692282 0.949403 0.830018
O O11 0.285165 0.698715 0.059008
O O12 0.108932 0.131599 0.030251
O O13 0.000000 0.000000 0.000000
O O14 0.090905 0.356999 0.648443
O O15 0.318710 0.798135 0.404993
#
# Coordination Sequence:
#
# PCOD9098128 Si02
#       7
#     2   2   2   2   2   2   2
#     4  10  21  38  60  93 136 165 209 268 329 383
#     4  10  25  41  58  96 138 167 207 276 332 382
#     4  11  22  42  65  95 133 167 213 267 331 387
#     4  10  20  37  60  99 134 160 210 281 323 373
#     4  12  20  39  71  95 120 172 226 266 317 388
#     4  11  21  40  68  98 126 163 224 271 315 387
#     4  10  20  36  63  96 127 168 213 271 324 378
#
# _framework density 27.750287
#
# number of rings (size 3 to 8) (size 9 to 14) (size 15 to 20)
#    0.000    1.429    2.857    3.857    0.000    0.000 
#   12.857    2.857    0.000    1.714    0.000    0.000 
#    0.000    0.000    0.000    0.000    0.000    0.000 
#
# Total GULP energy -78299.206254 kJ/mol
# GULP energy per Si atom -5592.800447 kJ/mol
# Density = 2.768713 g / cm^3
# Si number density = 27.750287 Si / 1000 Ang^3
#
#
#
# Elastic Constant Matrix: (Units=GPa)
#
#
# Indices 1 2 3 4 5 6 
#
# 1 190.8691 52.8299 45.1015 -3.5356 5.5689 2.8763
# 2 52.8299 88.2691 8.9545 4.3164 7.8037 -4.1932
# 3 45.1015 8.9545 112.2700 -22.0928 13.3272 4.3267
# 4 -3.5356 4.3164 -22.0928 38.9102 1.8509 11.7864
# 5 5.5689 7.8037 13.3272 1.8509 66.8909 -3.9700
# 6 2.8763 -4.1932 4.3267 11.7864 -3.9700 46.2343
#
#
#
# Elastic Compliance Matrix: (Units=1/GPa)
#
#
# Indices 1 2 3 4 5 6 
#
# 1 0.006917 -0.003923 -0.002544 -0.000262 0.000369 -0.000450
# 2 -0.003923 0.013990 0.000032 -0.002455 -0.001123 0.002039
# 3 -0.002544 0.000032 0.011830 0.007538 -0.002541 -0.003086
# 4 -0.000262 -0.002455 0.007538 0.033272 -0.002686 -0.009624
# 5 0.000369 -0.001123 -0.002541 -0.002686 0.015758 0.002151
# 6 -0.000450 0.002039 -0.003086 -0.009624 0.002151 0.024769
#
#
# Mechanical properties :
#
#
# Convention : Reuss Voigt Hill
#
# Bulk Modulus (GPa) = 50.33441 67.24222 58.78832
# Shear Modulus (GPa) = 39.67318 49.37522 44.52420
#
# Velocity S-wave (km/s) = 3.78517 4.22271 4.00992
# Velocity P-wave (km/s) = 6.10582 6.93245 6.53223
#
# Compressibility (1/GPa) = 0.01986712
#
# Stress axis : x y z
#
# Youngs Moduli (GPa) = 144.56336 71.47951 84.52763
#
# Poissons Ratio (x) = 0.28043 0.21504
# Poissons Ratio (y) = 0.56715 -0.00270
# Poissons Ratio (z) = 0.36778 -0.00228
#
# Static dielectric constant tensor:
#      x y z
#    x 2.083380 -0.019280 -0.049230 
#    y -0.019280 2.205950 -0.120570 
#    z -0.049230 -0.120570 2.418210 
# 
# From -- ./inp_files/159415.got.cif
#   From: 2010.05.17/outbox.cif.g08.bks.cpg/sg2_80_cif.got.tgz:159415.got - 2010.06.03 11:33:40.
