data_PCOD9098495
_publ_section_title
;
Structure prediction by ZEFSAII (Michael W. Deem and Ramdas Pophale) SiO2 
 PCOD9098495
Probable space group: P -1
;
_chemical_formula_sum "Si O2"
_cell_formula_units_Z 14
_cell_length_a 11.716594
_cell_length_b 23.195235
_cell_length_c 8.552318
_cell_angle_alpha 140.860707
_cell_angle_beta 58.891485
_cell_angle_gamma 150.586770
_cell_volume 618.530437
_symmetry_space_group_name_H-M "P -1"
_symmetry_group_IT_number 2
_symmetry_cell_setting 'triclinic'
loop_
_space_group_symop_operation_xyz
x,y,z
-x,-y,-z
loop_
_atom_site_type_symbol
_atom_site_label
_atom_site_fract_x
_atom_site_fract_y
_atom_site_fract_z
Si Si1 0.386031 0.817870 0.393928
Si Si2 0.356785 0.967117 0.888269
Si Si3 0.654977 0.800690 0.175832
Si Si4 0.271413 0.438909 0.508399
Si Si5 0.025747 0.490270 0.212486
Si Si6 0.751200 0.890730 0.660774
Si Si7 0.707432 0.444870 0.554782
O O1 0.479726 0.977755 0.686522
O O2 0.629800 0.893040 0.349551
O O3 0.227721 0.676075 0.358482
O O4 0.165686 0.677415 0.121235
O O5 0.036645 0.763470 0.654313
O O6 0.500000 0.000000 0.000000
O O7 0.375529 0.085226 0.159431
O O8 0.678768 0.811867 0.371346
O O9 0.394887 0.597380 0.854047
O O10 0.925596 0.917482 0.161009
O O11 0.500000 0.500000 0.500000
O O12 0.240305 0.436754 0.339209
O O13 0.166467 0.502528 0.255629
O O14 0.836117 0.442329 0.350694
O O15 0.612359 0.747852 0.591891
#
# Coordination Sequence:
#
# PCOD9098495 Si02
#       7
#     2   2   2   2   2   2   2
#     4  11  19  40  71  95 130 185 224 267 336 426
#     4  12  23  41  69 108 131 176 231 287 332 400
#     4  11  22  44  67  97 136 193 222 264 353 424
#     4  12  25  45  72  95 135 185 234 275 341 416
#     4  10  20  36  67 100 128 176 226 275 339 404
#     4  11  25  41  70  98 143 176 230 282 344 403
#     4  11  22  40  67 101 137 174 227 284 341 402
#
# _framework density 22.634295000000002
#
# number of rings (size 3 to 8) (size 9 to 14) (size 15 to 20)
#    0.000    0.857    7.143    0.857    2.000    0.571 
#    0.000    1.429    3.143    0.000    0.000    0.000 
#    0.000    0.000    0.000    0.000    0.000    0.000 
#
# Total GULP energy -78057.375807 kJ/mol
# GULP energy per Si atom -5575.526843 kJ/mol
# Density = 2.258278 g / cm^3
# Si number density = 22.634295 Si / 1000 Ang^3
#
#
#
# Elastic Constant Matrix: (Units=GPa)
#
#
# Indices 1 2 3 4 5 6 
#
# 1 80.9396 21.3936 18.2296 -16.9761 8.5716 12.0834
# 2 21.3936 41.6844 -12.3102 -1.6117 2.1007 9.8252
# 3 18.2296 -12.3102 58.4789 -9.6824 16.9170 0.5965
# 4 -16.9761 -1.6117 -9.6824 20.2884 11.4677 1.3957
# 5 8.5716 2.1007 16.9170 11.4677 39.1669 -8.8288
# 6 12.0834 9.8252 0.5965 1.3957 -8.8288 31.7406
#
#
#
# Elastic Compliance Matrix: (Units=1/GPa)
#
#
# Indices 1 2 3 4 5 6 
#
# 1 0.024374 -0.006664 0.001633 0.031803 -0.018076 -0.013673
# 2 -0.006664 0.037260 0.017175 0.015457 -0.015724 -0.014373
# 3 0.001633 0.017175 0.036358 0.039661 -0.032520 -0.017411
# 4 0.031803 0.015457 0.039661 0.142633 -0.076891 -0.045296
# 5 -0.018076 -0.015724 -0.032520 -0.076891 0.075150 0.036644
# 6 -0.013673 -0.014373 -0.017411 -0.045296 0.036644 0.053671
#
#
# Mechanical properties :
#
#
# Convention : Reuss Voigt Hill
#
# Bulk Modulus (GPa) = 8.17787 26.19210 17.18499
# Shear Modulus (GPa) = 12.95613 28.49183 20.72398
#
# Velocity S-wave (km/s) = 2.39511 3.55179 3.02917
# Velocity P-wave (km/s) = 3.35702 5.33079 4.45460
#
# Compressibility (1/GPa) = 0.12228117
#
# Stress axis : x y z
#
# Youngs Moduli (GPa) = 41.02702 26.83864 27.50403
#
# Poissons Ratio (x) = 0.17885 -0.04492
# Poissons Ratio (y) = 0.27340 -0.47239
# Poissons Ratio (z) = -0.06701 -0.46096
#
# Static dielectric constant tensor:
#      x y z
#    x 1.889450 0.008950 -0.031270 
#    y 0.008950 1.870050 -0.001010 
#    z -0.031270 -0.001010 1.910820 
# 
# From -- ./inp_files/182284.got.cif
#   From: 2010.05.17/outbox.cif.g08.bks.cpg/sg2_92_cif.got.tgz:182284.got - 2010.06.03 11:33:40.
