data_PCOD9098465
_publ_section_title
;
Structure prediction by ZEFSAII (Michael W. Deem and Ramdas Pophale) SiO2 
 PCOD9098465
Probable space group: P -1
;
_chemical_formula_sum "Si O2"
_cell_formula_units_Z 13
_cell_length_a 11.635207
_cell_length_b 11.648839
_cell_length_c 13.920394
_cell_angle_alpha 29.766635
_cell_angle_beta 29.606201
_cell_angle_gamma 36.672901
_cell_volume 454.063300
_symmetry_space_group_name_H-M "P -1"
_symmetry_group_IT_number 2
_symmetry_cell_setting 'triclinic'
loop_
_space_group_symop_operation_xyz
x,y,z
-x,-y,-z
loop_
_atom_site_type_symbol
_atom_site_label
_atom_site_fract_x
_atom_site_fract_y
_atom_site_fract_z
Si Si1 0.122587 0.289305 0.827148
Si Si2 0.498953 0.445747 0.290541
Si Si3 0.785642 0.718864 0.618901
Si Si4 0.500000 0.000000 0.500000
Si Si5 0.421495 0.254008 0.824189
Si Si6 0.948034 0.222076 0.445270
Si Si7 0.270795 0.774533 0.043601
O O1 0.297884 0.373095 0.559246
O O2 0.253285 0.232574 0.875308
O O3 0.946633 0.536360 0.806253
O O4 0.112564 0.029365 0.986444
O O5 0.657402 0.556715 0.172169
O O6 0.378538 0.651388 0.154187
O O7 0.609688 0.213465 0.319881
O O8 0.754339 0.810269 0.467412
O O9 0.822656 0.435105 0.792072
O O10 0.954680 0.842849 0.470755
O O11 0.504539 0.812398 0.783935
O O12 0.670998 0.302829 0.568946
O O13 0.500000 0.000000 0.000000
O O14 0.000000 0.000000 0.500000
#
# Coordination Sequence:
#
# PCOD9098465 Si02
#       7
#     2   2   2   1   2   2   2
#     4  11  22  42  69  91 133 180 218 267 340 388
#     4  10  20  36  66  96 119 172 224 258 319 397
#     4  10  22  40  64 101 134 170 224 275 322 394
#     4  10  20  36  66  94 132 182 202 268 340 388
#     4  11  23  43  70  94 131 181 223 264 330 409
#     4  11  25  41  66 100 133 172 221 288 323 376
#     4  10  20  40  69  93 128 177 224 259 330 412
#
# _framework density 28.630369999999999
#
# number of rings (size 3 to 8) (size 9 to 14) (size 15 to 20)
#    0.000    1.538    3.077    2.769    2.154    0.615 
#    0.000   17.692    0.000    0.000    0.000    0.000 
#    0.000    0.000    0.000    0.000    0.000    0.000 
#
# Total GULP energy -72435.292500 kJ/mol
# GULP energy per Si atom -5571.945577 kJ/mol
# Density = 2.856521 g / cm^3
# Si number density = 28.630370 Si / 1000 Ang^3
#
#
#
# Elastic Constant Matrix: (Units=GPa)
#
#
# Indices 1 2 3 4 5 6 
#
# 1 180.1993 29.6342 0.3204 -21.5580 -34.3101 48.6691
# 2 29.6342 184.1983 51.5867 -50.7639 -20.3062 49.6362
# 3 0.3204 51.5867 101.7150 -25.9012 -22.2870 26.7591
# 4 -21.5580 -50.7639 -25.9012 69.7602 15.7071 -7.5224
# 5 -34.3101 -20.3062 -22.2870 15.7071 34.1598 -15.0949
# 6 48.6691 49.6362 26.7591 -7.5224 -15.0949 51.8688
#
#
#
# Elastic Compliance Matrix: (Units=1/GPa)
#
#
# Indices 1 2 3 4 5 6 
#
# 1 0.009947 0.001711 0.004349 0.003044 0.007805 -0.010501
# 2 0.001711 0.009676 -0.000839 0.006269 -0.000192 -0.009579
# 3 0.004349 -0.000839 0.015150 0.003564 0.008540 -0.008092
# 4 0.003044 0.006269 0.003564 0.021233 -0.004612 -0.008957
# 5 0.007805 -0.000192 0.008540 -0.004612 0.045093 0.000909
# 6 -0.010501 -0.009579 -0.008092 -0.008957 0.000909 0.041440
#
#
# Mechanical properties :
#
#
# Convention : Reuss Voigt Hill
#
# Bulk Modulus (GPa) = 22.11624 69.91059 46.01341
# Shear Modulus (GPa) = 33.97435 56.79584 45.38510
#
# Velocity S-wave (km/s) = 3.44852 4.45878 3.98579
# Velocity P-wave (km/s) = 4.85777 7.13995 6.10642
#
# Compressibility (1/GPa) = 0.04521565
#
# Stress axis : x y z
#
# Youngs Moduli (GPa) = 100.53598 103.34350 66.00472
#
# Poissons Ratio (x) = -0.17680 -0.28704
# Poissons Ratio (y) = -0.17200 0.05535
# Poissons Ratio (z) = -0.43721 0.08666
#
# Static dielectric constant tensor:
#      x y z
#    x 2.040090 -0.014950 -0.163110 
#    y -0.014950 2.270610 0.057370 
#    z -0.163110 0.057370 2.277360 
# 
# From -- ./inp_files/516507.got.cif
#   From: 2010.05.17/outbox.cif.g08.bks.cpg/sg2_259_cif.got.tgz:516507.got - 2010.06.03 11:33:40.
