data_PCOD9098823
_publ_section_title
;
Structure prediction by ZEFSAII (Michael W. Deem and Ramdas Pophale) SiO2 
 PCOD9098823
Probable space group: P -1
;
_chemical_formula_sum "Si O2"
_cell_formula_units_Z 16
_cell_length_a 10.392592
_cell_length_b 8.213020
_cell_length_c 8.651644
_cell_angle_alpha 107.837260
_cell_angle_beta 109.958600
_cell_angle_gamma 92.623601
_cell_volume 651.347111
_symmetry_space_group_name_H-M "P -1"
_symmetry_group_IT_number 2
_symmetry_cell_setting 'triclinic'
loop_
_space_group_symop_operation_xyz
x,y,z
-x,-y,-z
loop_
_atom_site_type_symbol
_atom_site_label
_atom_site_fract_x
_atom_site_fract_y
_atom_site_fract_z
Si Si1 0.375509 0.904301 0.315472
Si Si2 0.674802 0.578612 0.814346
Si Si3 0.906689 0.533116 0.115346
Si Si4 0.467440 0.360705 0.811486
Si Si5 0.850024 0.818530 0.388139
Si Si6 0.892954 0.594581 0.633189
Si Si7 0.536548 0.887932 0.840692
Si Si8 0.767760 0.196706 0.468117
O O1 0.446716 0.794360 0.189144
O O2 0.262102 0.810998 0.359905
O O3 0.500000 0.000000 0.500000
O O4 0.347335 0.047768 0.226337
O O5 0.531489 0.442828 0.697514
O O6 0.778015 0.613056 0.723094
O O7 0.614132 0.741481 0.899221
O O8 0.757610 0.504957 0.966439
O O9 0.923601 0.725820 0.253791
O O10 0.956139 0.408787 0.228487
O O11 0.000000 0.500000 0.000000
O O12 0.308751 0.280027 0.709649
O O13 0.500000 0.500000 0.000000
O O14 0.897861 0.742165 0.548109
O O15 0.841015 0.023725 0.423330
O O16 0.843713 0.389568 0.507807
O O17 0.385136 0.827061 0.681029
O O18 0.500000 0.000000 0.000000
#
# Coordination Sequence:
#
# PCOD9098823 Si02
#       8
#     2   2   2   2   2   2   2   2
#     4  10  20  37  57  88 138 167 195 265 331 388
#     4  11  22  38  66  91 132 170 213 266 335 392
#     4  10  24  47  65  89 129 176 224 276 319 379
#     4  12  21  35  64  97 128 171 207 256 345 400
#     4  12  23  42  71  96 130 170 218 274 332 386
#     4  11  25  42  68  94 124 178 228 266 313 391
#     4  11  21  36  58  95 132 166 207 266 335 398
#     4  11  23  41  65  99 135 167 211 274 331 399
#
# _framework density 24.564474000000001
#
# number of rings (size 3 to 8) (size 9 to 14) (size 15 to 20)
#    0.000    1.000    5.000    3.375    1.750    1.500 
#    0.000    0.000    2.750    3.750    0.000    0.000 
#    0.000    0.000    0.000    0.000    0.000    0.000 
#
# Total GULP energy -89163.692833 kJ/mol
# GULP energy per Si atom -5572.730802 kJ/mol
# Density = 2.450856 g / cm^3
# Si number density = 24.564474 Si / 1000 Ang^3
#
#
#
# Elastic Constant Matrix: (Units=GPa)
#
#
# Indices 1 2 3 4 5 6 
#
# 1 105.5894 52.3894 40.1016 -2.4664 -23.3307 -19.9721
# 2 52.3894 104.4823 60.7980 -5.7295 -0.2135 -27.5162
# 3 40.1016 60.7980 103.4061 -4.5497 -13.0967 -7.7520
# 4 -2.4664 -5.7295 -4.5497 43.5259 -8.8156 -11.6750
# 5 -23.3307 -0.2135 -13.0967 -8.8156 40.0174 2.0591
# 6 -19.9721 -27.5162 -7.7520 -11.6750 2.0591 49.1252
#
#
#
# Elastic Compliance Matrix: (Units=1/GPa)
#
#
# Indices 1 2 3 4 5 6 
#
# 1 0.015611 -0.006495 -0.000739 0.002581 0.009248 0.002818
# 2 -0.006495 0.020888 -0.009914 0.002181 -0.006866 0.008301
# 3 -0.000739 -0.009914 0.016197 0.000466 0.005095 -0.003400
# 4 0.002581 0.002181 0.000466 0.027202 0.007224 0.008507
# 5 0.009248 -0.006866 0.005095 0.007224 0.033550 0.001028
# 6 0.002818 0.008301 -0.003400 0.008507 0.001028 0.027594
#
#
# Mechanical properties :
#
#
# Convention : Reuss Voigt Hill
#
# Bulk Modulus (GPa) = 54.34728 68.89508 61.62118
# Shear Modulus (GPa) = 27.55266 37.21295 32.38281
#
# Velocity S-wave (km/s) = 3.35273 3.89641 3.63475
# Velocity P-wave (km/s) = 6.09591 6.95343 6.53874
#
# Compressibility (1/GPa) = 0.01840018
#
# Stress axis : x y z
#
# Youngs Moduli (GPa) = 64.05912 47.87363 61.73962
#
# Poissons Ratio (x) = 0.31093 0.04563
# Poissons Ratio (y) = 0.41605 0.61209
# Poissons Ratio (z) = 0.04735 0.47462
#
# Static dielectric constant tensor:
#      x y z
#    x 2.027520 0.034230 0.004330 
#    y 0.034230 2.314550 0.023150 
#    z 0.004330 0.023150 2.000010 
# 
# From -- ./inp_files/240630.got.cif
#   From: 2010.05.17/outbox.cif.g08.bks.cpg/sg2_121_cif.got.tgz:240630.got - 2010.06.03 11:33:40.
