data_PCOD9098245
_publ_section_title
;
Structure prediction by ZEFSAII (Michael W. Deem and Ramdas Pophale) SiO2 
 PCOD9098245
Probable space group: P -1
;
_chemical_formula_sum "Si O2"
_cell_formula_units_Z 13
_cell_length_a 8.357070
_cell_length_b 18.845313
_cell_length_c 18.791181
_cell_angle_alpha 21.872072
_cell_angle_beta 32.420954
_cell_angle_gamma 24.377570
_cell_volume 455.042377
_symmetry_space_group_name_H-M "P -1"
_symmetry_group_IT_number 2
_symmetry_cell_setting 'triclinic'
loop_
_space_group_symop_operation_xyz
x,y,z
-x,-y,-z
loop_
_atom_site_type_symbol
_atom_site_label
_atom_site_fract_x
_atom_site_fract_y
_atom_site_fract_z
Si Si1 0.804382 0.583928 0.780333
Si Si2 0.087366 0.772902 0.395538
Si Si3 0.500000 0.000000 0.000000
Si Si4 0.843474 0.248948 0.238069
Si Si5 0.817187 0.391018 0.636011
Si Si6 0.539832 0.102172 0.021007
Si Si7 0.015366 0.750974 0.659796
O O1 0.470813 0.607984 0.841109
O O2 0.840390 0.765566 0.553603
O O3 0.224457 0.295728 0.892410
O O4 0.769260 0.677961 0.786758
O O5 0.500000 0.500000 0.500000
O O6 0.955646 0.756627 0.382440
O O7 0.182603 0.955280 0.188377
O O8 0.751483 0.872574 0.103157
O O9 0.820790 0.360477 0.219408
O O10 0.832570 0.031832 0.465895
O O11 0.264681 0.130323 0.157467
O O12 0.756185 0.205596 0.865019
O O13 0.366521 0.629096 0.585034
O O14 0.000000 0.500000 0.500000
#
# Coordination Sequence:
#
# PCOD9098245 Si02
#       7
#     2   2   1   2   2   2   2
#     4  11  21  39  64  91 125 173 209 257 330 381
#     4  11  19  38  65  90 124 165 211 261 322 368
#     4  10  20  36  64  92 122 164 210 268 314 376
#     4  11  23  39  62  90 127 168 214 261 322 384
#     4  10  21  39  62  86 121 169 208 259 328 374
#     4  10  22  38  64  95 125 161 217 269 316 383
#     4  10  22  39  60  87 127 166 210 264 312 385
#
# _framework density 28.568767999999999
#
# number of rings (size 3 to 8) (size 9 to 14) (size 15 to 20)
#    0.000    1.538    4.615    2.769    0.000    2.462 
#    0.000    3.846    6.769    0.000    0.000    0.000 
#    0.000    0.000    0.000    0.000    0.000    0.000 
#
# Total GULP energy -72458.775171 kJ/mol
# GULP energy per Si atom -5573.751936 kJ/mol
# Density = 2.850374 g / cm^3
# Si number density = 28.568768 Si / 1000 Ang^3
#
#
#
# Elastic Constant Matrix: (Units=GPa)
#
#
# Indices 1 2 3 4 5 6 
#
# 1 207.1316 19.3298 94.9343 1.8599 -33.8839 22.8558
# 2 19.3298 55.9754 32.1799 8.5341 2.8345 12.6437
# 3 94.9343 32.1799 166.7679 17.7694 -53.0616 -1.9879
# 4 1.8599 8.5341 17.7694 42.3848 -6.5214 4.2075
# 5 -33.8839 2.8345 -53.0616 -6.5214 60.9578 -4.4669
# 6 22.8558 12.6437 -1.9879 4.2075 -4.4669 47.0143
#
#
#
# Elastic Compliance Matrix: (Units=1/GPa)
#
#
# Indices 1 2 3 4 5 6 
#
# 1 0.007266 0.000751 -0.004543 0.001833 -0.000054 -0.004096
# 2 0.000751 0.024509 -0.007606 -0.002255 -0.008160 -0.007851
# 3 -0.004543 -0.007606 0.013543 -0.003048 0.009733 0.006024
# 4 0.001833 -0.002255 -0.003048 0.025662 0.001025 -0.002613
# 5 -0.000054 -0.008160 0.009733 0.001025 0.025701 0.004982
# 6 -0.004096 -0.007851 0.006024 -0.002613 0.004982 0.026335
#
#
# Mechanical properties :
#
#
# Convention : Reuss Voigt Hill
#
# Bulk Modulus (GPa) = 44.40021 80.30698 62.35359
# Shear Modulus (GPa) = 32.61147 48.96676 40.78911
#
# Velocity S-wave (km/s) = 3.38229 4.14453 3.78266
# Velocity P-wave (km/s) = 5.55233 7.14661 6.39931
#
# Compressibility (1/GPa) = 0.02252242
#
# Stress axis : x y z
#
# Youngs Moduli (GPa) = 137.61852 40.80133 73.83667
#
# Poissons Ratio (x) = -0.03063 0.33542
# Poissons Ratio (y) = -0.10331 0.56162
# Poissons Ratio (z) = 0.62516 0.31035
#
# Static dielectric constant tensor:
#      x y z
#    x 3.181420 0.681230 -0.175350 
#    y 0.681230 3.178410 -0.367990 
#    z -0.175350 -0.367990 2.308780 
# 
# From -- ./inp_files/310404.got.cif
#   From: 2010.05.17/outbox.cif.g08.bks.cpg/sg2_156_cif.got.tgz:310404.got - 2010.06.03 11:33:40.
