data_PCOD9098653
_publ_section_title
;
Structure prediction by ZEFSAII (Michael W. Deem and Ramdas Pophale) SiO2 
 PCOD9098653
Probable space group: P -1
;
_chemical_formula_sum "Si O2"
_cell_formula_units_Z 16
_cell_length_a 10.600529
_cell_length_b 15.968689
_cell_length_c 6.789827
_cell_angle_alpha 83.581210
_cell_angle_beta 131.520944
_cell_angle_gamma 94.152677
_cell_volume 855.143495
_symmetry_space_group_name_H-M "P -1"
_symmetry_group_IT_number 2
_symmetry_cell_setting 'triclinic'
loop_
_space_group_symop_operation_xyz
x,y,z
-x,-y,-z
loop_
_atom_site_type_symbol
_atom_site_label
_atom_site_fract_x
_atom_site_fract_y
_atom_site_fract_z
Si Si1 0.457083 0.807871 0.637785
Si Si2 0.707364 0.433945 0.072676
Si Si3 0.154826 0.684870 0.463962
Si Si4 0.319937 0.408330 0.740171
Si Si5 0.800211 0.757398 0.146257
Si Si6 0.185726 0.526510 0.248702
Si Si7 0.343735 0.083438 0.887962
Si Si8 0.544027 0.059227 0.716050
O O1 0.310067 0.746480 0.567556
O O2 0.413303 0.854469 0.375670
O O3 0.641789 0.763449 0.829284
O O4 0.496870 0.873735 0.840781
O O5 0.829806 0.360341 0.294865
O O6 0.750201 0.524411 0.190067
O O7 0.521972 0.409463 0.963117
O O8 0.711265 0.446147 0.842419
O O9 0.171906 0.606132 0.356487
O O10 0.978519 0.732724 0.247990
O O11 0.251112 0.316447 0.737015
O O12 0.269230 0.448905 0.470212
O O13 0.799288 0.848103 0.230108
O O14 0.000000 0.500000 0.000000
O O15 0.394005 0.073846 0.715224
O O16 0.322957 0.993893 0.000029
O O17 0.500000 0.000000 0.500000
#
# Coordination Sequence:
#
# PCOD9098653 Si02
#       8
#     2   2   2   2   2   2   2   2
#     4   9  20  36  58  84 112 149 187 233 284 331
#     4  10  20  38  56  76 109 155 193 236 288 335
#     4  11  22  39  57  82 121 150 192 242 286 329
#     4  10  20  37  57  78 110 149 195 240 282 334
#     4  10  20  37  55  85 115 144 189 239 282 335
#     4  11  23  37  54  83 112 158 197 237 289 341
#     4   8  18  35  61  87 111 148 189 224 284 340
#     4   9  16  36  64  85 114 151 181 225 284 346
#
# _framework density 18.71031
#
# number of rings (size 3 to 8) (size 9 to 14) (size 15 to 20)
#    0.750    1.500    1.250    1.875    0.000    4.000 
#    9.000    0.625    0.000    3.750    0.000    0.000 
#    0.000    0.000    0.000    0.000    0.000    0.000 
#
# Total GULP energy -89083.506097 kJ/mol
# GULP energy per Si atom -5567.719131 kJ/mol
# Density = 1.866772 g / cm^3
# Si number density = 18.710310 Si / 1000 Ang^3
#
#
#
# Elastic Constant Matrix: (Units=GPa)
#
#
# Indices 1 2 3 4 5 6 
#
# 1 46.9934 23.7275 27.6330 -17.6240 -2.2953 -2.9364
# 2 23.7275 62.3201 38.9437 -34.0836 1.2452 1.4344
# 3 27.6330 38.9437 64.2142 -18.9347 -12.3915 5.2414
# 4 -17.6240 -34.0836 -18.9347 31.1929 2.3624 2.1492
# 5 -2.2953 1.2452 -12.3915 2.3624 37.4740 -1.0655
# 6 -2.9364 1.4344 5.2414 2.1492 -1.0655 14.8469
#
#
#
# Elastic Compliance Matrix: (Units=1/GPa)
#
#
# Indices 1 2 3 4 5 6 
#
# 1 0.033101 0.003008 -0.013415 0.013474 -0.003107 0.008819
# 2 0.003008 0.059306 -0.023539 0.053586 -0.013105 -0.005522
# 3 -0.013415 -0.023539 0.035202 -0.012145 0.012077 -0.010182
# 4 0.013474 0.053586 -0.012145 0.092552 -0.011159 -0.012423
# 5 -0.003107 -0.013105 0.012077 -0.011159 0.031635 0.000274
# 6 0.008819 -0.005522 -0.010182 -0.012423 0.000274 0.075044
#
#
# Mechanical properties :
#
#
# Convention : Reuss Voigt Hill
#
# Bulk Modulus (GPa) = 16.74552 39.34847 28.04700
# Shear Modulus (GPa) = 12.05868 22.25098 17.15483
#
# Velocity S-wave (km/s) = 2.54144 3.45227 3.03126
# Velocity P-wave (km/s) = 4.19300 6.08004 5.22246
#
# Compressibility (1/GPa) = 0.05971746
#
# Stress axis : x y z
#
# Youngs Moduli (GPa) = 30.21014 16.86162 28.40759
#
# Poissons Ratio (x) = -0.05073 0.38110
# Poissons Ratio (y) = -0.09088 0.66869
# Poissons Ratio (z) = 0.40528 0.39691
#
# Static dielectric constant tensor:
#      x y z
#    x 1.651000 -0.018350 0.007250 
#    y -0.018350 1.680070 -0.020980 
#    z 0.007250 -0.020980 1.680500 
# 
# From -- ./inp_files/44400.got.cif
#   From: 2010.05.17/outbox.cif.g08.bks.cpg/sg2_23_cif.got.tgz:44400.got - 2010.06.03 11:33:40.
