data_PCOD9098264
_publ_section_title
;
Structure prediction by ZEFSAII (Michael W. Deem and Ramdas Pophale) SiO2 
 PCOD9098264
Probable space group: P -1
;
_chemical_formula_sum "Si O2"
_cell_formula_units_Z 16
_cell_length_a 15.546204
_cell_length_b 12.007769
_cell_length_c 22.608364
_cell_angle_alpha 155.627431
_cell_angle_beta 27.165256
_cell_angle_gamma 153.382564
_cell_volume 712.566516
_symmetry_space_group_name_H-M "P -1"
_symmetry_group_IT_number 2
_symmetry_cell_setting 'triclinic'
loop_
_space_group_symop_operation_xyz
x,y,z
-x,-y,-z
loop_
_atom_site_type_symbol
_atom_site_label
_atom_site_fract_x
_atom_site_fract_y
_atom_site_fract_z
Si Si1 0.823977 0.336924 0.980635
Si Si2 0.574398 0.668145 0.313014
Si Si3 0.990723 0.726572 0.945955
Si Si4 0.152035 0.861073 0.317604
Si Si5 0.182959 0.180701 0.334138
Si Si6 0.542008 0.787416 0.072492
Si Si7 0.436933 0.326367 0.816810
Si Si8 0.827490 0.219660 0.509012
O O1 0.902055 0.526331 0.963395
O O2 0.785355 0.999431 0.828311
O O3 0.630970 0.387958 0.147335
O O4 0.000000 0.500000 0.000000
O O5 0.334430 0.533990 0.414167
O O6 0.577974 0.724449 0.268871
O O7 0.728034 0.943095 0.390429
O O8 0.979878 0.491627 0.788416
O O9 0.224316 0.968258 0.936050
O O10 0.811073 0.834680 0.091072
O O11 0.358194 0.894342 0.243256
O O12 0.226019 0.034210 0.294207
O O13 0.000000 0.000000 0.500000
O O14 0.950297 0.142644 0.448326
O O15 0.500000 0.500000 0.000000
O O16 0.513467 0.657048 0.959556
O O17 0.633914 0.256454 0.675136
O O18 0.000000 0.500000 0.500000
#
# Coordination Sequence:
#
# PCOD9098264 Si02
#       8
#     2   2   2   2   2   2   2   2
#     4  10  20  36  64  93 127 170 211 264 332 397
#     4  11  23  40  63  97 133 175 218 276 333 398
#     4   9  23  44  69  96 131 171 224 275 332 398
#     4  10  25  48  68 101 134 169 226 286 337 396
#     4  11  24  40  65  97 134 175 223 272 337 408
#     4  11  26  47  73  98 128 180 232 277 338 399
#     4  10  24  40  64  97 134 172 220 274 325 391
#     4  12  25  40  62 100 142 178 223 262 336 407
#
# _framework density 22.454046000000002
#
# number of rings (size 3 to 8) (size 9 to 14) (size 15 to 20)
#    0.000    1.500    2.500    1.500    8.750    2.500 
#    2.250    0.000    0.000    0.000    0.000    0.000 
#    0.000    0.000    0.000    0.000    0.000    0.000 
#
# Total GULP energy -89222.983933 kJ/mol
# GULP energy per Si atom -5576.436496 kJ/mol
# Density = 2.240294 g / cm^3
# Si number density = 22.454046 Si / 1000 Ang^3
#
#
#
# Elastic Constant Matrix: (Units=GPa)
#
#
# Indices 1 2 3 4 5 6 
#
# 1 69.3209 37.2770 31.1473 -10.3245 -20.0818 19.1357
# 2 37.2770 158.3201 53.6308 -8.8792 -5.3689 42.7825
# 3 31.1473 53.6308 141.5469 -23.5495 -29.3794 18.4699
# 4 -10.3245 -8.8792 -23.5495 17.1718 10.2055 -10.2473
# 5 -20.0818 -5.3689 -29.3794 10.2055 39.1395 -8.4749
# 6 19.1357 42.7825 18.4699 -10.2473 -8.4749 39.2366
#
#
#
# Elastic Compliance Matrix: (Units=1/GPa)
#
#
# Indices 1 2 3 4 5 6 
#
# 1 0.020093 -0.003070 -0.000701 0.002626 0.007869 -0.003737
# 2 -0.003070 0.010760 -0.003700 -0.005538 -0.003761 -0.010752
# 3 -0.000701 -0.003700 0.011260 0.012022 0.005172 0.003333
# 4 0.002626 -0.005538 0.012022 0.091749 -0.009775 0.020948
# 5 0.007869 -0.003761 0.005172 -0.009775 0.036171 0.003088
# 6 -0.003737 -0.010752 0.003333 0.020948 0.003088 0.043602
#
#
# Mechanical properties :
#
#
# Convention : Reuss Voigt Hill
#
# Bulk Modulus (GPa) = 36.80286 68.14423 52.47354
# Shear Modulus (GPa) = 21.04085 35.58509 28.31297
#
# Velocity S-wave (km/s) = 3.06447 3.98527 3.55481
# Velocity P-wave (km/s) = 5.38026 7.18267 6.34578
#
# Compressibility (1/GPa) = 0.02717180
#
# Stress axis : x y z
#
# Youngs Moduli (GPa) = 49.76738 92.93747 88.81242
#
# Poissons Ratio (x) = 0.28529 0.06223
# Poissons Ratio (y) = 0.15277 0.32863
# Poissons Ratio (z) = 0.03487 0.34389
#
# Static dielectric constant tensor:
#      x y z
#    x 1.875240 -0.018000 -0.035590 
#    y -0.018000 1.860450 -0.074910 
#    z -0.035590 -0.074910 1.944480 
# 
# From -- ./inp_files/475891.got.cif
#   From: 2010.05.17/outbox.cif.g08.bks.cpg/sg2_238_cif.got.tgz:475891.got - 2010.06.03 11:33:40.
