data_PCOD9098998
_publ_section_title
;
Structure prediction by ZEFSAII (Michael W. Deem and Ramdas Pophale) SiO2 
 PCOD9098998
Probable space group: P -1
;
_chemical_formula_sum "Si O2"
_cell_formula_units_Z 14
_cell_length_a 13.972962
_cell_length_b 18.343029
_cell_length_c 10.944015
_cell_angle_alpha 39.389987
_cell_angle_beta 32.016527
_cell_angle_gamma 29.311348
_cell_volume 721.936774
_symmetry_space_group_name_H-M "P -1"
_symmetry_group_IT_number 2
_symmetry_cell_setting 'triclinic'
loop_
_space_group_symop_operation_xyz
x,y,z
-x,-y,-z
loop_
_atom_site_type_symbol
_atom_site_label
_atom_site_fract_x
_atom_site_fract_y
_atom_site_fract_z
Si Si1 0.715173 0.392485 0.313333
Si Si2 0.547165 0.533251 0.076487
Si Si3 0.984841 0.976911 0.332899
Si Si4 0.190942 0.753977 0.004580
Si Si5 0.044391 0.728543 0.430245
Si Si6 0.339220 0.853340 0.325625
Si Si7 0.868411 0.675067 0.906075
O O1 0.500000 0.500000 0.500000
O O2 0.685970 0.493996 0.102050
O O3 0.695193 0.268944 0.452000
O O4 0.961995 0.311142 0.217742
O O5 0.711168 0.388702 0.000914
O O6 0.307195 0.566756 0.339714
O O7 0.418727 0.683543 0.939145
O O8 0.898938 0.106996 0.160975
O O9 0.770389 0.038399 0.578901
O O10 0.066629 0.833907 0.352021
O O11 0.188331 0.935966 0.258428
O O12 0.994403 0.789321 0.267452
O O13 0.876332 0.715101 0.705516
O O14 0.608119 0.772293 0.114168
O O15 0.000000 0.500000 0.000000
#
# Coordination Sequence:
#
# PCOD9098998 Si02
#       7
#     2   2   2   2   2   2   2
#     4  12  18  39  62  92 119 157 199 255 307 357
#     4   9  18  33  62  87 118 157 210 247 294 360
#     4  11  21  40  62  88 130 165 200 250 308 374
#     4   9  19  35  63  90 116 167 210 244 298 363
#     4  10  20  37  58  91 121 160 206 243 300 366
#     4  11  24  38  61  95 123 161 204 251 317 358
#     4  12  24  36  65  95 124 155 206 264 302 360
#
# _framework density 19.39228
#
# number of rings (size 3 to 8) (size 9 to 14) (size 15 to 20)
#    0.857    0.571    5.714    0.429    0.000    0.571 
#    0.000    0.714    0.000    5.143    0.000    0.000 
#    0.000    0.000    0.000    0.000    0.000    0.000 
#
# Total GULP energy -77951.553759 kJ/mol
# GULP energy per Si atom -5567.968126 kJ/mol
# Density = 1.934814 g / cm^3
# Si number density = 19.392280 Si / 1000 Ang^3
#
#
#
# Elastic Constant Matrix: (Units=GPa)
#
#
# Indices 1 2 3 4 5 6 
#
# 1 75.1091 40.6976 50.7380 3.0723 34.5527 -8.9919
# 2 40.6976 74.2687 44.3370 3.7481 15.9574 -17.4419
# 3 50.7380 44.3370 106.5626 21.0197 18.0997 -8.8507
# 4 3.0723 3.7481 21.0197 44.9417 -7.1226 13.3591
# 5 34.5527 15.9574 18.0997 -7.1226 33.9739 -2.3371
# 6 -8.9919 -17.4419 -8.8507 13.3591 -2.3371 42.3564
#
#
#
# Elastic Compliance Matrix: (Units=1/GPa)
#
#
# Indices 1 2 3 4 5 6 
#
# 1 0.038498 -0.008574 -0.008604 -0.003486 -0.031120 0.002227
# 2 -0.008574 0.022365 -0.004625 -0.000984 0.000939 0.006785
# 3 -0.008604 -0.004625 0.017015 -0.007583 0.000423 0.002239
# 4 -0.003486 -0.000984 -0.007583 0.031896 0.013908 -0.012022
# 5 -0.031120 0.000939 0.000423 0.013908 0.062849 -0.007050
# 6 0.002227 0.006785 0.002239 -0.012022 -0.007050 0.030747
#
#
# Mechanical properties :
#
#
# Convention : Reuss Voigt Hill
#
# Bulk Modulus (GPa) = 29.17857 58.60951 43.89404
# Shear Modulus (GPa) = 19.34984 32.26558 25.80771
#
# Velocity S-wave (km/s) = 3.16224 4.08344 3.65200
# Velocity P-wave (km/s) = 5.33031 7.24716 6.36135
#
# Compressibility (1/GPa) = 0.03427173
#
# Stress axis : x y z
#
# Youngs Moduli (GPa) = 25.97570 44.71208 58.77087
#
# Poissons Ratio (x) = 0.38335 0.50568
# Poissons Ratio (y) = 0.22271 0.27182
# Poissons Ratio (z) = 0.22350 0.20680
#
# Static dielectric constant tensor:
#      x y z
#    x 1.747950 0.006080 0.012450 
#    y 0.006080 1.709420 -0.032130 
#    z 0.012450 -0.032130 1.692850 
# 
# From -- ./inp_files/457257.got.cif
#   From: 2010.05.17/outbox.cif.g08.bks.cpg/sg2_229_cif.got.tgz:457257.got - 2010.06.03 11:33:40.
