data_PCOD9098129
_publ_section_title
;
Structure prediction by ZEFSAII (Michael W. Deem and Ramdas Pophale) SiO2 
 PCOD9098129
Probable space group: P -1
;
_chemical_formula_sum "Si O2"
_cell_formula_units_Z 14
_cell_length_a 9.890766
_cell_length_b 12.196738
_cell_length_c 8.986164
_cell_angle_alpha 118.132719
_cell_angle_beta 135.169193
_cell_angle_gamma 65.519830
_cell_volume 668.376747
_symmetry_space_group_name_H-M "P -1"
_symmetry_group_IT_number 2
_symmetry_cell_setting 'triclinic'
loop_
_space_group_symop_operation_xyz
x,y,z
-x,-y,-z
loop_
_atom_site_type_symbol
_atom_site_label
_atom_site_fract_x
_atom_site_fract_y
_atom_site_fract_z
Si Si1 0.498812 0.301957 0.563382
Si Si2 0.720320 0.132087 0.125120
Si Si3 0.093383 0.460703 0.389319
Si Si4 0.539531 0.022309 0.371110
Si Si5 0.135373 0.763120 0.989640
Si Si6 0.035833 0.919859 0.285083
Si Si7 0.222798 0.688288 0.465858
O O1 0.309587 0.387427 0.523374
O O2 0.455710 0.168705 0.376532
O O3 0.649924 0.265758 0.791791
O O4 0.621216 0.361218 0.569238
O O5 0.671712 0.241932 0.276661
O O6 0.848443 0.188129 0.133313
O O7 0.851522 0.018056 0.236175
O O8 0.554229 0.071685 0.869642
O O9 0.112945 0.581402 0.381607
O O10 0.000000 0.500000 0.500000
O O11 0.964465 0.361640 0.157800
O O12 0.768222 0.015453 0.518578
O O13 0.500000 0.000000 0.500000
O O14 0.022915 0.869264 0.074098
O O15 0.076800 0.796745 0.340337
#
# Coordination Sequence:
#
# PCOD9098129 Si02
#       7
#     2   2   2   2   2   2   2
#     4  10  24  43  63  93 132 165 207 268 319 372
#     4  12  20  39  66  95 132 163 208 263 315 375
#     4  12  24  43  69  92 121 171 222 260 310 374
#     4  10  20  36  63  96 128 165 211 252 318 380
#     4  10  22  39  65  97 122 167 218 252 319 376
#     4  10  23  38  63  95 130 166 206 263 317 375
#     4  10  24  44  60  98 133 165 213 262 316 382
#
# _framework density 20.946270999999999
#
# number of rings (size 3 to 8) (size 9 to 14) (size 15 to 20)
#    0.000    1.714    4.286    2.143    2.000    5.143 
#    0.000    5.714    0.000    0.000    0.000    0.000 
#    0.000    0.000    0.000    0.000    0.000    0.000 
#
# Total GULP energy -78234.282043 kJ/mol
# GULP energy per Si atom -5588.163003 kJ/mol
# Density = 2.089860 g / cm^3
# Si number density = 20.946271 Si / 1000 Ang^3
#
#
#
# Elastic Constant Matrix: (Units=GPa)
#
#
# Indices 1 2 3 4 5 6 
#
# 1 91.5870 27.7478 30.3421 9.0514 -9.9167 14.7540
# 2 27.7478 56.6457 29.9836 10.9392 10.4306 19.4822
# 3 30.3421 29.9836 66.8952 13.3424 16.0705 -4.6081
# 4 9.0514 10.9392 13.3424 23.0724 8.1043 2.2835
# 5 -9.9167 10.4306 16.0705 8.1043 31.2359 6.5340
# 6 14.7540 19.4822 -4.6081 2.2835 6.5340 40.2356
#
#
#
# Elastic Compliance Matrix: (Units=1/GPa)
#
#
# Indices 1 2 3 4 5 6 
#
# 1 0.018897 -0.002121 -0.011111 -0.004517 0.015572 -0.009447
# 2 -0.002121 0.032541 -0.013801 -0.005105 0.000299 -0.016318
# 3 -0.011111 -0.013801 0.032457 -0.003115 -0.018503 0.017655
# 4 -0.004517 -0.005105 -0.003115 0.053481 -0.012584 0.002780
# 5 0.015572 0.000299 -0.018503 -0.012584 0.052961 -0.015860
# 6 -0.009447 -0.016318 0.017655 0.002780 -0.015860 0.040659
#
#
# Mechanical properties :
#
#
# Convention : Reuss Voigt Hill
#
# Bulk Modulus (GPa) = 33.52548 43.47501 38.50024
# Shear Modulus (GPa) = 16.94897 27.37905 22.16401
#
# Velocity S-wave (km/s) = 2.84767 3.61932 3.25643
# Velocity P-wave (km/s) = 5.18194 6.18599 5.70609
#
# Compressibility (1/GPa) = 0.02982806
#
# Stress axis : x y z
#
# Youngs Moduli (GPa) = 52.91949 30.73066 30.81028
#
# Poissons Ratio (x) = 0.06518 0.34234
# Poissons Ratio (y) = 0.11225 0.42520
# Poissons Ratio (z) = 0.58800 0.42411
#
# Static dielectric constant tensor:
#      x y z
#    x 1.773420 0.004880 -0.012990 
#    y 0.004880 1.754920 0.006810 
#    z -0.012990 0.006810 1.765550 
# 
# From -- ./inp_files/175795.got.cif
#   From: 2010.05.17/outbox.cif.g08.bks.cpg/sg2_88_cif.got.tgz:175795.got - 2010.06.03 11:33:40.
