data_PCOD9098175
_publ_section_title
;
Structure prediction by ZEFSAII (Michael W. Deem and Ramdas Pophale) SiO2 
 PCOD9098175
Probable space group: P -1
;
_chemical_formula_sum "Si O2"
_cell_formula_units_Z 16
_cell_length_a 12.165578
_cell_length_b 22.493072
_cell_length_c 10.143891
_cell_angle_alpha 134.239322
_cell_angle_beta 109.952278
_cell_angle_gamma 33.394527
_cell_volume 865.836064
_symmetry_space_group_name_H-M "P -1"
_symmetry_group_IT_number 2
_symmetry_cell_setting 'triclinic'
loop_
_space_group_symop_operation_xyz
x,y,z
-x,-y,-z
loop_
_atom_site_type_symbol
_atom_site_label
_atom_site_fract_x
_atom_site_fract_y
_atom_site_fract_z
Si Si1 0.955941 0.601657 0.484119
Si Si2 0.954109 0.740245 0.919303
Si Si3 0.784778 0.595998 0.970403
Si Si4 0.530043 0.503003 0.169643
Si Si5 0.801201 0.143378 0.443223
Si Si6 0.342757 0.216059 0.022471
Si Si7 0.646563 0.245587 0.847831
Si Si8 0.601036 0.096458 0.199537
O O1 0.664163 0.758907 0.614274
O O2 0.994060 0.653402 0.678355
O O3 0.126966 0.414070 0.297220
O O4 0.064227 0.552757 0.307650
O O5 0.219541 0.599349 0.869724
O O6 0.773032 0.802595 0.040586
O O7 0.812234 0.910304 0.071606
O O8 0.585727 0.667491 0.079068
O O9 0.637156 0.760195 0.079326
O O10 0.000000 0.500000 0.000000
O O11 0.294065 0.709824 0.429368
O O12 0.500000 0.500000 0.000000
O O13 0.574175 0.385824 0.072266
O O14 0.709116 0.200442 0.647239
O O15 0.669618 0.149423 0.324350
O O16 0.101140 0.941287 0.261196
O O17 0.567187 0.087781 0.020468
#
# Coordination Sequence:
#
# PCOD9098175 Si02
#       8
#     2   2   2   2   2   2   2   2
#     4   9  19  33  57  85 114 154 190 237 294 339
#     4  11  19  34  59  90 118 146 203 247 288 340
#     4  10  22  38  59  82 121 158 190 236 295 362
#     4  10  21  35  59  88 117 151 194 249 292 336
#     4  10  20  36  64  85 117 148 196 255 287 334
#     4   9  20  33  56  85 112 152 189 236 294 340
#     4  10  21  40  57  91 113 155 203 229 295 361
#     4  11  18  34  60  89 117 146 200 249 288 341
#
# _framework density 18.479248999999999
#
# number of rings (size 3 to 8) (size 9 to 14) (size 15 to 20)
#    0.750    1.250    1.250    5.250    3.500    0.000 
#    0.000    3.750    0.000    4.500    0.000    0.000 
#    0.000    0.000    0.000    0.000    0.000    0.000 
#
# Total GULP energy -89116.378423 kJ/mol
# GULP energy per Si atom -5569.773651 kJ/mol
# Density = 1.843719 g / cm^3
# Si number density = 18.479249 Si / 1000 Ang^3
#
#
#
# Elastic Constant Matrix: (Units=GPa)
#
#
# Indices 1 2 3 4 5 6 
#
# 1 82.0452 26.5295 33.7166 4.7572 11.6544 -18.2583
# 2 26.5295 80.8514 24.5455 16.0784 4.2332 -23.9387
# 3 33.7166 24.5455 54.0143 15.2887 17.6941 -3.6764
# 4 4.7572 16.0784 15.2887 27.7040 5.3641 6.5256
# 5 11.6544 4.2332 17.6941 5.3641 30.3586 3.0331
# 6 -18.2583 -23.9387 -3.6764 6.5256 3.0331 32.6558
#
#
#
# Elastic Compliance Matrix: (Units=1/GPa)
#
#
# Indices 1 2 3 4 5 6 
#
# 1 0.018952 -0.000419 -0.010655 0.001145 -0.002114 0.009057
# 2 -0.000419 0.022289 -0.004582 -0.014787 0.000488 0.018498
# 3 -0.010655 -0.004582 0.034792 -0.011707 -0.013298 -0.001825
# 4 0.001145 -0.014787 -0.011707 0.056160 0.000802 -0.022814
# 5 -0.002114 0.000488 -0.013298 0.000802 0.041929 -0.006376
# 6 0.009057 0.018498 -0.001825 -0.022814 -0.006376 0.054192
#
#
# Mechanical properties :
#
#
# Convention : Reuss Voigt Hill
#
# Bulk Modulus (GPa) = 22.36105 42.94379 32.65242
# Shear Modulus (GPa) = 18.21260 26.95163 22.58212
#
# Velocity S-wave (km/s) = 3.14279 3.82315 3.49954
# Velocity P-wave (km/s) = 5.02955 6.54049 5.83414
#
# Compressibility (1/GPa) = 0.04472061
#
# Stress axis : x y z
#
# Youngs Moduli (GPa) = 52.76480 44.86483 28.74187
#
# Poissons Ratio (x) = 0.01882 0.30623
# Poissons Ratio (y) = 0.02213 0.13171
# Poissons Ratio (z) = 0.56219 0.20559
#
# Static dielectric constant tensor:
#      x y z
#    x 1.635660 0.067150 0.028190 
#    y 0.067150 1.473680 -0.078370 
#    z 0.028190 -0.078370 1.602630 
# 
# From -- ./inp_files/439151.got.cif
#   From: 2010.05.17/outbox.cif.g08.bks.cpg/sg2_220_cif.got.tgz:439151.got - 2010.06.03 11:33:40.
