data_PCOD9098232
_publ_section_title
;
Structure prediction by ZEFSAII (Michael W. Deem and Ramdas Pophale) SiO2 
 PCOD9098232
Probable space group: P -1
;
_chemical_formula_sum "Si O2"
_cell_formula_units_Z 16
_cell_length_a 10.691265
_cell_length_b 12.244436
_cell_length_c 15.624909
_cell_angle_alpha 28.522108
_cell_angle_beta 50.540835
_cell_angle_gamma 57.393048
_cell_volume 753.022567
_symmetry_space_group_name_H-M "P -1"
_symmetry_group_IT_number 2
_symmetry_cell_setting 'triclinic'
loop_
_space_group_symop_operation_xyz
x,y,z
-x,-y,-z
loop_
_atom_site_type_symbol
_atom_site_label
_atom_site_fract_x
_atom_site_fract_y
_atom_site_fract_z
Si Si1 0.503201 0.851402 0.015214
Si Si2 0.332066 0.365466 0.188726
Si Si3 0.371699 0.837144 0.572054
Si Si4 0.918691 0.873994 0.232211
Si Si5 0.780414 0.606723 0.130116
Si Si6 0.849337 0.314642 0.066142
Si Si7 0.751934 0.887485 0.121797
Si Si8 0.696780 0.596488 0.628840
O O1 0.680588 0.753731 0.003667
O O2 0.381965 0.628019 0.227446
O O3 0.500000 0.000000 0.000000
O O4 0.423419 0.004648 0.872017
O O5 0.287205 0.441832 0.251131
O O6 0.351552 0.094347 0.372767
O O7 0.500000 0.500000 0.000000
O O8 0.208220 0.456547 0.110833
O O9 0.292810 0.650608 0.669186
O O10 0.272959 0.778656 0.743058
O O11 0.558367 0.781091 0.546598
O O12 0.816530 0.801413 0.242607
O O13 0.866228 0.692773 0.451665
O O14 0.862972 0.118885 0.122502
O O15 0.107811 0.917761 0.099051
O O16 0.750811 0.706684 0.169187
O O17 0.970325 0.638641 0.008434
#
# Coordination Sequence:
#
# PCOD9098232 Si02
#       8
#     2   2   2   2   2   2   2   2
#     4   9  19  38  60  83 117 159 206 242 301 362
#     4  12  23  37  62  91 123 163 203 248 305 364
#     4  11  22  40  61  90 128 161 204 249 304 366
#     4  10  20  36  64  91 123 157 197 261 306 359
#     4   9  21  39  63  85 124 166 199 254 305 356
#     4  11  21  39  64  90 127 161 201 255 304 364
#     4   9  19  39  63  90 119 160 204 249 313 359
#     4  11  21  38  60  90 124 157 200 254 309 359
#
# _framework density 21.247703000000001
#
# number of rings (size 3 to 8) (size 9 to 14) (size 15 to 20)
#    0.000    1.750    2.500    2.250    0.000    1.000 
#    0.000    6.875    2.750    0.000    0.000    0.000 
#    0.000    0.000    0.000    0.000    0.000    0.000 
#
# Total GULP energy -89376.794900 kJ/mol
# GULP energy per Si atom -5586.049681 kJ/mol
# Density = 2.119934 g / cm^3
# Si number density = 21.247703 Si / 1000 Ang^3
#
#
#
# Elastic Constant Matrix: (Units=GPa)
#
#
# Indices 1 2 3 4 5 6 
#
# 1 104.0681 39.0762 35.2723 -9.7902 7.8506 -5.3632
# 2 39.0762 67.0656 37.2734 -14.5563 7.6797 5.6439
# 3 35.2723 37.2734 99.2296 -0.6952 8.0051 2.2576
# 4 -9.7902 -14.5563 -0.6952 37.2519 2.3631 -2.4573
# 5 7.8506 7.6797 8.0051 2.3631 22.1387 -5.9796
# 6 -5.3632 5.6439 2.2576 -2.4573 -5.9796 37.8798
#
#
#
# Elastic Compliance Matrix: (Units=1/GPa)
#
#
# Indices 1 2 3 4 5 6 
#
# 1 0.013044 -0.006185 -0.002287 0.001219 -0.001021 0.002823
# 2 -0.006185 0.025014 -0.006530 0.008115 -0.006251 -0.004674
# 3 -0.002287 -0.006530 0.013470 -0.002836 -0.001654 -0.000599
# 4 0.001219 0.008115 -0.002836 0.030644 -0.005422 0.000265
# 5 -0.001021 -0.006251 -0.001654 -0.005422 0.051204 0.008617
# 6 0.002823 -0.004674 -0.000599 0.000265 0.008617 0.028908
#
#
# Mechanical properties :
#
#
# Convention : Reuss Voigt Hill
#
# Bulk Modulus (GPa) = 46.45734 54.84525 50.65130
# Shear Modulus (GPa) = 25.06715 30.03682 27.55199
#
# Velocity S-wave (km/s) = 3.43849 3.76393 3.60488
# Velocity P-wave (km/s) = 6.13811 6.69014 6.42006
#
# Compressibility (1/GPa) = 0.02152512
#
# Stress axis : x y z
#
# Youngs Moduli (GPa) = 76.66524 39.97693 74.23660
#
# Poissons Ratio (x) = 0.24726 0.16974
# Poissons Ratio (y) = 0.47419 0.48477
# Poissons Ratio (z) = 0.17530 0.26105
#
# Static dielectric constant tensor:
#      x y z
#    x 1.774990 -0.019430 0.021440 
#    y -0.019430 1.817540 -0.022640 
#    z 0.021440 -0.022640 1.731390 
# 
# From -- ./inp_files/518547.got.cif
#   From: 2010.05.17/outbox.cif.g08.bks.cpg/sg2_260_cif.got.tgz:518547.got - 2010.06.03 11:33:40.
