data_PCOD9098982
_publ_section_title
;
Structure prediction by ZEFSAII (Michael W. Deem and Ramdas Pophale) SiO2 
 PCOD9098982
Probable space group: P -1
;
_chemical_formula_sum "Si O2"
_cell_formula_units_Z 16
_cell_length_a 9.534029
_cell_length_b 14.896433
_cell_length_c 21.069814
_cell_angle_alpha 156.759824
_cell_angle_beta 36.705042
_cell_angle_gamma 143.596682
_cell_volume 675.592932
_symmetry_space_group_name_H-M "P -1"
_symmetry_group_IT_number 2
_symmetry_cell_setting 'triclinic'
loop_
_space_group_symop_operation_xyz
x,y,z
-x,-y,-z
loop_
_atom_site_type_symbol
_atom_site_label
_atom_site_fract_x
_atom_site_fract_y
_atom_site_fract_z
Si Si1 0.768811 0.468269 0.370764
Si Si2 0.311788 0.535133 0.736373
Si Si3 0.313123 0.084786 0.990463
Si Si4 0.387465 0.130820 0.852338
Si Si5 0.935109 0.147908 0.677211
Si Si6 0.882803 0.218520 0.878436
Si Si7 0.048976 0.912658 0.093728
Si Si8 0.811427 0.435741 0.469095
O O1 0.500000 0.500000 0.500000
O O2 0.833351 0.575597 0.347653
O O3 0.738759 0.191601 0.188886
O O4 0.914625 0.530830 0.423948
O O5 0.256450 0.781193 0.924674
O O6 0.592359 0.550759 0.638180
O O7 0.175679 0.371642 0.735572
O O8 0.145062 0.104904 0.125026
O O9 0.295584 0.186144 0.991646
O O10 0.595488 0.184121 0.970390
O O11 0.682184 0.213478 0.797415
O O12 0.324573 0.846089 0.674007
O O13 0.223779 0.218852 0.918170
O O14 0.900310 0.065685 0.709486
O O15 0.000000 0.000000 0.500000
O O16 0.974337 0.099701 0.829302
O O17 0.000000 0.500000 0.000000
O O18 0.000000 0.500000 0.500000
#
# Coordination Sequence:
#
# PCOD9098982 Si02
#       8
#     2   2   2   2   2   2   2   2
#     4   8  17  33  58  89 115 159 219 253 305 371
#     4  10  20  39  64  86 121 169 210 251 319 384
#     4   9  20  38  63  88 129 168 205 258 318 387
#     4  10  22  39  63  95 123 164 214 262 316 377
#     4  11  22  44  68  82 126 176 217 250 316 396
#     4  11  23  40  61  95 131 170 209 264 322 376
#     4  11  22  40  63  98 126 157 214 267 323 368
#     4  10  20  37  58  89 126 159 208 270 314 363
#
# _framework density 23.682901000000001
#
# number of rings (size 3 to 8) (size 9 to 14) (size 15 to 20)
#    0.000    2.000    2.500    0.750    1.750    4.500 
#    0.000    4.375    0.000    0.000    0.000    0.000 
#    0.000    0.000    0.000    0.000    0.000    0.000 
#
# Total GULP energy -89091.069847 kJ/mol
# GULP energy per Si atom -5568.191865 kJ/mol
# Density = 2.362900 g / cm^3
# Si number density = 23.682901 Si / 1000 Ang^3
#
#
#
# Elastic Constant Matrix: (Units=GPa)
#
#
# Indices 1 2 3 4 5 6 
#
# 1 217.7081 34.3154 32.8722 -25.9610 30.1144 -17.3729
# 2 34.3154 66.3003 17.3937 -25.7501 11.7490 -14.6946
# 3 32.8722 17.3937 88.1163 -19.7590 14.3792 -5.3040
# 4 -25.9610 -25.7501 -19.7590 30.4604 -4.1883 4.2414
# 5 30.1144 11.7490 14.3792 -4.1883 40.5779 -12.2579
# 6 -17.3729 -14.6946 -5.3040 4.2414 -12.2579 27.0650
#
#
#
# Elastic Compliance Matrix: (Units=1/GPa)
#
#
# Indices 1 2 3 4 5 6 
#
# 1 0.005721 -0.000697 -0.000691 0.003239 -0.003086 0.001253
# 2 -0.000697 0.025382 0.000570 0.019628 -0.002173 0.009385
# 3 -0.000691 0.000570 0.014007 0.008513 -0.003883 -0.000481
# 4 0.003239 0.019628 0.008513 0.056625 -0.004157 0.003647
# 5 -0.003086 -0.002173 -0.003883 -0.004157 0.031885 0.011171
# 6 0.001253 0.009385 -0.000481 0.003647 0.011171 0.047241
#
#
# Mechanical properties :
#
#
# Convention : Reuss Voigt Hill
#
# Bulk Modulus (GPa) = 23.00159 60.14302 41.57230
# Shear Modulus (GPa) = 25.38221 38.79024 32.08622
#
# Velocity S-wave (km/s) = 3.27731 4.05149 3.68479
# Velocity P-wave (km/s) = 4.90453 6.88014 5.97456
#
# Compressibility (1/GPa) = 0.04347526
#
# Stress axis : x y z
#
# Youngs Moduli (GPa) = 174.80550 39.39756 71.39116
#
# Poissons Ratio (x) = 0.02745 0.04934
# Poissons Ratio (y) = 0.12181 -0.04073
# Poissons Ratio (z) = 0.12082 -0.02248
#
# Static dielectric constant tensor:
#      x y z
#    x 2.035640 -0.095600 0.040600 
#    y -0.095600 1.904170 0.008640 
#    z 0.040600 0.008640 1.906330 
# 
# From -- ./inp_files/590484.got.cif
#   From: 2010.05.17/outbox.cif.g08.bks.cpg/sg2_296_cif.got.tgz:590484.got - 2010.06.03 11:33:40.
