data_PCOD9098567
_publ_section_title
;
Structure prediction by ZEFSAII (Michael W. Deem and Ramdas Pophale) SiO2 
 PCOD9098567
Probable space group: P -1
;
_chemical_formula_sum "Si O2"
_cell_formula_units_Z 16
_cell_length_a 25.341985
_cell_length_b 8.712453
_cell_length_c 11.522519
_cell_angle_alpha 132.904339
_cell_angle_beta 23.452404
_cell_angle_gamma 132.174445
_cell_volume 732.010901
_symmetry_space_group_name_H-M "P -1"
_symmetry_group_IT_number 2
_symmetry_cell_setting 'triclinic'
loop_
_space_group_symop_operation_xyz
x,y,z
-x,-y,-z
loop_
_atom_site_type_symbol
_atom_site_label
_atom_site_fract_x
_atom_site_fract_y
_atom_site_fract_z
Si Si1 0.031279 0.365139 0.653602
Si Si2 0.816212 0.136707 0.123979
Si Si3 0.720931 0.661126 0.142283
Si Si4 0.930373 0.186273 0.282102
Si Si5 0.136942 0.734565 0.282024
Si Si6 0.281238 0.662587 0.346365
Si Si7 0.631249 0.162026 0.289292
Si Si8 0.500505 0.570360 0.711025
O O1 0.963906 0.243225 0.838054
O O2 0.808635 0.570215 0.619548
O O3 0.969977 0.258740 0.603132
O O4 0.996308 0.601583 0.822844
O O5 0.760518 0.263822 0.406433
O O6 0.728338 0.165716 0.203881
O O7 0.796453 0.887703 0.064600
O O8 0.613602 0.715625 0.482797
O O9 0.623562 0.527947 0.173980
O O10 0.819558 0.499734 0.903977
O O11 0.919572 0.200725 0.449079
O O12 0.778941 0.179982 0.539201
O O13 0.000000 0.000000 0.000000
O O14 0.276813 0.870787 0.024547
O O15 0.433366 0.661149 0.003887
O O16 0.578482 0.381947 0.492132
O O17 0.500000 0.000000 0.500000
#
# Coordination Sequence:
#
# PCOD9098567 Si02
#       8
#     2   2   2   2   2   2   2   2
#     4   9  22  41  61  89 128 159 211 248 303 368
#     4  11  22  39  62  91 126 166 200 257 309 370
#     4  10  20  36  69  88 121 159 211 254 305 359
#     4  10  22  39  61  91 123 163 202 254 307 364
#     4  10  20  40  66  92 120 160 210 256 300 368
#     4  10  23  39  60  88 130 160 204 252 311 364
#     4  10  21  39  63  92 120 157 208 256 305 363
#     4  10  20  40  61  90 121 163 203 261 300 364
#
# _framework density 21.857596999999998
#
# number of rings (size 3 to 8) (size 9 to 14) (size 15 to 20)
#    0.750    1.250    2.500    0.750    1.750    1.000 
#    2.250    2.500    0.000    0.000    0.000    0.000 
#    0.000    0.000    0.000    0.000    0.000    0.000 
#
# Total GULP energy -89243.481555 kJ/mol
# GULP energy per Si atom -5577.717597 kJ/mol
# Density = 2.180785 g / cm^3
# Si number density = 21.857597 Si / 1000 Ang^3
#
#
#
# Elastic Constant Matrix: (Units=GPa)
#
#
# Indices 1 2 3 4 5 6 
#
# 1 54.4462 7.9868 33.6066 -10.3474 17.5271 -6.6949
# 2 7.9868 72.6699 53.3383 -21.8838 13.3350 -7.5940
# 3 33.6066 53.3383 164.2358 -8.3180 28.9720 -0.9610
# 4 -10.3474 -21.8838 -8.3180 23.4931 -4.2255 5.3471
# 5 17.5271 13.3350 28.9720 -4.2255 34.7762 -3.8684
# 6 -6.6949 -7.5940 -0.9610 5.3471 -3.8684 16.0851
#
#
#
# Elastic Compliance Matrix: (Units=1/GPa)
#
#
# Indices 1 2 3 4 5 6 
#
# 1 0.027463 0.008024 -0.005792 0.014004 -0.009508 0.007930
# 2 0.008024 0.028115 -0.008845 0.024305 -0.003711 0.007112
# 3 -0.005792 -0.008845 0.010435 -0.006711 -0.003712 -0.004625
# 4 0.014004 0.024305 -0.006711 0.070068 -0.003066 -0.007128
# 5 -0.009508 -0.003711 -0.003712 -0.003066 0.038165 0.004266
# 6 0.007930 0.007112 -0.004625 -0.007128 0.004266 0.071947
#
#
# Mechanical properties :
#
#
# Convention : Reuss Voigt Hill
#
# Bulk Modulus (GPa) = 18.94506 53.46835 36.20671
# Shear Modulus (GPa) = 18.04960 27.96556 23.00758
#
# Velocity S-wave (km/s) = 2.87676 3.58081 3.24792
# Velocity P-wave (km/s) = 4.44079 6.45070 5.53770
#
# Compressibility (1/GPa) = 0.05278420
#
# Stress axis : x y z
#
# Youngs Moduli (GPa) = 36.41323 35.56860 95.83543
#
# Poissons Ratio (x) = -0.28540 0.55512
# Poissons Ratio (y) = -0.29218 0.84770
# Poissons Ratio (z) = 0.21092 0.31462
#
# Static dielectric constant tensor:
#      x y z
#    x 1.828460 0.019000 0.000250 
#    y 0.019000 1.863620 -0.055630 
#    z 0.000250 -0.055630 1.873150 
# 
# From -- ./inp_files/477477.got.cif
#   From: 2010.05.17/outbox.cif.g08.bks.cpg/sg2_239_cif.got.tgz:477477.got - 2010.06.03 11:33:40.
