data_PCOD9098332
_publ_section_title
;
Structure prediction by ZEFSAII (Michael W. Deem and Ramdas Pophale) SiO2 
 PCOD9098332
Probable space group: P -1
;
_chemical_formula_sum "Si O2"
_cell_formula_units_Z 16
_cell_length_a 11.884086
_cell_length_b 9.104450
_cell_length_c 8.956763
_cell_angle_alpha 99.110757
_cell_angle_beta 96.215998
_cell_angle_gamma 50.454297
_cell_volume 737.829670
_symmetry_space_group_name_H-M "P -1"
_symmetry_group_IT_number 2
_symmetry_cell_setting 'triclinic'
loop_
_space_group_symop_operation_xyz
x,y,z
-x,-y,-z
loop_
_atom_site_type_symbol
_atom_site_label
_atom_site_fract_x
_atom_site_fract_y
_atom_site_fract_z
Si Si1 0.585209 0.086295 0.996552
Si Si2 0.644472 0.515656 0.817838
Si Si3 0.486326 0.218862 0.434771
Si Si4 0.973467 0.735575 0.699964
Si Si5 0.119630 0.522967 0.973111
Si Si6 0.184833 0.361542 0.511689
Si Si7 0.309585 0.862907 0.278225
Si Si8 0.725175 0.851766 0.232686
O O1 0.635654 0.070651 0.832967
O O2 0.481061 0.306752 0.068769
O O3 0.500000 0.000000 0.000000
O O4 0.727357 0.958089 0.106016
O O5 0.591029 0.599512 0.656994
O O6 0.663639 0.324939 0.805766
O O7 0.796686 0.466980 0.879171
O O8 0.354282 0.248718 0.502787
O O9 0.597710 0.190111 0.567091
O O10 0.575173 0.031876 0.313070
O O11 0.876540 0.665455 0.649001
O O12 0.040346 0.691816 0.867072
O O13 0.104784 0.580021 0.582385
O O14 0.860639 0.960225 0.688635
O O15 0.246116 0.332223 0.866599
O O16 0.000000 0.500000 0.000000
O O17 0.167802 0.253950 0.626583
#
# Coordination Sequence:
#
# PCOD9098332 Si02
#       8
#     2   2   2   2   2   2   2   2
#     4  11  22  39  68 100 124 168 225 274 323 384
#     4  11  26  43  65  98 139 174 221 272 338 395
#     4  11  23  39  71  95 130 176 221 276 330 398
#     4  10  23  36  63  93 136 171 218 270 333 389
#     4  11  22  40  66  95 136 174 225 274 324 393
#     4  10  20  39  62 102 128 171 222 278 326 381
#     4  12  25  44  66 100 139 175 212 278 342 398
#     4  10  20  36  65 100 126 157 228 281 319 378
#
# _framework density 21.685223000000001
#
# number of rings (size 3 to 8) (size 9 to 14) (size 15 to 20)
#    0.000    1.250    2.500    3.375    5.250    0.500 
#    0.000    0.625    2.750    0.000    0.000    0.000 
#    0.000    0.000    0.000    0.000    0.000    0.000 
#
# Total GULP energy -89194.614595 kJ/mol
# GULP energy per Si atom -5574.663412 kJ/mol
# Density = 2.163587 g / cm^3
# Si number density = 21.685223 Si / 1000 Ang^3
#
#
#
# Elastic Constant Matrix: (Units=GPa)
#
#
# Indices 1 2 3 4 5 6 
#
# 1 48.2554 35.1627 34.2541 -4.3230 9.4935 -5.9726
# 2 35.1627 133.4874 46.4874 2.1620 11.6646 -10.2042
# 3 34.2541 46.4874 110.5911 -15.9489 13.4860 -6.4798
# 4 -4.3230 2.1620 -15.9489 43.4680 -7.1795 9.3981
# 5 9.4935 11.6646 13.4860 -7.1795 19.9890 -10.2730
# 6 -5.9726 -10.2042 -6.4798 9.3981 -10.2730 25.6879
#
#
#
# Elastic Compliance Matrix: (Units=1/GPa)
#
#
# Indices 1 2 3 4 5 6 
#
# 1 0.030437 -0.005101 -0.006458 -0.000398 -0.006837 0.000833
# 2 -0.005101 0.010168 -0.002790 -0.002825 -0.001268 0.002676
# 3 -0.006458 -0.002790 0.013156 0.004195 -0.003900 -0.002386
# 4 -0.000398 -0.002825 0.004195 0.027184 0.004505 -0.008300
# 5 -0.006837 -0.001268 -0.003900 0.004505 0.070280 0.023381
# 6 0.000833 0.002676 -0.002386 -0.008300 0.023381 0.051971
#
#
# Mechanical properties :
#
#
# Convention : Reuss Voigt Hill
#
# Bulk Modulus (GPa) = 39.90020 58.23804 49.06912
# Shear Modulus (GPa) = 20.81186 29.59098 25.20142
#
# Velocity S-wave (km/s) = 3.10130 3.69801 3.41273
# Velocity P-wave (km/s) = 5.59140 6.71924 6.18110
#
# Compressibility (1/GPa) = 0.02506253
#
# Stress axis : x y z
#
# Youngs Moduli (GPa) = 32.85508 98.35037 76.00929
#
# Poissons Ratio (x) = 0.50168 0.49087
# Poissons Ratio (y) = 0.16759 0.21207
# Poissons Ratio (z) = 0.21218 0.27441
#
# Static dielectric constant tensor:
#      x y z
#    x 1.808710 -0.044770 -0.008530 
#    y -0.044770 1.813270 -0.051180 
#    z -0.008530 -0.051180 1.890530 
# 
# From -- ./inp_files/244036.got.cif
#   From: 2010.05.17/outbox.cif.g08.bks.cpg/sg2_123_cif.got.tgz:244036.got - 2010.06.03 11:33:40.
