data_PCOD9098268
_publ_section_title
;
Structure prediction by ZEFSAII (Michael W. Deem and Ramdas Pophale) SiO2 
 PCOD9098268
Probable space group: P -1
;
_chemical_formula_sum "Si O2"
_cell_formula_units_Z 16
_cell_length_a 19.880842
_cell_length_b 9.766543
_cell_length_c 5.685362
_cell_angle_alpha 105.762821
_cell_angle_beta 66.468898
_cell_angle_gamma 142.354028
_cell_volume 616.226915
_symmetry_space_group_name_H-M "P -1"
_symmetry_group_IT_number 2
_symmetry_cell_setting 'triclinic'
loop_
_space_group_symop_operation_xyz
x,y,z
-x,-y,-z
loop_
_atom_site_type_symbol
_atom_site_label
_atom_site_fract_x
_atom_site_fract_y
_atom_site_fract_z
Si Si1 0.826751 0.489869 0.374414
Si Si2 0.936862 0.055551 0.634740
Si Si3 0.517802 0.224599 0.849738
Si Si4 0.228575 0.885947 0.910660
Si Si5 0.334269 0.781225 0.129629
Si Si6 0.105336 0.764496 0.522878
Si Si7 0.329539 0.526246 0.638147
Si Si8 0.687614 0.707520 0.071459
O O1 0.770155 0.282038 0.197401
O O2 0.786194 0.384561 0.643624
O O3 0.768654 0.556117 0.433909
O O4 0.964196 0.703131 0.254760
O O5 0.927706 0.120412 0.426087
O O6 0.000000 0.000000 0.500000
O O7 0.813281 0.866075 0.850139
O O8 0.578378 0.159588 0.774923
O O9 0.544477 0.284582 0.567304
O O10 0.589130 0.461333 0.976652
O O11 0.395882 0.012135 0.044445
O O12 0.155843 0.817104 0.738916
O O13 0.333455 0.156239 0.861836
O O14 0.180391 0.848194 0.219239
O O15 0.325537 0.636718 0.898348
O O16 0.000000 0.500000 0.500000
O O17 0.305480 0.337163 0.692117
#
# Coordination Sequence:
#
# PCOD9098268 Si02
#       8
#     2   2   2   2   2   2   2   2
#     4  11  24  39  61  94 129 168 212 266 321 385
#     4  11  23  40  62  95 132 164 209 267 323 382
#     4   9  18  38  62  89 125 160 216 266 327 383
#     4  11  26  43  65  92 132 176 221 262 317 391
#     4   9  19  37  61  93 122 163 210 274 323 381
#     4  11  24  44  66  89 127 181 224 259 315 385
#     4  10  20  36  64  94 124 163 216 265 331 377
#     4  10  24  39  61  92 126 172 209 263 324 388
#
# _framework density 25.964462000000001
#
# number of rings (size 3 to 8) (size 9 to 14) (size 15 to 20)
#    0.000    1.750    1.250    3.000    8.750    2.500 
#    0.000    0.625    0.000    1.500    0.000    0.000 
#    0.000    0.000    0.000    0.000    0.000    0.000 
#
# Total GULP energy -89357.762936 kJ/mol
# GULP energy per Si atom -5584.860184 kJ/mol
# Density = 2.590537 g / cm^3
# Si number density = 25.964462 Si / 1000 Ang^3
#
#
#
# Elastic Constant Matrix: (Units=GPa)
#
#
# Indices 1 2 3 4 5 6 
#
# 1 90.1614 6.1671 18.0002 -11.8325 1.5520 -19.5982
# 2 6.1671 151.5863 33.2815 -10.1671 1.2805 -3.6754
# 3 18.0002 33.2815 98.4163 -15.8447 -1.4823 7.3881
# 4 -11.8325 -10.1671 -15.8447 51.5715 -9.2302 1.7763
# 5 1.5520 1.2805 -1.4823 -9.2302 31.5952 -4.4385
# 6 -19.5982 -3.6754 7.3881 1.7763 -4.4385 48.7456
#
#
#
# Elastic Compliance Matrix: (Units=1/GPa)
#
#
# Indices 1 2 3 4 5 6 
#
# 1 0.013087 0.000308 -0.002558 0.002201 0.000662 0.005653
# 2 0.000308 0.007195 -0.002456 0.000686 -0.000080 0.001006
# 3 -0.002558 -0.002456 0.012191 0.003003 0.001245 -0.003057
# 4 0.002201 0.000686 0.003003 0.022108 0.006501 0.000268
# 5 0.000662 -0.000080 0.001245 0.006501 0.033990 0.002929
# 6 0.005653 0.001006 -0.003057 0.000268 0.002929 0.023584
#
#
# Mechanical properties :
#
#
# Convention : Reuss Voigt Hill
#
# Bulk Modulus (GPa) = 43.36167 50.56241 46.96204
# Shear Modulus (GPa) = 38.68419 45.23013 41.95716
#
# Velocity S-wave (km/s) = 3.86410 4.17826 4.02424
# Velocity P-wave (km/s) = 6.05351 6.54164 6.30230
#
# Compressibility (1/GPa) = 0.02306184
#
# Stress axis : x y z
#
# Youngs Moduli (GPa) = 76.41184 138.99329 82.02860
#
# Poissons Ratio (x) = -0.04285 0.20981
# Poissons Ratio (y) = -0.02355 0.20144
# Poissons Ratio (z) = 0.19545 0.34133
#
# Static dielectric constant tensor:
#      x y z
#    x 2.204810 0.040730 0.054980 
#    y 0.040730 2.077090 0.018410 
#    z 0.054980 0.018410 2.054100 
# 
# From -- ./inp_files/126738.got.cif
#   From: 2010.05.17/outbox.cif.g08.bks.cpg/sg2_64_cif.got.tgz:126738.got - 2010.06.03 11:33:40.
