data_PCOD9098205
_publ_section_title
;
Structure prediction by ZEFSAII (Michael W. Deem and Ramdas Pophale) SiO2 
 PCOD9098205
Probable space group: P -1
;
_chemical_formula_sum "Si O2"
_cell_formula_units_Z 16
_cell_length_a 15.087185
_cell_length_b 9.101253
_cell_length_c 8.844920
_cell_angle_alpha 116.652122
_cell_angle_beta 74.478661
_cell_angle_gamma 136.287417
_cell_volume 746.943521
_symmetry_space_group_name_H-M "P -1"
_symmetry_group_IT_number 2
_symmetry_cell_setting 'triclinic'
loop_
_space_group_symop_operation_xyz
x,y,z
-x,-y,-z
loop_
_atom_site_type_symbol
_atom_site_label
_atom_site_fract_x
_atom_site_fract_y
_atom_site_fract_z
Si Si1 0.369685 0.389366 0.934749
Si Si2 0.080518 0.477047 0.560539
Si Si3 0.127489 0.007601 0.023937
Si Si4 0.640435 0.264676 0.397833
Si Si5 0.620216 0.246660 0.755420
Si Si6 0.913719 0.045354 0.624629
Si Si7 0.108151 0.367119 0.195817
Si Si8 0.639278 0.618872 0.422892
O O1 0.362458 0.357809 0.744933
O O2 0.500000 0.500000 0.000000
O O3 0.266371 0.147190 0.957622
O O4 0.371337 0.584409 0.065539
O O5 0.230203 0.686378 0.637130
O O6 0.093377 0.343844 0.371657
O O7 0.000000 0.500000 0.500000
O O8 0.993288 0.304707 0.656188
O O9 0.121950 0.193890 0.059352
O O10 0.104845 0.980087 0.198976
O O11 0.024955 0.757005 0.879891
O O12 0.616529 0.283947 0.594298
O O13 0.661188 0.455737 0.382094
O O14 0.508926 0.017371 0.283955
O O15 0.766861 0.363714 0.765646
O O16 0.769154 0.866686 0.540119
O O17 0.000000 0.000000 0.500000
O O18 0.500000 0.500000 0.500000
#
# Coordination Sequence:
#
# PCOD9098205 Si02
#       8
#     2   2   2   2   2   2   2   2
#     4  11  23  39  61  95 130 166 216 270 326 387
#     4  11  23  38  61  95 132 172 214 264 327 389
#     4  10  20  36  64  89 122 164 215 272 313 379
#     4  10  21  41  61  90 130 171 222 264 325 391
#     4   9  20  36  61  84 126 173 207 264 325 388
#     4  12  22  40  67  96 128 165 222 271 314 382
#     4   9  18  35  58  89 121 162 217 258 325 375
#     4  12  25  41  68  97 128 168 219 278 324 387
#
# _framework density 21.420631
#
# number of rings (size 3 to 8) (size 9 to 14) (size 15 to 20)
#    0.000    1.500    2.500    3.750    3.500    5.500 
#    0.000    0.625    0.000    0.000    0.000    0.000 
#    0.000    0.000    0.000    0.000    0.000    0.000 
#
# Total GULP energy -89087.771416 kJ/mol
# GULP energy per Si atom -5567.985714 kJ/mol
# Density = 2.137188 g / cm^3
# Si number density = 21.420631 Si / 1000 Ang^3
#
#
#
# Elastic Constant Matrix: (Units=GPa)
#
#
# Indices 1 2 3 4 5 6 
#
# 1 66.2412 46.5932 -3.7376 0.0973 12.6286 26.0701
# 2 46.5932 154.6669 54.0473 0.2030 20.9377 38.0194
# 3 -3.7376 54.0473 87.5106 5.5242 15.6817 29.2651
# 4 0.0973 0.2030 5.5242 34.9002 8.3960 8.9593
# 5 12.6286 20.9377 15.6817 8.3960 22.9863 8.7347
# 6 26.0701 38.0194 29.2651 8.9593 8.7347 42.5193
#
#
#
# Elastic Compliance Matrix: (Units=1/GPa)
#
#
# Indices 1 2 3 4 5 6 
#
# 1 0.034129 -0.008202 0.016823 0.007253 -0.016552 -0.023299
# 2 -0.008202 0.011845 -0.007279 0.001660 -0.001715 -0.000550
# 3 0.016823 -0.007279 0.025346 0.004335 -0.014170 -0.019253
# 4 0.007253 0.001660 0.004335 0.035208 -0.016387 -0.012967
# 5 -0.016552 -0.001715 -0.014170 -0.016387 0.065465 0.011440
# 6 -0.023299 -0.000550 -0.019253 -0.012967 0.011440 0.051930
#
#
# Mechanical properties :
#
#
# Convention : Reuss Voigt Hill
#
# Bulk Modulus (GPa) = 13.51288 55.80272 34.65780
# Shear Modulus (GPa) = 20.33286 34.18221 27.25753
#
# Velocity S-wave (km/s) = 3.08428 3.99903 3.57107
# Velocity P-wave (km/s) = 4.35956 6.88698 5.76352
#
# Compressibility (1/GPa) = 0.07400348
#
# Stress axis : x y z
#
# Youngs Moduli (GPa) = 29.30061 84.42283 39.45439
#
# Poissons Ratio (x) = 0.69239 -0.66373
# Poissons Ratio (y) = 0.24031 0.28721
# Poissons Ratio (z) = -0.49292 0.61456
#
# Static dielectric constant tensor:
#      x y z
#    x 1.952330 0.046600 -0.061200 
#    y 0.046600 1.805620 0.020070 
#    z -0.061200 0.020070 1.746460 
# 
# From -- ./inp_files/299213.got.cif
#   From: 2010.05.17/outbox.cif.g08.bks.cpg/sg2_150_cif.got.tgz:299213.got - 2010.06.03 11:33:40.
