data_PCOD9098043
_publ_section_title
;
Structure prediction by ZEFSAII (Michael W. Deem and Ramdas Pophale) SiO2 
 PCOD9098043
Probable space group: P -1
;
_chemical_formula_sum "Si O2"
_cell_formula_units_Z 16
_cell_length_a 13.978149
_cell_length_b 14.984668
_cell_length_c 8.122575
_cell_angle_alpha 79.033143
_cell_angle_beta 72.560348
_cell_angle_gamma 140.080091
_cell_volume 757.681973
_symmetry_space_group_name_H-M "P -1"
_symmetry_group_IT_number 2
_symmetry_cell_setting 'triclinic'
loop_
_space_group_symop_operation_xyz
x,y,z
-x,-y,-z
loop_
_atom_site_type_symbol
_atom_site_label
_atom_site_fract_x
_atom_site_fract_y
_atom_site_fract_z
Si Si1 0.774644 0.061530 0.026299
Si Si2 0.891857 0.341003 0.797337
Si Si3 0.053380 0.966382 0.851220
Si Si4 0.287679 0.377439 0.094036
Si Si5 0.893437 0.121640 0.570576
Si Si6 0.444669 0.253077 0.328581
Si Si7 0.643535 0.284444 0.479809
Si Si8 0.123480 0.691226 0.572214
O O1 0.858509 0.114116 0.781497
O O2 0.772099 0.168345 0.019861
O O3 0.904772 0.099728 0.066181
O O4 0.533253 0.840429 0.248630
O O5 0.134463 0.502151 0.641324
O O6 0.910816 0.462020 0.796675
O O7 0.832264 0.290401 0.653180
O O8 0.854634 0.796470 0.893347
O O9 0.270030 0.160157 0.572481
O O10 0.000000 0.000000 0.000000
O O11 0.124372 0.267046 0.364096
O O12 0.500000 0.500000 0.000000
O O13 0.374989 0.536980 0.903634
O O14 0.884469 0.208433 0.440241
O O15 0.705630 0.908154 0.678286
O O16 0.557985 0.264271 0.369575
O O17 0.699393 0.222567 0.451142
#
# Coordination Sequence:
#
# PCOD9098043 Si02
#       8
#     2   2   2   2   2   2   2   2
#     4  10  20  36  63  90 118 160 198 257 295 352
#     4   8  16  33  53  84 126 151 194 250 289 341
#     4  10  24  43  66  92 118 150 212 260 301 355
#     4  11  26  45  63  86 125 165 197 247 317 367
#     4  10  23  39  59  92 127 156 205 247 301 359
#     4  10  23  42  61  86 127 160 192 254 307 365
#     4   9  18  36  60  85 118 156 200 239 301 349
#     4   8  17  36  55  88 123 156 199 248 290 355
#
# _framework density 21.117038000000001
#
# number of rings (size 3 to 8) (size 9 to 14) (size 15 to 20)
#    0.750    1.750    0.000    0.750    3.500    6.000 
#    6.750    0.625    0.000    0.000    0.000    0.000 
#    0.000    0.000    0.000    0.000    0.000    0.000 
#
# Total GULP energy -89149.647328 kJ/mol
# GULP energy per Si atom -5571.852958 kJ/mol
# Density = 2.106897 g / cm^3
# Si number density = 21.117038 Si / 1000 Ang^3
#
#
#
# Elastic Constant Matrix: (Units=GPa)
#
#
# Indices 1 2 3 4 5 6 
#
# 1 50.6184 -7.9046 -5.8986 1.7177 -2.2626 22.9360
# 2 -7.9046 32.1179 17.6936 -6.3400 -8.9687 3.3689
# 3 -5.8986 17.6936 62.8434 -7.7431 4.8636 10.2505
# 4 1.7177 -6.3400 -7.7431 22.0400 -0.5739 -5.0159
# 5 -2.2626 -8.9687 4.8636 -0.5739 21.7978 -8.4387
# 6 22.9360 3.3689 10.2505 -5.0159 -8.4387 30.7826
#
#
#
# Elastic Compliance Matrix: (Units=1/GPa)
#
#
# Indices 1 2 3 4 5 6 
#
# 1 0.036503 0.004355 0.007614 -0.006881 -0.009430 -0.033917
# 2 0.004355 0.049479 -0.015162 0.010481 0.026550 0.005375
# 3 0.007614 -0.015162 0.025022 -0.000564 -0.017744 -0.017303
# 4 -0.006881 0.010481 -0.000564 0.052618 0.011235 0.015822
# 5 -0.009430 0.026550 -0.017744 0.011235 0.072346 0.031692
# 6 -0.033917 0.005375 -0.017303 0.015822 0.031692 0.074197
#
#
# Mechanical properties :
#
#
# Convention : Reuss Voigt Hill
#
# Bulk Modulus (GPa) = 9.55846 17.04007 13.29926
# Shear Modulus (GPa) = 14.22783 24.37006 19.29895
#
# Velocity S-wave (km/s) = 2.59851 3.40081 3.02636
# Velocity P-wave (km/s) = 3.67957 4.84846 4.30388
#
# Compressibility (1/GPa) = 0.10461942
#
# Stress axis : x y z
#
# Youngs Moduli (GPa) = 27.39471 20.21062 39.96447
#
# Poissons Ratio (x) = -0.08802 -0.30430
# Poissons Ratio (y) = -0.11931 0.60595
# Poissons Ratio (z) = -0.20859 0.30644
#
# Static dielectric constant tensor:
#      x y z
#    x 1.800500 -0.041350 0.039050 
#    y -0.041350 1.756490 -0.003540 
#    z 0.039050 -0.003540 1.767580 
# 
# From -- ./inp_files/313112.got.cif
#   From: 2010.05.17/outbox.cif.g08.bks.cpg/sg2_157_cif.got.tgz:313112.got - 2010.06.03 11:33:40.
