data_PCOD9098452
_publ_section_title
;
Structure prediction by ZEFSAII (Michael W. Deem and Ramdas Pophale) SiO2 
 PCOD9098452
Probable space group: P -1
;
_chemical_formula_sum "Si O2"
_cell_formula_units_Z 14
_cell_length_a 22.405426
_cell_length_b 7.010832
_cell_length_c 14.300236
_cell_angle_alpha 124.812771
_cell_angle_beta 18.305162
_cell_angle_gamma 121.694385
_cell_volume 578.035353
_symmetry_space_group_name_H-M "P -1"
_symmetry_group_IT_number 2
_symmetry_cell_setting 'triclinic'
loop_
_space_group_symop_operation_xyz
x,y,z
-x,-y,-z
loop_
_atom_site_type_symbol
_atom_site_label
_atom_site_fract_x
_atom_site_fract_y
_atom_site_fract_z
Si Si1 0.205489 0.053725 0.994020
Si Si2 0.234803 0.873367 0.287371
Si Si3 0.180573 0.835538 0.153103
Si Si4 0.521513 0.740758 0.984129
Si Si5 0.692087 0.623195 0.226864
Si Si6 0.253555 0.989032 0.590577
Si Si7 0.087972 0.743942 0.923752
O O1 0.282065 0.981840 0.962742
O O2 0.190649 0.827797 0.887023
O O3 0.985285 0.151099 0.364848
O O4 0.315103 0.230314 0.817557
O O5 0.271207 0.776874 0.101929
O O6 0.385889 0.751201 0.098786
O O7 0.277652 0.149721 0.304922
O O8 0.148355 0.588738 0.084214
O O9 0.000000 0.000000 0.500000
O O10 0.429043 0.930551 0.247167
O O11 0.500000 0.500000 0.000000
O O12 0.500000 0.500000 0.500000
O O13 0.731257 0.797124 0.301218
O O14 0.078391 0.059838 0.801973
O O15 0.221107 0.764852 0.640829
O O16 0.000000 0.500000 0.000000
#
# Coordination Sequence:
#
# PCOD9098452 Si02
#       7
#     2   2   2   2   2   2   2
#     4  10  22  41  66 100 132 176 228 274 340 407
#     4  10  23  42  62  98 136 172 231 276 331 412
#     4  10  23  43  68  97 133 180 230 274 337 409
#     4  11  24  40  66  96 138 182 219 281 341 400
#     4  11  24  43  67  97 139 181 222 289 340 402
#     4  10  22  40  61  99 130 168 225 274 333 404
#     4  10  20  36  66  93 128 168 216 277 337 392
#
# _framework density 24.219971999999999
#
# number of rings (size 3 to 8) (size 9 to 14) (size 15 to 20)
#    0.000    1.714    1.429    1.714    2.000    6.286 
#    0.000    4.286    0.000    0.000    0.000    0.000 
#    0.000    0.000    0.000    0.000    0.000    0.000 
#
# Total GULP energy -78260.052163 kJ/mol
# GULP energy per Si atom -5590.003726 kJ/mol
# Density = 2.416485 g / cm^3
# Si number density = 24.219972 Si / 1000 Ang^3
#
#
#
# Elastic Constant Matrix: (Units=GPa)
#
#
# Indices 1 2 3 4 5 6 
#
# 1 153.1463 60.1020 31.8672 -5.3023 32.0222 -17.5514
# 2 60.1020 128.5452 26.0416 -19.2068 9.9979 -14.7651
# 3 31.8672 26.0416 73.8541 -16.8611 15.0091 0.0274
# 4 -5.3023 -19.2068 -16.8611 42.8242 -2.5741 9.0603
# 5 32.0222 9.9979 15.0091 -2.5741 28.3633 -10.5179
# 6 -17.5514 -14.7651 0.0274 9.0603 -10.5179 31.9328
#
#
#
# Elastic Compliance Matrix: (Units=1/GPa)
#
#
# Indices 1 2 3 4 5 6 
#
# 1 0.010449 -0.003959 -0.001720 -0.002021 -0.009125 0.001482
# 2 -0.003959 0.010571 -0.001956 0.003061 0.003122 0.002873
# 3 -0.001720 -0.001956 0.018419 0.007067 -0.009010 -0.006839
# 4 -0.002021 0.003061 0.007067 0.028963 -0.003241 -0.008987
# 5 -0.009125 0.003122 -0.009010 -0.003241 0.054624 0.015347
# 6 0.001482 0.002873 -0.006839 -0.008987 0.015347 0.041070
#
#
# Mechanical properties :
#
#
# Convention : Reuss Voigt Hill
#
# Bulk Modulus (GPa) = 41.37521 65.72971 53.55246
# Shear Modulus (GPa) = 26.67761 36.45971 31.56866
#
# Velocity S-wave (km/s) = 3.32244 3.88410 3.61420
# Velocity P-wave (km/s) = 5.64255 6.87841 6.29090
#
# Compressibility (1/GPa) = 0.02416906
#
# Stress axis : x y z
#
# Youngs Moduli (GPa) = 95.69964 94.59569 54.29117
#
# Poissons Ratio (x) = 0.37452 0.09339
# Poissons Ratio (y) = 0.37889 0.10619
# Poissons Ratio (z) = 0.16463 0.18502
#
# Static dielectric constant tensor:
#      x y z
#    x 1.937920 -0.004690 -0.017400 
#    y -0.004690 1.952090 -0.003220 
#    z -0.017400 -0.003220 2.003700 
# 
# From -- ./inp_files/542234.got.cif
#   From: 2010.05.17/outbox.cif.g08.bks.cpg/sg2_272_cif.got.tgz:542234.got - 2010.06.03 11:33:40.
