data_PCOD9098404
_publ_section_title
;
Structure prediction by ZEFSAII (Michael W. Deem and Ramdas Pophale) SiO2 
 PCOD9098404
Probable space group: P -1
;
_chemical_formula_sum "Si O2"
_cell_formula_units_Z 16
_cell_length_a 9.605309
_cell_length_b 15.226121
_cell_length_c 12.931204
_cell_angle_alpha 69.722755
_cell_angle_beta 46.359355
_cell_angle_gamma 41.101054
_cell_volume 837.768435
_symmetry_space_group_name_H-M "P -1"
_symmetry_group_IT_number 2
_symmetry_cell_setting 'triclinic'
loop_
_space_group_symop_operation_xyz
x,y,z
-x,-y,-z
loop_
_atom_site_type_symbol
_atom_site_label
_atom_site_fract_x
_atom_site_fract_y
_atom_site_fract_z
Si Si1 0.963661 0.247221 0.469000
Si Si2 0.418591 0.347970 0.593182
Si Si3 0.244585 0.134885 0.949835
Si Si4 0.670649 0.817959 0.888605
Si Si5 0.364590 0.570771 0.929831
Si Si6 0.294240 0.944917 0.404974
Si Si7 0.208976 0.508422 0.423967
Si Si8 0.847053 0.551660 0.947151
O O1 0.655348 0.313888 0.560250
O O2 0.935272 0.339173 0.530482
O O3 0.111472 0.238166 0.294410
O O4 0.179484 0.082624 0.459742
O O5 0.522759 0.203853 0.572719
O O6 0.381325 0.415973 0.477609
O O7 0.106992 0.454708 0.768122
O O8 0.510570 0.095198 0.777046
O O9 0.365106 0.984709 0.955723
O O10 0.202608 0.186331 0.067416
O O11 0.954255 0.261885 0.980558
O O12 0.651846 0.714337 0.956843
O O13 0.577666 0.550952 0.756438
O O14 0.500000 0.500000 0.000000
O O15 0.325231 0.480930 0.944526
O O16 0.000000 0.000000 0.500000
O O17 0.000000 0.500000 0.500000
O O18 0.000000 0.500000 0.000000
#
# Coordination Sequence:
#
# PCOD9098404 Si02
#       8
#     2   2   2   2   2   2   2   2
#     4  10  21  37  65  96 125 161 209 262 324 377
#     4  11  20  37  65  94 126 159 211 262 318 379
#     4  10  20  38  62  97 133 165 203 264 328 375
#     4  10  20  36  65  96 130 158 208 266 322 374
#     4  12  26  43  64  90 129 173 214 264 320 385
#     4   9  19  36  63  97 131 158 202 262 326 378
#     4  12  26  42  62  88 125 171 219 261 313 373
#     4  12  21  36  64  97 127 162 214 265 319 373
#
# _framework density 19.098357
#
# number of rings (size 3 to 8) (size 9 to 14) (size 15 to 20)
#    0.000    1.250    3.750    2.625    0.000    2.000 
#    0.000    1.250    0.000    0.000    0.000    0.000 
#    0.000    0.000    0.000    0.000    0.000    0.000 
#
# Total GULP energy -89273.034794 kJ/mol
# GULP energy per Si atom -5579.564675 kJ/mol
# Density = 1.905489 g / cm^3
# Si number density = 19.098357 Si / 1000 Ang^3
#
#
#
# Elastic Constant Matrix: (Units=GPa)
#
#
# Indices 1 2 3 4 5 6 
#
# 1 80.8774 31.7671 21.1833 3.1101 -11.3678 5.4397
# 2 31.7671 160.3921 25.8923 -3.9971 -5.3353 12.4009
# 3 21.1833 25.8923 100.2342 -3.5869 -11.2297 -6.6220
# 4 3.1101 -3.9971 -3.5869 25.5584 4.1045 -0.4913
# 5 -11.3678 -5.3353 -11.2297 4.1045 25.9530 -10.3815
# 6 5.4397 12.4009 -6.6220 -0.4913 -10.3815 32.2910
#
#
#
# Elastic Compliance Matrix: (Units=1/GPa)
#
#
# Indices 1 2 3 4 5 6 
#
# 1 0.014789 -0.002490 -0.001995 -0.003364 0.005550 -0.000211
# 2 -0.002490 0.007233 -0.001721 0.001434 -0.001895 -0.003299
# 3 -0.001995 -0.001721 0.011890 0.000792 0.005934 0.005355
# 4 -0.003364 0.001434 0.000792 0.041130 -0.008055 -0.001785
# 5 0.005550 -0.001895 0.005934 -0.008055 0.051376 0.017404
# 6 -0.000211 -0.003299 0.005355 -0.001785 0.017404 0.038937
#
#
# Mechanical properties :
#
#
# Convention : Reuss Voigt Hill
#
# Bulk Modulus (GPa) = 46.51136 55.46546 50.98841
# Shear Modulus (GPa) = 27.03677 34.27122 30.65400
#
# Velocity S-wave (km/s) = 3.76661 4.24070 4.01067
# Velocity P-wave (km/s) = 6.58201 7.28582 6.94284
#
# Compressibility (1/GPa) = 0.02150013
#
# Stress axis : x y z
#
# Youngs Moduli (GPa) = 67.62003 138.24606 84.10619
#
# Poissons Ratio (x) = 0.34422 0.16776
# Poissons Ratio (y) = 0.16837 0.14476
# Poissons Ratio (z) = 0.13488 0.23795
#
# Static dielectric constant tensor:
#      x y z
#    x 1.630010 0.016210 -0.014850 
#    y 0.016210 1.714770 0.038950 
#    z -0.014850 0.038950 1.725400 
# 
# From -- ./inp_files/315167.got.cif
#   From: 2010.05.17/outbox.cif.g08.bks.cpg/sg2_158_cif.got.tgz:315167.got - 2010.06.03 11:33:40.
