data_PCOD9098968
_publ_section_title
;
Structure prediction by ZEFSAII (Michael W. Deem and Ramdas Pophale) SiO2 
 PCOD9098968
Probable space group: P -1
;
_chemical_formula_sum "Si O2"
_cell_formula_units_Z 16
_cell_length_a 6.458891
_cell_length_b 5.706645
_cell_length_c 23.668713
_cell_angle_alpha 133.067808
_cell_angle_beta 76.714407
_cell_angle_gamma 105.816338
_cell_volume 612.010644
_symmetry_space_group_name_H-M "P -1"
_symmetry_group_IT_number 2
_symmetry_cell_setting 'triclinic'
loop_
_space_group_symop_operation_xyz
x,y,z
-x,-y,-z
loop_
_atom_site_type_symbol
_atom_site_label
_atom_site_fract_x
_atom_site_fract_y
_atom_site_fract_z
Si Si1 0.690641 0.682842 0.447648
Si Si2 0.576819 0.583857 0.675292
Si Si3 0.283377 0.465328 0.771807
Si Si4 0.456363 0.668314 0.167632
Si Si5 0.976590 0.812950 0.892894
Si Si6 0.927697 0.851853 0.563357
Si Si7 0.019354 0.832308 0.676783
Si Si8 0.278539 0.743615 0.970606
O O1 0.470919 0.587631 0.411106
O O2 0.713325 0.815687 0.531895
O O3 0.789350 0.351598 0.383498
O O4 0.872044 0.924455 0.442045
O O5 0.394185 0.392502 0.695062
O O6 0.824953 0.591627 0.677680
O O7 0.546251 0.960572 0.752145
O O8 0.476682 0.530011 0.814748
O O9 0.124064 0.725000 0.818013
O O10 0.129781 0.148887 0.753522
O O11 0.222129 0.481803 0.134741
O O12 0.630012 0.594864 0.097220
O O13 0.139398 0.802955 0.933711
O O14 0.871433 0.140825 0.951871
O O15 0.909291 0.943611 0.644760
O O16 0.000000 0.500000 0.500000
O O17 0.500000 0.000000 0.000000
#
# Coordination Sequence:
#
# PCOD9098968 Si02
#       8
#     2   2   2   2   2   2   2   2
#     4  10  21  41  63  88 120 158 202 251 303 364
#     4  12  24  36  62  92 119 163 208 242 307 369
#     4  11  22  37  57  88 125 157 203 251 298 361
#     4  10  20  37  58  88 123 161 202 252 303 355
#     4   9  17  35  60  86 123 164 198 251 307 345
#     4   9  20  41  66  86 121 157 199 256 301 355
#     4  11  22  39  60  88 122 158 198 252 304 356
#     4   8  16  32  62  90 117 164 205 244 303 354
#
# _framework density 26.143333999999999
#
# number of rings (size 3 to 8) (size 9 to 14) (size 15 to 20)
#    0.000    2.000    3.750    0.000    0.000    2.500 
#    0.000    6.250    0.000   25.500    0.000    0.000 
#    0.000    0.000    0.000    0.000    0.000    0.000 
#
# Total GULP energy -89322.140365 kJ/mol
# GULP energy per Si atom -5582.633773 kJ/mol
# Density = 2.608383 g / cm^3
# Si number density = 26.143334 Si / 1000 Ang^3
#
#
#
# Elastic Constant Matrix: (Units=GPa)
#
#
# Indices 1 2 3 4 5 6 
#
# 1 139.0569 9.7686 40.1137 2.3253 13.4902 5.7186
# 2 9.7686 45.0760 11.4128 20.2706 4.3205 7.2386
# 3 40.1137 11.4128 76.7404 13.4415 16.6294 0.8842
# 4 2.3253 20.2706 13.4415 34.6494 10.5318 -1.0117
# 5 13.4902 4.3205 16.6294 10.5318 58.5902 6.3321
# 6 5.7186 7.2386 0.8842 -1.0117 6.3321 24.3787
#
#
#
# Elastic Compliance Matrix: (Units=1/GPa)
#
#
# Indices 1 2 3 4 5 6 
#
# 1 0.008694 -0.001510 -0.004513 0.002293 -0.000903 -0.001098
# 2 -0.001510 0.033412 -0.001168 -0.020249 0.003061 -0.011160
# 3 -0.004513 -0.001168 0.017017 -0.004658 -0.003016 0.001378
# 4 0.002293 -0.020249 -0.004658 0.044680 -0.006744 0.009249
# 5 -0.000903 0.003061 -0.003016 -0.006744 0.019767 -0.006002
# 6 -0.001098 -0.011160 0.001378 0.009249 -0.006002 0.046483
#
#
# Mechanical properties :
#
#
# Convention : Reuss Voigt Hill
#
# Bulk Modulus (GPa) = 22.35051 42.60706 32.47879
# Shear Modulus (GPa) = 25.08170 36.82885 30.95528
#
# Velocity S-wave (km/s) = 3.10077 3.75737 3.44475
# Velocity P-wave (km/s) = 4.62466 5.92931 5.31715
#
# Compressibility (1/GPa) = 0.04474170
#
# Stress axis : x y z
#
# Youngs Moduli (GPa) = 115.02640 29.92916 58.76326
#
# Poissons Ratio (x) = 0.04518 0.26521
# Poissons Ratio (y) = 0.17365 0.06863
# Poissons Ratio (z) = 0.51913 0.03496
#
# Static dielectric constant tensor:
#      x y z
#    x 2.056260 -0.019200 -0.033260 
#    y -0.019200 2.078210 -0.035580 
#    z -0.033260 -0.035580 2.172030 
# 
# From -- ./inp_files/120404.got.cif
#   From: 2010.05.17/outbox.cif.g08.bks.cpg/sg2_61_cif.got.tgz:120404.got - 2010.06.03 11:33:40.
