data_PCOD9098429
_publ_section_title
;
Structure prediction by ZEFSAII (Michael W. Deem and Ramdas Pophale) SiO2 
 PCOD9098429
Probable space group: P -1
;
_chemical_formula_sum "Si O2"
_cell_formula_units_Z 16
_cell_length_a 16.736212
_cell_length_b 8.775870
_cell_length_c 9.134056
_cell_angle_alpha 47.553039
_cell_angle_beta 55.003722
_cell_angle_gamma 84.149889
_cell_volume 715.052275
_symmetry_space_group_name_H-M "P -1"
_symmetry_group_IT_number 2
_symmetry_cell_setting 'triclinic'
loop_
_space_group_symop_operation_xyz
x,y,z
-x,-y,-z
loop_
_atom_site_type_symbol
_atom_site_label
_atom_site_fract_x
_atom_site_fract_y
_atom_site_fract_z
Si Si1 0.357223 0.937989 0.664989
Si Si2 0.904730 0.656012 0.441286
Si Si3 0.324327 0.429096 0.697988
Si Si4 0.867299 0.091597 0.101126
Si Si5 0.279050 0.687273 0.345468
Si Si6 0.449652 0.131273 0.732449
Si Si7 0.261914 0.963486 0.462871
Si Si8 0.231598 0.397240 0.116491
O O1 0.360591 0.004590 0.446693
O O2 0.449344 0.091395 0.584797
O O3 0.248783 0.963188 0.813685
O O4 0.317667 0.662786 0.894438
O O5 0.817016 0.421705 0.603256
O O6 0.877008 0.649546 0.646829
O O7 0.029052 0.728484 0.217141
O O8 0.882607 0.865039 0.264753
O O9 0.287977 0.472659 0.550580
O O10 0.366718 0.238644 0.783841
O O11 0.432474 0.675483 0.461196
O O12 0.233022 0.383108 0.948441
O O13 0.846823 0.172341 0.231459
O O14 0.256614 0.819097 0.419118
O O15 0.393604 0.877990 0.030756
O O16 0.269707 0.210932 0.252586
#
# Coordination Sequence:
#
# PCOD9098429 Si02
#       8
#     2   2   2   2   2   2   2   2
#     4  10  20  40  61  84 116 156 192 236 292 341
#     4  10  20  36  66  86 117 154 195 235 290 347
#     4  11  24  40  60  85 123 150 194 244 293 341
#     4   8  19  39  60  89 117 152 192 238 288 346
#     4  12  21  40  61  86 120 157 191 240 293 340
#     4  11  24  40  60  90 113 155 198 241 288 350
#     4   9  21  38  59  84 123 151 190 242 287 335
#     4  11  20  39  59  86 116 158 189 245 283 343
#
# _framework density 22.375985
#
# number of rings (size 3 to 8) (size 9 to 14) (size 15 to 20)
#    0.750    1.000    3.750    1.125    0.000    1.500 
#    0.000    0.625    0.000    3.750    0.000    0.000 
#    0.000    0.000    0.000    0.000    0.000    0.000 
#
# Total GULP energy -89289.123234 kJ/mol
# GULP energy per Si atom -5580.570202 kJ/mol
# Density = 2.232506 g / cm^3
# Si number density = 22.375985 Si / 1000 Ang^3
#
#
#
# Elastic Constant Matrix: (Units=GPa)
#
#
# Indices 1 2 3 4 5 6 
#
# 1 27.8841 11.2388 12.8384 10.2035 9.8780 -1.5870
# 2 11.2388 85.6673 21.5800 22.8452 -0.3933 -4.6561
# 3 12.8384 21.5800 114.3910 23.5217 6.8292 -3.5815
# 4 10.2035 22.8452 23.5217 32.8571 -8.3633 7.0890
# 5 9.8780 -0.3933 6.8292 -8.3633 27.2492 -3.6024
# 6 -1.5870 -4.6561 -3.5815 7.0890 -3.6024 27.6798
#
#
#
# Elastic Compliance Matrix: (Units=1/GPa)
#
#
# Indices 1 2 3 4 5 6 
#
# 1 0.055057 -0.000357 0.001049 -0.025924 -0.027349 0.006312
# 2 -0.000357 0.015302 0.000041 -0.012421 -0.002761 0.005381
# 3 0.001049 0.000041 0.011293 -0.010729 -0.006041 0.003490
# 4 -0.025924 -0.012421 -0.010729 0.066301 0.029869 -0.018057
# 5 -0.027349 -0.002761 -0.006041 0.029869 0.056849 -0.003065
# 6 0.006312 0.005381 0.003490 -0.018057 -0.003065 0.042072
#
#
# Mechanical properties :
#
#
# Convention : Reuss Voigt Hill
#
# Bulk Modulus (GPa) = 12.03107 35.47295 23.75201
# Shear Modulus (GPa) = 18.30748 29.70956 24.00852
#
# Velocity S-wave (km/s) = 2.86348 3.64777 3.27916
# Velocity P-wave (km/s) = 4.03994 5.79907 4.99752
#
# Compressibility (1/GPa) = 0.08311812
#
# Stress axis : x y z
#
# Youngs Moduli (GPa) = 18.16292 65.35177 88.55368
#
# Poissons Ratio (x) = 0.02330 -0.09289
# Poissons Ratio (y) = 0.00648 -0.00361
# Poissons Ratio (z) = -0.01905 -0.00266
#
# Static dielectric constant tensor:
#      x y z
#    x 1.836670 -0.057510 0.025630 
#    y -0.057510 1.838590 0.047300 
#    z 0.025630 0.047300 1.842340 
# 
# From -- ./inp_files/328384.got.cif
#   From: 2010.05.17/outbox.cif.g08.bks.cpg/sg2_165_cif.got.tgz:328384.got - 2010.06.03 11:33:40.
