data_PCOD9098416
_publ_section_title
;
Structure prediction by ZEFSAII (Michael W. Deem and Ramdas Pophale) SiO2 
 PCOD9098416
Probable space group: P -1
;
_chemical_formula_sum "Si O2"
_cell_formula_units_Z 13
_cell_length_a 8.792602
_cell_length_b 8.581739
_cell_length_c 10.187551
_cell_angle_alpha 112.661550
_cell_angle_beta 119.426155
_cell_angle_gamma 108.832470
_cell_volume 476.208262
_symmetry_space_group_name_H-M "P -1"
_symmetry_group_IT_number 2
_symmetry_cell_setting 'triclinic'
loop_
_space_group_symop_operation_xyz
x,y,z
-x,-y,-z
loop_
_atom_site_type_symbol
_atom_site_label
_atom_site_fract_x
_atom_site_fract_y
_atom_site_fract_z
Si Si1 0.000000 0.500000 0.000000
Si Si2 0.065254 0.768090 0.470206
Si Si3 0.277898 0.979734 0.382856
Si Si4 0.650401 0.642729 0.822681
Si Si5 0.642919 0.388027 0.517876
Si Si6 0.304947 0.019068 0.892641
Si Si7 0.336971 0.573235 0.985974
O O1 0.079658 0.737022 0.168032
O O2 0.805291 0.365791 0.986778
O O3 0.183797 0.973035 0.483926
O O4 0.208039 0.683000 0.474263
O O5 0.816085 0.588722 0.250532
O O6 0.098779 0.820578 0.655498
O O7 0.500000 0.000000 0.500000
O O8 0.390582 0.185298 0.402391
O O9 0.754576 0.566436 0.741090
O O10 0.422131 0.555102 0.622214
O O11 0.617305 0.518980 0.901421
O O12 0.760388 0.890890 0.990165
O O13 0.435799 0.214288 0.906778
O O14 0.500000 0.000000 0.000000
#
# Coordination Sequence:
#
# PCOD9098416 Si02
#       7
#     1   2   2   2   2   2   2
#     4  10  20  36  66 100 124 164 220 264 326 384
#     4  10  21  41  69  96 124 174 228 266 329 397
#     4   9  17  33  63  92 124 167 211 264 316 382
#     4  11  23  40  66 101 134 177 220 273 338 390
#     4  10  20  40  68  97 137 174 223 272 331 398
#     4  12  25  44  68  95 134 181 221 270 337 397
#     4  11  23  41  70  96 133 171 223 275 330 396
#
# _framework density 27.298981999999999
#
# number of rings (size 3 to 8) (size 9 to 14) (size 15 to 20)
#    0.000    1.538    1.538    6.000    0.000    1.231 
#    0.000    4.615    6.769    0.000    0.000    0.000 
#    0.000    0.000    0.000    0.000    0.000    0.000 
#
# Total GULP energy -72470.665862 kJ/mol
# GULP energy per Si atom -5574.666605 kJ/mol
# Density = 2.723685 g / cm^3
# Si number density = 27.298982 Si / 1000 Ang^3
#
#
#
# Elastic Constant Matrix: (Units=GPa)
#
#
# Indices 1 2 3 4 5 6 
#
# 1 78.9899 10.8083 36.8727 8.2463 -18.9319 -0.1721
# 2 10.8083 86.6181 52.2165 -22.4537 8.2214 -22.5032
# 3 36.8727 52.2165 191.0777 -10.6574 -34.5741 -8.7659
# 4 8.2463 -22.4537 -10.6574 33.6347 -0.1116 4.8470
# 5 -18.9319 8.2214 -34.5741 -0.1116 54.9400 2.5552
# 6 -0.1721 -22.5032 -8.7659 4.8470 2.5552 32.0210
#
#
#
# Elastic Compliance Matrix: (Units=1/GPa)
#
#
# Indices 1 2 3 4 5 6 
#
# 1 0.015833 -0.003897 -0.001536 -0.006594 0.005175 -0.002489
# 2 -0.003897 0.023270 -0.005941 0.012628 -0.009167 0.013526
# 3 -0.001536 -0.005941 0.008003 -0.000700 0.005503 -0.002326
# 4 -0.006594 0.012628 -0.000700 0.039094 -0.004668 0.003102
# 5 0.005175 -0.009167 0.005503 -0.004668 0.025099 -0.006205
# 6 -0.002489 0.013526 -0.002326 0.003102 -0.006205 0.040111
#
#
# Mechanical properties :
#
#
# Convention : Reuss Voigt Hill
#
# Bulk Modulus (GPa) = 41.05230 61.83117 51.44174
# Shear Modulus (GPa) = 27.43052 41.23835 34.33444
#
# Velocity S-wave (km/s) = 3.17333 3.89088 3.55028
# Velocity P-wave (km/s) = 5.33829 6.54860 5.97417
#
# Compressibility (1/GPa) = 0.02435917
#
# Stress axis : x y z
#
# Youngs Moduli (GPa) = 63.15766 42.97292 124.94615
#
# Poissons Ratio (x) = 0.16746 0.19193
# Poissons Ratio (y) = 0.24612 0.74232
# Poissons Ratio (z) = 0.09702 0.25531
#
# Static dielectric constant tensor:
#      x y z
#    x 2.331930 -0.007520 -0.047940 
#    y -0.007520 2.283490 -0.045960 
#    z -0.047940 -0.045960 2.205570 
# 
# From -- ./inp_files/386104.got.cif
#   From: 2010.05.17/outbox.cif.g08.bks.cpg/sg2_194_cif.got.tgz:386104.got - 2010.06.03 11:33:40.
