data_PCOD9098797
_publ_section_title
;
Structure prediction by ZEFSAII (Michael W. Deem and Ramdas Pophale) SiO2 
 PCOD9098797
Probable space group: P -1
;
_chemical_formula_sum "Si O2"
_cell_formula_units_Z 16
_cell_length_a 24.434732
_cell_length_b 11.420732
_cell_length_c 14.512106
_cell_angle_alpha 150.396672
_cell_angle_beta 150.100335
_cell_angle_gamma 49.427187
_cell_volume 905.207281
_symmetry_space_group_name_H-M "P -1"
_symmetry_group_IT_number 2
_symmetry_cell_setting 'triclinic'
loop_
_space_group_symop_operation_xyz
x,y,z
-x,-y,-z
loop_
_atom_site_type_symbol
_atom_site_label
_atom_site_fract_x
_atom_site_fract_y
_atom_site_fract_z
Si Si1 0.200925 0.780158 0.823160
Si Si2 0.002928 0.714489 0.077730
Si Si3 0.547400 0.191503 0.787324
Si Si4 0.841273 0.264500 0.856351
Si Si5 0.352478 0.212746 0.652482
Si Si6 0.984408 0.683093 0.681461
Si Si7 0.834358 0.844651 0.820508
Si Si8 0.022748 0.161753 0.550438
O O1 0.148314 0.489562 0.593180
O O2 0.096215 0.781876 0.603780
O O3 0.333331 0.836477 0.021047
O O4 0.205057 0.987531 0.049827
O O5 0.102042 0.755460 0.172275
O O6 0.029690 0.980322 0.353969
O O7 0.000000 0.500000 0.000000
O O8 0.870954 0.639016 0.785921
O O9 0.448625 0.139153 0.686963
O O10 0.500000 0.000000 0.500000
O O11 0.582648 0.491877 0.013483
O O12 0.719726 0.013857 0.534457
O O13 0.858187 0.565565 0.086144
O O14 0.926922 0.277694 0.077106
O O15 0.261949 0.229553 0.451992
O O16 0.000000 0.500000 0.500000
O O17 0.035187 0.964165 0.902220
O O18 0.000000 0.000000 0.500000
#
# Coordination Sequence:
#
# PCOD9098797 Si02
#       8
#     2   2   2   2   2   2   2   2
#     4   9  18  32  55  79 112 148 174 228 281 331
#     4  11  22  33  53  86 117 151 183 221 285 343
#     4  11  22  37  54  79 115 151 192 229 281 330
#     4  10  21  36  55  83 118 150 181 235 286 341
#     4  10  23  36  55  84 111 149 193 232 275 339
#     4   8  16  30  51  82 111 138 174 220 288 346
#     4   9  18  33  52  82 113 140 181 226 279 351
#     4  10  20  37  57  86 117 144 186 230 284 345
#
# _framework density 17.675509999999999
#
# number of rings (size 3 to 8) (size 9 to 14) (size 15 to 20)
#    0.000    2.250    2.500    0.750    5.250    2.000 
#    0.000    0.000    0.000    0.750    0.000    8.750 
#    0.000    0.000    0.000    0.000    0.000    0.000 
#
# Total GULP energy -89107.444907 kJ/mol
# GULP energy per Si atom -5569.215307 kJ/mol
# Density = 1.763528 g / cm^3
# Si number density = 17.675510 Si / 1000 Ang^3
#
#
#
# Elastic Constant Matrix: (Units=GPa)
#
#
# Indices 1 2 3 4 5 6 
#
# 1 121.3037 45.2812 50.5829 8.1660 11.2486 -4.8244
# 2 45.2812 83.1116 30.6360 5.5887 12.6848 0.2662
# 3 50.5829 30.6360 79.9018 14.5789 5.4123 -6.5588
# 4 8.1660 5.5887 14.5789 26.0919 -4.1992 0.2462
# 5 11.2486 12.6848 5.4123 -4.1992 29.0000 2.4516
# 6 -4.8244 0.2662 -6.5588 0.2462 2.4516 31.7897
#
#
#
# Elastic Compliance Matrix: (Units=1/GPa)
#
#
# Indices 1 2 3 4 5 6 
#
# 1 0.012631 -0.004330 -0.006156 0.000099 -0.001912 0.000830
# 2 -0.004330 0.016367 -0.003054 -0.001240 -0.005002 -0.001029
# 3 -0.006156 -0.003054 0.019519 -0.008588 -0.001441 0.003296
# 4 0.000099 -0.001240 -0.008588 0.044807 0.008829 -0.002774
# 5 -0.001912 -0.005002 -0.001441 0.008829 0.039268 -0.003642
# 6 0.000830 -0.001029 0.003296 -0.002774 -0.003642 0.032574
#
#
# Mechanical properties :
#
#
# Convention : Reuss Voigt Hill
#
# Bulk Modulus (GPa) = 46.64909 59.70191 53.17550
# Shear Modulus (GPa) = 25.07648 27.89747 26.48698
#
# Velocity S-wave (km/s) = 3.77067 3.97711 3.87526
# Velocity P-wave (km/s) = 6.73843 7.41214 7.08330
#
# Compressibility (1/GPa) = 0.02143665
#
# Stress axis : x y z
#
# Youngs Moduli (GPa) = 79.17118 61.09967 51.23240
#
# Poissons Ratio (x) = 0.26454 0.31541
# Poissons Ratio (y) = 0.34279 0.15646
# Poissons Ratio (z) = 0.48741 0.18659
#
# Static dielectric constant tensor:
#      x y z
#    x 1.636140 0.011160 -0.011090 
#    y 0.011160 1.673760 0.038750 
#    z -0.011090 0.038750 1.659680 
# 
# From -- ./inp_files/436995.got.cif
#   From: 2010.05.17/outbox.cif.g08.bks.cpg/sg2_219_cif.got.tgz:436995.got - 2010.06.03 11:33:40.
