data_PCOD9098627
_publ_section_title
;
Structure prediction by ZEFSAII (Michael W. Deem and Ramdas Pophale) SiO2 
 PCOD9098627
Probable space group: P -1
;
_chemical_formula_sum "Si O2"
_cell_formula_units_Z 16
_cell_length_a 12.194626
_cell_length_b 15.658556
_cell_length_c 9.237408
_cell_angle_alpha 92.735642
_cell_angle_beta 78.693799
_cell_angle_gamma 153.811546
_cell_volume 729.077090
_symmetry_space_group_name_H-M "P -1"
_symmetry_group_IT_number 2
_symmetry_cell_setting 'triclinic'
loop_
_space_group_symop_operation_xyz
x,y,z
-x,-y,-z
loop_
_atom_site_type_symbol
_atom_site_label
_atom_site_fract_x
_atom_site_fract_y
_atom_site_fract_z
Si Si1 0.571466 0.454152 0.935494
Si Si2 0.303443 0.846895 0.771578
Si Si3 0.623516 0.895651 0.645744
Si Si4 0.006415 0.741747 0.067946
Si Si5 0.094341 0.431385 0.647051
Si Si6 0.039132 0.765743 0.611234
Si Si7 0.145624 0.587614 0.125480
Si Si8 0.707675 0.896734 0.942188
O O1 0.774647 0.597396 0.760174
O O2 0.500000 0.500000 0.000000
O O3 0.748730 0.539489 0.027471
O O4 0.327241 0.218572 0.980836
O O5 0.514583 0.916284 0.720928
O O6 0.290621 0.911633 0.658802
O O7 0.033034 0.610201 0.777627
O O8 0.240875 0.847970 0.942038
O O9 0.376829 0.673764 0.619771
O O10 0.711773 0.905022 0.766517
O O11 0.858198 0.079708 0.489133
O O12 0.942055 0.672767 0.242080
O O13 0.063355 0.881118 0.046371
O O14 0.033191 0.356091 0.498415
O O15 0.881337 0.350896 0.757848
O O16 0.440592 0.763275 0.040370
O O17 0.000000 0.500000 0.000000
#
# Coordination Sequence:
#
# PCOD9098627 Si02
#       8
#     2   2   2   2   2   2   2   2
#     4  11  26  51  68  85 119 156 210 283 324 365
#     4  10  20  37  54  92 139 173 201 240 291 367
#     4  11  21  36  62  93 136 168 201 242 300 371
#     4  11  21  38  68  92 121 168 216 244 305 379
#     4  11  21  36  62  93 137 167 200 248 297 365
#     4  11  24  39  59  98 126 159 209 261 313 354
#     4  11  17  34  60  91 131 179 209 226 288 375
#     4  12  21  38  69  92 120 172 218 243 298 385
#
# _framework density 21.945553
#
# number of rings (size 3 to 8) (size 9 to 14) (size 15 to 20)
#    0.000    1.000    8.750    0.375    1.750    5.500 
#    0.000    1.250    0.000    0.000    0.000    0.000 
#    0.000    0.000    0.000    0.000    0.000    0.000 
#
# Total GULP energy -89312.802130 kJ/mol
# GULP energy per Si atom -5582.050133 kJ/mol
# Density = 2.189560 g / cm^3
# Si number density = 21.945553 Si / 1000 Ang^3
#
#
#
# Elastic Constant Matrix: (Units=GPa)
#
#
# Indices 1 2 3 4 5 6 
#
# 1 63.3028 16.2516 35.4190 -6.8127 -12.8199 -26.5412
# 2 16.2516 90.7467 26.9871 -9.1265 2.1596 -24.2561
# 3 35.4190 26.9871 137.7159 -4.5531 5.4113 -13.5075
# 4 -6.8127 -9.1265 -4.5531 34.8550 -12.9282 12.1511
# 5 -12.8199 2.1596 5.4113 -12.9282 18.5063 0.4457
# 6 -26.5412 -24.2561 -13.5075 12.1511 0.4457 33.1754
#
#
#
# Elastic Compliance Matrix: (Units=1/GPa)
#
#
# Indices 1 2 3 4 5 6 
#
# 1 0.040085 0.002680 -0.009484 0.012968 0.038688 0.024898
# 2 0.002680 0.014347 -0.002388 0.000212 0.000750 0.011574
# 3 -0.009484 -0.002388 0.010175 -0.004575 -0.012382 -0.003349
# 4 0.012968 0.000212 -0.004575 0.051855 0.046786 -0.010955
# 5 0.038688 0.000750 -0.012382 0.046786 0.116867 0.007752
# 6 0.024898 0.011574 -0.003349 -0.010955 0.007752 0.061069
#
#
# Mechanical properties :
#
#
# Convention : Reuss Voigt Hill
#
# Bulk Modulus (GPa) = 21.63389 49.89786 35.76587
# Shear Modulus (GPa) = 15.23505 31.51451 23.37478
#
# Velocity S-wave (km/s) = 2.63766 3.79361 3.26717
# Velocity P-wave (km/s) = 4.37673 6.47882 5.52860
#
# Compressibility (1/GPa) = 0.04622378
#
# Stress axis : x y z
#
# Youngs Moduli (GPa) = 24.94686 69.70087 98.27681
#
# Poissons Ratio (x) = -0.18682 0.93207
# Poissons Ratio (y) = -0.06686 0.23469
# Poissons Ratio (z) = 0.23660 0.16645
#
# Static dielectric constant tensor:
#      x y z
#    x 1.858500 -0.028780 0.041740 
#    y -0.028780 1.838210 -0.031570 
#    z 0.041740 -0.031570 1.837720 
# 
# From -- ./inp_files/273144.got.cif
#   From: 2010.05.17/outbox.cif.g08.bks.cpg/sg2_137_cif.got.tgz:273144.got - 2010.06.03 11:33:40.
