data_PCOD9098721
_publ_section_title
;
Structure prediction by ZEFSAII (Michael W. Deem and Ramdas Pophale) SiO2 
 PCOD9098721
Probable space group: P -1
;
_chemical_formula_sum "Si O2"
_cell_formula_units_Z 16
_cell_length_a 8.747217
_cell_length_b 12.783576
_cell_length_c 11.994410
_cell_angle_alpha 123.860243
_cell_angle_beta 38.744629
_cell_angle_gamma 99.262699
_cell_volume 592.628898
_symmetry_space_group_name_H-M "P -1"
_symmetry_group_IT_number 2
_symmetry_cell_setting 'triclinic'
loop_
_space_group_symop_operation_xyz
x,y,z
-x,-y,-z
loop_
_atom_site_type_symbol
_atom_site_label
_atom_site_fract_x
_atom_site_fract_y
_atom_site_fract_z
Si Si1 0.054279 0.683051 0.409242
Si Si2 0.341156 0.430492 0.390535
Si Si3 0.342890 0.239555 0.744239
Si Si4 0.653882 0.494197 0.078933
Si Si5 0.322498 0.039646 0.328659
Si Si6 0.081059 0.049605 0.704364
Si Si7 0.319440 0.816949 0.794920
Si Si8 0.115044 0.235961 0.109066
O O1 0.360240 0.610026 0.249332
O O2 0.855672 0.637385 0.557949
O O3 0.877825 0.859049 0.597343
O O4 0.121352 0.608982 0.203640
O O5 0.576211 0.399303 0.145871
O O6 0.494931 0.355388 0.375534
O O7 0.127077 0.606440 0.614794
O O8 0.285993 0.393442 0.821527
O O9 0.167026 0.170532 0.756456
O O10 0.671918 0.106746 0.477731
O O11 0.242751 0.270813 0.948527
O O12 0.128736 0.037683 0.537633
O O13 0.480349 0.127061 0.331994
O O14 0.599203 0.877126 0.052108
O O15 0.800482 0.101940 0.968741
O O16 0.059319 0.839974 0.879771
#
# Coordination Sequence:
#
# PCOD9098721 Si02
#       8
#     2   2   2   2   2   2   2   2
#     4  10  23  43  58  85 115 149 205 243 274 338
#     4  11  22  37  60  86 116 150 196 237 286 341
#     4   9  19  36  59  86 115 152 187 237 282 347
#     4  11  22  39  66  79 113 160 195 238 291 327
#     4  10  21  37  61  82 119 155 187 238 291 337
#     4   9  19  36  56  86 121 144 186 233 291 343
#     4  10  21  35  57  86 120 153 184 233 289 350
#     4  10  20  37  56  88 121 148 188 235 291 346
#
# _framework density 26.998342999999998
#
# number of rings (size 3 to 8) (size 9 to 14) (size 15 to 20)
#    0.000    2.000    1.250    2.625    3.500    0.000 
#    0.000    5.000    2.750    0.000    0.000    0.000 
#    0.000    0.000    0.000    0.000    0.000    0.000 
#
# Total GULP energy -89641.401503 kJ/mol
# GULP energy per Si atom -5602.587594 kJ/mol
# Density = 2.693689 g / cm^3
# Si number density = 26.998343 Si / 1000 Ang^3
#
#
#
# Elastic Constant Matrix: (Units=GPa)
#
#
# Indices 1 2 3 4 5 6 
#
# 1 54.4114 27.2977 28.8154 18.0306 -7.3527 -9.3911
# 2 27.2977 141.5497 49.6050 -18.9031 8.7793 13.1662
# 3 28.8154 49.6050 130.6995 15.9301 -8.3759 -13.9179
# 4 18.0306 -18.9031 15.9301 41.5742 -12.9458 -7.6174
# 5 -7.3527 8.7793 -8.3759 -12.9458 38.8303 9.9403
# 6 -9.3911 13.1662 -13.9179 -7.6174 9.9403 35.5762
#
#
#
# Elastic Compliance Matrix: (Units=1/GPa)
#
#
# Indices 1 2 3 4 5 6 
#
# 1 0.028759 -0.007831 -0.000856 -0.014278 0.000490 0.006961
# 2 -0.007831 0.012088 -0.004702 0.009396 -0.000503 -0.006228
# 3 -0.000856 -0.004702 0.010734 -0.004918 0.000413 0.004545
# 4 -0.014278 0.009396 -0.004918 0.038212 0.007651 -0.003126
# 5 0.000490 -0.000503 0.000413 0.007651 0.030220 -0.006328
# 6 0.006961 -0.006228 0.004545 -0.003126 -0.006328 0.035128
#
#
# Mechanical properties :
#
#
# Convention : Reuss Voigt Hill
#
# Bulk Modulus (GPa) = 40.31536 59.78852 50.05194
# Shear Modulus (GPa) = 26.29007 37.92564 32.10786
#
# Velocity S-wave (km/s) = 3.12391 3.75205 3.45230
# Velocity P-wave (km/s) = 5.28930 6.40030 5.87114
#
# Compressibility (1/GPa) = 0.02480444
#
# Stress axis : x y z
#
# Youngs Moduli (GPa) = 34.77155 82.72749 93.15939
#
# Poissons Ratio (x) = 0.64783 0.07971
# Poissons Ratio (y) = 0.27229 0.43803
# Poissons Ratio (z) = 0.02975 0.38898
#
# Static dielectric constant tensor:
#      x y z
#    x 2.185650 0.009900 0.021180 
#    y 0.009900 2.068390 0.035870 
#    z 0.021180 0.035870 2.056860 
# 
# From -- ./inp_files/180175.got.cif
#   From: 2010.05.17/outbox.cif.g08.bks.cpg/sg2_91_cif.got.tgz:180175.got - 2010.06.03 11:33:40.
