data_PCOD9098595
_publ_section_title
;
Structure prediction by ZEFSAII (Michael W. Deem and Ramdas Pophale) SiO2 
 PCOD9098595
Probable space group: P -1
;
_chemical_formula_sum "Si O2"
_cell_formula_units_Z 15
_cell_length_a 6.593150
_cell_length_b 10.515870
_cell_length_c 10.677100
_cell_angle_alpha 68.999362
_cell_angle_beta 111.607106
_cell_angle_gamma 122.562220
_cell_volume 567.815577
_symmetry_space_group_name_H-M "P -1"
_symmetry_group_IT_number 2
_symmetry_cell_setting 'triclinic'
loop_
_space_group_symop_operation_xyz
x,y,z
-x,-y,-z
loop_
_atom_site_type_symbol
_atom_site_label
_atom_site_fract_x
_atom_site_fract_y
_atom_site_fract_z
Si Si1 0.650755 0.624664 0.098482
Si Si2 0.877473 0.162186 0.565172
Si Si3 0.404352 0.546933 0.336156
Si Si4 0.000000 0.000000 0.500000
Si Si5 0.538882 0.820735 0.656611
Si Si6 0.968543 0.749688 0.760406
Si Si7 0.794560 0.213386 0.808838
Si Si8 0.474739 0.871559 0.912189
O O1 0.934853 0.677326 0.116481
O O2 0.500000 0.500000 0.000000
O O3 0.420841 0.429438 0.753957
O O4 0.602659 0.773335 0.027593
O O5 0.722450 0.243921 0.449452
O O6 0.868734 0.168181 0.707625
O O7 0.114746 0.171680 0.549224
O O8 0.718166 0.973845 0.558610
O O9 0.500000 0.500000 0.500000
O O10 0.289801 0.257701 0.255337
O O11 0.353855 0.692602 0.283715
O O12 0.133108 0.406505 0.286285
O O13 0.912953 0.087850 0.343376
O O14 0.491889 0.859633 0.769365
O O15 0.179686 0.773688 0.897492
O O16 0.626345 0.055532 0.900629
#
# Coordination Sequence:
#
# PCOD9098595 Si02
#       8
#     2   2   2   1   2   2   2   2
#     4  12  29  53  79 108 157 213 264 320 392 473
#     4   9  18  36  63 107 145 190 242 310 380 444
#     4  12  30  49  76 116 158 209 257 324 394 471
#     4  10  20  36  74 104 152 198 252 316 380 454
#     4   9  18  35  63 104 146 186 238 306 375 456
#     4  11  23  39  72 108 151 201 253 313 389 462
#     4  11  27  48  77 113 156 200 264 330 388 465
#     4  11  24  45  76 112 146 200 260 324 386 460
#
# _framework density 26.417028999999999
#
# number of rings (size 3 to 8) (size 9 to 14) (size 15 to 20)
#    0.000    1.333    1.333    2.800    5.600    6.400 
#    0.000    0.000    0.000    0.000    0.000    0.000 
#    0.000    0.000    0.000    0.000    0.000    0.000 
#
# Total GULP energy -83607.423063 kJ/mol
# GULP energy per Si atom -5573.828204 kJ/mol
# Density = 2.635690 g / cm^3
# Si number density = 26.417029 Si / 1000 Ang^3
#
#
#
# Elastic Constant Matrix: (Units=GPa)
#
#
# Indices 1 2 3 4 5 6 
#
# 1 147.1275 61.7166 80.1668 -4.5559 4.4790 2.4956
# 2 61.7166 128.2126 51.7514 -6.4082 10.9066 2.4342
# 3 80.1668 51.7514 134.2600 1.1620 10.1568 13.8942
# 4 -4.5559 -6.4082 1.1620 47.9076 -8.7725 3.0508
# 5 4.4790 10.9066 10.1568 -8.7725 63.6641 -3.5055
# 6 2.4956 2.4342 13.8942 3.0508 -3.5055 41.4928
#
#
#
# Elastic Compliance Matrix: (Units=1/GPa)
#
#
# Indices 1 2 3 4 5 6 
#
# 1 0.011194 -0.003149 -0.005690 0.000847 0.000855 0.001427
# 2 -0.003149 0.010264 -0.002012 0.000917 -0.001084 0.000102
# 3 -0.005690 -0.002012 0.012126 -0.001156 -0.001550 -0.003646
# 4 0.000847 0.000917 -0.001156 0.021704 0.002899 -0.001069
# 5 0.000855 -0.001084 -0.001550 0.002899 0.016574 0.001718
# 6 0.001427 0.000102 -0.003646 -0.001069 0.001718 0.025453
#
#
# Mechanical properties :
#
#
# Convention : Reuss Voigt Hill
#
# Bulk Modulus (GPa) = 84.16811 88.54107 86.35459
# Shear Modulus (GPa) = 40.65756 45.01058 42.83407
#
# Velocity S-wave (km/s) = 3.92735 4.13225 4.03110
# Velocity P-wave (km/s) = 7.24541 7.50711 7.37742
#
# Compressibility (1/GPa) = 0.01188098
#
# Stress axis : x y z
#
# Youngs Moduli (GPa) = 89.33269 97.42936 82.46875
#
# Poissons Ratio (x) = 0.30683 0.46923
# Poissons Ratio (y) = 0.28134 0.16596
# Poissons Ratio (z) = 0.50828 0.19606
#
# Static dielectric constant tensor:
#      x y z
#    x 6.166040 -0.543240 0.238990 
#    y -0.543240 2.289310 0.017010 
#    z 0.238990 0.017010 2.170700 
# 
# From -- ./inp_files/171150.got.cif
#   From: 2010.05.17/outbox.cif.g08.bks.cpg/sg2_86_cif.got.tgz:171150.got - 2010.06.03 11:33:40.
