data_PCOD9098399
_publ_section_title
;
Structure prediction by ZEFSAII (Michael W. Deem and Ramdas Pophale) SiO2 
 PCOD9098399
Probable space group: P -1
;
_chemical_formula_sum "Si O2"
_cell_formula_units_Z 14
_cell_length_a 8.540761
_cell_length_b 16.909959
_cell_length_c 19.243388
_cell_angle_alpha 159.061925
_cell_angle_beta 138.020573
_cell_angle_gamma 41.336513
_cell_volume 645.441065
_symmetry_space_group_name_H-M "P -1"
_symmetry_group_IT_number 2
_symmetry_cell_setting 'triclinic'
loop_
_space_group_symop_operation_xyz
x,y,z
-x,-y,-z
loop_
_atom_site_type_symbol
_atom_site_label
_atom_site_fract_x
_atom_site_fract_y
_atom_site_fract_z
Si Si1 0.669250 0.585890 0.528213
Si Si2 0.542684 0.717539 0.120180
Si Si3 0.359404 0.241948 0.121199
Si Si4 0.853579 0.547794 0.207816
Si Si5 0.518507 0.124721 0.922747
Si Si6 0.327239 0.115552 0.475914
Si Si7 0.198669 0.524271 0.678936
O O1 0.485853 0.427680 0.349949
O O2 0.741625 0.534346 0.429256
O O3 0.922975 0.519261 0.596882
O O4 0.567852 0.854336 0.723315
O O5 0.784360 0.637715 0.180685
O O6 0.594561 0.796417 0.125136
O O7 0.357833 0.917829 0.266513
O O8 0.393292 0.522645 0.909527
O O9 0.075370 0.333108 0.113364
O O10 0.388607 0.229709 0.036831
O O11 0.500000 0.000000 0.000000
O O12 0.892311 0.750200 0.437400
O O13 0.755368 0.229913 0.087002
O O14 0.370139 0.322995 0.613373
O O15 0.500000 0.000000 0.500000
#
# Coordination Sequence:
#
# PCOD9098399 Si02
#       7
#     2   2   2   2   2   2   2
#     4  10  23  40  62  88 124 170 207 259 312 367
#     4  10  21  40  72  95 118 164 215 264 314 357
#     4  11  28  44  59  92 135 171 207 253 322 386
#     4  10  23  42  63  96 131 162 208 261 310 378
#     4  11  22  41  66  92 126 165 214 261 308 379
#     4  10  20  36  65  96 122 157 207 265 311 361
#     4  10  20  37  64  95 121 159 216 262 304 366
#
# _framework density 21.690594000000001
#
# number of rings (size 3 to 8) (size 9 to 14) (size 15 to 20)
#    0.000    1.714    2.857    0.429    4.000    3.429 
#    0.000    0.714    0.000    0.000    0.000    0.000 
#    0.000    0.000    0.000    0.000    0.000    0.000 
#
# Total GULP energy -77957.262679 kJ/mol
# GULP energy per Si atom -5568.375906 kJ/mol
# Density = 2.164123 g / cm^3
# Si number density = 21.690594 Si / 1000 Ang^3
#
#
#
# Elastic Constant Matrix: (Units=GPa)
#
#
# Indices 1 2 3 4 5 6 
#
# 1 42.0273 43.6405 2.7463 -6.7380 -8.4827 17.2048
# 2 43.6405 112.9582 35.2981 14.9964 -8.8109 10.1156
# 3 2.7463 35.2981 121.3424 11.8256 -1.1592 5.3846
# 4 -6.7380 14.9964 11.8256 28.4998 5.3520 -5.1745
# 5 -8.4827 -8.8109 -1.1592 5.3520 29.6670 -7.7607
# 6 17.2048 10.1156 5.3846 -5.1745 -7.7607 33.1194
#
#
#
# Elastic Compliance Matrix: (Units=1/GPa)
#
#
# Indices 1 2 3 4 5 6 
#
# 1 0.066192 -0.028407 0.005425 0.024145 0.000401 -0.022724
# 2 -0.028407 0.023137 -0.004763 -0.016313 0.003253 0.006678
# 3 0.005425 -0.004763 0.009716 -0.000776 -0.000155 -0.003100
# 4 0.024145 -0.016313 -0.000776 0.050881 -0.007474 -0.001236
# 5 0.000401 0.003253 -0.000155 -0.007474 0.037837 0.006522
# 6 -0.022724 0.006678 -0.003100 -0.001236 0.006522 0.041798
#
#
# Mechanical properties :
#
#
# Convention : Reuss Voigt Hill
#
# Bulk Modulus (GPa) = 22.96011 48.85531 35.90771
# Shear Modulus (GPa) = 16.69061 31.23343 23.96202
#
# Velocity S-wave (km/s) = 2.77697 3.79879 3.32734
# Velocity P-wave (km/s) = 4.57060 6.46635 5.59929
#
# Compressibility (1/GPa) = 0.04355381
#
# Stress axis : x y z
#
# Youngs Moduli (GPa) = 15.10767 43.21999 102.92595
#
# Poissons Ratio (x) = 1.22774 -0.55833
# Poissons Ratio (y) = 0.42916 0.49025
# Poissons Ratio (z) = -0.08195 0.20586
#
# Static dielectric constant tensor:
#      x y z
#    x 1.825910 0.017500 -0.035840 
#    y 0.017500 1.829190 -0.020920 
#    z -0.035840 -0.020920 1.830950 
# 
# From -- ./inp_files/432343.got.cif
#   From: 2010.05.17/outbox.cif.g08.bks.cpg/sg2_217_cif.got.tgz:432343.got - 2010.06.03 11:33:40.
