data_PCOD9098602
_publ_section_title
;
Structure prediction by ZEFSAII (Michael W. Deem and Ramdas Pophale) SiO2 
 PCOD9098602
Probable space group: P -1
;
_chemical_formula_sum "Si O2"
_cell_formula_units_Z 14
_cell_length_a 26.974712
_cell_length_b 6.043939
_cell_length_c 7.480125
_cell_angle_alpha 83.550433
_cell_angle_beta 144.426081
_cell_angle_gamma 112.145135
_cell_volume 612.923497
_symmetry_space_group_name_H-M "P -1"
_symmetry_group_IT_number 2
_symmetry_cell_setting 'triclinic'
loop_
_space_group_symop_operation_xyz
x,y,z
-x,-y,-z
loop_
_atom_site_type_symbol
_atom_site_label
_atom_site_fract_x
_atom_site_fract_y
_atom_site_fract_z
Si Si1 0.217559 0.440295 0.486856
Si Si2 0.055563 0.957552 0.922988
Si Si3 0.731328 0.424230 0.762172
Si Si4 0.069967 0.793628 0.616338
Si Si5 0.574245 0.897414 0.271118
Si Si6 0.136990 0.549767 0.563794
Si Si7 0.387682 0.410919 0.835405
O O1 0.211551 0.533853 0.261063
O O2 0.196437 0.604113 0.551447
O O3 0.319699 0.435202 0.784662
O O4 0.132024 0.145032 0.273841
O O5 0.994489 0.092308 0.665000
O O6 0.112246 0.937935 0.915461
O O7 0.974931 0.674763 0.773485
O O8 0.659368 0.532525 0.486754
O O9 0.662489 0.120835 0.617900
O O10 0.806931 0.551254 0.130990
O O11 0.135621 0.772091 0.655761
O O12 0.000000 0.500000 0.500000
O O13 0.613830 0.846583 0.204787
O O14 0.500742 0.626344 0.170324
O O15 0.500000 0.000000 0.000000
#
# Coordination Sequence:
#
# PCOD9098602 Si02
#       7
#     2   2   2   2   2   2   2
#     4  10  21  37  55  83 115 145 190 228 273 330
#     4  10  20  37  52  77 116 156 186 229 274 317
#     4   9  20  34  58  81 110 142 183 227 277 325
#     4   9  19  34  57  75 107 150 195 227 272 319
#     4   9  16  36  63  82 104 147 178 222 283 335
#     4  11  22  37  54  85 114 148 191 230 268 328
#     4   8  19  35  59  82 109 141 183 222 278 338
#
# _framework density 22.841349000000001
#
# number of rings (size 3 to 8) (size 9 to 14) (size 15 to 20)
#    0.857    1.714    0.000    3.000    2.000    0.571 
#    2.571    0.714    0.000    4.286    0.000    0.000 
#    0.000    0.000    0.000    0.000    0.000    0.000 
#
# Total GULP energy -78019.049729 kJ/mol
# GULP energy per Si atom -5572.789266 kJ/mol
# Density = 2.278936 g / cm^3
# Si number density = 22.841349 Si / 1000 Ang^3
#
#
#
# Elastic Constant Matrix: (Units=GPa)
#
#
# Indices 1 2 3 4 5 6 
#
# 1 109.8508 8.9979 27.8887 -2.3051 4.0146 -38.5746
# 2 8.9979 56.0152 6.8671 0.6227 4.3973 -22.1182
# 3 27.8887 6.8671 66.2538 11.3908 18.6986 1.0284
# 4 -2.3051 0.6227 11.3908 19.5061 0.5603 -2.1388
# 5 4.0146 4.3973 18.6986 0.5603 25.8257 -0.7277
# 6 -38.5746 -22.1182 1.0284 -2.1388 -0.7277 45.6723
#
#
#
# Elastic Compliance Matrix: (Units=1/GPa)
#
#
# Indices 1 2 3 4 5 6 
#
# 1 0.018445 0.005528 -0.011971 0.010942 0.005161 0.019119
# 2 0.005528 0.024292 -0.005890 0.005170 -0.000370 0.016802
# 3 -0.011971 -0.005890 0.029575 -0.019592 -0.018543 -0.014842
# 4 0.010942 0.005170 -0.019592 0.065220 0.010623 0.015410
# 5 0.005161 -0.000370 -0.018543 0.010623 0.051344 0.005913
# 6 0.019119 0.016802 -0.014842 0.015410 0.005913 0.047330
#
#
# Mechanical properties :
#
#
# Convention : Reuss Voigt Hill
#
# Bulk Modulus (GPa) = 20.98880 35.51415 28.25148
# Shear Modulus (GPa) = 18.06656 30.75857 24.41256
#
# Velocity S-wave (km/s) = 2.81545 3.67361 3.27278
# Velocity P-wave (km/s) = 4.44724 5.79446 5.16497
#
# Compressibility (1/GPa) = 0.04764445
#
# Stress axis : x y z
#
# Youngs Moduli (GPa) = 54.21637 41.16527 33.81210
#
# Poissons Ratio (x) = -0.22754 0.40478
# Poissons Ratio (y) = -0.29968 0.19915
# Poissons Ratio (z) = 0.64905 0.24246
#
# Static dielectric constant tensor:
#      x y z
#    x 1.905340 0.008480 0.023670 
#    y 0.008480 1.930170 0.037430 
#    z 0.023670 0.037430 1.850140 
# 
# From -- ./inp_files/355848.got.cif
#   From: 2010.05.17/outbox.cif.g08.bks.cpg/sg2_178_cif.got.tgz:355848.got - 2010.06.03 11:33:40.
