data_PCOD9098640
_publ_section_title
;
Structure prediction by ZEFSAII (Michael W. Deem and Ramdas Pophale) SiO2 
 PCOD9098640
Probable space group: P -1
;
_chemical_formula_sum "Si O2"
_cell_formula_units_Z 14
_cell_length_a 9.440861
_cell_length_b 18.875474
_cell_length_c 7.069971
_cell_angle_alpha 61.115407
_cell_angle_beta 92.837815
_cell_angle_gamma 140.878795
_cell_volume 562.637989
_symmetry_space_group_name_H-M "P -1"
_symmetry_group_IT_number 2
_symmetry_cell_setting 'triclinic'
loop_
_space_group_symop_operation_xyz
x,y,z
-x,-y,-z
loop_
_atom_site_type_symbol
_atom_site_label
_atom_site_fract_x
_atom_site_fract_y
_atom_site_fract_z
Si Si1 0.170031 0.295680 0.881415
Si Si2 0.270180 0.362047 0.379727
Si Si3 0.214146 0.906824 0.551124
Si Si4 0.041166 0.419109 0.668323
Si Si5 0.340962 0.647254 0.090330
Si Si6 0.508080 0.698410 0.612573
Si Si7 0.907240 0.975800 0.737050
O O1 0.178674 0.279830 0.681637
O O2 0.481872 0.455169 0.782389
O O3 0.069715 0.339998 0.812419
O O4 0.943879 0.146557 0.196109
O O5 0.406841 0.353975 0.286892
O O6 0.004230 0.255955 0.373858
O O7 0.500000 0.000000 0.500000
O O8 0.212882 0.990953 0.325358
O O9 0.119478 0.475608 0.383308
O O10 0.280742 0.584331 0.583904
O O11 0.769229 0.323285 0.864984
O O12 0.376822 0.665566 0.842793
O O13 0.656062 0.791976 0.999524
O O14 0.793345 0.880900 0.329467
O O15 0.000000 0.000000 0.500000
#
# Coordination Sequence:
#
# PCOD9098640 Si02
#       7
#     2   2   2   2   2   2   2
#     4  10  21  38  59  85 116 147 195 238 281 344
#     4   9  21  37  58  85 111 151 190 235 287 335
#     4  11  22  38  60  86 118 153 189 238 292 340
#     4  10  21  35  57  84 110 148 184 235 288 329
#     4  10  20  37  55  80 116 144 187 233 279 340
#     4   9  19  36  58  80 108 147 190 230 279 336
#     4   9  20  37  57  80 111 151 187 228 279 337
#
# _framework density 24.882784000000001
#
# number of rings (size 3 to 8) (size 9 to 14) (size 15 to 20)
#    0.000    2.286    0.000    1.714    0.000   13.714 
#    0.000   10.000    0.000    0.000    0.000    0.000 
#    0.000    0.000    0.000    0.000    0.000    0.000 
#
# Total GULP energy -78157.197952 kJ/mol
# GULP energy per Si atom -5582.656997 kJ/mol
# Density = 2.482615 g / cm^3
# Si number density = 24.882784 Si / 1000 Ang^3
#
#
#
# Elastic Constant Matrix: (Units=GPa)
#
#
# Indices 1 2 3 4 5 6 
#
# 1 94.6660 14.2177 17.8952 1.7425 -21.5637 9.4665
# 2 14.2177 73.6971 22.1505 -6.2286 -13.7086 17.4048
# 3 17.8952 22.1505 126.6366 2.6820 -25.4780 1.8183
# 4 1.7425 -6.2286 2.6820 38.7871 0.5148 -6.7197
# 5 -21.5637 -13.7086 -25.4780 0.5148 42.7952 -4.8238
# 6 9.4665 17.4048 1.8183 -6.7197 -4.8238 36.3484
#
#
#
# Elastic Compliance Matrix: (Units=1/GPa)
#
#
# Indices 1 2 3 4 5 6 
#
# 1 0.012246 -0.000776 -0.000450 -0.001111 0.005410 -0.002283
# 2 -0.000776 0.016693 -0.002169 0.001614 0.002856 -0.007005
# 3 -0.000450 -0.002169 0.009297 -0.000832 0.004755 0.001168
# 4 -0.001111 0.001614 -0.000832 0.026931 -0.000356 0.004490
# 5 0.005410 0.002856 0.004755 -0.000356 0.029944 0.000894
# 6 -0.002283 -0.007005 0.001168 0.004490 0.000894 0.032350
#
#
# Mechanical properties :
#
#
# Convention : Reuss Voigt Hill
#
# Bulk Modulus (GPa) = 31.80038 44.83626 38.31832
# Shear Modulus (GPa) = 34.54631 39.63521 37.09076
#
# Velocity S-wave (km/s) = 3.73012 3.99542 3.86504
# Velocity P-wave (km/s) = 5.59996 6.27237 5.94567
#
# Compressibility (1/GPa) = 0.03144616
#
# Stress axis : x y z
#
# Youngs Moduli (GPa) = 81.65840 59.90647 107.55990
#
# Poissons Ratio (x) = 0.04647 0.04841
# Poissons Ratio (y) = 0.06334 0.23332
# Poissons Ratio (z) = 0.03675 0.12995
#
# Static dielectric constant tensor:
#      x y z
#    x 2.042900 -0.036230 0.041050 
#    y -0.036230 2.009410 -0.035090 
#    z 0.041050 -0.035090 1.989770 
# 
# From -- ./inp_files/84313.got.cif
#   From: 2010.05.17/outbox.cif.g08.bks.cpg/sg2_43_cif.got.tgz:84313.got - 2010.06.03 11:33:40.
