data_PCOD9098886
_publ_section_title
;
Structure prediction by ZEFSAII (Michael W. Deem and Ramdas Pophale) SiO2 
 PCOD9098886
Probable space group: P -1
;
_chemical_formula_sum "Si O2"
_cell_formula_units_Z 16
_cell_length_a 9.074405
_cell_length_b 24.904650
_cell_length_c 6.995148
_cell_angle_alpha 58.621698
_cell_angle_beta 95.132816
_cell_angle_gamma 140.050145
_cell_volume 715.100592
_symmetry_space_group_name_H-M "P -1"
_symmetry_group_IT_number 2
_symmetry_cell_setting 'triclinic'
loop_
_space_group_symop_operation_xyz
x,y,z
-x,-y,-z
loop_
_atom_site_type_symbol
_atom_site_label
_atom_site_fract_x
_atom_site_fract_y
_atom_site_fract_z
Si Si1 0.888484 0.436454 0.903319
Si Si2 0.312881 0.179103 0.179939
Si Si3 0.679782 0.965076 0.594971
Si Si4 0.709516 0.485323 0.632667
Si Si5 0.624117 0.054184 0.122130
Si Si6 0.358432 0.370569 0.190454
Si Si7 0.752213 0.743975 0.264899
Si Si8 0.809773 0.584702 0.116857
O O1 0.562349 0.304472 0.083480
O O2 0.948398 0.519160 0.624623
O O3 0.000000 0.500000 0.000000
O O4 0.025054 0.418797 0.907304
O O5 0.387179 0.132300 0.264237
O O6 0.269458 0.192957 0.936291
O O7 0.017402 0.085838 0.420429
O O8 0.527945 0.942532 0.798211
O O9 0.593488 0.979994 0.383542
O O10 0.486175 0.375521 0.665375
O O11 0.801335 0.580965 0.352953
O O12 0.568648 0.439397 0.908727
O O13 0.955243 0.180490 0.903336
O O14 0.500000 0.000000 0.000000
O O15 0.280466 0.280177 0.467577
O O16 0.511723 0.463871 0.205425
O O17 0.111181 0.322248 0.153301
#
# Coordination Sequence:
#
# PCOD9098886 Si02
#       8
#     2   2   2   2   2   2   2   2
#     4  11  21  37  60  92 126 165 212 256 317 367
#     4   9  20  41  66  91 128 170 213 264 316 377
#     4   9  20  43  67  92 128 166 210 262 323 376
#     4  10  20  38  60  79 122 165 204 253 310 372
#     4  10  21  38  65  97 126 156 205 270 321 386
#     4  10  20  37  58  82 118 160 207 257 306 366
#     4   9  21  37  57  90 122 158 205 252 318 379
#     4  10  21  36  56  85 118 159 209 260 300 374
#
# _framework density 22.374476999999999
#
# number of rings (size 3 to 8) (size 9 to 14) (size 15 to 20)
#    0.000    2.250    1.250    0.750    0.000    6.000 
#    0.000    9.375    0.000    0.000    0.000    0.000 
#    0.000    0.000    0.000    0.000    0.000    0.000 
#
# Total GULP energy -89165.013783 kJ/mol
# GULP energy per Si atom -5572.813361 kJ/mol
# Density = 2.232355 g / cm^3
# Si number density = 22.374477 Si / 1000 Ang^3
#
#
#
# Elastic Constant Matrix: (Units=GPa)
#
#
# Indices 1 2 3 4 5 6 
#
# 1 147.3990 36.5668 52.6275 19.4443 2.6771 9.3333
# 2 36.5668 76.1071 37.3002 10.6860 8.3006 10.7230
# 3 52.6275 37.3002 131.8507 36.9153 5.8028 5.3426
# 4 19.4443 10.6860 36.9153 31.6996 0.1994 2.7042
# 5 2.6771 8.3006 5.8028 0.1994 32.8091 8.9223
# 6 9.3333 10.7230 5.3426 2.7042 8.9223 24.4936
#
#
#
# Elastic Compliance Matrix: (Units=1/GPa)
#
#
# Indices 1 2 3 4 5 6 
#
# 1 0.008527 -0.002654 -0.002144 -0.001695 0.000838 -0.001737
# 2 -0.002654 0.017040 -0.003616 0.000531 -0.002112 -0.004949
# 3 -0.002144 -0.003616 0.013048 -0.012782 -0.001557 0.001532
# 4 -0.001695 0.000531 -0.012782 0.047536 0.002811 -0.003070
# 5 0.000838 -0.002112 -0.001557 0.002811 0.034443 -0.011912
# 6 -0.001737 -0.004949 0.001532 -0.003070 -0.011912 0.047999
#
#
# Mechanical properties :
#
#
# Convention : Reuss Voigt Hill
#
# Bulk Modulus (GPa) = 45.90215 67.59397 56.74806
# Shear Modulus (GPa) = 25.94896 33.05796 29.50346
#
# Velocity S-wave (km/s) = 3.40922 3.84798 3.63522
# Velocity P-wave (km/s) = 6.00474 7.07237 6.56031
#
# Compressibility (1/GPa) = 0.02178547
#
# Stress axis : x y z
#
# Youngs Moduli (GPa) = 117.27613 58.68480 76.63836
#
# Poissons Ratio (x) = 0.15578 0.16434
# Poissons Ratio (y) = 0.31131 0.27714
# Poissons Ratio (z) = 0.25147 0.21221
#
# Static dielectric constant tensor:
#      x y z
#    x 1.976240 0.006080 0.060680 
#    y 0.006080 1.812270 -0.070970 
#    z 0.060680 -0.070970 1.967510 
# 
# From -- ./inp_files/56334.got.cif
#   From: 2010.05.17/outbox.cif.g08.bks.cpg/sg2_29_cif.got.tgz:56334.got - 2010.06.03 11:33:40.
