data_PCOD9098925
_publ_section_title
;
Structure prediction by ZEFSAII (Michael W. Deem and Ramdas Pophale) SiO2 
 PCOD9098925
Probable space group: P -1
;
_chemical_formula_sum "Si O2"
_cell_formula_units_Z 16
_cell_length_a 12.890276
_cell_length_b 4.946903
_cell_length_c 12.202610
_cell_angle_alpha 77.590230
_cell_angle_beta 100.899550
_cell_angle_gamma 93.458224
_cell_volume 746.076372
_symmetry_space_group_name_H-M "P -1"
_symmetry_group_IT_number 2
_symmetry_cell_setting 'triclinic'
loop_
_space_group_symop_operation_xyz
x,y,z
-x,-y,-z
loop_
_atom_site_type_symbol
_atom_site_label
_atom_site_fract_x
_atom_site_fract_y
_atom_site_fract_z
Si Si1 0.610380 0.168007 0.492887
Si Si2 0.901629 0.498456 0.700379
Si Si3 0.938684 0.606885 0.084632
Si Si4 0.472481 0.556231 0.750586
Si Si5 0.003800 0.075234 0.622608
Si Si6 0.174483 0.968002 0.844967
Si Si7 0.330707 0.373976 0.362509
Si Si8 0.572962 0.024323 0.119702
O O1 0.617292 0.418786 0.556872
O O2 0.609998 0.304138 0.361736
O O3 0.500000 0.000000 0.500000
O O4 0.690535 0.926978 0.560544
O O5 0.779081 0.492679 0.699499
O O6 0.965881 0.337024 0.817406
O O7 0.938310 0.351759 0.608843
O O8 0.942066 0.813784 0.686444
O O9 0.869435 0.876957 0.068481
O O10 0.862765 0.351624 0.128997
O O11 0.000000 0.500000 0.000000
O O12 0.588103 0.640327 0.720226
O O13 0.460382 0.227363 0.783644
O O14 0.115980 0.087327 0.711862
O O15 0.000000 0.000000 0.500000
O O16 0.300952 0.996651 0.868235
O O17 0.548536 0.312533 0.148038
O O18 0.500000 0.000000 0.000000
#
# Coordination Sequence:
#
# PCOD9098925 Si02
#       8
#     2   2   2   2   2   2   2   2
#     4  10  20  37  58  85 121 158 198 246 299 358
#     4  10  22  36  58  91 119 147 197 245 293 358
#     4  10  21  41  65  87 115 154 195 247 308 359
#     4  11  23  41  61  86 120 163 204 245 302 361
#     4  10  21  39  59  85 121 157 193 238 295 364
#     4  10  23  41  60  88 121 153 199 250 294 356
#     4  11  21  37  61  92 124 154 194 255 306 359
#     4  12  26  42  61  88 122 164 211 252 291 353
#
# _framework density 21.445527999999999
#
# number of rings (size 3 to 8) (size 9 to 14) (size 15 to 20)
#    0.000    1.500    0.000    6.375    0.000    5.000 
#    0.000    0.000    0.000    0.000    0.000    0.000 
#    0.000    0.000    0.000    0.000    0.000    0.000 
#
# Total GULP energy -89271.984668 kJ/mol
# GULP energy per Si atom -5579.499042 kJ/mol
# Density = 2.139672 g / cm^3
# Si number density = 21.445528 Si / 1000 Ang^3
#
#
#
# Elastic Constant Matrix: (Units=GPa)
#
#
# Indices 1 2 3 4 5 6 
#
# 1 137.6654 12.3887 33.7282 9.2489 11.1415 -19.2172
# 2 12.3887 91.9603 -4.5360 9.8106 0.3156 -10.3924
# 3 33.7282 -4.5360 58.0804 17.8943 -1.8970 -6.5303
# 4 9.2489 9.8106 17.8943 43.3823 0.4416 -8.0251
# 5 11.1415 0.3156 -1.8970 0.4416 11.8242 0.6404
# 6 -19.2172 -10.3924 -6.5303 -8.0251 0.6404 24.2555
#
#
#
# Elastic Compliance Matrix: (Units=1/GPa)
#
#
# Indices 1 2 3 4 5 6 
#
# 1 0.010801 -0.001142 -0.006581 0.002142 -0.011679 0.007314
# 2 -0.001142 0.011941 0.002996 -0.002963 0.001131 0.004008
# 3 -0.006581 0.002996 0.024492 -0.009631 0.010453 -0.000799
# 4 0.002142 -0.002963 -0.009631 0.028665 -0.004958 0.007449
# 5 -0.011679 0.001131 0.010453 -0.004958 0.097960 -0.010181
# 6 0.007314 0.004008 -0.000799 0.007449 -0.010181 0.051258
#
#
# Mechanical properties :
#
#
# Convention : Reuss Voigt Hill
#
# Bulk Modulus (GPa) = 26.46780 41.20753 33.83767
# Shear Modulus (GPa) = 20.22952 32.30076 26.26514
#
# Velocity S-wave (km/s) = 3.07465 3.88516 3.50342
# Velocity P-wave (km/s) = 4.99733 6.27556 5.67256
#
# Compressibility (1/GPa) = 0.03778175
#
# Stress axis : x y z
#
# Youngs Moduli (GPa) = 92.58213 83.74514 40.83000
#
# Poissons Ratio (x) = 0.09560 0.26868
# Poissons Ratio (y) = 0.10569 -0.12232
# Poissons Ratio (z) = 0.60924 -0.25090
#
# Static dielectric constant tensor:
#      x y z
#    x 1.800040 -0.052640 0.009150 
#    y -0.052640 1.808670 0.001800 
#    z 0.009150 0.001800 1.849270 
# 
# From -- ./inp_files/409151.got.cif
#   From: 2010.05.17/outbox.cif.g08.bks.cpg/sg2_205_cif.got.tgz:409151.got - 2010.06.03 11:33:40.
