data_PCOD9098356
_publ_section_title
;
Structure prediction by ZEFSAII (Michael W. Deem and Ramdas Pophale) SiO2 
 PCOD9098356
Probable space group: P -1
;
_chemical_formula_sum "Si O2"
_cell_formula_units_Z 16
_cell_length_a 10.006572
_cell_length_b 9.181145
_cell_length_c 10.110267
_cell_angle_alpha 85.369985
_cell_angle_beta 120.586961
_cell_angle_gamma 119.702365
_cell_volume 676.052251
_symmetry_space_group_name_H-M "P -1"
_symmetry_group_IT_number 2
_symmetry_cell_setting 'triclinic'
loop_
_space_group_symop_operation_xyz
x,y,z
-x,-y,-z
loop_
_atom_site_type_symbol
_atom_site_label
_atom_site_fract_x
_atom_site_fract_y
_atom_site_fract_z
Si Si1 0.222464 0.079468 0.203640
Si Si2 0.753853 0.764128 0.375171
Si Si3 0.666314 0.192584 0.057431
Si Si4 0.890509 0.739152 0.039154
Si Si5 0.056979 0.913633 0.726415
Si Si6 0.488098 0.671993 0.476918
Si Si7 0.660159 0.492602 0.156123
Si Si8 0.792075 0.426491 0.856749
O O1 0.419344 0.198079 0.361991
O O2 0.084240 0.090838 0.237575
O O3 0.204369 0.152875 0.049057
O O4 0.110216 0.872972 0.137313
O O5 0.619793 0.773073 0.410769
O O6 0.671703 0.570446 0.298743
O O7 0.939241 0.823474 0.542610
O O8 0.798445 0.892225 0.265097
O O9 0.846139 0.183888 0.168719
O O10 0.647446 0.314174 0.144643
O O11 0.675584 0.275974 0.914265
O O12 0.500000 0.000000 0.000000
O O13 0.840860 0.634118 0.156659
O O14 0.789150 0.593932 0.886570
O O15 0.500000 0.500000 0.500000
O O16 0.288044 0.620980 0.327540
O O17 0.500000 0.500000 0.000000
O O18 0.000000 0.500000 0.000000
#
# Coordination Sequence:
#
# PCOD9098356 Si02
#       8
#     2   2   2   2   2   2   2   2
#     4  10  20  36  65  90 123 158 216 262 307 383
#     4  10  21  38  65  89 119 161 207 261 306 380
#     4  11  24  39  61  92 128 166 208 259 319 380
#     4  10  20  37  60  94 119 165 205 263 315 371
#     4  10  20  39  64  91 118 160 210 253 320 370
#     4  11  22  39  63  91 121 164 215 261 309 381
#     4  11  22  38  59  89 128 162 209 258 311 376
#     4  11  23  41  63  90 130 165 208 263 323 377
#
# _framework density 23.666809000000001
#
# number of rings (size 3 to 8) (size 9 to 14) (size 15 to 20)
#    0.000    1.500    2.500    3.750    1.750    0.500 
#    0.000    0.625    0.000    0.000    0.000    0.000 
#    0.000    0.000    0.000    0.000    0.000    0.000 
#
# Total GULP energy -89350.497963 kJ/mol
# GULP energy per Si atom -5584.406123 kJ/mol
# Density = 2.361294 g / cm^3
# Si number density = 23.666809 Si / 1000 Ang^3
#
#
#
# Elastic Constant Matrix: (Units=GPa)
#
#
# Indices 1 2 3 4 5 6 
#
# 1 38.7992 10.3087 6.7400 3.0597 2.6194 -1.2306
# 2 10.3087 131.8340 38.0248 13.2647 1.9530 9.5656
# 3 6.7400 38.0248 156.7696 21.9210 12.1484 -6.8438
# 4 3.0597 13.2647 21.9210 39.3639 -1.9374 -3.9999
# 5 2.6194 1.9530 12.1484 -1.9374 36.0865 0.6965
# 6 -1.2306 9.5656 -6.8438 -3.9999 0.6965 35.5679
#
#
#
# Elastic Compliance Matrix: (Units=1/GPa)
#
#
# Indices 1 2 3 4 5 6 
#
# 1 0.026600 -0.001936 -0.000310 -0.001202 -0.001811 0.001282
# 2 -0.001936 0.008701 -0.001896 -0.002018 0.000258 -0.003004
# 3 -0.000310 -0.001896 0.007626 -0.003550 -0.002664 0.001619
# 4 -0.001202 -0.002018 -0.003550 0.028598 0.002869 0.002978
# 5 -0.001811 0.000258 -0.002664 0.002869 0.028897 -0.000888
# 6 0.001282 -0.003004 0.001619 0.002978 -0.000888 0.029631
#
#
# Mechanical properties :
#
#
# Convention : Reuss Voigt Hill
#
# Bulk Modulus (GPa) = 28.86627 48.61664 38.74145
# Shear Modulus (GPa) = 33.35938 40.35894 36.85916
#
# Velocity S-wave (km/s) = 3.75846 4.13400 3.95070
# Velocity P-wave (km/s) = 5.57298 6.58585 6.10047
#
# Compressibility (1/GPa) = 0.03464251
#
# Stress axis : x y z
#
# Youngs Moduli (GPa) = 37.59461 114.93274 131.13851
#
# Poissons Ratio (x) = 0.22249 0.04062
# Poissons Ratio (y) = 0.07278 0.24865
# Poissons Ratio (z) = 0.01164 0.21792
#
# Static dielectric constant tensor:
#      x y z
#    x 2.046130 -0.017790 0.008500 
#    y -0.017790 2.003410 0.046180 
#    z 0.008500 0.046180 1.917840 
# 
# From -- ./inp_files/419377.got.cif
#   From: 2010.05.17/outbox.cif.g08.bks.cpg/sg2_210_cif.got.tgz:419377.got - 2010.06.03 11:33:40.
