data_PCOD9098134
_publ_section_title
;
Structure prediction by ZEFSAII (Michael W. Deem and Ramdas Pophale) SiO2 
 PCOD9098134
Probable space group: P -1
;
_chemical_formula_sum "Si O2"
_cell_formula_units_Z 14
_cell_length_a 14.469544
_cell_length_b 22.365111
_cell_length_c 5.306646
_cell_angle_alpha 88.394879
_cell_angle_beta 80.335357
_cell_angle_gamma 157.196597
_cell_volume 576.184446
_symmetry_space_group_name_H-M "P -1"
_symmetry_group_IT_number 2
_symmetry_cell_setting 'triclinic'
loop_
_space_group_symop_operation_xyz
x,y,z
-x,-y,-z
loop_
_atom_site_type_symbol
_atom_site_label
_atom_site_fract_x
_atom_site_fract_y
_atom_site_fract_z
Si Si1 0.982266 0.415443 0.014691
Si Si2 0.205226 0.016891 0.853507
Si Si3 0.464187 0.018621 0.267719
Si Si4 0.064945 0.106655 0.505490
Si Si5 0.493499 0.547578 0.785787
Si Si6 0.981784 0.775088 0.244278
Si Si7 0.787883 0.428526 0.606319
O O1 0.681545 0.204441 0.160326
O O2 0.135221 0.489222 0.190676
O O3 0.000000 0.500000 0.000000
O O4 0.148509 0.496798 0.681813
O O5 0.490589 0.220569 0.753773
O O6 0.131839 0.977152 0.597078
O O7 0.996926 0.921428 0.165079
O O8 0.189631 0.938799 0.960196
O O9 0.500000 0.000000 0.500000
O O10 0.152266 0.853646 0.390603
O O11 0.500000 0.000000 0.000000
O O12 0.365379 0.304901 0.240846
O O13 0.000000 0.000000 0.500000
O O14 0.730556 0.665520 0.471374
O O15 0.190968 0.373267 0.831987
O O16 0.500000 0.500000 0.000000
O O17 0.000000 0.500000 0.500000
#
# Coordination Sequence:
#
# PCOD9098134 Si02
#       7
#     2   2   2   2   2   2   2
#     4  10  21  42  66  92 132 177 232 271 317 405
#     4  11  22  41  70  98 126 184 224 272 334 405
#     4  12  28  47  68 104 148 184 223 288 359 409
#     4  11  24  43  64 101 138 165 218 287 351 394
#     4  10  21  43  72  98 127 179 237 282 328 407
#     4  10  23  43  71  97 132 182 236 274 335 417
#     4  10  20  36  63  97 126 163 224 278 310 381
#
# _framework density 24.297774
#
# number of rings (size 3 to 8) (size 9 to 14) (size 15 to 20)
#    0.000    1.429    1.429    3.857    2.000    4.571 
#    7.714    0.000    0.000    0.000    0.000    0.000 
#    0.000    0.000    0.000    0.000    0.000    0.000 
#
# Total GULP energy -78158.714858 kJ/mol
# GULP energy per Si atom -5582.765347 kJ/mol
# Density = 2.424247 g / cm^3
# Si number density = 24.297774 Si / 1000 Ang^3
#
#
#
# Elastic Constant Matrix: (Units=GPa)
#
#
# Indices 1 2 3 4 5 6 
#
# 1 66.9379 35.6554 18.2410 -5.3291 21.9000 -6.6143
# 2 35.6554 212.1457 57.6996 -17.6160 32.1660 -3.2316
# 3 18.2410 57.6996 117.4562 7.6637 29.2836 0.3671
# 4 -5.3291 -17.6160 7.6637 58.4968 -6.3862 11.6256
# 5 21.9000 32.1660 29.2836 -6.3862 35.1097 -1.2473
# 6 -6.6143 -3.2316 0.3671 11.6256 -1.2473 37.0648
#
#
#
# Elastic Compliance Matrix: (Units=1/GPa)
#
#
# Indices 1 2 3 4 5 6 
#
# 1 0.019625 -0.001792 0.000648 -0.000686 -0.011152 0.003179
# 2 -0.001792 0.006124 -0.002280 0.001812 -0.002276 -0.000408
# 3 0.000648 -0.002280 0.011954 -0.003265 -0.008861 0.000524
# 4 -0.000686 0.001812 -0.003265 0.019720 0.004866 -0.005954
# 5 -0.011152 -0.002276 -0.008861 0.004866 0.045725 -0.002088
# 6 0.003179 -0.000408 0.000524 -0.005954 -0.002088 0.029304
#
#
# Mechanical properties :
#
#
# Convention : Reuss Voigt Hill
#
# Bulk Modulus (GPa) = 32.40978 68.85909 50.63443
# Shear Modulus (GPa) = 33.42558 45.13050 39.27804
#
# Velocity S-wave (km/s) = 3.71302 4.31442 4.02497
# Velocity P-wave (km/s) = 5.63467 7.29522 6.51804
#
# Compressibility (1/GPa) = 0.03085488
#
# Stress axis : x y z
#
# Youngs Moduli (GPa) = 50.95431 163.28037 83.65671
#
# Poissons Ratio (x) = 0.29265 -0.05418
# Poissons Ratio (y) = 0.09133 0.19071
# Poissons Ratio (z) = -0.03300 0.37222
#
# Static dielectric constant tensor:
#      x y z
#    x 2.151230 -0.251070 -0.095040 
#    y -0.251070 2.386810 0.127820 
#    z -0.095040 0.127820 1.995080 
# 
# From -- ./inp_files/101078.got.cif
#   From: 2010.05.17/outbox.cif.g08.bks.cpg/sg2_51_cif.got.tgz:101078.got - 2010.06.03 11:33:40.
