data_PCOD9098113
_publ_section_title
;
Structure prediction by ZEFSAII (Michael W. Deem and Ramdas Pophale) SiO2 
 PCOD9098113
Probable space group: P -1
;
_chemical_formula_sum "Si O2"
_cell_formula_units_Z 16
_cell_length_a 7.816245
_cell_length_b 13.165844
_cell_length_c 13.783799
_cell_angle_alpha 128.545604
_cell_angle_beta 140.103308
_cell_angle_gamma 49.431999
_cell_volume 668.293199
_symmetry_space_group_name_H-M "P -1"
_symmetry_group_IT_number 2
_symmetry_cell_setting 'triclinic'
loop_
_space_group_symop_operation_xyz
x,y,z
-x,-y,-z
loop_
_atom_site_type_symbol
_atom_site_label
_atom_site_fract_x
_atom_site_fract_y
_atom_site_fract_z
Si Si1 0.507258 0.891904 0.352549
Si Si2 0.509951 0.468068 0.098921
Si Si3 0.959179 0.609381 0.393427
Si Si4 0.299853 0.705926 0.752139
Si Si5 0.346767 0.924557 0.608587
Si Si6 0.298421 0.964308 0.816670
Si Si7 0.203787 0.770761 0.290389
Si Si8 0.871227 0.498913 0.811832
O O1 0.808376 0.770566 0.397129
O O2 0.306862 0.809155 0.253208
O O3 0.500000 0.000000 0.500000
O O4 0.480448 0.978673 0.295020
O O5 0.705857 0.552144 0.275021
O O6 0.668644 0.322879 0.136136
O O7 0.500000 0.500000 0.000000
O O8 0.174507 0.498067 0.981459
O O9 0.146027 0.617003 0.571784
O O10 0.109410 0.531760 0.314540
O O11 0.164170 0.865991 0.758555
O O12 0.623621 0.640524 0.815247
O O13 0.428867 0.878335 0.725653
O O14 0.395333 0.808180 0.478507
O O15 0.000000 0.000000 0.500000
O O16 0.104485 0.110979 0.775791
O O17 0.500000 0.000000 0.000000
O O18 0.191801 0.626682 0.236173
#
# Coordination Sequence:
#
# PCOD9098113 Si02
#       8
#     2   2   2   2   2   2   2   2
#     4  10  20  36  63  95 125 163 212 259 312 381
#     4  10  24  42  62  90 128 172 213 258 322 391
#     4  11  22  40  65  96 128 164 215 274 319 369
#     4  12  23  40  65  97 129 166 215 270 318 375
#     4   9  18  36  60  87 121 164 206 246 303 380
#     4  11  23  39  61  93 129 166 207 263 321 372
#     4  10  20  39  65  91 122 169 213 253 311 389
#     4  11  23  42  66  93 128 174 216 257 319 391
#
# _framework density 23.941586999999998
#
# number of rings (size 3 to 8) (size 9 to 14) (size 15 to 20)
#    0.000    1.500    0.000    7.125    0.000    2.000 
#    0.000    6.875    0.000    0.000    0.000    0.000 
#    0.000    0.000    0.000    0.000    0.000    0.000 
#
# Total GULP energy -89148.405746 kJ/mol
# GULP energy per Si atom -5571.775359 kJ/mol
# Density = 2.388710 g / cm^3
# Si number density = 23.941587 Si / 1000 Ang^3
#
#
#
# Elastic Constant Matrix: (Units=GPa)
#
#
# Indices 1 2 3 4 5 6 
#
# 1 89.2855 16.2513 28.9264 5.2442 8.3533 36.9340
# 2 16.2513 73.2216 2.0395 1.6707 -6.7759 28.9777
# 3 28.9264 2.0395 125.1425 -20.1940 -1.5988 24.6091
# 4 5.2442 1.6707 -20.1940 27.9564 11.4727 -4.8771
# 5 8.3533 -6.7759 -1.5988 11.4727 43.0615 2.2459
# 6 36.9340 28.9777 24.6091 -4.8771 2.2459 40.6949
#
#
#
# Elastic Compliance Matrix: (Units=1/GPa)
#
#
# Indices 1 2 3 4 5 6 
#
# 1 0.020574 0.004283 -0.002110 -0.009517 0.000267 -0.021602
# 2 0.004283 0.021970 0.001907 -0.006871 0.005666 -0.021821
# 3 -0.002110 0.001907 0.010591 0.007312 -0.000588 -0.004939
# 4 -0.009517 -0.006871 0.007312 0.051607 -0.013549 0.016041
# 5 0.000267 0.005666 -0.000588 -0.013549 0.028020 -0.007091
# 6 -0.021602 -0.021821 -0.004939 0.016041 -0.007091 0.065017
#
#
# Mechanical properties :
#
#
# Convention : Reuss Voigt Hill
#
# Bulk Modulus (GPa) = 16.31440 42.45376 29.38408
# Shear Modulus (GPa) = 23.80378 38.37137 31.08757
#
# Velocity S-wave (km/s) = 3.15658 4.00773 3.60735
# Velocity P-wave (km/s) = 4.48491 6.25992 5.44523
#
# Compressibility (1/GPa) = 0.06129553
#
# Stress axis : x y z
#
# Youngs Moduli (GPa) = 48.60531 45.51624 94.41908
#
# Poissons Ratio (x) = -0.19497 0.19920
# Poissons Ratio (y) = -0.20820 -0.18001
# Poissons Ratio (z) = 0.10255 -0.08678
#
# Static dielectric constant tensor:
#      x y z
#    x 2.083570 -0.045650 -0.065680 
#    y -0.045650 2.044980 0.034780 
#    z -0.065680 0.034780 1.947130 
# 
# From -- ./inp_files/500908.got.cif
#   From: 2010.05.17/outbox.cif.g08.bks.cpg/sg2_251_cif.got.tgz:500908.got - 2010.06.03 11:33:40.
