data_PCOD9098931
_publ_section_title
;
Structure prediction by ZEFSAII (Michael W. Deem and Ramdas Pophale) SiO2 
 PCOD9098931
Probable space group: P -1
;
_chemical_formula_sum "Si O2"
_cell_formula_units_Z 14
_cell_length_a 8.455372
_cell_length_b 17.408452
_cell_length_c 15.684831
_cell_angle_alpha 26.734150
_cell_angle_beta 149.847671
_cell_angle_gamma 141.059389
_cell_volume 521.524966
_symmetry_space_group_name_H-M "P -1"
_symmetry_group_IT_number 2
_symmetry_cell_setting 'triclinic'
loop_
_space_group_symop_operation_xyz
x,y,z
-x,-y,-z
loop_
_atom_site_type_symbol
_atom_site_label
_atom_site_fract_x
_atom_site_fract_y
_atom_site_fract_z
Si Si1 0.736141 0.024330 0.694746
Si Si2 0.786497 0.372887 0.965730
Si Si3 0.134948 0.840679 0.626344
Si Si4 0.139114 0.505520 0.849252
Si Si5 0.429787 0.938245 0.226070
Si Si6 0.279095 0.261976 0.717511
Si Si7 0.802844 0.279306 0.802400
O O1 0.720675 0.030900 0.784010
O O2 0.916481 0.203896 0.582498
O O3 0.369732 0.974624 0.555773
O O4 0.932678 0.861967 0.915470
O O5 0.716051 0.230255 0.145925
O O6 0.454918 0.391824 0.740031
O O7 0.000000 0.500000 0.000000
O O8 0.020860 0.359323 0.007059
O O9 0.081318 0.677234 0.703394
O O10 0.801022 0.909589 0.428502
O O11 0.941158 0.463798 0.712491
O O12 0.500000 0.500000 0.000000
O O13 0.281992 0.762713 0.292109
O O14 0.368587 0.083954 0.984327
O O15 0.492305 0.259506 0.734500
#
# Coordination Sequence:
#
# PCOD9098931 Si02
#       7
#     2   2   2   2   2   2   2
#     4  11  20  34  59  85 113 151 189 225 276 349
#     4   9  20  35  58  81 112 145 191 234 269 334
#     4  11  22  37  56  89 117 147 186 233 292 323
#     4  10  20  39  63  81 108 152 197 232 274 338
#     4  11  22  34  57  87 119 150 180 236 285 335
#     4  10  20  37  58  86 112 151 191 231 281 328
#     4  10  21  39  59  85 112 151 196 232 273 337
#
# _framework density 26.844353999999999
#
# number of rings (size 3 to 8) (size 9 to 14) (size 15 to 20)
#    0.000    1.714    2.857    3.857    0.000    0.571 
#    0.000    5.714    0.000    8.571    0.000    0.000 
#    0.000    0.000    0.000    0.000    0.000    0.000 
#
# Total GULP energy -78159.717366 kJ/mol
# GULP energy per Si atom -5582.836955 kJ/mol
# Density = 2.678325 g / cm^3
# Si number density = 26.844354 Si / 1000 Ang^3
#
#
#
# Elastic Constant Matrix: (Units=GPa)
#
#
# Indices 1 2 3 4 5 6 
#
# 1 106.5472 53.9534 8.8788 8.1536 8.2549 12.5640
# 2 53.9534 201.7134 17.0972 -0.8236 20.2784 2.7817
# 3 8.8788 17.0972 30.4331 18.6218 13.3563 -1.1627
# 4 8.1536 -0.8236 18.6218 53.6354 -4.4171 4.4942
# 5 8.2549 20.2784 13.3563 -4.4171 36.0387 6.5001
# 6 12.5640 2.7817 -1.1627 4.4942 6.5001 70.7987
#
#
#
# Elastic Compliance Matrix: (Units=1/GPa)
#
#
# Indices 1 2 3 4 5 6 
#
# 1 0.011258 -0.002884 -0.000569 -0.001462 -0.000610 -0.001745
# 2 -0.002884 0.006124 -0.002613 0.001273 -0.001716 0.000305
# 3 -0.000569 -0.002613 0.059244 -0.022907 -0.024036 0.004837
# 4 -0.001462 0.001273 -0.022907 0.028093 0.012104 -0.003061
# 5 -0.000610 -0.001716 -0.024036 0.012104 0.040086 -0.004668
# 6 -0.001745 0.000305 0.004837 -0.003061 -0.004668 0.015125
#
#
# Mechanical properties :
#
#
# Convention : Reuss Voigt Hill
#
# Bulk Modulus (GPa) = 15.50531 55.39473 35.45002
# Shear Modulus (GPa) = 25.83196 49.34551 37.58873
#
# Velocity S-wave (km/s) = 3.10544 4.29208 3.74605
# Velocity P-wave (km/s) = 4.31820 6.72629 5.65198
#
# Compressibility (1/GPa) = 0.06449404
#
# Stress axis : x y z
#
# Youngs Moduli (GPa) = 88.82528 163.29711 16.87948
#
# Poissons Ratio (x) = 0.47089 0.00960
# Poissons Ratio (y) = 0.25614 0.04411
# Poissons Ratio (z) = 0.05052 0.42673
#
# Static dielectric constant tensor:
#      x y z
#    x 2.036410 0.018930 -0.185950 
#    y 0.018930 2.356510 -0.022000 
#    z -0.185950 -0.022000 2.287540 
# 
# From -- ./inp_files/259659.got.cif
#   From: 2010.05.17/outbox.cif.g08.bks.cpg/sg2_130_cif.got.tgz:259659.got - 2010.06.03 11:33:40.
