data_PCOD9098451
_publ_section_title
;
Structure prediction by ZEFSAII (Michael W. Deem and Ramdas Pophale) SiO2 
 PCOD9098451
Probable space group: P -1
;
_chemical_formula_sum "Si O2"
_cell_formula_units_Z 14
_cell_length_a 22.130775
_cell_length_b 13.720888
_cell_length_c 13.794448
_cell_angle_alpha 31.799122
_cell_angle_beta 18.235791
_cell_angle_gamma 23.410485
_cell_volume 512.803725
_symmetry_space_group_name_H-M "P -1"
_symmetry_group_IT_number 2
_symmetry_cell_setting 'triclinic'
loop_
_space_group_symop_operation_xyz
x,y,z
-x,-y,-z
loop_
_atom_site_type_symbol
_atom_site_label
_atom_site_fract_x
_atom_site_fract_y
_atom_site_fract_z
Si Si1 0.812179 0.008902 0.558799
Si Si2 0.776017 0.499627 0.725045
Si Si3 0.120975 0.604999 0.827272
Si Si4 0.643337 0.163505 0.485018
Si Si5 0.338878 0.279991 0.474458
Si Si6 0.994992 0.218515 0.349176
Si Si7 0.121262 0.626699 0.120846
O O1 0.091563 0.770088 0.289289
O O2 0.810790 0.898872 0.755163
O O3 0.830682 0.212050 0.380948
O O4 0.610836 0.118717 0.683734
O O5 0.587539 0.707097 0.757082
O O6 0.692523 0.523020 0.942522
O O7 0.015234 0.494107 0.367246
O O8 0.397861 0.328489 0.649132
O O9 0.966657 0.704459 0.876484
O O10 0.946999 0.625295 0.157967
O O11 0.752115 0.305839 0.200377
O O12 0.864707 0.895102 0.326516
O O13 0.281765 0.509446 0.425138
O O14 0.500000 0.000000 0.500000
O O15 0.000000 0.000000 0.500000
#
# Coordination Sequence:
#
# PCOD9098451 Si02
#       7
#     2   2   2   2   2   2   2
#     4   9  19  39  60  90 126 162 204 252 317 373
#     4   9  19  39  59  89 127 163 206 253 313 372
#     4  11  22  40  65  91 125 164 215 255 312 375
#     4  10  20  36  66  93 122 164 210 259 310 375
#     4  11  24  42  66  90 127 169 214 259 313 379
#     4   9  21  44  63  91 130 162 207 262 318 375
#     4   9  19  38  61  92 129 160 202 260 320 370
#
# _framework density 27.300894
#
# number of rings (size 3 to 8) (size 9 to 14) (size 15 to 20)
#    0.000    2.286    0.000    1.714    2.000    0.000 
#    7.714   20.714    0.000    0.000    0.000    0.000 
#    0.000    0.000    0.000    0.000    0.000    0.000 
#
# Total GULP energy -78239.251882 kJ/mol
# GULP energy per Si atom -5588.517992 kJ/mol
# Density = 2.723876 g / cm^3
# Si number density = 27.300894 Si / 1000 Ang^3
#
#
#
# Elastic Constant Matrix: (Units=GPa)
#
#
# Indices 1 2 3 4 5 6 
#
# 1 149.5896 60.6916 24.6009 -7.6923 19.4142 -46.3925
# 2 60.6916 214.0002 40.2596 -17.4058 4.3692 -19.0267
# 3 24.6009 40.2596 78.6323 -14.6138 6.8064 -7.6890
# 4 -7.6923 -17.4058 -14.6138 42.6466 -11.3881 2.1696
# 5 19.4142 4.3692 6.8064 -11.3881 21.9421 -13.0914
# 6 -46.3925 -19.0267 -7.6890 2.1696 -13.0914 49.6865
#
#
#
# Elastic Compliance Matrix: (Units=1/GPa)
#
#
# Indices 1 2 3 4 5 6 
#
# 1 0.010715 -0.002079 -0.001310 -0.000956 -0.004459 0.007873
# 2 -0.002079 0.005822 -0.002143 0.001961 0.002712 0.000585
# 3 -0.001310 -0.002143 0.015001 0.003699 -0.001280 -0.000221
# 4 -0.000956 0.001961 0.003699 0.029657 0.016830 0.003570
# 5 -0.004459 0.002712 -0.001280 0.016830 0.066078 0.013352
# 6 0.007873 0.000585 -0.000221 0.003570 0.013352 0.031029
#
#
# Mechanical properties :
#
#
# Convention : Reuss Voigt Hill
#
# Bulk Modulus (GPa) = 48.84297 77.03626 62.93961
# Shear Modulus (GPa) = 28.37823 43.96636 36.17230
#
# Velocity S-wave (km/s) = 3.22757 4.01738 3.64393
# Velocity P-wave (km/s) = 5.64084 7.05676 6.38815
#
# Compressibility (1/GPa) = 0.02047378
#
# Stress axis : x y z
#
# Youngs Moduli (GPa) = 93.32650 171.76255 66.66138
#
# Poissons Ratio (x) = 0.35713 0.08730
# Poissons Ratio (y) = 0.19405 0.14288
# Poissons Ratio (z) = 0.12222 0.36815
#
# Static dielectric constant tensor:
#      x y z
#    x 2.193800 0.035110 -0.035590 
#    y 0.035110 2.135760 0.059910 
#    z -0.035590 0.059910 2.066700 
# 
# From -- ./inp_files/542993.got.cif
#   From: 2010.05.17/outbox.cif.g08.bks.cpg/sg2_272_cif.got.tgz:542993.got - 2010.06.03 11:33:40.
