data_PCOD9098069
_publ_section_title
;
Structure prediction by ZEFSAII (Michael W. Deem and Ramdas Pophale) SiO2 
 PCOD9098069
Probable space group: P -1
;
_chemical_formula_sum "Si O2"
_cell_formula_units_Z 16
_cell_length_a 9.676406
_cell_length_b 20.552481
_cell_length_c 11.981934
_cell_angle_alpha 154.066197
_cell_angle_beta 40.969521
_cell_angle_gamma 136.372176
_cell_volume 674.876590
_symmetry_space_group_name_H-M "P -1"
_symmetry_group_IT_number 2
_symmetry_cell_setting 'triclinic'
loop_
_space_group_symop_operation_xyz
x,y,z
-x,-y,-z
loop_
_atom_site_type_symbol
_atom_site_label
_atom_site_fract_x
_atom_site_fract_y
_atom_site_fract_z
Si Si1 0.147981 0.023717 0.768370
Si Si2 0.699719 0.875447 0.773540
Si Si3 0.091084 0.576468 0.180431
Si Si4 0.560258 0.136391 0.542436
Si Si5 0.152207 0.487331 0.242019
Si Si6 0.443714 0.803224 0.609522
Si Si7 0.646415 0.658233 0.665623
Si Si8 0.190966 0.341407 0.210184
O O1 0.350683 0.060438 0.619401
O O2 0.257449 0.973087 0.735315
O O3 0.052703 0.178997 0.067531
O O4 0.956586 0.896723 0.653147
O O5 0.609316 0.788244 0.583705
O O6 0.596170 0.782431 0.800465
O O7 0.644720 0.043938 0.066402
O O8 0.296505 0.710385 0.259060
O O9 0.154864 0.470516 0.080788
O O10 0.889290 0.641004 0.457695
O O11 0.000000 0.500000 0.000000
O O12 0.478965 0.159506 0.504849
O O13 0.293969 0.643793 0.435261
O O14 0.221417 0.365617 0.097280
O O15 0.914259 0.515866 0.465558
O O16 0.500000 0.500000 0.500000
O O17 0.629919 0.681420 0.844257
#
# Coordination Sequence:
#
# PCOD9098069 Si02
#       8
#     2   2   2   2   2   2   2   2
#     4  11  22  40  64  91 123 169 212 254 312 376
#     4  11  22  39  65  94 124 165 208 264 312 372
#     4  10  22  42  62  89 126 164 208 258 314 368
#     4  10  23  42  63  89 127 169 210 259 308 375
#     4   9  19  39  63  91 126 162 202 268 306 371
#     4  10  21  40  62  92 129 160 207 260 320 367
#     4  11  23  38  62  92 122 160 212 264 308 372
#     4  10  20  36  63  92 122 161 214 252 314 371
#
# _framework density 23.708038999999999
#
# number of rings (size 3 to 8) (size 9 to 14) (size 15 to 20)
#    0.000    1.750    2.500    1.500    1.750    1.500 
#    2.250    1.250    0.000    0.000    0.000    0.000 
#    0.000    0.000    0.000    0.000    0.000    0.000 
#
# Total GULP energy -89101.445052 kJ/mol
# GULP energy per Si atom -5568.840316 kJ/mol
# Density = 2.365408 g / cm^3
# Si number density = 23.708039 Si / 1000 Ang^3
#
#
#
# Elastic Constant Matrix: (Units=GPa)
#
#
# Indices 1 2 3 4 5 6 
#
# 1 182.4645 67.8272 39.3571 7.5061 37.9836 -34.9570
# 2 67.8272 103.4354 11.1589 9.1127 12.2281 -7.2381
# 3 39.3571 11.1589 60.1926 -6.1792 10.5959 -7.8342
# 4 7.5061 9.1127 -6.1792 32.1870 1.6460 -7.1053
# 5 37.9836 12.2281 10.5959 1.6460 35.1011 1.0907
# 6 -34.9570 -7.2381 -7.8342 -7.1053 1.0907 47.9642
#
#
#
# Elastic Compliance Matrix: (Units=1/GPa)
#
#
# Indices 1 2 3 4 5 6 
#
# 1 0.011985 -0.005740 -0.004017 0.000220 -0.009999 0.007472
# 2 -0.005740 0.013277 0.000342 -0.003018 0.001706 -0.002610
# 3 -0.004017 0.000342 0.020242 0.005109 -0.002161 0.001236
# 4 0.000220 -0.003018 0.005109 0.034232 -0.002510 0.005668
# 5 -0.009999 0.001706 -0.002161 -0.002510 0.039754 -0.008659
# 6 0.007472 -0.002610 0.001236 0.005668 -0.008659 0.027139
#
#
# Mechanical properties :
#
#
# Convention : Reuss Voigt Hill
#
# Bulk Modulus (GPa) = 37.48963 64.75321 51.12142
# Shear Modulus (GPa) = 28.67798 38.23375 33.45587
#
# Velocity S-wave (km/s) = 3.48175 4.02019 3.76062
# Velocity P-wave (km/s) = 5.65781 6.99438 6.36129
#
# Compressibility (1/GPa) = 0.02667404
#
# Stress axis : x y z
#
# Youngs Moduli (GPa) = 83.43985 75.32094 49.40187
#
# Poissons Ratio (x) = 0.43234 0.19844
# Poissons Ratio (y) = 0.47894 -0.01690
# Poissons Ratio (z) = 0.33516 -0.02576
#
# Static dielectric constant tensor:
#      x y z
#    x 2.023770 0.010250 -0.022850 
#    y 0.010250 1.929720 0.019010 
#    z -0.022850 0.019010 2.045260 
# 
# From -- ./inp_files/405666.got.cif
#   From: 2010.05.17/outbox.cif.g08.bks.cpg/sg2_203_cif.got.tgz:405666.got - 2010.06.03 11:33:40.
