data_PCOD9098458
_publ_section_title
;
Structure prediction by ZEFSAII (Michael W. Deem and Ramdas Pophale) SiO2 
 PCOD9098458
Probable space group: P -1
;
_chemical_formula_sum "Si O2"
_cell_formula_units_Z 16
_cell_length_a 9.088651
_cell_length_b 9.790130
_cell_length_c 18.847409
_cell_angle_alpha 123.541244
_cell_angle_beta 143.271433
_cell_angle_gamma 77.480839
_cell_volume 744.978494
_symmetry_space_group_name_H-M "P -1"
_symmetry_group_IT_number 2
_symmetry_cell_setting 'triclinic'
loop_
_space_group_symop_operation_xyz
x,y,z
-x,-y,-z
loop_
_atom_site_type_symbol
_atom_site_label
_atom_site_fract_x
_atom_site_fract_y
_atom_site_fract_z
Si Si1 0.466598 0.299514 0.408865
Si Si2 0.102452 0.665113 0.531684
Si Si3 0.446972 0.958851 0.857366
Si Si4 0.628287 0.324091 0.966061
Si Si5 0.660192 0.051662 0.503637
Si Si6 0.881777 0.967693 0.119376
Si Si7 0.128856 0.288042 0.845749
Si Si8 0.267810 0.195879 0.646918
O O1 0.500000 0.500000 0.500000
O O2 0.646226 0.328131 0.415859
O O3 0.601152 0.204422 0.485743
O O4 0.147099 0.143785 0.242528
O O5 0.234307 0.846427 0.682593
O O6 0.000000 0.500000 0.500000
O O7 0.858719 0.671201 0.392001
O O8 0.262182 0.973587 0.854978
O O9 0.656812 0.150266 0.956457
O O10 0.642589 0.878963 0.943023
O O11 0.447723 0.343860 0.967615
O O12 0.461971 0.272179 0.812353
O O13 0.887723 0.521373 0.111385
O O14 0.972243 0.153545 0.681983
O O15 0.500000 0.000000 0.500000
O O16 0.590111 0.871380 0.378524
O O17 0.956060 0.819896 0.144264
O O18 0.000000 0.000000 0.500000
#
# Coordination Sequence:
#
# PCOD9098458 Si02
#       8
#     2   2   2   2   2   2   2   2
#     4  12  26  42  65  98 133 171 218 272 330 386
#     4  12  26  42  68  96 130 173 221 274 323 389
#     4  10  21  41  63  91 130 174 212 261 324 388
#     4  10  20  36  66  94 124 162 221 269 310 383
#     4  12  24  42  70  94 132 173 213 275 331 384
#     4  10  22  40  62  92 133 169 211 266 324 393
#     4  10  20  37  62  97 124 165 214 265 323 378
#     4  12  21  44  68  95 124 172 226 269 321 388
#
# _framework density 21.477129000000001
#
# number of rings (size 3 to 8) (size 9 to 14) (size 15 to 20)
#    0.000    1.000    5.000    1.500    5.250    0.500 
#    0.000    0.625    0.000    0.000    0.000    0.000 
#    0.000    0.000    0.000    0.000    0.000    0.000 
#
# Total GULP energy -89214.921437 kJ/mol
# GULP energy per Si atom -5575.932590 kJ/mol
# Density = 2.142825 g / cm^3
# Si number density = 21.477129 Si / 1000 Ang^3
#
#
#
# Elastic Constant Matrix: (Units=GPa)
#
#
# Indices 1 2 3 4 5 6 
#
# 1 114.7882 32.8061 20.6305 6.1267 -1.4146 17.6226
# 2 32.8061 105.6569 17.9229 1.3711 13.2249 18.4077
# 3 20.6305 17.9229 50.1496 -4.1005 -1.9870 7.2184
# 4 6.1267 1.3711 -4.1005 36.4298 4.0064 2.1969
# 5 -1.4146 13.2249 -1.9870 4.0064 27.1638 4.8327
# 6 17.6226 18.4077 7.2184 2.1969 4.8327 30.1538
#
#
#
# Elastic Compliance Matrix: (Units=1/GPa)
#
#
# Indices 1 2 3 4 5 6 
#
# 1 0.010741 -0.002356 -0.003014 -0.002076 0.002571 -0.004379
# 2 -0.002356 0.012159 -0.002907 0.000490 -0.005527 -0.004499
# 3 -0.003014 -0.002907 0.022968 0.003036 0.002964 -0.002658
# 4 -0.002076 0.000490 0.003036 0.028651 -0.004130 -0.001239
# 5 0.002571 -0.005527 0.002964 -0.004130 0.041384 -0.005170
# 6 -0.004379 -0.004499 -0.002658 -0.001239 -0.005170 0.040024
#
#
# Mechanical properties :
#
#
# Convention : Reuss Voigt Hill
#
# Bulk Modulus (GPa) = 34.11541 45.92374 40.01957
# Shear Modulus (GPa) = 27.43434 32.03183 29.73308
#
# Velocity S-wave (km/s) = 3.57792 3.86611 3.72480
# Velocity P-wave (km/s) = 5.74349 6.43102 6.09695
#
# Compressibility (1/GPa) = 0.02931226
#
# Stress axis : x y z
#
# Youngs Moduli (GPa) = 93.09717 82.24642 43.53939
#
# Poissons Ratio (x) = 0.19376 0.13125
# Poissons Ratio (y) = 0.21932 0.12659
# Poissons Ratio (z) = 0.28064 0.23912
#
# Static dielectric constant tensor:
#      x y z
#    x 1.852340 -0.020710 0.041720 
#    y -0.020710 1.884130 0.043520 
#    z 0.041720 0.043520 1.827590 
# 
# From -- ./inp_files/226124.got.cif
#   From: 2010.05.17/outbox.cif.g08.bks.cpg/sg2_114_cif.got.tgz:226124.got - 2010.06.03 11:33:40.
