data_PCOD9098248
_publ_section_title
;
Structure prediction by ZEFSAII (Michael W. Deem and Ramdas Pophale) SiO2 
 PCOD9098248
Probable space group: P -1
;
_chemical_formula_sum "Si O2"
_cell_formula_units_Z 16
_cell_length_a 19.861317
_cell_length_b 8.883928
_cell_length_c 13.916110
_cell_angle_alpha 123.909577
_cell_angle_beta 21.767237
_cell_angle_gamma 125.244079
_cell_volume 741.705414
_symmetry_space_group_name_H-M "P -1"
_symmetry_group_IT_number 2
_symmetry_cell_setting 'triclinic'
loop_
_space_group_symop_operation_xyz
x,y,z
-x,-y,-z
loop_
_atom_site_type_symbol
_atom_site_label
_atom_site_fract_x
_atom_site_fract_y
_atom_site_fract_z
Si Si1 0.923742 0.866930 0.140750
Si Si2 0.322580 0.470791 0.865852
Si Si3 0.703795 0.469553 0.703803
Si Si4 0.528463 0.793248 0.566492
Si Si5 0.793084 0.379763 0.746505
Si Si6 0.969482 0.837306 0.556722
Si Si7 0.009097 0.508719 0.808863
Si Si8 0.845817 0.097908 0.958964
O O1 0.706561 0.879994 0.426491
O O2 0.057186 0.917309 0.072677
O O3 0.942020 0.653015 0.021017
O O4 0.000000 0.000000 0.000000
O O5 0.423698 0.636451 0.722379
O O6 0.391828 0.296812 0.665557
O O7 0.332074 0.514634 0.982350
O O8 0.107831 0.460733 0.120438
O O9 0.725553 0.329211 0.710916
O O10 0.834683 0.663324 0.628665
O O11 0.779053 0.431695 0.485542
O O12 0.500000 0.500000 0.000000
O O13 0.370566 0.895557 0.769923
O O14 0.000000 0.500000 0.500000
O O15 0.833436 0.209418 0.693456
O O16 0.881094 0.917905 0.793207
O O17 0.000000 0.000000 0.500000
O O18 0.953283 0.297859 0.844409
#
# Coordination Sequence:
#
# PCOD9098248 Si02
#       8
#     2   2   2   2   2   2   2   2
#     4  11  26  40  64  97 131 171 217 284 343 392
#     4   9  16  37  66  89 121 167 221 269 316 400
#     4  11  24  39  63 100 129 172 219 283 333 395
#     4   9  21  38  63  94 124 168 223 269 325 392
#     4  10  20  36  64  92 124 174 214 261 340 389
#     4  11  21  42  66  91 129 178 224 261 333 414
#     4  10  20  42  64  85 133 170 219 268 334 400
#     4  11  23  42  69  93 129 179 219 271 338 401
#
# _framework density 21.571905999999998
#
# number of rings (size 3 to 8) (size 9 to 14) (size 15 to 20)
#    0.000    1.750    3.750    1.875    1.750    4.500 
#    0.000    0.625    0.000    0.000    0.000    0.000 
#    0.000    0.000    0.000    0.000    0.000    0.000 
#
# Total GULP energy -89102.907262 kJ/mol
# GULP energy per Si atom -5568.931704 kJ/mol
# Density = 2.152281 g / cm^3
# Si number density = 21.571906 Si / 1000 Ang^3
#
#
#
# Elastic Constant Matrix: (Units=GPa)
#
#
# Indices 1 2 3 4 5 6 
#
# 1 87.1353 5.9032 30.1634 8.3651 -10.2570 -10.8749
# 2 5.9032 30.5732 -9.1947 7.9282 1.5365 -1.5346
# 3 30.1634 -9.1947 105.4525 4.8237 -7.5203 4.7600
# 4 8.3651 7.9282 4.8237 24.6581 3.2442 6.0600
# 5 -10.2570 1.5365 -7.5203 3.2442 38.0142 4.6841
# 6 -10.8749 -1.5346 4.7600 6.0600 4.6841 26.0174
#
#
#
# Elastic Compliance Matrix: (Units=1/GPa)
#
#
# Indices 1 2 3 4 5 6 
#
# 1 0.015016 -0.002495 -0.004401 -0.005708 0.002813 0.007758
# 2 -0.002495 0.038121 0.004427 -0.013064 -0.000662 0.003558
# 3 -0.004401 0.004427 0.011463 -0.001483 0.001471 -0.003595
# 4 -0.005708 -0.013064 -0.001483 0.050949 -0.003923 -0.014046
# 5 0.002813 -0.000662 0.001471 -0.003923 0.028122 -0.003282
# 6 0.007758 0.003558 -0.003595 -0.014046 -0.003282 0.046408
#
#
# Mechanical properties :
#
#
# Convention : Reuss Voigt Hill
#
# Bulk Modulus (GPa) = 16.76090 30.76720 23.76405
# Shear Modulus (GPa) = 23.26610 30.82389 27.04499
#
# Velocity S-wave (km/s) = 3.28767 3.78417 3.54462
# Velocity P-wave (km/s) = 4.71151 5.77813 5.27187
#
# Compressibility (1/GPa) = 0.05966265
#
# Stress axis : x y z
#
# Youngs Moduli (GPa) = 66.59448 26.23215 87.23803
#
# Poissons Ratio (x) = 0.06545 0.38396
# Poissons Ratio (y) = 0.16615 -0.38623
# Poissons Ratio (z) = 0.29310 -0.11614
#
# Static dielectric constant tensor:
#      x y z
#    x 1.879000 0.027420 0.071480 
#    y 0.027420 1.815210 0.006230 
#    z 0.071480 0.006230 1.888640 
# 
# From -- ./inp_files/540536.got.cif
#   From: 2010.05.17/outbox.cif.g08.bks.cpg/sg2_271_cif.got.tgz:540536.got - 2010.06.03 11:33:40.
