data_PCOD9098186
_publ_section_title
;
Structure prediction by ZEFSAII (Michael W. Deem and Ramdas Pophale) SiO2 
 PCOD9098186
Probable space group: P -1
;
_chemical_formula_sum "Si O2"
_cell_formula_units_Z 14
_cell_length_a 13.719619
_cell_length_b 9.348528
_cell_length_c 8.316886
_cell_angle_alpha 46.053369
_cell_angle_beta 88.692864
_cell_angle_gamma 119.648603
_cell_volume 541.285254
_symmetry_space_group_name_H-M "P -1"
_symmetry_group_IT_number 2
_symmetry_cell_setting 'triclinic'
loop_
_space_group_symop_operation_xyz
x,y,z
-x,-y,-z
loop_
_atom_site_type_symbol
_atom_site_label
_atom_site_fract_x
_atom_site_fract_y
_atom_site_fract_z
Si Si1 0.388540 0.766754 0.923455
Si Si2 0.669069 0.599248 0.172319
Si Si3 0.270269 0.930379 0.002592
Si Si4 0.161268 0.438702 0.611123
Si Si5 0.394931 0.076214 0.406374
Si Si6 0.057320 0.894207 0.859263
Si Si7 0.185942 0.129372 0.361463
O O1 0.537463 0.885410 0.795710
O O2 0.356717 0.829076 0.705039
O O3 0.374737 0.923765 0.926269
O O4 0.277003 0.431806 0.211170
O O5 0.702649 0.472351 0.393808
O O6 0.525823 0.364814 0.267559
O O7 0.797687 0.792772 0.888391
O O8 0.664348 0.795494 0.116564
O O9 0.179372 0.659802 0.332425
O O10 0.177863 0.910319 0.888078
O O11 0.092950 0.162093 0.724919
O O12 0.071555 0.363012 0.830268
O O13 0.271814 0.049607 0.421466
O O14 0.053896 0.905152 0.656943
#
# Coordination Sequence:
#
# PCOD9098186 Si02
#       7
#     2   2   2   2   2   2   2
#     4  10  20  36  64  87 113 162 199 232 295 353
#     4  10  24  38  59  91 128 150 194 253 297 340
#     4  11  21  40  62  93 117 156 199 246 298 351
#     4  10  22  41  60  91 121 154 199 249 295 354
#     4  10  22  41  59  89 122 159 200 239 290 363
#     4  10  21  40  67  84 118 161 201 242 295 356
#     4  11  21  42  63  87 119 162 200 240 294 358
#
# _framework density 25.864363000000001
#
# number of rings (size 3 to 8) (size 9 to 14) (size 15 to 20)
#    0.000    1.714    2.857    2.143    0.000    5.714 
#    0.000    4.286    0.000    0.000    0.000    0.000 
#    0.000    0.000    0.000    0.000    0.000    0.000 
#
# Total GULP energy -78382.989781 kJ/mol
# GULP energy per Si atom -5598.784984 kJ/mol
# Density = 2.580549 g / cm^3
# Si number density = 25.864363 Si / 1000 Ang^3
#
#
#
# Elastic Constant Matrix: (Units=GPa)
#
#
# Indices 1 2 3 4 5 6 
#
# 1 73.7223 30.4932 17.7281 5.2396 16.4807 -14.7533
# 2 30.4932 102.2647 10.4043 1.9978 -8.6723 -36.1809
# 3 17.7281 10.4043 111.4978 10.0675 3.6028 -17.0068
# 4 5.2396 1.9978 10.0675 38.8305 -13.7535 0.6340
# 5 16.4807 -8.6723 3.6028 -13.7535 46.7673 14.1204
# 6 -14.7533 -36.1809 -17.0068 0.6340 14.1204 42.8760
#
#
#
# Elastic Compliance Matrix: (Units=1/GPa)
#
#
# Indices 1 2 3 4 5 6 
#
# 1 0.020036 -0.004312 -0.000743 -0.006598 -0.011845 0.006959
# 2 -0.004312 0.015067 0.001040 -0.000416 0.000660 0.011432
# 3 -0.000743 0.001040 0.010337 -0.003879 -0.003248 0.005849
# 4 -0.006598 -0.000416 -0.003879 0.033225 0.015237 -0.009669
# 5 -0.011845 0.000660 -0.003248 0.015237 0.035455 -0.016709
# 6 0.006959 0.011432 0.005849 -0.009669 -0.016709 0.043330
#
#
# Mechanical properties :
#
#
# Convention : Reuss Voigt Hill
#
# Bulk Modulus (GPa) = 26.73176 44.97067 35.85121
# Shear Modulus (GPa) = 28.09725 40.95205 34.52465
#
# Velocity S-wave (km/s) = 3.29953 3.98344 3.65750
# Velocity P-wave (km/s) = 4.98735 6.21143 5.63274
#
# Compressibility (1/GPa) = 0.03740869
#
# Stress axis : x y z
#
# Youngs Moduli (GPa) = 49.90956 66.36915 96.73629
#
# Poissons Ratio (x) = 0.28620 0.07192
# Poissons Ratio (y) = 0.21522 -0.10057
# Poissons Ratio (z) = 0.03710 -0.06900
#
# Static dielectric constant tensor:
#      x y z
#    x 2.012270 0.015680 -0.023300 
#    y 0.015680 2.031170 0.044660 
#    z -0.023300 0.044660 2.068050 
# 
# From -- ./inp_files/273749.got.cif
#   From: 2010.05.17/outbox.cif.g08.bks.cpg/sg2_137_cif.got.tgz:273749.got - 2010.06.03 11:33:40.
