data_PCOD9098358
_publ_section_title
;
Structure prediction by ZEFSAII (Michael W. Deem and Ramdas Pophale) SiO2 
 PCOD9098358
Probable space group: P -1
;
_chemical_formula_sum "Si O2"
_cell_formula_units_Z 16
_cell_length_a 10.715094
_cell_length_b 8.641130
_cell_length_c 14.685200
_cell_angle_alpha 126.613027
_cell_angle_beta 138.188960
_cell_angle_gamma 60.860215
_cell_volume 725.331419
_symmetry_space_group_name_H-M "P -1"
_symmetry_group_IT_number 2
_symmetry_cell_setting 'triclinic'
loop_
_space_group_symop_operation_xyz
x,y,z
-x,-y,-z
loop_
_atom_site_type_symbol
_atom_site_label
_atom_site_fract_x
_atom_site_fract_y
_atom_site_fract_z
Si Si1 0.334377 0.124890 0.121026
Si Si2 0.097264 0.148940 0.169537
Si Si3 0.702276 0.079084 0.632352
Si Si4 0.569543 0.573135 0.966605
Si Si5 0.776752 0.478724 0.883370
Si Si6 0.054114 0.140720 0.455451
Si Si7 0.830407 0.245617 0.197165
Si Si8 0.732909 0.895390 0.270744
O O1 0.244267 0.211124 0.197037
O O2 0.331893 0.314953 0.124927
O O3 0.531365 0.012187 0.215440
O O4 0.226561 0.966899 0.946593
O O5 0.950543 0.303576 0.194179
O O6 0.189079 0.026043 0.260135
O O7 0.000000 0.000000 0.000000
O O8 0.712752 0.306702 0.727222
O O9 0.804711 0.016404 0.572966
O O10 0.500000 0.000000 0.500000
O O11 0.698360 0.428948 0.923491
O O12 0.367066 0.648634 0.843942
O O13 0.500000 0.500000 0.000000
O O14 0.697166 0.746706 0.119534
O O15 0.000000 0.500000 0.000000
O O16 0.880224 0.043307 0.371381
O O17 0.179433 0.215870 0.631598
O O18 0.964237 0.257412 0.361667
#
# Coordination Sequence:
#
# PCOD9098358 Si02
#       8
#     2   2   2   2   2   2   2   2
#     4  10  20  36  65  90 124 163 218 263 307 373
#     4   9  18  35  63  87 119 171 209 255 310 382
#     4  11  24  40  65  91 132 169 209 261 328 379
#     4  11  25  38  64  94 129 165 214 267 312 375
#     4  12  25  40  66 101 131 164 221 271 314 375
#     4  10  20  39  65  87 121 171 205 254 319 389
#     4   9  19  37  61  91 124 165 213 259 323 375
#     4  10  21  39  64  91 124 166 211 258 323 380
#
# _framework density 22.058883000000002
#
# number of rings (size 3 to 8) (size 9 to 14) (size 15 to 20)
#    0.000    1.750    0.000    5.250    8.750    2.000 
#    0.000    3.125    8.250    0.000    0.000    0.000 
#    0.000    0.000    0.000    0.000    0.000    0.000 
#
# Total GULP energy -89187.521390 kJ/mol
# GULP energy per Si atom -5574.220087 kJ/mol
# Density = 2.200868 g / cm^3
# Si number density = 22.058883 Si / 1000 Ang^3
#
#
#
# Elastic Constant Matrix: (Units=GPa)
#
#
# Indices 1 2 3 4 5 6 
#
# 1 121.9628 -0.8931 29.9563 -4.1779 -2.4061 -19.8582
# 2 -0.8931 26.7248 14.7077 -2.8658 9.4986 -6.3781
# 3 29.9563 14.7077 109.7990 -21.2599 12.8650 -17.2922
# 4 -4.1779 -2.8658 -21.2599 31.7197 4.8172 -2.1734
# 5 -2.4061 9.4986 12.8650 4.8172 35.3683 -3.3003
# 6 -19.8582 -6.3781 -17.2922 -2.1734 -3.3003 27.0770
#
#
#
# Elastic Compliance Matrix: (Units=1/GPa)
#
#
# Indices 1 2 3 4 5 6 
#
# 1 0.009859 0.002660 -0.002050 0.000433 0.001272 0.006738
# 2 0.002660 0.045902 -0.003170 0.004673 -0.010715 0.009808
# 3 -0.002050 -0.003170 0.013605 0.009768 -0.004950 0.006619
# 4 0.000433 0.004673 0.009768 0.040650 -0.009403 0.009773
# 5 0.001272 -0.010715 -0.004950 -0.009403 0.034194 -0.001339
# 6 0.006738 0.009808 0.006619 0.009773 -0.001339 0.049032
#
#
# Mechanical properties :
#
#
# Convention : Reuss Voigt Hill
#
# Bulk Modulus (GPa) = 15.56481 38.44761 27.00621
# Shear Modulus (GPa) = 22.75033 33.14738 27.94886
#
# Velocity S-wave (km/s) = 3.21494 3.88064 3.56337
# Velocity P-wave (km/s) = 4.56645 6.12753 5.40366
#
# Compressibility (1/GPa) = 0.06424750
#
# Stress axis : x y z
#
# Youngs Moduli (GPa) = 101.42727 21.78557 73.50176
#
# Poissons Ratio (x) = -0.05796 0.15069
# Poissons Ratio (y) = -0.26983 0.23297
# Poissons Ratio (z) = 0.20795 0.06905
#
# Static dielectric constant tensor:
#      x y z
#    x 1.914730 0.031500 0.004990 
#    y 0.031500 1.914040 -0.004570 
#    z 0.004990 -0.004570 1.844580 
# 
# From -- ./inp_files/516147.got.cif
#   From: 2010.05.17/outbox.cif.g08.bks.cpg/sg2_259_cif.got.tgz:516147.got - 2010.06.03 11:33:40.
