data_PCOD9098241
_publ_section_title
;
Structure prediction by ZEFSAII (Michael W. Deem and Ramdas Pophale) SiO2 
 PCOD9098241
Probable space group: P -1
;
_chemical_formula_sum "Si O2"
_cell_formula_units_Z 16
_cell_length_a 12.386845
_cell_length_b 16.244635
_cell_length_c 8.456976
_cell_angle_alpha 65.235500
_cell_angle_beta 46.095850
_cell_angle_gamma 38.147670
_cell_volume 726.123935
_symmetry_space_group_name_H-M "P -1"
_symmetry_group_IT_number 2
_symmetry_cell_setting 'triclinic'
loop_
_space_group_symop_operation_xyz
x,y,z
-x,-y,-z
loop_
_atom_site_type_symbol
_atom_site_label
_atom_site_fract_x
_atom_site_fract_y
_atom_site_fract_z
Si Si1 0.305955 0.086869 0.878564
Si Si2 0.603089 0.430770 0.279486
Si Si3 0.960310 0.552512 0.821813
Si Si4 0.101423 0.865641 0.718024
Si Si5 0.427840 0.148839 0.993463
Si Si6 0.930098 0.928349 0.499385
Si Si7 0.147878 0.642683 0.402325
Si Si8 0.023781 0.338373 0.778667
O O1 0.279578 0.161319 0.004022
O O2 0.260640 0.177209 0.710321
O O3 0.117289 0.094734 0.044456
O O4 0.533243 0.927509 0.825541
O O5 0.500000 0.500000 0.500000
O O6 0.682853 0.288771 0.311426
O O7 0.415250 0.537274 0.251057
O O8 0.830984 0.385960 0.055605
O O9 0.038610 0.437732 0.717366
O O10 0.084547 0.589860 0.627688
O O11 0.691970 0.702585 0.962918
O O12 0.000000 0.500000 0.000000
O O13 0.100034 0.863636 0.528879
O O14 0.068979 0.986348 0.687861
O O15 0.674477 0.045197 0.741187
O O16 0.009770 0.798416 0.447758
O O17 0.073316 0.640921 0.309556
#
# Coordination Sequence:
#
# PCOD9098241 Si02
#       8
#     2   2   2   2   2   2   2   2
#     4   9  18  38  59  88 123 158 202 261 306 372
#     4  11  22  39  68  94 123 169 220 260 306 376
#     4  12  24  41  68  95 120 169 223 268 305 376
#     4   9  19  35  59  93 116 154 219 258 300 356
#     4  10  20  36  64  92 120 154 224 266 300 356
#     4  10  21  37  60  91 125 160 203 270 307 369
#     4  12  25  43  60  93 139 168 204 262 334 380
#     4  11  25  42  62  96 134 170 200 264 334 378
#
# _framework density 22.034804000000001
#
# number of rings (size 3 to 8) (size 9 to 14) (size 15 to 20)
#    0.000    1.500    2.500    3.750    3.500    1.000 
#    0.000    6.250    0.000    0.000    0.000    0.000 
#    0.000    0.000    0.000    0.000    0.000    0.000 
#
# Total GULP energy -89301.711665 kJ/mol
# GULP energy per Si atom -5581.356979 kJ/mol
# Density = 2.198465 g / cm^3
# Si number density = 22.034804 Si / 1000 Ang^3
#
#
#
# Elastic Constant Matrix: (Units=GPa)
#
#
# Indices 1 2 3 4 5 6 
#
# 1 76.5299 43.6346 0.6163 1.1742 3.2248 -2.7579
# 2 43.6346 181.8026 11.7994 -4.9726 -6.9142 6.4764
# 3 0.6163 11.7994 28.2352 -7.0027 -9.4874 3.8342
# 4 1.1742 -4.9726 -7.0027 19.8143 -1.4291 -9.7681
# 5 3.2248 -6.9142 -9.4874 -1.4291 28.3164 -7.2391
# 6 -2.7579 6.4764 3.8342 -9.7681 -7.2391 46.0919
#
#
#
# Elastic Compliance Matrix: (Units=1/GPa)
#
#
# Indices 1 2 3 4 5 6 
#
# 1 0.015440 -0.003871 -0.000156 -0.001799 -0.002673 0.000680
# 2 -0.003871 0.006653 -0.001915 0.001032 0.001328 -0.000580
# 3 -0.000156 -0.001915 0.045984 0.018438 0.016643 0.002956
# 4 -0.001799 0.001032 0.018438 0.065322 0.013558 0.014186
# 5 -0.002673 0.001328 0.016643 0.013558 0.044274 0.008096
# 6 0.000680 -0.000580 0.002956 0.014186 0.008096 0.025850
#
#
# Mechanical properties :
#
#
# Convention : Reuss Voigt Hill
#
# Bulk Modulus (GPa) = 17.79563 44.29649 31.04606
# Shear Modulus (GPa) = 21.35493 34.21233 27.78363
#
# Velocity S-wave (km/s) = 3.11649 3.94464 3.55476
# Velocity P-wave (km/s) = 4.58734 6.39481 5.56494
#
# Compressibility (1/GPa) = 0.05619358
#
# Stress axis : x y z
#
# Youngs Moduli (GPa) = 64.76828 150.30519 21.74653
#
# Poissons Ratio (x) = 0.58178 0.00339
# Poissons Ratio (y) = 0.25069 0.04165
# Poissons Ratio (z) = 0.01011 0.28784
#
# Static dielectric constant tensor:
#      x y z
#    x 1.820310 -0.015020 -0.043470 
#    y -0.015020 1.865740 0.001140 
#    z -0.043470 0.001140 1.873960 
# 
# From -- ./inp_files/272370.got.cif
#   From: 2010.05.17/outbox.cif.g08.bks.cpg/sg2_137_cif.got.tgz:272370.got - 2010.06.03 11:33:40.
