data_PCOD9098928
_publ_section_title
;
Structure prediction by ZEFSAII (Michael W. Deem and Ramdas Pophale) SiO2 
 PCOD9098928
Probable space group: P -1
;
_chemical_formula_sum "Si O2"
_cell_formula_units_Z 14
_cell_length_a 18.048510
_cell_length_b 9.791768
_cell_length_c 5.408270
_cell_angle_alpha 122.680413
_cell_angle_beta 112.108900
_cell_angle_gamma 39.930740
_cell_volume 515.107741
_symmetry_space_group_name_H-M "P -1"
_symmetry_group_IT_number 2
_symmetry_cell_setting 'triclinic'
loop_
_space_group_symop_operation_xyz
x,y,z
-x,-y,-z
loop_
_atom_site_type_symbol
_atom_site_label
_atom_site_fract_x
_atom_site_fract_y
_atom_site_fract_z
Si Si1 0.154305 0.962488 0.330415
Si Si2 0.644642 0.831363 0.263262
Si Si3 0.333806 0.725851 0.703068
Si Si4 0.115367 0.240186 0.169668
Si Si5 0.063415 0.656410 0.260457
Si Si6 0.571266 0.094555 0.935968
Si Si7 0.771959 0.393291 0.297254
O O1 0.281638 0.755759 0.402324
O O2 0.143507 0.162624 0.412267
O O3 0.147184 0.849508 0.984348
O O4 0.046010 0.099240 0.504344
O O5 0.615288 0.994493 0.615101
O O6 0.746737 0.573892 0.252403
O O7 0.542809 0.846792 0.126259
O O8 0.650716 0.911068 0.085029
O O9 0.336869 0.556341 0.699493
O O10 0.224272 0.995177 0.929643
O O11 0.437476 0.700057 0.827133
O O12 0.098844 0.443094 0.247540
O O13 0.994728 0.323963 0.041853
O O14 0.169669 0.620810 0.396981
#
# Coordination Sequence:
#
# PCOD9098928 Si02
#       7
#     2   2   2   2   2   2   2
#     4  10  22  37  55  89 126 171 207 259 326 374
#     4  10  24  45  71 100 123 167 218 266 323 378
#     4  10  23  38  61  90 130 167 208 262 327 380
#     4   9  20  38  58  86 119 169 220 263 312 372
#     4  10  20  37  58  85 123 168 219 264 310 376
#     4  10  23  46  72  95 129 165 215 269 318 389
#     4  11  24  37  60  94 129 166 211 265 324 385
#
# _framework density 27.178782000000002
#
# number of rings (size 3 to 8) (size 9 to 14) (size 15 to 20)
#    0.000    2.000    0.000    1.714    8.000    6.857 
#    0.000    0.714    0.000    0.000    0.000    0.000 
#    0.000    0.000    0.000    0.000    0.000    0.000 
#
# Total GULP energy -78325.709250 kJ/mol
# GULP energy per Si atom -5594.693518 kJ/mol
# Density = 2.711692 g / cm^3
# Si number density = 27.178782 Si / 1000 Ang^3
#
#
#
# Elastic Constant Matrix: (Units=GPa)
#
#
# Indices 1 2 3 4 5 6 
#
# 1 84.9542 6.7841 41.2140 -12.0036 23.1818 10.8283
# 2 6.7841 81.6352 12.7587 -12.2876 -3.9234 7.2258
# 3 41.2140 12.7587 103.9396 -14.1299 26.2583 -3.4126
# 4 -12.0036 -12.2876 -14.1299 38.9061 1.0498 -5.8120
# 5 23.1818 -3.9234 26.2583 1.0498 44.3604 -0.7064
# 6 10.8283 7.2258 -3.4126 -5.8120 -0.7064 22.3398
#
#
#
# Elastic Compliance Matrix: (Units=1/GPa)
#
#
# Indices 1 2 3 4 5 6 
#
# 1 0.017524 0.000241 -0.005404 0.002344 -0.006136 -0.008982
# 2 0.000241 0.013437 -0.002010 0.002943 0.002120 -0.003937
# 3 -0.005404 -0.002010 0.014209 0.003953 -0.005758 0.006286
# 4 0.002344 0.002943 0.003953 0.029815 -0.003912 0.006149
# 5 -0.006136 0.002120 -0.005758 -0.003912 0.029458 0.001323
# 6 -0.008982 -0.003937 0.006286 0.006149 0.001323 0.052992
#
#
# Mechanical properties :
#
#
# Convention : Reuss Voigt Hill
#
# Bulk Modulus (GPa) = 32.44208 43.56027 38.00118
# Shear Modulus (GPa) = 27.46408 35.10607 31.28508
#
# Velocity S-wave (km/s) = 3.18228 3.59788 3.39644
# Velocity P-wave (km/s) = 5.04629 5.77250 5.42157
#
# Compressibility (1/GPa) = 0.03082416
#
# Stress axis : x y z
#
# Youngs Moduli (GPa) = 57.06488 74.42128 70.37845
#
# Poissons Ratio (x) = -0.01796 0.38035
# Poissons Ratio (y) = -0.01377 0.14144
# Poissons Ratio (z) = 0.30840 0.14957
#
# Static dielectric constant tensor:
#      x y z
#    x 2.161690 -0.020760 0.015890 
#    y -0.020760 2.109190 -0.010510 
#    z 0.015890 -0.010510 2.140950 
# 
# From -- ./inp_files/35539.got.cif
#   From: 2010.05.17/outbox.cif.g08.bks.cpg/sg2_18_cif.got.tgz:35539.got - 2010.06.03 11:33:40.
