data_PCOD9098485
_publ_section_title
;
Structure prediction by ZEFSAII (Michael W. Deem and Ramdas Pophale) SiO2 
 PCOD9098485
Probable space group: P -1
;
_chemical_formula_sum "Si O2"
_cell_formula_units_Z 16
_cell_length_a 9.176524
_cell_length_b 15.085923
_cell_length_c 11.828651
_cell_angle_alpha 97.388781
_cell_angle_beta 114.809556
_cell_angle_gamma 33.147370
_cell_volume 726.324625
_symmetry_space_group_name_H-M "P -1"
_symmetry_group_IT_number 2
_symmetry_cell_setting 'triclinic'
loop_
_space_group_symop_operation_xyz
x,y,z
-x,-y,-z
loop_
_atom_site_type_symbol
_atom_site_label
_atom_site_fract_x
_atom_site_fract_y
_atom_site_fract_z
Si Si1 0.126575 0.418403 0.153108
Si Si2 0.082160 0.874395 0.079086
Si Si3 0.181369 0.582348 0.239874
Si Si4 0.265003 0.131076 0.049870
Si Si5 0.896250 0.034873 0.291844
Si Si6 0.935839 0.221094 0.359954
Si Si7 0.140964 0.122188 0.646450
Si Si8 0.706261 0.467946 0.142863
O O1 0.066752 0.537797 0.224899
O O2 0.514044 0.227024 0.228213
O O3 0.937188 0.425812 0.144578
O O4 0.000000 0.500000 0.000000
O O5 0.446090 0.657644 0.154533
O O6 0.968475 0.952295 0.181798
O O7 0.868722 0.898718 0.960724
O O8 0.000000 0.000000 0.000000
O O9 0.566763 0.399748 0.318851
O O10 0.061708 0.711049 0.314531
O O11 0.026535 0.679180 0.081574
O O12 0.502325 0.053040 0.209667
O O13 0.500000 0.000000 0.000000
O O14 0.019155 0.077482 0.333139
O O15 0.015648 0.901838 0.398291
O O16 0.913158 0.303021 0.264926
O O17 0.154687 0.143050 0.524491
O O18 0.500000 0.500000 0.000000
#
# Coordination Sequence:
#
# PCOD9098485 Si02
#       8
#     2   2   2   2   2   2   2   2
#     4  11  24  39  67  97 132 171 225 275 332 392
#     4  12  24  40  68 104 132 171 225 282 331 386
#     4  10  20  41  67  96 129 179 229 269 324 402
#     4  10  20  36  66  97 129 167 226 270 327 385
#     4  11  23  43  66  97 135 177 224 271 329 407
#     4  11  23  43  65 101 133 178 218 281 338 389
#     4  11  22  38  71  95 136 173 231 268 332 401
#     4  12  26  43  68 100 137 170 223 282 334 391
#
# _framework density 22.028717
#
# number of rings (size 3 to 8) (size 9 to 14) (size 15 to 20)
#    0.000    1.000    3.750    4.500    7.000    0.000 
#    0.000    1.250    5.500    0.000    0.000    0.000 
#    0.000    0.000    0.000    0.000    0.000    0.000 
#
# Total GULP energy -89320.370673 kJ/mol
# GULP energy per Si atom -5582.523167 kJ/mol
# Density = 2.197858 g / cm^3
# Si number density = 22.028717 Si / 1000 Ang^3
#
#
#
# Elastic Constant Matrix: (Units=GPa)
#
#
# Indices 1 2 3 4 5 6 
#
# 1 141.7649 35.3383 33.4640 9.4082 -20.6841 23.2374
# 2 35.3383 124.7319 18.1292 14.6856 0.5895 21.3094
# 3 33.4640 18.1292 117.7056 -0.8663 -17.8402 15.8144
# 4 9.4082 14.6856 -0.8663 20.4243 2.7931 4.2526
# 5 -20.6841 0.5895 -17.8402 2.7931 33.3885 -6.7320
# 6 23.2374 21.3094 15.8144 4.2526 -6.7320 34.7013
#
#
#
# Elastic Compliance Matrix: (Units=1/GPa)
#
#
# Indices 1 2 3 4 5 6 
#
# 1 0.009152 -0.001490 -0.001243 -0.003126 0.004614 -0.003368
# 2 -0.001490 0.009962 -0.000854 -0.005306 -0.002013 -0.004470
# 3 -0.001243 -0.000854 0.009934 0.001621 0.003890 -0.002614
# 4 -0.003126 -0.005306 0.001621 0.055876 -0.006350 -0.003466
# 5 0.004614 -0.002013 0.003890 -0.006350 0.036300 0.004194
# 6 -0.003368 -0.004470 -0.002614 -0.003466 0.004194 0.036248
#
#
# Mechanical properties :
#
#
# Convention : Reuss Voigt Hill
#
# Bulk Modulus (GPa) = 45.72300 62.00726 53.86513
# Shear Modulus (GPa) = 29.08066 37.52087 33.30076
#
# Velocity S-wave (km/s) = 3.63729 4.13155 3.89227
# Velocity P-wave (km/s) = 6.20008 7.13926 6.68618
#
# Compressibility (1/GPa) = 0.02187083
#
# Stress axis : x y z
#
# Youngs Moduli (GPa) = 109.26894 100.38627 100.66919
#
# Poissons Ratio (x) = 0.14961 0.12518
# Poissons Ratio (y) = 0.16285 0.08599
# Poissons Ratio (z) = 0.13587 0.08574
#
# Static dielectric constant tensor:
#      x y z
#    x 1.784840 0.132900 0.072770 
#    y 0.132900 1.667250 -0.071520 
#    z 0.072770 -0.071520 1.744540 
# 
# From -- ./inp_files/399135.got.cif
#   From: 2010.05.17/outbox.cif.g08.bks.cpg/sg2_200_cif.got.tgz:399135.got - 2010.06.03 11:33:40.
