data_PCOD9098123
_publ_section_title
;
Structure prediction by ZEFSAII (Michael W. Deem and Ramdas Pophale) SiO2 
 PCOD9098123
Probable space group: P -1
;
_chemical_formula_sum "Si O2"
_cell_formula_units_Z 16
_cell_length_a 12.003315
_cell_length_b 9.487469
_cell_length_c 11.501266
_cell_angle_alpha 70.576767
_cell_angle_beta 56.562546
_cell_angle_gamma 48.811222
_cell_volume 821.565039
_symmetry_space_group_name_H-M "P -1"
_symmetry_group_IT_number 2
_symmetry_cell_setting 'triclinic'
loop_
_space_group_symop_operation_xyz
x,y,z
-x,-y,-z
loop_
_atom_site_type_symbol
_atom_site_label
_atom_site_fract_x
_atom_site_fract_y
_atom_site_fract_z
Si Si1 0.893022 0.425268 0.000868
Si Si2 0.919810 0.980193 0.938628
Si Si3 0.051294 0.831253 0.659160
Si Si4 0.469902 0.736245 0.877582
Si Si5 0.148642 0.431331 0.770782
Si Si6 0.512118 0.970992 0.362306
Si Si7 0.281454 0.902483 0.365937
Si Si8 0.464404 0.417330 0.876652
O O1 0.839309 0.568556 0.096412
O O2 0.730811 0.432232 0.081873
O O3 0.045099 0.217823 0.009647
O O4 0.973056 0.464212 0.839064
O O5 0.005031 0.949639 0.773171
O O6 0.725555 0.146374 0.008959
O O7 0.000000 0.000000 0.000000
O O8 0.131519 0.614103 0.692178
O O9 0.186395 0.838315 0.511000
O O10 0.873644 0.929870 0.667899
O O11 0.527890 0.540797 0.838831
O O12 0.491241 0.867387 0.748762
O O13 0.548015 0.682621 0.976137
O O14 0.310171 0.233602 0.693660
O O15 0.372860 0.959290 0.382954
O O16 0.500000 0.000000 0.500000
O O17 0.421521 0.735380 0.245702
#
# Coordination Sequence:
#
# PCOD9098123 Si02
#       8
#     2   2   2   2   2   2   2   2
#     4  10  20  36  63  96 122 161 219 260 321 377
#     4  11  20  38  65  93 129 171 212 274 318 382
#     4  10  25  43  67  93 128 178 229 262 326 400
#     4  11  25  42  64 101 134 167 220 271 330 390
#     4  10  22  40  63  95 126 166 213 271 322 386
#     4  12  28  44  65 100 136 172 217 278 331 389
#     4  11  25  46  66  95 131 179 220 270 332 394
#     4  11  23  42  70  96 131 174 217 270 326 393
#
# _framework density 19.475024999999999
#
# number of rings (size 3 to 8) (size 9 to 14) (size 15 to 20)
#    0.000    1.250    5.000    0.000    5.250    1.000 
#    0.000    0.625    0.000    0.000    0.000    0.000 
#    0.000    0.000    0.000    0.000    0.000    0.000 
#
# Total GULP energy -89095.294758 kJ/mol
# GULP energy per Si atom -5568.455922 kJ/mol
# Density = 1.943070 g / cm^3
# Si number density = 19.475025 Si / 1000 Ang^3
#
#
#
# Elastic Constant Matrix: (Units=GPa)
#
#
# Indices 1 2 3 4 5 6 
#
# 1 80.5262 29.8399 50.3495 11.5159 4.8799 8.2553
# 2 29.8399 105.6159 58.0739 3.9356 6.5593 6.9349
# 3 50.3495 58.0739 111.3900 2.6150 10.0817 8.8002
# 4 11.5159 3.9356 2.6150 31.9463 3.1980 1.1098
# 5 4.8799 6.5593 10.0817 3.1980 29.2358 5.3822
# 6 8.2553 6.9349 8.8002 1.1098 5.3822 25.7813
#
#
#
# Elastic Compliance Matrix: (Units=1/GPa)
#
#
# Indices 1 2 3 4 5 6 
#
# 1 0.018643 -0.000604 -0.007813 -0.005994 0.000940 -0.003078
# 2 -0.000604 0.013369 -0.006563 -0.000820 -0.000352 -0.001054
# 3 -0.007813 -0.006563 0.016196 0.002621 -0.002956 -0.000757
# 4 -0.005994 -0.000820 0.002621 0.033682 -0.003501 0.000526
# 5 0.000940 -0.000352 -0.002956 -0.003501 0.036766 -0.006722
# 6 -0.003078 -0.001054 -0.000757 0.000526 -0.006722 0.041696
#
#
# Mechanical properties :
#
#
# Convention : Reuss Voigt Hill
#
# Bulk Modulus (GPa) = 54.79799 63.78432 59.29115
# Shear Modulus (GPa) = 25.45881 28.01059 26.73470
#
# Velocity S-wave (km/s) = 3.61952 3.79658 3.70911
# Velocity P-wave (km/s) = 6.75770 7.21399 6.98957
#
# Compressibility (1/GPa) = 0.01824885
#
# Stress axis : x y z
#
# Youngs Moduli (GPa) = 53.63910 74.79937 61.74212
#
# Poissons Ratio (x) = 0.04518 0.48240
# Poissons Ratio (y) = 0.03240 0.40519
# Poissons Ratio (z) = 0.41909 0.49088
#
# Static dielectric constant tensor:
#      x y z
#    x 1.968260 0.215860 0.160520 
#    y 0.215860 1.931670 0.185620 
#    z 0.160520 0.185620 1.900180 
# 
# From -- ./inp_files/261694.got.cif
#   From: 2010.05.17/outbox.cif.g08.bks.cpg/sg2_131_cif.got.tgz:261694.got - 2010.06.03 11:33:40.
