data_PCOD9098322
_publ_section_title
;
Structure prediction by ZEFSAII (Michael W. Deem and Ramdas Pophale) SiO2 
 PCOD9098322
Probable space group: P -1
;
_chemical_formula_sum "Si O2"
_cell_formula_units_Z 14
_cell_length_a 12.181715
_cell_length_b 9.190774
_cell_length_c 8.603169
_cell_angle_alpha 133.686272
_cell_angle_beta 117.933649
_cell_angle_gamma 76.927379
_cell_volume 608.183875
_symmetry_space_group_name_H-M "P -1"
_symmetry_group_IT_number 2
_symmetry_cell_setting 'triclinic'
loop_
_space_group_symop_operation_xyz
x,y,z
-x,-y,-z
loop_
_atom_site_type_symbol
_atom_site_label
_atom_site_fract_x
_atom_site_fract_y
_atom_site_fract_z
Si Si1 0.142191 0.489071 0.444936
Si Si2 0.053547 0.246470 0.522691
Si Si3 0.954525 0.139563 0.939534
Si Si4 0.287998 0.399986 0.984743
Si Si5 0.668674 0.179049 0.814177
Si Si6 0.374308 0.595859 0.501236
Si Si7 0.566764 0.968722 0.269242
O O1 0.113268 0.380381 0.511702
O O2 0.289430 0.524184 0.539032
O O3 0.086538 0.698195 0.534832
O O4 0.057421 0.338591 0.157444
O O5 0.145930 0.323671 0.780350
O O6 0.054755 0.007351 0.323157
O O7 0.817448 0.182909 0.929198
O O8 0.000000 0.000000 0.000000
O O9 0.369065 0.217593 0.887870
O O10 0.349726 0.589152 0.058548
O O11 0.292099 0.501183 0.230621
O O12 0.580724 0.091241 0.832849
O O13 0.627115 0.043985 0.532951
O O14 0.500000 0.500000 0.500000
O O15 0.406183 0.837259 0.681342
#
# Coordination Sequence:
#
# PCOD9098322 Si02
#       7
#     2   2   2   2   2   2   2
#     4  10  23  43  64  97 133 167 213 263 322 381
#     4  10  21  40  72  97 121 167 221 270 310 373
#     4  10  20  36  64  98 128 161 211 271 319 360
#     4  11  22  43  67  98 125 170 219 264 323 378
#     4  10  20  38  65  98 130 162 221 272 310 369
#     4  11  28  46  62  93 139 173 205 264 334 391
#     4  10  23  40  64  93 129 175 212 263 321 381
#
# _framework density 23.019352999999999
#
# number of rings (size 3 to 8) (size 9 to 14) (size 15 to 20)
#    0.000    1.714    2.857    0.429    4.000    4.571 
#    0.000    1.429    0.000    0.000    0.000    0.000 
#    0.000    0.000    0.000    0.000    0.000    0.000 
#
# Total GULP energy -78284.533118 kJ/mol
# GULP energy per Si atom -5591.752366 kJ/mol
# Density = 2.296696 g / cm^3
# Si number density = 23.019353 Si / 1000 Ang^3
#
#
#
# Elastic Constant Matrix: (Units=GPa)
#
#
# Indices 1 2 3 4 5 6 
#
# 1 107.4547 34.5258 -6.2632 20.0571 26.6624 -14.6804
# 2 34.5258 62.0598 13.2439 25.0052 -0.0927 -20.2227
# 3 -6.2632 13.2439 83.4038 11.0422 -0.1791 -3.3701
# 4 20.0571 25.0052 11.0422 32.9831 -10.0679 -12.3376
# 5 26.6624 -0.0927 -0.1791 -10.0679 26.5102 6.6544
# 6 -14.6804 -20.2227 -3.3701 -12.3376 6.6544 25.6956
#
#
#
# Elastic Compliance Matrix: (Units=1/GPa)
#
#
# Indices 1 2 3 4 5 6 
#
# 1 0.025473 -0.002467 0.005668 -0.022255 -0.037125 0.012284
# 2 -0.002467 0.029866 -0.002064 -0.016961 -0.007812 0.015704
# 3 0.005668 -0.002064 0.013954 -0.008797 -0.009367 0.001646
# 4 -0.022255 -0.016961 -0.008797 0.073377 0.051464 -0.005313
# 5 -0.037125 -0.007812 -0.009367 0.051464 0.102125 -0.030324
# 6 0.012284 0.015704 0.001646 -0.005313 -0.030324 0.063812
#
#
# Mechanical properties :
#
#
# Convention : Reuss Voigt Hill
#
# Bulk Modulus (GPa) = 13.97298 37.32569 25.64934
# Shear Modulus (GPa) = 15.14278 31.13191 23.13735
#
# Velocity S-wave (km/s) = 2.56760 3.68152 3.17381
# Velocity P-wave (km/s) = 3.85660 5.85846 4.95958
#
# Compressibility (1/GPa) = 0.07156669
#
# Stress axis : x y z
#
# Youngs Moduli (GPa) = 39.25711 33.48290 71.66252
#
# Poissons Ratio (x) = 0.08259 -0.40616
# Poissons Ratio (y) = 0.09683 0.14794
# Poissons Ratio (z) = -0.22249 0.06912
#
# Static dielectric constant tensor:
#      x y z
#    x 1.861630 0.009740 -0.039510 
#    y 0.009740 1.836530 -0.016360 
#    z -0.039510 -0.016360 1.939720 
# 
# From -- ./inp_files/188825.got.cif
#   From: 2010.05.17/outbox.cif.g08.bks.cpg/sg2_95_cif.got.tgz:188825.got - 2010.06.03 11:33:40.
