data_PCOD9098058
_publ_section_title
;
Structure prediction by ZEFSAII (Michael W. Deem and Ramdas Pophale) SiO2 
 PCOD9098058
Probable space group: P -1
;
_chemical_formula_sum "Si O2"
_cell_formula_units_Z 16
_cell_length_a 7.241622
_cell_length_b 12.025793
_cell_length_c 9.369555
_cell_angle_alpha 65.220735
_cell_angle_beta 113.224842
_cell_angle_gamma 106.256234
_cell_volume 674.340789
_symmetry_space_group_name_H-M "P -1"
_symmetry_group_IT_number 2
_symmetry_cell_setting 'triclinic'
loop_
_space_group_symop_operation_xyz
x,y,z
-x,-y,-z
loop_
_atom_site_type_symbol
_atom_site_label
_atom_site_fract_x
_atom_site_fract_y
_atom_site_fract_z
Si Si1 0.935395 0.649028 0.814726
Si Si2 0.686303 0.419088 0.716816
Si Si3 0.962602 0.813156 0.323743
Si Si4 0.249261 0.443237 0.620561
Si Si5 0.311315 0.991281 0.838654
Si Si6 0.757820 0.173697 0.358217
Si Si7 0.028182 0.785581 0.031527
Si Si8 0.684770 0.431242 0.141069
O O1 0.770270 0.552304 0.740114
O O2 0.026218 0.765956 0.681241
O O3 0.856826 0.416939 0.083017
O O4 0.878441 0.703686 0.919262
O O5 0.459052 0.386259 0.721086
O O6 0.703704 0.448805 0.538036
O O7 0.805581 0.305953 0.843103
O O8 0.921104 0.666131 0.417687
O O9 0.169708 0.863840 0.443743
O O10 0.960490 0.823036 0.145799
O O11 0.778662 0.882120 0.283186
O O12 0.205262 0.492513 0.735455
O O13 0.342224 0.927825 0.729328
O O14 0.132578 0.902954 0.913320
O O15 0.500000 0.000000 0.000000
O O16 0.631329 0.290017 0.255902
O O17 0.500000 0.500000 0.000000
#
# Coordination Sequence:
#
# PCOD9098058 Si02
#       8
#     2   2   2   2   2   2   2   2
#     4   9  20  39  59  90 133 169 208 259 326 388
#     4  11  21  38  58  93 143 160 212 265 332 388
#     4  12  23  42  71  92 131 175 224 263 319 391
#     4  11  23  35  62 101 126 176 207 266 328 393
#     4  11  25  46  67  93 127 174 226 273 324 375
#     4   9  22  42  67  93 128 171 220 258 329 386
#     4  11  23  39  64  94 125 169 218 269 320 383
#     4  10  20  36  63  91 134 162 220 258 323 389
#
# _framework density 23.726872
#
# number of rings (size 3 to 8) (size 9 to 14) (size 15 to 20)
#    0.750    0.750    1.250    4.125    1.750    2.500 
#    0.000    0.625    0.000    0.000    0.000    0.000 
#    0.000    0.000    0.000    0.000    0.000    0.000 
#
# Total GULP energy -89387.554295 kJ/mol
# GULP energy per Si atom -5586.722143 kJ/mol
# Density = 2.367287 g / cm^3
# Si number density = 23.726872 Si / 1000 Ang^3
#
#
#
# Elastic Constant Matrix: (Units=GPa)
#
#
# Indices 1 2 3 4 5 6 
#
# 1 46.3264 20.6067 10.6241 8.3135 13.2909 -6.7786
# 2 20.6067 115.1167 34.8413 30.8572 9.9677 -24.1073
# 3 10.6241 34.8413 80.8626 23.5326 5.2204 -20.9825
# 4 8.3135 30.8572 23.5326 46.6831 -3.0601 -2.3591
# 5 13.2909 9.9677 5.2204 -3.0601 45.2008 -3.4441
# 6 -6.7786 -24.1073 -20.9825 -2.3591 -3.4441 31.4387
#
#
#
# Elastic Compliance Matrix: (Units=1/GPa)
#
#
# Indices 1 2 3 4 5 6 
#
# 1 0.025703 -0.002594 -0.000313 -0.003043 -0.006976 0.002351
# 2 -0.002594 0.013384 -0.000926 -0.007627 -0.001966 0.008298
# 3 -0.000313 -0.000926 0.017918 -0.007937 -0.001517 0.010419
# 4 -0.003043 -0.007627 -0.007937 0.030875 0.004902 -0.008949
# 5 -0.006976 -0.001966 -0.001517 0.004902 0.025046 -0.000912
# 6 0.002351 0.008298 0.010419 -0.008949 -0.000912 0.044860
#
#
# Mechanical properties :
#
#
# Convention : Reuss Voigt Hill
#
# Bulk Modulus (GPa) = 20.26796 41.60554 30.93675
# Shear Modulus (GPa) = 27.48764 36.41342 31.95053
#
# Velocity S-wave (km/s) = 3.40737 3.92176 3.67358
# Velocity P-wave (km/s) = 4.90316 6.17092 5.57320
#
# Compressibility (1/GPa) = 0.04933897
#
# Stress axis : x y z
#
# Youngs Moduli (GPa) = 38.90544 74.71632 55.80861
#
# Poissons Ratio (x) = 0.19382 0.01748
# Poissons Ratio (y) = 0.10092 0.05169
# Poissons Ratio (z) = 0.01218 0.06920
#
# Static dielectric constant tensor:
#      x y z
#    x 1.895010 0.014900 -0.028450 
#    y 0.014900 1.910810 0.005710 
#    z -0.028450 0.005710 1.957420 
# 
# From -- ./inp_files/185378.got.cif
#   From: 2010.05.17/outbox.cif.g08.bks.cpg/sg2_93_cif.got.tgz:185378.got - 2010.06.03 11:33:40.
