data_PCOD9098533
_publ_section_title
;
Structure prediction by ZEFSAII (Michael W. Deem and Ramdas Pophale) SiO2 
 PCOD9098533
Probable space group: P -1
;
_chemical_formula_sum "Si O2"
_cell_formula_units_Z 16
_cell_length_a 15.020308
_cell_length_b 10.017257
_cell_length_c 9.563220
_cell_angle_alpha 51.915740
_cell_angle_beta 137.050703
_cell_angle_gamma 137.051944
_cell_volume 657.720917
_symmetry_space_group_name_H-M "P -1"
_symmetry_group_IT_number 2
_symmetry_cell_setting 'triclinic'
loop_
_space_group_symop_operation_xyz
x,y,z
-x,-y,-z
loop_
_atom_site_type_symbol
_atom_site_label
_atom_site_fract_x
_atom_site_fract_y
_atom_site_fract_z
Si Si1 0.010818 0.077176 0.805291
Si Si2 0.525782 0.250164 0.221064
Si Si3 0.204086 0.925837 0.029815
Si Si4 0.806485 0.468261 0.617851
Si Si5 0.340820 0.488139 0.323748
Si Si6 0.276126 0.485266 0.947086
Si Si7 0.567155 0.064039 0.885394
Si Si8 0.084067 0.677388 0.595752
O O1 0.155287 0.303897 0.831150
O O2 0.883075 0.116717 0.569189
O O3 0.060399 0.949646 0.854773
O O4 0.000000 0.000000 0.000000
O O5 0.348136 0.120466 0.147886
O O6 0.656824 0.366080 0.410415
O O7 0.567331 0.397681 0.039138
O O8 0.535910 0.071146 0.275502
O O9 0.175720 0.717760 0.191809
O O10 0.280389 0.946919 0.953043
O O11 0.769913 0.579342 0.626106
O O12 0.963405 0.616288 0.622335
O O13 0.500000 0.500000 0.500000
O O14 0.390516 0.716702 0.231542
O O15 0.273651 0.399893 0.151653
O O16 0.221264 0.641866 0.812438
O O17 0.500000 0.000000 0.000000
O O18 0.000000 0.500000 0.500000
#
# Coordination Sequence:
#
# PCOD9098533 Si02
#       8
#     2   2   2   2   2   2   2   2
#     4  11  23  40  65  95 123 160 216 269 300 369
#     4  10  20  36  68  90 120 167 211 248 319 367
#     4   9  21  33  61  93 125 154 206 253 309 359
#     4  11  21  40  64  91 129 166 210 251 312 381
#     4  11  25  39  60  97 132 161 206 261 316 367
#     4  11  23  42  63  90 131 171 206 254 318 373
#     4   9  19  38  58  88 128 166 193 247 323 372
#     4  10  21  40  62  87 121 168 209 251 310 372
#
# _framework density 24.326428
#
# number of rings (size 3 to 8) (size 9 to 14) (size 15 to 20)
#    0.750    1.000    3.750    1.875    1.750    3.000 
#    0.000    0.000    0.000    3.750    0.000    0.000 
#    0.000    0.000    0.000    0.000    0.000    0.000 
#
# Total GULP energy -89209.844054 kJ/mol
# GULP energy per Si atom -5575.615253 kJ/mol
# Density = 2.427106 g / cm^3
# Si number density = 24.326428 Si / 1000 Ang^3
#
#
#
# Elastic Constant Matrix: (Units=GPa)
#
#
# Indices 1 2 3 4 5 6 
#
# 1 154.1781 1.1651 52.1471 -15.3346 5.9058 -8.6935
# 2 1.1651 62.8542 1.7047 11.5093 -2.3785 3.8838
# 3 52.1471 1.7047 81.6560 -4.2786 10.9626 -4.3992
# 4 -15.3346 11.5093 -4.2786 34.4513 -3.7340 -9.1732
# 5 5.9058 -2.3785 10.9626 -3.7340 38.7798 -7.1677
# 6 -8.6935 3.8838 -4.3992 -9.1732 -7.1677 31.0753
#
#
#
# Elastic Compliance Matrix: (Units=1/GPa)
#
#
# Indices 1 2 3 4 5 6 
#
# 1 0.008952 -0.001061 -0.005418 0.004743 0.001216 0.003551
# 2 -0.001061 0.017648 -0.000319 -0.007749 -0.000319 -0.004909
# 3 -0.005418 -0.000319 0.016178 -0.000806 -0.003905 -0.000324
# 4 0.004743 -0.007749 -0.000806 0.038123 0.005415 0.014684
# 5 0.001216 -0.000319 -0.003905 0.005415 0.028694 0.008044
# 6 0.003551 -0.004909 -0.000324 0.014684 0.008044 0.039931
#
#
# Mechanical properties :
#
#
# Convention : Reuss Voigt Hill
#
# Bulk Modulus (GPa) = 34.26665 45.41357 39.84011
# Shear Modulus (GPa) = 28.92687 37.10603 33.01645
#
# Velocity S-wave (km/s) = 3.45209 3.90979 3.68805
# Velocity P-wave (km/s) = 5.47778 6.25227 5.87780
#
# Compressibility (1/GPa) = 0.02918289
#
# Stress axis : x y z
#
# Youngs Moduli (GPa) = 111.70665 56.66247 61.81264
#
# Poissons Ratio (x) = 0.06012 0.33492
# Poissons Ratio (y) = 0.11851 0.01969
# Poissons Ratio (z) = 0.60525 0.01805
#
# Static dielectric constant tensor:
#      x y z
#    x 2.085660 0.016280 -0.016590 
#    y 0.016280 1.955010 0.019010 
#    z -0.016590 0.019010 1.995410 
# 
# From -- ./inp_files/306589.got.cif
#   From: 2010.05.17/outbox.cif.g08.bks.cpg/sg2_154_cif.got.tgz:306589.got - 2010.06.03 11:33:40.
