data_PCOD9098523
_publ_section_title
;
Structure prediction by ZEFSAII (Michael W. Deem and Ramdas Pophale) SiO2 
 PCOD9098523
Probable space group: P -1
;
_chemical_formula_sum "Si O2"
_cell_formula_units_Z 16
_cell_length_a 9.391271
_cell_length_b 17.032304
_cell_length_c 5.688593
_cell_angle_alpha 81.922004
_cell_angle_beta 91.196598
_cell_angle_gamma 50.664710
_cell_volume 689.573447
_symmetry_space_group_name_H-M "P -1"
_symmetry_group_IT_number 2
_symmetry_cell_setting 'triclinic'
loop_
_space_group_symop_operation_xyz
x,y,z
-x,-y,-z
loop_
_atom_site_type_symbol
_atom_site_label
_atom_site_fract_x
_atom_site_fract_y
_atom_site_fract_z
Si Si1 0.708372 0.083372 0.970334
Si Si2 0.998512 0.932389 0.715371
Si Si3 0.178571 0.723441 0.892429
Si Si4 0.658783 0.388136 0.454184
Si Si5 0.607754 0.969311 0.268824
Si Si6 0.905741 0.560886 0.222281
Si Si7 0.937833 0.736046 0.238895
Si Si8 0.485155 0.694373 0.245292
O O1 0.551214 0.198025 0.815967
O O2 0.863974 0.089262 0.062502
O O3 0.798274 0.999687 0.800258
O O4 0.670994 0.038287 0.205186
O O5 0.093413 0.819408 0.671259
O O6 0.000000 0.000000 0.500000
O O7 0.287226 0.616003 0.810105
O O8 0.336217 0.705003 0.067183
O O9 0.991218 0.763646 0.993611
O O10 0.500000 0.500000 0.500000
O O11 0.569272 0.331599 0.505164
O O12 0.858582 0.332396 0.603882
O O13 0.774596 0.844349 0.314392
O O14 0.500000 0.000000 0.500000
O O15 0.500000 0.000000 0.000000
O O16 0.896737 0.659991 0.204195
O O17 0.694771 0.604630 0.210626
O O18 0.000000 0.500000 0.500000
O O19 0.000000 0.500000 0.000000
#
# Coordination Sequence:
#
# PCOD9098523 Si02
#       8
#     2   2   2   2   2   2   2   2
#     4  10  22  41  64 102 141 182 235 291 364 436
#     4  10  20  36  68 100 138 185 231 292 362 432
#     4  10  23  42  73 104 145 191 246 310 371 443
#     4  11  25  43  74 106 145 193 255 315 381 434
#     4  12  29  48  75 109 153 203 247 302 375 457
#     4  12  30  51  77 103 148 199 252 311 376 441
#     4  11  27  47  75 109 148 198 255 314 377 457
#     4  10  24  45  67 106 144 187 252 298 373 442
#
# _framework density 23.202749000000001
#
# number of rings (size 3 to 8) (size 9 to 14) (size 15 to 20)
#    0.000    1.250    1.250    2.250   14.000    2.000 
#    2.250    0.000    0.000    0.000    0.000    0.000 
#    0.000    0.000    0.000    0.000    0.000    0.000 
#
# Total GULP energy -89163.093345 kJ/mol
# GULP energy per Si atom -5572.693334 kJ/mol
# Density = 2.314994 g / cm^3
# Si number density = 23.202749 Si / 1000 Ang^3
#
#
#
# Elastic Constant Matrix: (Units=GPa)
#
#
# Indices 1 2 3 4 5 6 
#
# 1 106.7412 52.1794 34.1256 10.5716 -14.9431 -7.7252
# 2 52.1794 168.7849 65.3649 23.6874 -23.1879 -16.8401
# 3 34.1256 65.3649 97.8705 21.0099 -25.3689 -19.2867
# 4 10.5716 23.6874 21.0099 43.1021 -10.3259 -9.6325
# 5 -14.9431 -23.1879 -25.3689 -10.3259 38.4021 5.8046
# 6 -7.7252 -16.8401 -19.2867 -9.6325 5.8046 31.8074
#
#
#
# Elastic Compliance Matrix: (Units=1/GPa)
#
#
# Indices 1 2 3 4 5 6 
#
# 1 0.011460 -0.002601 -0.001809 -0.000106 0.001670 -0.000027
# 2 -0.002601 0.008810 -0.004202 -0.001755 0.000941 0.000781
# 3 -0.001809 -0.004202 0.017020 -0.002744 0.006410 0.005655
# 4 -0.000106 -0.001755 -0.002744 0.027550 0.003732 0.005043
# 5 0.001670 0.000941 0.006410 0.003732 0.032498 -0.000010
# 6 -0.000027 0.000781 0.005655 0.005043 -0.000010 0.036805
#
#
# Mechanical properties :
#
#
# Convention : Reuss Voigt Hill
#
# Bulk Modulus (GPa) = 49.83511 75.19294 62.51402
# Shear Modulus (GPa) = 31.63471 37.44409 34.53940
#
# Velocity S-wave (km/s) = 3.69644 4.02154 3.86241
# Velocity P-wave (km/s) = 6.30420 7.35126 6.84777
#
# Compressibility (1/GPa) = 0.02006617
#
# Stress axis : x y z
#
# Youngs Moduli (GPa) = 87.25661 113.51104 58.75568
#
# Poissons Ratio (x) = 0.29524 0.10627
# Poissons Ratio (y) = 0.22695 0.24690
# Poissons Ratio (z) = 0.15782 0.47699
#
# Static dielectric constant tensor:
#      x y z
#    x 2.007070 0.070500 -0.002110 
#    y 0.070500 1.883010 -0.000180 
#    z -0.002110 -0.000180 2.068720 
# 
# From -- ./inp_files/47413.got.cif
#   From: 2010.05.17/outbox.cif.g08.bks.cpg/sg2_24_cif.got.tgz:47413.got - 2010.06.03 11:33:40.
