data_PCOD9098446
_publ_section_title
;
Structure prediction by ZEFSAII (Michael W. Deem and Ramdas Pophale) SiO2 
 PCOD9098446
Probable space group: P -1
;
_chemical_formula_sum "Si O2"
_cell_formula_units_Z 16
_cell_length_a 18.478728
_cell_length_b 8.604465
_cell_length_c 12.341119
_cell_angle_alpha 50.645034
_cell_angle_beta 36.940741
_cell_angle_gamma 77.065770
_cell_volume 723.272162
_symmetry_space_group_name_H-M "P -1"
_symmetry_group_IT_number 2
_symmetry_cell_setting 'triclinic'
loop_
_space_group_symop_operation_xyz
x,y,z
-x,-y,-z
loop_
_atom_site_type_symbol
_atom_site_label
_atom_site_fract_x
_atom_site_fract_y
_atom_site_fract_z
Si Si1 0.007678 0.018942 0.286205
Si Si2 0.013296 0.488125 0.118950
Si Si3 0.463041 0.332207 0.223734
Si Si4 0.131107 0.031096 0.760155
Si Si5 0.436414 0.943966 0.275988
Si Si6 0.256698 0.345067 0.093500
Si Si7 0.718159 0.096246 0.740372
Si Si8 0.664713 0.559273 0.278218
O O1 0.024560 0.258720 0.212720
O O2 0.910804 0.949729 0.322408
O O3 0.186928 0.155436 0.992831
O O4 0.903313 0.779785 0.597727
O O5 0.866521 0.377758 0.418057
O O6 0.122851 0.780054 0.890299
O O7 0.000000 0.500000 0.000000
O O8 0.302234 0.255847 0.490965
O O9 0.442662 0.087561 0.310015
O O10 0.500000 0.500000 0.000000
O O11 0.602134 0.481517 0.072625
O O12 0.000000 0.000000 0.000000
O O13 0.357198 0.979177 0.255884
O O14 0.350343 0.647940 0.533405
O O15 0.603593 0.066918 0.977564
O O16 0.250534 0.101487 0.180517
O O17 0.302917 0.488481 0.861046
O O18 0.500000 0.500000 0.500000
#
# Coordination Sequence:
#
# PCOD9098446 Si02
#       8
#     2   2   2   2   2   2   2   2
#     4  10  21  41  64  87 125 170 209 257 313 370
#     4   9  18  35  57  87 121 156 209 257 305 367
#     4  12  23  41  65  95 132 161 207 257 322 383
#     4  11  23  35  62  98 128 159 202 265 322 369
#     4  11  22  38  64  93 125 168 208 264 315 371
#     4  11  23  42  65  95 127 168 207 261 318 381
#     4  10  20  36  66  92 120 162 218 263 311 362
#     4  12  25  41  65  94 127 166 221 263 306 374
#
# _framework density 22.121686
#
# number of rings (size 3 to 8) (size 9 to 14) (size 15 to 20)
#    0.000    1.250    3.750    4.125    3.500    0.500 
#    0.000    0.000    0.000    0.750    0.000    0.000 
#    0.000    0.000    0.000    0.000    0.000    0.000 
#
# Total GULP energy -89259.515020 kJ/mol
# GULP energy per Si atom -5578.719689 kJ/mol
# Density = 2.207134 g / cm^3
# Si number density = 22.121686 Si / 1000 Ang^3
#
#
#
# Elastic Constant Matrix: (Units=GPa)
#
#
# Indices 1 2 3 4 5 6 
#
# 1 49.4334 7.3671 30.1525 12.8657 -11.3284 11.1280
# 2 7.3671 28.8499 15.9489 1.6455 2.2901 4.9424
# 3 30.1525 15.9489 166.4899 22.2725 -14.2103 9.2328
# 4 12.8657 1.6455 22.2725 22.0220 3.3083 4.0162
# 5 -11.3284 2.2901 -14.2103 3.3083 39.2160 -2.0435
# 6 11.1280 4.9424 9.2328 4.0162 -2.0435 18.0073
#
#
#
# Elastic Compliance Matrix: (Units=1/GPa)
#
#
# Indices 1 2 3 4 5 6 
#
# 1 0.030762 -0.004686 -0.001628 -0.015079 0.009191 -0.012483
# 2 -0.004686 0.039459 -0.003796 0.005982 -0.005955 -0.007998
# 3 -0.001628 -0.003796 0.007911 -0.007247 0.003228 -0.000026
# 4 -0.015079 0.005982 -0.007247 0.063831 -0.012941 -0.004313
# 5 0.009191 -0.005955 0.003228 -0.012941 0.030800 0.000681
# 6 -0.012483 -0.007998 -0.000026 -0.004313 0.000681 0.066494
#
#
# Mechanical properties :
#
#
# Convention : Reuss Voigt Hill
#
# Bulk Modulus (GPa) = 17.26798 39.07889 28.17343
# Shear Modulus (GPa) = 17.93513 28.60271 23.26892
#
# Velocity S-wave (km/s) = 2.85045 3.59969 3.24676
# Velocity P-wave (km/s) = 4.31929 5.91446 5.17866
#
# Compressibility (1/GPa) = 0.05791066
#
# Stress axis : x y z
#
# Youngs Moduli (GPa) = 32.50795 25.34267 126.40148
#
# Poissons Ratio (x) = 0.11876 0.20581
# Poissons Ratio (y) = 0.15234 0.47986
# Poissons Ratio (z) = 0.05293 0.09621
#
# Static dielectric constant tensor:
#      x y z
#    x 1.873740 -0.050950 -0.106490 
#    y -0.050950 1.844470 0.046990 
#    z -0.106490 0.046990 2.246520 
# 
# From -- ./inp_files/331768.got.cif
#   From: 2010.05.17/outbox.cif.g08.bks.cpg/sg2_166_cif.got.tgz:331768.got - 2010.06.03 11:33:40.
