data_PCOD9098667
_publ_section_title
;
Structure prediction by ZEFSAII (Michael W. Deem and Ramdas Pophale) SiO2 
 PCOD9098667
Probable space group: P -1
;
_chemical_formula_sum "Si O2"
_cell_formula_units_Z 16
_cell_length_a 11.580373
_cell_length_b 8.950185
_cell_length_c 8.958214
_cell_angle_alpha 88.967207
_cell_angle_beta 77.882804
_cell_angle_gamma 55.382029
_cell_volume 741.146516
_symmetry_space_group_name_H-M "P -1"
_symmetry_group_IT_number 2
_symmetry_cell_setting 'triclinic'
loop_
_space_group_symop_operation_xyz
x,y,z
-x,-y,-z
loop_
_atom_site_type_symbol
_atom_site_label
_atom_site_fract_x
_atom_site_fract_y
_atom_site_fract_z
Si Si1 0.826775 0.924021 0.767185
Si Si2 0.074029 0.868799 0.126964
Si Si3 0.983392 0.685921 0.991561
Si Si4 0.323170 0.009635 0.781376
Si Si5 0.472439 0.370185 0.106631
Si Si6 0.505584 0.158236 0.826180
Si Si7 0.396484 0.619225 0.389068
Si Si8 0.170006 0.987666 0.561278
O O1 0.809572 0.103325 0.839830
O O2 0.665788 0.977029 0.825343
O O3 0.867047 0.904460 0.584170
O O4 0.955196 0.755730 0.828413
O O5 0.107023 0.683929 0.050331
O O6 0.962073 0.937008 0.292323
O O7 0.000000 0.000000 0.000000
O O8 0.832424 0.843708 0.106376
O O9 0.000000 0.500000 0.000000
O O10 0.394693 0.812451 0.843289
O O11 0.290778 0.991542 0.619734
O O12 0.417388 0.088816 0.777692
O O13 0.383372 0.498954 0.270252
O O14 0.500000 0.500000 0.000000
O O15 0.430638 0.278409 0.993807
O O16 0.538091 0.277698 0.708687
O O17 0.500000 0.500000 0.500000
O O18 0.243112 0.779168 0.496559
#
# Coordination Sequence:
#
# PCOD9098667 Si02
#       8
#     2   2   2   2   2   2   2   2
#     4  10  20  39  64  91 121 165 213 261 318 369
#     4   9  20  40  66  86 114 167 210 263 306 369
#     4  10  22  42  61  89 125 167 222 259 307 373
#     4  11  21  41  63  90 132 172 205 259 329 379
#     4  10  20  37  60  90 126 162 214 256 310 377
#     4  10  22  38  63  93 129 168 208 258 321 382
#     4  10  20  37  55  91 130 160 202 260 310 385
#     4  10  21  38  65  89 129 161 208 256 328 379
#
# _framework density 21.588173000000001
#
# number of rings (size 3 to 8) (size 9 to 14) (size 15 to 20)
#    0.000    2.000    2.500    0.750    0.000    2.000 
#   13.500    2.500    0.000    0.000    0.000    0.000 
#    0.000    0.000    0.000    0.000    0.000    0.000 
#
# Total GULP energy -89259.469829 kJ/mol
# GULP energy per Si atom -5578.716864 kJ/mol
# Density = 2.153904 g / cm^3
# Si number density = 21.588173 Si / 1000 Ang^3
#
#
#
# Elastic Constant Matrix: (Units=GPa)
#
#
# Indices 1 2 3 4 5 6 
#
# 1 98.3634 8.7056 32.4981 -1.6154 19.3178 22.0072
# 2 8.7056 102.8818 43.8554 -8.0063 10.0127 10.9468
# 3 32.4981 43.8554 152.8317 -2.6625 26.5314 4.9581
# 4 -1.6154 -8.0063 -2.6625 31.9765 -2.6387 2.6578
# 5 19.3178 10.0127 26.5314 -2.6387 30.3116 4.6692
# 6 22.0072 10.9468 4.9581 2.6578 4.6692 27.5511
#
#
#
# Elastic Compliance Matrix: (Units=1/GPa)
#
#
# Indices 1 2 3 4 5 6 
#
# 1 0.014336 0.001503 -0.002055 0.001325 -0.006058 -0.010779
# 2 0.001503 0.011942 -0.003368 0.003175 -0.000830 -0.005505
# 3 -0.002055 -0.003368 0.008856 -0.000891 -0.005784 0.002452
# 4 0.001325 0.003175 -0.000891 0.032756 0.002626 -0.005765
# 5 -0.006058 -0.000830 -0.005784 0.002626 0.042612 -0.001265
# 6 -0.010779 -0.005505 0.002452 -0.005765 -0.001265 0.047423
#
#
# Mechanical properties :
#
#
# Convention : Reuss Voigt Hill
#
# Bulk Modulus (GPa) = 36.64110 58.24391 47.44251
# Shear Modulus (GPa) = 28.59373 35.90237 32.24805
#
# Velocity S-wave (km/s) = 3.64333 4.08248 3.86914
# Velocity P-wave (km/s) = 5.89136 7.01857 6.47952
#
# Compressibility (1/GPa) = 0.02729175
#
# Stress axis : x y z
#
# Youngs Moduli (GPa) = 69.75669 83.73739 112.92068
#
# Poissons Ratio (x) = -0.12583 0.23206
# Poissons Ratio (y) = -0.10482 0.38036
# Poissons Ratio (z) = 0.14335 0.28206
#
# Static dielectric constant tensor:
#      x y z
#    x 1.857420 -0.006980 0.005020 
#    y -0.006980 1.816920 -0.011770 
#    z 0.005020 -0.011770 1.808160 
# 
# From -- ./inp_files/239004.got.cif
#   From: 2010.05.17/outbox.cif.g08.bks.cpg/sg2_120_cif.got.tgz:239004.got - 2010.06.03 11:33:40.
