data_PCOD9098342
_publ_section_title
;
Structure prediction by ZEFSAII (Michael W. Deem and Ramdas Pophale) SiO2 
 PCOD9098342
Probable space group: P -1
;
_chemical_formula_sum "Si O2"
_cell_formula_units_Z 16
_cell_length_a 7.574491
_cell_length_b 9.718063
_cell_length_c 12.646542
_cell_angle_alpha 96.113497
_cell_angle_beta 101.265346
_cell_angle_gamma 50.852097
_cell_volume 707.850775
_symmetry_space_group_name_H-M "P -1"
_symmetry_group_IT_number 2
_symmetry_cell_setting 'triclinic'
loop_
_space_group_symop_operation_xyz
x,y,z
-x,-y,-z
loop_
_atom_site_type_symbol
_atom_site_label
_atom_site_fract_x
_atom_site_fract_y
_atom_site_fract_z
Si Si1 0.904348 0.095306 0.781767
Si Si2 0.404055 0.670588 0.673755
Si Si3 0.646468 0.257095 0.098213
Si Si4 0.556545 0.615921 0.127407
Si Si5 0.097954 0.172542 0.371797
Si Si6 0.269320 0.308890 0.651148
Si Si7 0.181010 0.060784 0.614385
Si Si8 0.741344 0.597404 0.561894
O O1 0.694760 0.268897 0.833017
O O2 0.998529 0.137318 0.696146
O O3 0.121295 0.943562 0.869349
O O4 0.829302 0.983839 0.712669
O O5 0.484285 0.678985 0.799722
O O6 0.182324 0.679573 0.662646
O O7 0.612048 0.543523 0.610684
O O8 0.308449 0.854868 0.623426
O O9 0.673635 0.411182 0.098470
O O10 0.502034 0.281441 0.981634
O O11 0.706580 0.627372 0.230091
O O12 0.117223 0.106387 0.487898
O O13 0.225045 0.258354 0.383717
O O14 0.341029 0.116298 0.657974
O O15 0.373594 0.332850 0.561867
O O16 0.006175 0.421622 0.587871
#
# Coordination Sequence:
#
# PCOD9098342 Si02
#       8
#     2   2   2   2   2   2   2   2
#     4  10  20  36  65  87 115 159 198 242 299 351
#     4  10  20  37  63  78 117 165 185 240 311 333
#     4   9  22  43  57  90 117 149 210 252 283 363
#     4  11  22  38  68  81 117 161 197 249 306 338
#     4   9  19  36  57  89 121 154 198 237 289 373
#     4  10  22  37  52  94 118 147 201 245 285 372
#     4   9  20  35  55  87 125 145 198 243 284 372
#     4  10  22  37  58  85 129 153 187 251 299 346
#
# _framework density 22.603635000000001
#
# number of rings (size 3 to 8) (size 9 to 14) (size 15 to 20)
#    0.000    2.500    0.000    3.375    7.000    1.000 
#    0.000    5.625    5.500    0.000    0.000    0.000 
#    0.000    0.000    0.000    0.000    0.000    0.000 
#
# Total GULP energy -89153.788272 kJ/mol
# GULP energy per Si atom -5572.111767 kJ/mol
# Density = 2.255219 g / cm^3
# Si number density = 22.603635 Si / 1000 Ang^3
#
#
#
# Elastic Constant Matrix: (Units=GPa)
#
#
# Indices 1 2 3 4 5 6 
#
# 1 64.7814 4.4566 18.9717 -1.4920 2.6947 -5.0492
# 2 4.4566 78.8969 -2.6147 -8.2173 5.1832 7.2571
# 3 18.9717 -2.6147 127.1175 -10.5004 17.5395 1.0655
# 4 -1.4920 -8.2173 -10.5004 25.6438 1.0085 -4.9029
# 5 2.6947 5.1832 17.5395 1.0085 25.8132 10.7824
# 6 -5.0492 7.2571 1.0655 -4.9029 10.7824 16.2070
#
#
#
# Elastic Compliance Matrix: (Units=1/GPa)
#
#
# Indices 1 2 3 4 5 6 
#
# 1 0.017044 -0.001439 -0.001941 0.001686 -0.004142 0.009347
# 2 -0.001439 0.013719 0.001099 0.004003 -0.001703 -0.004319
# 3 -0.001941 0.001099 0.009961 0.005950 -0.009748 0.006534
# 4 0.001686 0.004003 0.005950 0.048113 -0.017019 0.024219
# 5 -0.004142 -0.001703 -0.009748 -0.017019 0.067727 -0.050094
# 6 0.009347 -0.004319 0.006534 0.024219 -0.050094 0.106771
#
#
# Mechanical properties :
#
#
# Convention : Reuss Voigt Hill
#
# Bulk Modulus (GPa) = 27.65441 34.71366 31.18404
# Shear Modulus (GPa) = 17.86030 30.19829 24.02929
#
# Velocity S-wave (km/s) = 2.81401 3.65909 3.26402
# Velocity P-wave (km/s) = 4.77695 5.76566 5.29444
#
# Compressibility (1/GPa) = 0.03616060
#
# Stress axis : x y z
#
# Youngs Moduli (GPa) = 58.67308 72.89358 100.39406
#
# Poissons Ratio (x) = 0.10491 0.19486
# Poissons Ratio (y) = 0.08444 -0.11032
# Poissons Ratio (z) = 0.11388 -0.08010
#
# Static dielectric constant tensor:
#      x y z
#    x 2.007500 -0.059500 -0.056390 
#    y -0.059500 1.986490 -0.002890 
#    z -0.056390 -0.002890 1.879110 
# 
# From -- ./inp_files/387624.got.cif
#   From: 2010.05.17/outbox.cif.g08.bks.cpg/sg2_194_cif.got.tgz:387624.got - 2010.06.03 11:33:40.
