data_PCOD9098462
_publ_section_title
;
Structure prediction by ZEFSAII (Michael W. Deem and Ramdas Pophale) SiO2 
 PCOD9098462
Probable space group: P -1
;
_chemical_formula_sum "Si O2"
_cell_formula_units_Z 15
_cell_length_a 8.126702
_cell_length_b 13.104531
_cell_length_c 15.654113
_cell_angle_alpha 155.542093
_cell_angle_beta 87.998854
_cell_angle_gamma 98.279869
_cell_volume 663.948383
_symmetry_space_group_name_H-M "P -1"
_symmetry_group_IT_number 2
_symmetry_cell_setting 'triclinic'
loop_
_space_group_symop_operation_xyz
x,y,z
-x,-y,-z
loop_
_atom_site_type_symbol
_atom_site_label
_atom_site_fract_x
_atom_site_fract_y
_atom_site_fract_z
Si Si1 0.281938 0.226684 0.286695
Si Si2 0.000000 0.500000 0.500000
Si Si3 0.986325 0.719225 0.858421
Si Si4 0.581912 0.151102 0.904411
Si Si5 0.611634 0.627197 0.786573
Si Si6 0.224590 0.938306 0.420866
Si Si7 0.420295 0.953323 0.598143
Si Si8 0.086281 0.420437 0.782781
O O1 0.175057 0.419213 0.464673
O O2 0.400035 0.339098 0.289115
O O3 0.377386 0.113059 0.272169
O O4 0.141036 0.970253 0.060252
O O5 0.974481 0.597624 0.672489
O O6 0.012179 0.519413 0.775630
O O7 0.806096 0.784405 0.927637
O O8 0.432226 0.104161 0.801478
O O9 0.523778 0.268007 0.079515
O O10 0.753257 0.348731 0.016864
O O11 0.601177 0.341295 0.600605
O O12 0.282932 0.978980 0.550429
O O13 0.069069 0.683347 0.227953
O O14 0.394145 0.940250 0.368025
O O15 0.157210 0.177113 0.576145
#
# Coordination Sequence:
#
# PCOD9098462 Si02
#       8
#     2   1   2   2   2   2   2   2
#     4  10  24  41  65  96 134 170 212 265 319 390
#     4  10  20  36  66  94 128 164 212 258 320 380
#     4  10  22  41  66  95 131 172 212 266 320 388
#     4  11  25  41  67 100 128 173 217 259 328 397
#     4  11  21  42  62  94 137 170 203 275 320 385
#     4  10  22  44  66  91 131 169 218 276 326 365
#     4  11  24  41  66  95 128 173 215 270 330 379
#     4  10  21  43  68  91 129 172 213 277 318 376
#
# _framework density 22.592120000000001
#
# number of rings (size 3 to 8) (size 9 to 14) (size 15 to 20)
#    0.000    1.600    2.667    2.000    1.867    5.867 
#    0.000    1.333    0.000    0.000    0.000    0.000 
#    0.000    0.000    0.000    0.000    0.000    0.000 
#
# Total GULP energy -83606.799863 kJ/mol
# GULP energy per Si atom -5573.786658 kJ/mol
# Density = 2.254070 g / cm^3
# Si number density = 22.592120 Si / 1000 Ang^3
#
#
#
# Elastic Constant Matrix: (Units=GPa)
#
#
# Indices 1 2 3 4 5 6 
#
# 1 71.3334 16.3433 15.8664 14.2808 5.9535 5.2315
# 2 16.3433 80.2908 26.5295 25.7254 0.5253 -3.7426
# 3 15.8664 26.5295 32.1711 15.0952 13.9302 7.7113
# 4 14.2808 25.7254 15.0952 30.3238 -4.9083 -0.1936
# 5 5.9535 0.5253 13.9302 -4.9083 29.6665 5.9020
# 6 5.2315 -3.7426 7.7113 -0.1936 5.9020 39.8573
#
#
#
# Elastic Compliance Matrix: (Units=1/GPa)
#
#
# Indices 1 2 3 4 5 6 
#
# 1 0.016394 -0.000159 -0.003903 -0.006011 -0.002228 -0.001111
# 2 -0.000159 0.020778 -0.016174 -0.008670 0.004964 0.004324
# 3 -0.003903 -0.016174 0.080908 -0.031248 -0.039923 -0.010900
# 4 -0.006011 -0.008670 -0.031248 0.062935 0.025951 0.002483
# 5 -0.002228 0.004964 -0.039923 0.025951 0.057076 0.000157
# 6 -0.001111 0.004324 -0.010900 0.002483 0.000157 0.027739
#
#
# Mechanical properties :
#
#
# Convention : Reuss Voigt Hill
#
# Bulk Modulus (GPa) = 12.88514 33.47486 23.18000
# Shear Modulus (GPa) = 15.05252 28.30661 21.67957
#
# Velocity S-wave (km/s) = 2.58403 3.54353 3.10111
# Velocity P-wave (km/s) = 3.82344 5.62062 4.80677
#
# Compressibility (1/GPa) = 0.07760878
#
# Stress axis : x y z
#
# Youngs Moduli (GPa) = 60.99819 48.12765 12.35977
#
# Poissons Ratio (x) = 0.00764 0.04824
# Poissons Ratio (y) = 0.00968 0.19990
# Poissons Ratio (z) = 0.23808 0.77840
#
# Static dielectric constant tensor:
#      x y z
#    x 1.829130 -0.010860 0.055540 
#    y -0.010860 1.849770 0.035320 
#    z 0.055540 0.035320 1.868200 
# 
# From -- ./inp_files/322800.got.cif
#   From: 2010.05.17/outbox.cif.g08.bks.cpg/sg2_162_cif.got.tgz:322800.got - 2010.06.03 11:33:40.
