data_PCOD9098769
_publ_section_title
;
Structure prediction by ZEFSAII (Michael W. Deem and Ramdas Pophale) SiO2 
 PCOD9098769
Probable space group: P -1
;
_chemical_formula_sum "Si O2"
_cell_formula_units_Z 16
_cell_length_a 18.824751
_cell_length_b 10.149624
_cell_length_c 7.939030
_cell_angle_alpha 117.332522
_cell_angle_beta 152.753132
_cell_angle_gamma 62.875003
_cell_volume 612.664804
_symmetry_space_group_name_H-M "P -1"
_symmetry_group_IT_number 2
_symmetry_cell_setting 'triclinic'
loop_
_space_group_symop_operation_xyz
x,y,z
-x,-y,-z
loop_
_atom_site_type_symbol
_atom_site_label
_atom_site_fract_x
_atom_site_fract_y
_atom_site_fract_z
Si Si1 0.607317 0.289691 0.716189
Si Si2 0.416650 0.377700 0.020382
Si Si3 0.704432 0.781201 0.865249
Si Si4 0.877054 0.643340 0.449427
Si Si5 0.102452 0.951028 0.525019
Si Si6 0.098544 0.452943 0.014807
Si Si7 0.866116 0.133345 0.942533
Si Si8 0.701633 0.278850 0.377539
O O1 0.525785 0.333441 0.387425
O O2 0.622380 0.443668 0.936854
O O3 0.481187 0.207461 0.507024
O O4 0.762104 0.189941 0.919185
O O5 0.517339 0.322385 0.037383
O O6 0.253997 0.310180 0.658078
O O7 0.767751 0.652793 0.060425
O O8 0.770160 0.931517 0.146536
O O9 0.806340 0.710677 0.882386
O O10 0.970371 0.488536 0.616724
O O11 0.006030 0.753114 0.755896
O O12 0.971030 0.980036 0.118439
O O13 0.204178 0.791800 0.626385
O O14 0.000000 0.000000 0.500000
O O15 0.225414 0.570045 0.336442
O O16 0.000000 0.500000 0.000000
O O17 0.753644 0.152194 0.555154
#
# Coordination Sequence:
#
# PCOD9098769 Si02
#       8
#     2   2   2   2   2   2   2   2
#     4   9  17  32  57  87 113 141 186 233 282 327
#     4   9  17  31  57  87 115 142 180 237 281 324
#     4  10  20  37  57  83 108 150 190 228 279 329
#     4   9  20  32  57  89 110 143 187 235 270 333
#     4  11  23  39  57  81 114 151 190 233 279 334
#     4  11  21  35  55  83 115 146 185 233 282 327
#     4   9  20  36  59  85 109 150 190 232 276 333
#     4  10  20  39  57  82 115 149 186 230 282 333
#
# _framework density 26.11542
#
# number of rings (size 3 to 8) (size 9 to 14) (size 15 to 20)
#    0.000    2.250    1.250    1.500    8.750    0.000 
#    0.000   15.000    0.000    0.000    0.000    0.000 
#    0.000    0.000    0.000    0.000    0.000    0.000 
#
# Total GULP energy -89425.873699 kJ/mol
# GULP energy per Si atom -5589.117106 kJ/mol
# Density = 2.605598 g / cm^3
# Si number density = 26.115420 Si / 1000 Ang^3
#
#
#
# Elastic Constant Matrix: (Units=GPa)
#
#
# Indices 1 2 3 4 5 6 
#
# 1 106.2775 21.4433 36.6981 -9.0015 20.4192 -33.5921
# 2 21.4433 101.7823 38.2521 -15.4748 11.9141 -34.1132
# 3 36.6981 38.2521 99.6870 -15.3734 38.9657 -11.7965
# 4 -9.0015 -15.4748 -15.3734 41.4220 -7.3304 5.9258
# 5 20.4192 11.9141 38.9657 -7.3304 57.5897 -15.9425
# 6 -33.5921 -34.1132 -11.7965 5.9258 -15.9425 44.7415
#
#
#
# Elastic Compliance Matrix: (Units=1/GPa)
#
#
# Indices 1 2 3 4 5 6 
#
# 1 0.014243 0.002982 -0.005403 0.000742 0.001388 0.011939
# 2 0.002982 0.016560 -0.007130 0.002975 0.004666 0.014253
# 3 -0.005403 -0.007130 0.018463 0.002298 -0.011287 -0.008951
# 4 0.000742 0.002975 0.002298 0.026404 0.001009 0.000293
# 5 0.001388 0.004666 -0.011287 0.001009 0.026720 0.011011
# 6 0.011939 0.014253 -0.008951 0.000293 0.011011 0.043706
#
#
# Mechanical properties :
#
#
# Convention : Reuss Voigt Hill
#
# Bulk Modulus (GPa) = 33.15317 55.61488 44.38403
# Shear Modulus (GPa) = 28.52999 42.84086 35.68543
#
# Velocity S-wave (km/s) = 3.30882 4.05463 3.70056
# Velocity P-wave (km/s) = 5.22687 6.57739 5.94063
#
# Compressibility (1/GPa) = 0.03016303
#
# Stress axis : x y z
#
# Youngs Moduli (GPa) = 70.20913 60.38805 54.16097
#
# Poissons Ratio (x) = -0.18005 0.29263
# Poissons Ratio (y) = -0.20933 0.38618
# Poissons Ratio (z) = 0.37933 0.43058
#
# Static dielectric constant tensor:
#      x y z
#    x 2.284660 -0.010630 -0.067630 
#    y -0.010630 2.009340 -0.045420 
#    z -0.067630 -0.045420 2.050910 
# 
# From -- ./inp_files/307479.got.cif
#   From: 2010.05.17/outbox.cif.g08.bks.cpg/sg2_154_cif.got.tgz:307479.got - 2010.06.03 11:33:40.
