data_PCOD9098075
_publ_section_title
;
Structure prediction by ZEFSAII (Michael W. Deem and Ramdas Pophale) SiO2 
 PCOD9098075
Probable space group: P -1
;
_chemical_formula_sum "Si O2"
_cell_formula_units_Z 14
_cell_length_a 14.007132
_cell_length_b 7.521905
_cell_length_c 10.251716
_cell_angle_alpha 80.810138
_cell_angle_beta 62.041946
_cell_angle_gamma 124.457431
_cell_volume 638.870640
_symmetry_space_group_name_H-M "P -1"
_symmetry_group_IT_number 2
_symmetry_cell_setting 'triclinic'
loop_
_space_group_symop_operation_xyz
x,y,z
-x,-y,-z
loop_
_atom_site_type_symbol
_atom_site_label
_atom_site_fract_x
_atom_site_fract_y
_atom_site_fract_z
Si Si1 0.378070 0.184104 0.635223
Si Si2 0.401863 0.326091 0.213175
Si Si3 0.386485 0.943937 0.891210
Si Si4 0.124504 0.250857 0.485018
Si Si5 0.871827 0.843315 0.213837
Si Si6 0.273121 0.797773 0.265251
Si Si7 0.596519 0.335355 0.286545
O O1 0.500000 0.500000 0.500000
O O2 0.205746 0.053673 0.732574
O O3 0.437836 0.108848 0.502153
O O4 0.389817 0.124223 0.779771
O O5 0.292537 0.353779 0.334013
O O6 0.532425 0.413024 0.221627
O O7 0.286077 0.012931 0.293122
O O8 0.500000 0.500000 0.000000
O O9 0.335699 0.729928 0.846133
O O10 0.560710 0.092282 0.808272
O O11 0.281056 0.829106 0.100537
O O12 0.079097 0.163533 0.674855
O O13 0.143581 0.488327 0.420716
O O14 0.000000 0.000000 0.500000
O O15 0.731068 0.548795 0.279109
O O16 0.000000 0.000000 0.000000
#
# Coordination Sequence:
#
# PCOD9098075 Si02
#       7
#     2   2   2   2   2   2   2
#     4  10  20  36  63  92 126 166 217 273 331 397
#     4  11  24  41  74 104 134 181 232 284 344 405
#     4  10  20  37  66 102 132 166 223 291 339 397
#     4  12  27  47  70  98 143 185 229 282 346 415
#     4  11  26  43  66  97 136 180 227 280 345 409
#     4  10  23  40  66 104 138 174 231 281 340 409
#     4  10  21  39  67  98 132 167 228 284 343 399
#
# _framework density 21.913671999999998
#
# number of rings (size 3 to 8) (size 9 to 14) (size 15 to 20)
#    0.000    1.429    1.429    4.714   10.000    1.714 
#    0.000    0.714    0.000    0.000    0.000    0.000 
#    0.000    0.000    0.000    0.000    0.000    0.000 
#
# Total GULP energy -78167.740655 kJ/mol
# GULP energy per Si atom -5583.410047 kJ/mol
# Density = 2.186380 g / cm^3
# Si number density = 21.913672 Si / 1000 Ang^3
#
#
#
# Elastic Constant Matrix: (Units=GPa)
#
#
# Indices 1 2 3 4 5 6 
#
# 1 58.5871 21.8348 35.2569 0.0658 29.6772 -10.3459
# 2 21.8348 116.5542 20.0317 19.1438 14.9885 -7.6140
# 3 35.2569 20.0317 136.9382 17.7821 34.9335 2.0909
# 4 0.0658 19.1438 17.7821 32.4840 4.9527 4.1530
# 5 29.6772 14.9885 34.9335 4.9527 49.4069 9.6032
# 6 -10.3459 -7.6140 2.0909 4.1530 9.6032 43.8662
#
#
#
# Elastic Compliance Matrix: (Units=1/GPa)
#
#
# Indices 1 2 3 4 5 6 
#
# 1 0.031404 -0.003120 -0.003971 0.005310 -0.017667 0.010419
# 2 -0.003120 0.010446 0.000418 -0.006427 -0.001327 0.001956
# 3 -0.003971 0.000418 0.010029 -0.005078 -0.004341 0.000089
# 4 0.005310 -0.006427 -0.005078 0.037858 -0.000858 -0.003017
# 5 -0.017667 -0.001327 -0.004341 -0.000858 0.036773 -0.012159
# 6 0.010419 0.001956 0.000089 -0.003017 -0.012159 0.028537
#
#
# Mechanical properties :
#
#
# Convention : Reuss Voigt Hill
#
# Bulk Modulus (GPa) = 25.95105 51.81404 38.88254
# Shear Modulus (GPa) = 27.58803 40.81516 34.20160
#
# Velocity S-wave (km/s) = 3.55201 4.32040 3.95491
# Velocity P-wave (km/s) = 5.35635 6.97021 6.21588
#
# Compressibility (1/GPa) = 0.03853409
#
# Stress axis : x y z
#
# Youngs Moduli (GPa) = 31.84286 95.72732 99.70824
#
# Poissons Ratio (x) = 0.29871 0.39593
# Poissons Ratio (y) = 0.09936 -0.04172
# Poissons Ratio (z) = 0.12644 -0.04005
#
# Static dielectric constant tensor:
#      x y z
#    x 1.820580 -0.060960 -0.012140 
#    y -0.060960 1.880690 0.011990 
#    z -0.012140 0.011990 1.811280 
# 
# From -- ./inp_files/295202.got.cif
#   From: 2010.05.17/outbox.cif.g08.bks.cpg/sg2_148_cif.got.tgz:295202.got - 2010.06.03 11:33:40.
