data_PCOD9098226
_publ_section_title
;
Structure prediction by ZEFSAII (Michael W. Deem and Ramdas Pophale) SiO2 
 PCOD9098226
Probable space group: P -1
;
_chemical_formula_sum "Si O2"
_cell_formula_units_Z 16
_cell_length_a 9.070971
_cell_length_b 10.824045
_cell_length_c 15.418257
_cell_angle_alpha 154.939749
_cell_angle_beta 70.644586
_cell_angle_gamma 107.107397
_cell_volume 604.906207
_symmetry_space_group_name_H-M "P -1"
_symmetry_group_IT_number 2
_symmetry_cell_setting 'triclinic'
loop_
_space_group_symop_operation_xyz
x,y,z
-x,-y,-z
loop_
_atom_site_type_symbol
_atom_site_label
_atom_site_fract_x
_atom_site_fract_y
_atom_site_fract_z
Si Si1 0.325181 0.605522 0.732549
Si Si2 0.374359 0.707568 0.483999
Si Si3 0.893465 0.283629 0.322233
Si Si4 0.868920 0.581182 0.759371
Si Si5 0.260413 0.786932 0.036909
Si Si6 0.085455 0.450109 0.072855
Si Si7 0.132703 0.099966 0.423006
Si Si8 0.602120 0.657877 0.153915
O O1 0.499932 0.487223 0.612692
O O2 0.230791 0.675166 0.707927
O O3 0.313154 0.839010 0.961094
O O4 0.230711 0.319136 0.602264
O O5 0.232168 0.801831 0.635011
O O6 0.297481 0.511036 0.300362
O O7 0.444381 0.003787 0.619251
O O8 0.000000 0.500000 0.500000
O O9 0.044939 0.194267 0.177551
O O10 0.868560 0.660569 0.910805
O O11 0.979300 0.286828 0.546895
O O12 0.384901 0.546575 0.894949
O O13 0.081989 0.675399 0.996169
O O14 0.237912 0.028414 0.270805
O O15 0.090806 0.800448 0.287172
O O16 0.217386 0.354856 0.919471
O O17 0.500000 0.500000 0.000000
#
# Coordination Sequence:
#
# PCOD9098226 Si02
#       8
#     2   2   2   2   2   2   2   2
#     4  11  23  39  64  93 123 163 209 253 307 386
#     4  11  22  38  63  87 126 172 198 251 324 357
#     4   9  20  41  66  90 118 159 212 264 302 363
#     4  10  20  36  64  91 118 159 215 254 303 370
#     4  11  22  38  62  92 127 163 210 252 309 364
#     4  11  20  37  61  89 124 162 211 253 305 366
#     4  10  20  37  60  89 126 160 203 262 306 360
#     4  11  25  40  58  93 133 164 201 258 309 375
#
# _framework density 26.450382999999999
#
# number of rings (size 3 to 8) (size 9 to 14) (size 15 to 20)
#    0.000    1.500    2.500    5.250    3.500    0.500 
#    0.000    0.625   11.000    4.500    0.000    0.000 
#    0.000    0.000    0.000    0.000    0.000    0.000 
#
# Total GULP energy -89338.978233 kJ/mol
# GULP energy per Si atom -5583.686140 kJ/mol
# Density = 2.639018 g / cm^3
# Si number density = 26.450383 Si / 1000 Ang^3
#
#
#
# Elastic Constant Matrix: (Units=GPa)
#
#
# Indices 1 2 3 4 5 6 
#
# 1 150.1325 19.6336 24.1414 0.1055 7.5063 -23.5315
# 2 19.6336 75.3362 19.7752 -13.4340 -2.3709 -13.4521
# 3 24.1414 19.7752 83.8528 -24.4050 -0.9870 -7.2817
# 4 0.1055 -13.4340 -24.4050 37.6803 -8.4110 5.1228
# 5 7.5063 -2.3709 -0.9870 -8.4110 48.4170 -9.6261
# 6 -23.5315 -13.4521 -7.2817 5.1228 -9.6261 41.2369
#
#
#
# Elastic Compliance Matrix: (Units=1/GPa)
#
#
# Indices 1 2 3 4 5 6 
#
# 1 0.007867 -0.001271 -0.002477 -0.002829 -0.001081 0.003736
# 2 -0.001271 0.015656 -0.001615 0.004546 0.002541 0.004125
# 3 -0.002477 -0.001615 0.016085 0.010375 0.002473 0.000188
# 4 -0.002829 0.004546 0.010375 0.036613 0.006991 -0.001216
# 5 -0.001081 0.002541 0.002473 0.006991 0.023246 0.005206
# 6 0.003736 0.004125 0.000188 -0.001216 0.005206 0.029127
#
#
# Mechanical properties :
#
#
# Convention : Reuss Voigt Hill
#
# Bulk Modulus (GPa) = 34.62412 48.49135 41.55773
# Shear Modulus (GPa) = 33.56874 41.85158 37.71016
#
# Velocity S-wave (km/s) = 3.56634 3.98209 3.77993
# Velocity P-wave (km/s) = 5.48425 6.28613 5.89883
#
# Compressibility (1/GPa) = 0.02888160
#
# Stress axis : x y z
#
# Youngs Moduli (GPa) = 127.11440 63.87238 62.17085
#
# Poissons Ratio (x) = 0.08121 0.15397
# Poissons Ratio (y) = 0.16162 0.10041
# Poissons Ratio (z) = 0.31481 0.10316
#
# Static dielectric constant tensor:
#      x y z
#    x 2.036980 -0.061810 -0.078880 
#    y -0.061810 2.258510 0.119330 
#    z -0.078880 0.119330 2.153120 
# 
# From -- ./inp_files/398739.got.cif
#   From: 2010.05.17/outbox.cif.g08.bks.cpg/sg2_200_cif.got.tgz:398739.got - 2010.06.03 11:33:40.
