data_PCOD9098884
_publ_section_title
;
Structure prediction by ZEFSAII (Michael W. Deem and Ramdas Pophale) SiO2 
 PCOD9098884
Probable space group: P -1
;
_chemical_formula_sum "Si O2"
_cell_formula_units_Z 16
_cell_length_a 19.345879
_cell_length_b 8.235671
_cell_length_c 17.553104
_cell_angle_alpha 114.707159
_cell_angle_beta 21.987930
_cell_angle_gamma 126.953007
_cell_volume 740.327682
_symmetry_space_group_name_H-M "P -1"
_symmetry_group_IT_number 2
_symmetry_cell_setting 'triclinic'
loop_
_space_group_symop_operation_xyz
x,y,z
-x,-y,-z
loop_
_atom_site_type_symbol
_atom_site_label
_atom_site_fract_x
_atom_site_fract_y
_atom_site_fract_z
Si Si1 0.035812 0.892011 0.771457
Si Si2 0.427359 0.856043 0.392835
Si Si3 0.026531 0.504645 0.847157
Si Si4 0.061828 0.810965 0.993336
Si Si5 0.689617 0.347164 0.039010
Si Si6 0.672836 0.765937 0.997336
Si Si7 0.816603 0.081285 0.768732
Si Si8 0.663213 0.754005 0.727963
O O1 0.287326 0.946708 0.525728
O O2 0.845660 0.621207 0.931019
O O3 0.928748 0.904660 0.804674
O O4 0.021418 0.038961 0.877547
O O5 0.513013 0.786678 0.221951
O O6 0.235725 0.634597 0.597377
O O7 0.658094 0.031975 0.243110
O O8 0.015492 0.689218 0.936695
O O9 0.065264 0.385594 0.850483
O O10 0.778510 0.314713 0.020445
O O11 0.427184 0.243574 0.262779
O O12 0.766023 0.252738 0.877666
O O13 0.544048 0.495409 0.072906
O O14 0.700809 0.881337 0.911479
O O15 0.096464 0.212865 0.511240
O O16 0.718181 0.958967 0.764069
#
# Coordination Sequence:
#
# PCOD9098884 Si02
#       8
#     2   2   2   2   2   2   2   2
#     4   9  20  36  57  84 114 147 190 228 274 336
#     4  10  20  37  58  82 117 152 183 230 281 326
#     4  10  21  38  60  83 115 149 187 234 279 332
#     4  10  21  39  58  85 115 147 190 233 276 330
#     4  10  20  37  58  84 115 148 186 231 282 334
#     4  10  21  37  58  85 115 149 189 230 276 334
#     4  11  22  38  60  84 113 148 189 233 280 337
#     4  10  22  39  59  84 114 148 186 233 286 331
#
# _framework density 21.612051999999998
#
# number of rings (size 3 to 8) (size 9 to 14) (size 15 to 20)
#    0.000    2.000    0.000    4.125    0.000    4.000 
#    0.000   12.500    0.000   10.500    0.000    0.000 
#    0.000    0.000    0.000    0.000    0.000    0.000 
#
# Total GULP energy -89377.215693 kJ/mol
# GULP energy per Si atom -5586.075981 kJ/mol
# Density = 2.156286 g / cm^3
# Si number density = 21.612052 Si / 1000 Ang^3
#
#
#
# Elastic Constant Matrix: (Units=GPa)
#
#
# Indices 1 2 3 4 5 6 
#
# 1 67.0955 5.9811 30.4764 -1.1831 -12.0218 10.9035
# 2 5.9811 108.4838 17.3433 16.6765 -8.2752 11.8645
# 3 30.4764 17.3433 77.4724 -5.4009 -14.9779 4.5417
# 4 -1.1831 16.6765 -5.4009 27.4809 -13.6928 -2.8617
# 5 -12.0218 -8.2752 -14.9779 -13.6928 29.1237 -9.5124
# 6 10.9035 11.8645 4.5417 -2.8617 -9.5124 36.2126
#
#
#
# Elastic Compliance Matrix: (Units=1/GPa)
#
#
# Indices 1 2 3 4 5 6 
#
# 1 0.019234 0.000700 -0.006792 0.000326 0.003412 -0.004247
# 2 0.000700 0.011943 -0.004639 -0.011912 -0.006310 -0.006141
# 3 -0.006792 -0.004639 0.020226 0.014731 0.015229 0.006193
# 4 0.000326 -0.011912 0.014731 0.070174 0.043501 0.018930
# 5 0.003412 -0.006310 0.015229 0.043501 0.068995 0.020691
# 6 -0.004247 -0.006141 0.006193 0.018930 0.020691 0.037060
#
#
# Mechanical properties :
#
#
# Convention : Reuss Voigt Hill
#
# Bulk Modulus (GPa) = 33.39937 40.07260 36.73599
# Shear Modulus (GPa) = 19.29958 31.84683 25.57320
#
# Velocity S-wave (km/s) = 2.99155 3.84287 3.44362
# Velocity P-wave (km/s) = 5.23642 6.18646 5.73116
#
# Compressibility (1/GPa) = 0.02994068
#
# Stress axis : x y z
#
# Youngs Moduli (GPa) = 51.99155 83.73453 49.44053
#
# Poissons Ratio (x) = -0.05861 0.33579
# Poissons Ratio (y) = -0.03639 0.22937
# Poissons Ratio (z) = 0.35311 0.38847
#
# Static dielectric constant tensor:
#      x y z
#    x 1.829360 -0.026410 -0.004310 
#    y -0.026410 1.792100 -0.014380 
#    z -0.004310 -0.014380 1.764540 
# 
# From -- ./inp_files/577351.got.cif
#   From: 2010.05.17/outbox.cif.g08.bks.cpg/sg2_289_cif.got.tgz:577351.got - 2010.06.03 11:33:40.
