data_PCOD9098576
_publ_section_title
;
Structure prediction by ZEFSAII (Michael W. Deem and Ramdas Pophale) SiO2 
 PCOD9098576
Probable space group: P -1
;
_chemical_formula_sum "Si O2"
_cell_formula_units_Z 16
_cell_length_a 11.217166
_cell_length_b 13.783091
_cell_length_c 7.502953
_cell_angle_alpha 74.313140
_cell_angle_beta 110.982011
_cell_angle_gamma 50.600991
_cell_volume 605.998373
_symmetry_space_group_name_H-M "P -1"
_symmetry_group_IT_number 2
_symmetry_cell_setting 'triclinic'
loop_
_space_group_symop_operation_xyz
x,y,z
-x,-y,-z
loop_
_atom_site_type_symbol
_atom_site_label
_atom_site_fract_x
_atom_site_fract_y
_atom_site_fract_z
Si Si1 0.720714 0.621057 0.618005
Si Si2 0.673031 0.233336 0.826848
Si Si3 0.748611 0.196728 0.278893
Si Si4 0.540459 0.010227 0.803027
Si Si5 0.144900 0.448865 0.857698
Si Si6 0.068383 0.723158 0.555908
Si Si7 0.398482 0.901781 0.738662
Si Si8 0.025872 0.152910 0.924730
O O1 0.552209 0.639576 0.465932
O O2 0.597034 0.801893 0.401710
O O3 0.956528 0.486340 0.716437
O O4 0.784926 0.585266 0.879217
O O5 0.830441 0.231251 0.899669
O O6 0.627249 0.254867 0.000659
O O7 0.832789 0.037060 0.959601
O O8 0.756825 0.309449 0.257728
O O9 0.654665 0.166356 0.366800
O O10 0.000000 0.000000 0.500000
O O11 0.451760 0.975957 0.651986
O O12 0.500000 0.000000 0.000000
O O13 0.784494 0.885390 0.929225
O O14 0.078077 0.603773 0.686115
O O15 0.363626 0.272848 0.961897
O O16 0.104006 0.714737 0.372553
O O17 0.825696 0.926271 0.363085
#
# Coordination Sequence:
#
# PCOD9098576 Si02
#       8
#     2   2   2   2   2   2   2   2
#     4  10  23  44  64  96 146 171 222 293 326 403
#     4  10  20  39  66 100 137 178 223 279 344 396
#     4  10  21  39  67 102 135 172 229 281 328 408
#     4  11  19  40  70  96 132 174 222 279 336 394
#     4  11  25  44  67 102 134 181 227 277 341 400
#     4  11  22  44  70  98 137 174 229 281 333 403
#     4  11  22  40  72  97 126 180 224 276 338 397
#     4  10  20  36  70 101 130 182 221 275 345 399
#
# _framework density 26.402709999999999
#
# number of rings (size 3 to 8) (size 9 to 14) (size 15 to 20)
#    0.000    1.500    5.000    0.750    1.750    4.000 
#    4.500    6.250    0.000    0.000    0.000    0.000 
#    0.000    0.000    0.000    0.000    0.000    0.000 
#
# Total GULP energy -89190.670860 kJ/mol
# GULP energy per Si atom -5574.416929 kJ/mol
# Density = 2.634262 g / cm^3
# Si number density = 26.402710 Si / 1000 Ang^3
#
#
#
# Elastic Constant Matrix: (Units=GPa)
#
#
# Indices 1 2 3 4 5 6 
#
# 1 193.3014 38.0443 32.8493 -2.8870 27.6997 3.9574
# 2 38.0443 73.4825 29.9709 -15.9911 3.9972 6.4009
# 3 32.8493 29.9709 98.4918 -0.7256 5.2749 -17.7698
# 4 -2.8870 -15.9911 -0.7256 44.6136 2.4382 4.5436
# 5 27.6997 3.9972 5.2749 2.4382 59.4799 6.2318
# 6 3.9574 6.4009 -17.7698 4.5436 6.2318 16.7116
#
#
#
# Elastic Compliance Matrix: (Units=1/GPa)
#
#
# Indices 1 2 3 4 5 6 
#
# 1 0.006281 -0.002544 -0.001356 -0.000295 -0.002524 -0.000933
# 2 -0.002544 0.023328 -0.010506 0.010254 0.002564 -0.023248
# 3 -0.001356 -0.010506 0.018802 -0.006148 -0.002917 0.027097
# 4 -0.000295 0.010254 -0.006148 0.027786 0.000765 -0.018235
# 5 -0.002524 0.002564 -0.002917 0.000765 0.019179 -0.010846
# 6 -0.000933 -0.023248 0.027097 -0.018235 -0.010846 0.106780
#
#
# Mechanical properties :
#
#
# Convention : Reuss Voigt Hill
#
# Bulk Modulus (GPa) = 51.02570 63.00051 57.01311
# Shear Modulus (GPa) = 21.05246 41.78844 31.42045
#
# Velocity S-wave (km/s) = 2.82682 3.98267 3.45345
# Velocity P-wave (km/s) = 5.47927 6.71283 6.12717
#
# Compressibility (1/GPa) = 0.01959797
#
# Stress axis : x y z
#
# Youngs Moduli (GPa) = 159.21507 42.86687 53.18499
#
# Poissons Ratio (x) = 0.10906 0.07212
# Poissons Ratio (y) = 0.40508 0.55878
# Poissons Ratio (z) = 0.21590 0.45038
#
# Static dielectric constant tensor:
#      x y z
#    x 2.337930 0.025340 0.035040 
#    y 0.025340 2.138740 0.050800 
#    z 0.035040 0.050800 2.102040 
# 
# From -- ./inp_files/272673.got.cif
#   From: 2010.05.17/outbox.cif.g08.bks.cpg/sg2_137_cif.got.tgz:272673.got - 2010.06.03 11:33:40.
