data_PCOD9098825
_publ_section_title
;
Structure prediction by ZEFSAII (Michael W. Deem and Ramdas Pophale) SiO2 
 PCOD9098825
Probable space group: P -1
;
_chemical_formula_sum "Si O2"
_cell_formula_units_Z 15
_cell_length_a 15.780448
_cell_length_b 6.855646
_cell_length_c 8.025794
_cell_angle_alpha 106.477150
_cell_angle_beta 129.537179
_cell_angle_gamma 62.380323
_cell_volume 593.230479
_symmetry_space_group_name_H-M "P -1"
_symmetry_group_IT_number 2
_symmetry_cell_setting 'triclinic'
loop_
_space_group_symop_operation_xyz
x,y,z
-x,-y,-z
loop_
_atom_site_type_symbol
_atom_site_label
_atom_site_fract_x
_atom_site_fract_y
_atom_site_fract_z
Si Si1 0.798262 0.968826 0.935008
Si Si2 0.555535 0.953545 0.775579
Si Si3 0.403595 0.460196 0.752042
Si Si4 0.000000 0.000000 0.500000
Si Si5 0.343692 0.845724 0.512754
Si Si6 0.059583 0.399159 0.771575
Si Si7 0.285108 0.263247 0.779297
Si Si8 0.999045 0.895941 0.793191
O O1 0.677397 0.959558 0.854994
O O2 0.755216 0.094804 0.739580
O O3 0.880493 0.091754 0.150811
O O4 0.888469 0.716695 0.013701
O O5 0.467466 0.206517 0.719204
O O6 0.469189 0.830214 0.582402
O O7 0.600361 0.838545 0.981527
O O8 0.366316 0.628853 0.594889
O O9 0.296347 0.458452 0.732243
O O10 0.500000 0.500000 0.000000
O O11 0.009112 0.742249 0.424244
O O12 0.914273 0.024332 0.570464
O O13 0.299867 0.058795 0.628988
O O14 0.172605 0.346427 0.778374
O O15 0.997694 0.658892 0.764240
O O16 0.000000 0.000000 0.000000
#
# Coordination Sequence:
#
# PCOD9098825 Si02
#       8
#     2   2   2   1   2   2   2   2
#     4  10  25  40  63  96 135 177 229 287 347 415
#     4  10  20  37  57  89 132 180 231 278 330 400
#     4  11  19  32  60  89 131 181 224 275 333 390
#     4  10  24  48  76 108 130 178 230 288 364 426
#     4  11  21  37  58  96 135 178 233 283 330 404
#     4  10  24  47  73  98 138 180 226 291 358 424
#     4  10  21  36  62  95 130 178 233 278 331 412
#     4  11  26  48  73 105 142 178 231 293 361 434
#
# _framework density 25.285281999999999
#
# number of rings (size 3 to 8) (size 9 to 14) (size 15 to 20)
#    0.000    1.600    2.667    1.600    3.733    5.867 
#    2.400    0.000    0.000    0.000    0.000    0.000 
#    0.000    0.000    0.000    0.000    0.000    0.000 
#
# Total GULP energy -83518.100362 kJ/mol
# GULP energy per Si atom -5567.873357 kJ/mol
# Density = 2.522773 g / cm^3
# Si number density = 25.285282 Si / 1000 Ang^3
#
#
#
# Elastic Constant Matrix: (Units=GPa)
#
#
# Indices 1 2 3 4 5 6 
#
# 1 113.1994 48.6998 35.3936 -6.2441 2.8775 30.6512
# 2 48.6998 181.6221 43.3033 -17.7958 -11.9055 48.0427
# 3 35.3936 43.3033 53.9170 -21.9101 10.4495 21.1426
# 4 -6.2441 -17.7958 -21.9101 36.0603 9.5488 -5.9182
# 5 2.8775 -11.9055 10.4495 9.5488 46.8006 -0.5300
# 6 30.6512 48.0427 21.1426 -5.9182 -0.5300 44.4086
#
#
#
# Elastic Compliance Matrix: (Units=1/GPa)
#
#
# Indices 1 2 3 4 5 6 
#
# 1 0.012587 -0.000472 -0.007963 -0.004142 0.001673 -0.004919
# 2 -0.000472 0.008807 -0.005137 -0.000912 0.003525 -0.006836
# 3 -0.007963 -0.005137 0.044303 0.026167 -0.016124 -0.006744
# 4 -0.004142 -0.000912 0.026167 0.046065 -0.015249 -0.002656
# 5 0.001673 0.003525 -0.016124 -0.015249 0.028884 0.001021
# 6 -0.004919 -0.006836 -0.006744 -0.002656 0.001021 0.036178
#
#
# Mechanical properties :
#
#
# Convention : Reuss Voigt Hill
#
# Bulk Modulus (GPa) = 25.93686 67.05911 46.49799
# Shear Modulus (GPa) = 23.06071 40.21003 31.63537
#
# Velocity S-wave (km/s) = 3.02325 3.99213 3.54098
# Velocity P-wave (km/s) = 4.73990 6.91578 5.92852
#
# Compressibility (1/GPa) = 0.03855516
#
# Stress axis : x y z
#
# Youngs Moduli (GPa) = 79.44463 113.54335 22.57184
#
# Poissons Ratio (x) = 0.05356 0.17973
# Poissons Ratio (y) = 0.03747 0.11595
# Poissons Ratio (z) = 0.63259 0.58326
#
# Static dielectric constant tensor:
#      x y z
#    x 2.220530 -0.007270 0.023190 
#    y -0.007270 1.909020 0.099610 
#    z 0.023190 0.099610 1.640200 
# 
# From -- ./inp_files/322806.got.cif
#   From: 2010.05.17/outbox.cif.g08.bks.cpg/sg2_162_cif.got.tgz:322806.got - 2010.06.03 11:33:40.
