data_PCOD9098221
_publ_section_title
;
Structure prediction by ZEFSAII (Michael W. Deem and Ramdas Pophale) SiO2 
 PCOD9098221
Probable space group: P -1
;
_chemical_formula_sum "Si O2"
_cell_formula_units_Z 15
_cell_length_a 8.930773
_cell_length_b 10.443765
_cell_length_c 8.625314
_cell_angle_alpha 123.110591
_cell_angle_beta 83.297811
_cell_angle_gamma 71.260960
_cell_volume 593.261271
_symmetry_space_group_name_H-M "P -1"
_symmetry_group_IT_number 2
_symmetry_cell_setting 'triclinic'
loop_
_space_group_symop_operation_xyz
x,y,z
-x,-y,-z
loop_
_atom_site_type_symbol
_atom_site_label
_atom_site_fract_x
_atom_site_fract_y
_atom_site_fract_z
Si Si1 0.844014 0.814424 0.994151
Si Si2 0.891894 0.296412 0.688490
Si Si3 0.500000 0.500000 0.000000
Si Si4 0.995394 0.992520 0.252150
Si Si5 0.546901 0.885026 0.263496
Si Si6 0.372473 0.752264 0.979564
Si Si7 0.388226 0.205075 0.265298
Si Si8 0.910815 0.521474 0.356683
O O1 0.739206 0.809825 0.854665
O O2 0.033623 0.665534 0.843064
O O3 0.864793 0.981348 0.140161
O O4 0.744903 0.786414 0.133469
O O5 0.979702 0.146694 0.707964
O O6 0.999526 0.397802 0.712342
O O7 0.920921 0.182093 0.454076
O O8 0.695446 0.417123 0.829207
O O9 0.603597 0.435694 0.114076
O O10 0.188061 0.912321 0.116118
O O11 0.500000 0.000000 0.500000
O O12 0.473184 0.028146 0.231779
O O13 0.465597 0.756980 0.143332
O O14 0.480827 0.759863 0.828938
O O15 0.282611 0.351487 0.498765
O O16 0.000000 0.500000 0.500000
#
# Coordination Sequence:
#
# PCOD9098221 Si02
#       8
#     2   2   1   2   2   2   2   2
#     4  10  22  41  65 100 128 167 225 265 327 385
#     4  10  21  38  62  92 138 172 212 266 331 381
#     4  10  20  36  64  90 130 180 208 256 324 394
#     4  10  23  39  66  98 131 169 215 270 330 386
#     4  11  24  40  68  95 126 169 224 270 321 388
#     4  10  21  43  66  92 135 171 214 263 332 383
#     4  10  22  45  68  93 131 176 217 273 322 387
#     4  10  21  41  65  91 129 176 216 264 326 387
#
# _framework density 25.283965999999999
#
# number of rings (size 3 to 8) (size 9 to 14) (size 15 to 20)
#    0.000    1.867    0.000    4.800    7.467    1.600 
#    4.800   11.333    0.000    0.000    0.000    0.933 
#    0.000    0.000    0.000    0.000    0.000    0.000 
#
# Total GULP energy -83661.733755 kJ/mol
# GULP energy per Si atom -5577.448917 kJ/mol
# Density = 2.522642 g / cm^3
# Si number density = 25.283966 Si / 1000 Ang^3
#
#
#
# Elastic Constant Matrix: (Units=GPa)
#
#
# Indices 1 2 3 4 5 6 
#
# 1 92.2584 2.6911 55.6261 -13.5559 -20.1622 -4.6228
# 2 2.6911 66.5647 26.3043 -13.0348 -19.7561 -0.7250
# 3 55.6261 26.3043 157.2474 11.6258 -27.8927 -6.2496
# 4 -13.5559 -13.0348 11.6258 29.3216 5.9563 -13.0259
# 5 -20.1622 -19.7561 -27.8927 5.9563 51.3176 -5.0466
# 6 -4.6228 -0.7250 -6.2496 -13.0259 -5.0466 28.0558
#
#
#
# Elastic Compliance Matrix: (Units=1/GPa)
#
#
# Indices 1 2 3 4 5 6 
#
# 1 0.021082 0.008755 -0.009058 0.021801 0.005457 0.012786
# 2 0.008755 0.023868 -0.006825 0.020994 0.007629 0.011658
# 3 -0.009058 -0.006825 0.011814 -0.014676 0.001387 -0.005602
# 4 0.021801 0.020994 -0.014676 0.074685 0.003560 0.036181
# 5 0.005457 0.007629 0.001387 0.003560 0.025663 0.007674
# 6 0.012786 0.011658 -0.005602 0.036181 0.007674 0.054982
#
#
# Mechanical properties :
#
#
# Convention : Reuss Voigt Hill
#
# Bulk Modulus (GPa) = 23.52523 53.92372 38.72447
# Shear Modulus (GPa) = 20.78826 37.16895 28.97860
#
# Velocity S-wave (km/s) = 2.87050 3.83830 3.38912
# Velocity P-wave (km/s) = 4.50677 6.40444 5.53750
#
# Compressibility (1/GPa) = 0.04250756
#
# Stress axis : x y z
#
# Youngs Moduli (GPa) = 47.43452 41.89647 84.64600
#
# Poissons Ratio (x) = -0.36681 0.76671
# Poissons Ratio (y) = -0.41530 0.57775
# Poissons Ratio (z) = 0.42966 0.28596
#
# Static dielectric constant tensor:
#      x y z
#    x 1.923010 -0.254700 -0.062310 
#    y -0.254700 1.460750 -0.195950 
#    z -0.062310 -0.195950 1.971040 
# 
# From -- ./inp_files/182340.got.cif
#   From: 2010.05.17/outbox.cif.g08.bks.cpg/sg2_92_cif.got.tgz:182340.got - 2010.06.03 11:33:40.
