data_PCOD9098713
_publ_section_title
;
Structure prediction by ZEFSAII (Michael W. Deem and Ramdas Pophale) SiO2 
 PCOD9098713
Probable space group: P -1
;
_chemical_formula_sum "Si O2"
_cell_formula_units_Z 16
_cell_length_a 23.571805
_cell_length_b 7.022249
_cell_length_c 10.535492
_cell_angle_alpha 136.241065
_cell_angle_beta 46.217473
_cell_angle_gamma 101.423609
_cell_volume 693.893707
_symmetry_space_group_name_H-M "P -1"
_symmetry_group_IT_number 2
_symmetry_cell_setting 'triclinic'
loop_
_space_group_symop_operation_xyz
x,y,z
-x,-y,-z
loop_
_atom_site_type_symbol
_atom_site_label
_atom_site_fract_x
_atom_site_fract_y
_atom_site_fract_z
Si Si1 0.241614 0.189927 0.678078
Si Si2 0.555626 0.540253 0.610664
Si Si3 0.937392 0.816178 0.650459
Si Si4 0.259377 0.752847 0.948413
Si Si5 0.585960 0.526987 0.835561
Si Si6 0.329391 0.857141 0.123842
Si Si7 0.029180 0.602390 0.130363
Si Si8 0.395381 0.170363 0.808688
O O1 0.225132 0.518597 0.927650
O O2 0.313451 0.852166 0.486356
O O3 0.291826 0.116969 0.425079
O O4 0.137262 0.278374 0.852355
O O5 0.624236 0.547307 0.407677
O O6 0.563055 0.660888 0.794167
O O7 0.619085 0.120685 0.322641
O O8 0.442792 0.692951 0.836067
O O9 0.000000 0.500000 0.500000
O O10 0.963719 0.703776 0.407048
O O11 0.961467 0.089470 0.765885
O O12 0.818701 0.017485 0.932002
O O13 0.262848 0.976153 0.159558
O O14 0.500000 0.500000 0.000000
O O15 0.593244 0.766875 0.033278
O O16 0.327823 0.546591 0.031939
O O17 0.000000 0.500000 0.000000
O O18 0.500000 0.000000 0.500000
#
# Coordination Sequence:
#
# PCOD9098713 Si02
#       8
#     2   2   2   2   2   2   2   2
#     4  10  22  38  62  87 117 157 201 246 306 369
#     4  11  22  34  55  87 118 162 196 236 296 349
#     4  10  24  46  66  98 128 162 215 273 327 391
#     4  11  24  38  58  85 124 158 193 249 310 366
#     4  11  19  36  56  83 116 156 201 243 281 353
#     4  10  20  37  56  86 120 157 203 239 287 363
#     4  10  22  45  73  94 124 168 213 269 335 383
#     4   9  18  33  55  78 111 154 204 238 278 336
#
# _framework density 23.058285999999999
#
# number of rings (size 3 to 8) (size 9 to 14) (size 15 to 20)
#    0.000    1.750    3.750    1.875    3.500    2.000 
#    6.750    0.000    0.000    0.000    0.000    0.000 
#    0.000    0.000    0.000    0.000    0.000    0.000 
#
# Total GULP energy -89361.589102 kJ/mol
# GULP energy per Si atom -5585.099319 kJ/mol
# Density = 2.300580 g / cm^3
# Si number density = 23.058286 Si / 1000 Ang^3
#
#
#
# Elastic Constant Matrix: (Units=GPa)
#
#
# Indices 1 2 3 4 5 6 
#
# 1 176.5843 32.4537 41.0416 3.3199 0.9207 -10.2526
# 2 32.4537 61.3404 14.3033 14.3260 -4.9583 -7.6807
# 3 41.0416 14.3033 80.8372 6.0012 -16.7679 -2.0052
# 4 3.3199 14.3260 6.0012 33.4299 -2.6714 -6.4978
# 5 0.9207 -4.9583 -16.7679 -2.6714 43.3322 1.1215
# 6 -10.2526 -7.6807 -2.0052 -6.4978 1.1215 26.8939
#
#
#
# Elastic Compliance Matrix: (Units=1/GPa)
#
#
# Indices 1 2 3 4 5 6 
#
# 1 0.007171 -0.003234 -0.003515 0.001546 -0.001839 0.001998
# 2 -0.003234 0.020491 -0.001046 -0.007643 0.001469 0.002633
# 3 -0.003515 -0.001046 0.015675 -0.001764 0.005942 -0.001144
# 4 0.001546 -0.007643 -0.001764 0.034672 0.000376 0.006637
# 5 -0.001839 0.001469 0.005942 0.000376 0.025628 -0.000816
# 6 0.001998 0.002633 -0.001144 0.006637 -0.000816 0.040249
#
#
# Mechanical properties :
#
#
# Convention : Reuss Voigt Hill
#
# Bulk Modulus (GPa) = 36.04070 54.92879 45.48474
# Shear Modulus (GPa) = 29.63387 36.12876 32.88132
#
# Velocity S-wave (km/s) = 3.58882 3.96263 3.78035
# Velocity P-wave (km/s) = 5.73036 6.69403 6.23085
#
# Compressibility (1/GPa) = 0.02774641
#
# Stress axis : x y z
#
# Youngs Moduli (GPa) = 139.45265 48.80222 63.79422
#
# Poissons Ratio (x) = 0.15782 0.22425
# Poissons Ratio (y) = 0.45096 0.06675
# Poissons Ratio (z) = 0.49020 0.05106
#
# Static dielectric constant tensor:
#      x y z
#    x 1.870940 -0.022570 0.002550 
#    y -0.022570 1.953760 -0.049460 
#    z 0.002550 -0.049460 1.942220 
# 
# From -- ./inp_files/469656.got.cif
#   From: 2010.05.17/outbox.cif.g08.bks.cpg/sg2_235_cif.got.tgz:469656.got - 2010.06.03 11:33:40.
