data_PCOD9098962
_publ_section_title
;
Structure prediction by ZEFSAII (Michael W. Deem and Ramdas Pophale) SiO2 
 PCOD9098962
Probable space group: P -1
;
_chemical_formula_sum "Si O2"
_cell_formula_units_Z 12
_cell_length_a 22.931182
_cell_length_b 10.785794
_cell_length_c 11.740924
_cell_angle_alpha 36.253964
_cell_angle_beta 29.890248
_cell_angle_gamma 20.145701
_cell_volume 497.922512
_symmetry_space_group_name_H-M "P -1"
_symmetry_group_IT_number 2
_symmetry_cell_setting 'triclinic'
loop_
_space_group_symop_operation_xyz
x,y,z
-x,-y,-z
loop_
_atom_site_type_symbol
_atom_site_label
_atom_site_fract_x
_atom_site_fract_y
_atom_site_fract_z
Si Si1 0.138111 0.926760 0.903263
Si Si2 0.351437 0.042052 0.876067
Si Si3 0.932465 0.560815 0.253157
Si Si4 0.804294 0.767931 0.554854
Si Si5 0.512828 0.250838 0.886730
Si Si6 0.485490 0.281763 0.384624
O O1 0.280279 0.588875 0.994154
O O2 0.015173 0.272697 0.928317
O O3 0.259178 0.915064 0.627915
O O4 0.000000 0.000000 0.000000
O O5 0.352558 0.282548 0.652576
O O6 0.512457 0.706258 0.764274
O O7 0.145602 0.200924 0.102017
O O8 0.429542 0.932541 0.954699
O O9 0.876963 0.542181 0.484162
O O10 0.720803 0.878429 0.311645
O O11 0.000000 0.500000 0.500000
O O12 0.632702 0.977888 0.780828
O O13 0.561717 0.428343 0.691381
#
# Coordination Sequence:
#
# PCOD9098962 Si02
#       6
#     2   2   2   2   2   2
#     4   9  21  35  57  90 120 156 195 241 308 365
#     4  11  22  41  63  88 119 165 205 248 299 356
#     4   9  21  38  61  85 126 155 197 254 299 356
#     4  10  20  37  58  88 118 155 193 243 308 354
#     4  11  21  40  63  86 128 155 199 254 301 361
#     4  10  24  40  62  89 120 162 209 247 297 353
#
# _framework density 24.100135999999999
#
# number of rings (size 3 to 8) (size 9 to 14) (size 15 to 20)
#    1.000    1.000    1.667    1.500    2.333    1.333 
#    0.000    2.500    0.000    8.000    0.000    0.000 
#    0.000    0.000    0.000    0.000    0.000    0.000 
#
# Total GULP energy -66868.233095 kJ/mol
# GULP energy per Si atom -5572.352758 kJ/mol
# Density = 2.404528 g / cm^3
# Si number density = 24.100136 Si / 1000 Ang^3
#
#
#
# Elastic Constant Matrix: (Units=GPa)
#
#
# Indices 1 2 3 4 5 6 
#
# 1 56.2215 -1.1502 44.9725 -6.2479 18.8251 -1.3527
# 2 -1.1502 52.4674 30.6391 -5.6050 12.7391 -5.6851
# 3 44.9725 30.6391 146.1866 4.9435 29.8312 0.1920
# 4 -6.2479 -5.6050 4.9435 29.5119 -0.9403 -3.4430
# 5 18.8251 12.7391 29.8312 -0.9403 50.0825 -10.6819
# 6 -1.3527 -5.6851 0.1920 -3.4430 -10.6819 37.1570
#
#
#
# Elastic Compliance Matrix: (Units=1/GPa)
#
#
# Indices 1 2 3 4 5 6 
#
# 1 0.029304 0.009273 -0.009849 0.009554 -0.007029 0.001401
# 2 0.009273 0.026203 -0.007704 0.008535 -0.004578 0.003861
# 3 -0.009849 -0.007704 0.012159 -0.005987 -0.002293 -0.002814
# 4 0.009554 0.008535 -0.005987 0.039128 -0.000351 0.005209
# 5 -0.007029 -0.004578 -0.002293 -0.000351 0.026553 0.006656
# 6 0.001401 0.003861 -0.002814 0.005209 0.006656 0.029966
#
#
# Mechanical properties :
#
#
# Convention : Reuss Voigt Hill
#
# Bulk Modulus (GPa) = 19.56713 44.86649 32.21681
# Shear Modulus (GPa) = 25.39249 35.37788 30.38518
#
# Velocity S-wave (km/s) = 3.24948 3.83554 3.55461
# Velocity P-wave (km/s) = 4.71334 6.18646 5.49945
#
# Compressibility (1/GPa) = 0.05110612
#
# Stress axis : x y z
#
# Youngs Moduli (GPa) = 34.12510 38.16305 82.24094
#
# Poissons Ratio (x) = -0.35389 0.81000
# Poissons Ratio (y) = -0.31644 0.63360
# Poissons Ratio (z) = 0.33610 0.29401
#
# Static dielectric constant tensor:
#      x y z
#    x 1.967180 -0.025370 0.001660 
#    y -0.025370 2.221710 0.010760 
#    z 0.001660 0.010760 2.035180 
# 
# From -- ./inp_files/474737.got.cif
#   From: 2010.05.17/outbox.cif.g08.bks.cpg/sg2_238_cif.got.tgz:474737.got - 2010.06.03 11:33:40.
