data_PCOD9098639
_publ_section_title
;
Structure prediction by ZEFSAII (Michael W. Deem and Ramdas Pophale) SiO2 
 PCOD9098639
Probable space group: P -1
;
_chemical_formula_sum "Si O2"
_cell_formula_units_Z 14
_cell_length_a 9.256508
_cell_length_b 21.583386
_cell_length_c 9.417541
_cell_angle_alpha 43.708819
_cell_angle_beta 30.483740
_cell_angle_gamma 47.639201
_cell_volume 652.557447
_symmetry_space_group_name_H-M "P -1"
_symmetry_group_IT_number 2
_symmetry_cell_setting 'triclinic'
loop_
_space_group_symop_operation_xyz
x,y,z
-x,-y,-z
loop_
_atom_site_type_symbol
_atom_site_label
_atom_site_fract_x
_atom_site_fract_y
_atom_site_fract_z
Si Si1 0.856032 0.092953 0.036373
Si Si2 0.559013 0.837037 0.504442
Si Si3 0.993227 0.591053 0.258880
Si Si4 0.819839 0.489130 0.309833
Si Si5 0.545245 0.282856 0.444023
Si Si6 0.764532 0.682675 0.789443
Si Si7 0.665327 0.249625 0.728808
O O1 0.686208 0.154705 0.953321
O O2 0.116646 0.140270 0.804046
O O3 0.635666 0.088031 0.360307
O O4 0.000000 0.000000 0.000000
O O5 0.419170 0.810131 0.521547
O O6 0.577550 0.743734 0.732502
O O7 0.000000 0.500000 0.500000
O O8 0.844623 0.561025 0.291394
O O9 0.781629 0.671053 0.378017
O O10 0.265454 0.639387 0.897667
O O11 0.500000 0.500000 0.500000
O O12 0.028081 0.397343 0.334963
O O13 0.000000 0.500000 0.000000
O O14 0.580748 0.258978 0.620613
O O15 0.007031 0.732015 0.575318
O O16 0.537232 0.678929 0.116786
#
# Coordination Sequence:
#
# PCOD9098639 Si02
#       7
#     2   2   2   2   2   2   2
#     4  10  21  41  65  94 121 148 190 239 293 360
#     4  10  22  38  63  87 116 159 193 233 293 359
#     4  12  26  40  57  83 120 161 199 254 303 334
#     4  12  23  36  56  82 111 151 201 253 293 328
#     4  12  23  41  58  85 120 155 203 243 290 360
#     4  10  20  37  55  80 112 153 203 240 285 353
#     4  10  21  37  62  85 115 157 192 240 296 346
#
# _framework density 21.454049999999999
#
# number of rings (size 3 to 8) (size 9 to 14) (size 15 to 20)
#    0.000    1.143    0.000    7.714    0.000    3.429 
#    0.000    1.429    0.000    0.000    0.000    0.000 
#    0.000    0.000    0.000    0.000    0.000    0.000 
#
# Total GULP energy -77960.154211 kJ/mol
# GULP energy per Si atom -5568.582444 kJ/mol
# Density = 2.140522 g / cm^3
# Si number density = 21.454050 Si / 1000 Ang^3
#
#
#
# Elastic Constant Matrix: (Units=GPa)
#
#
# Indices 1 2 3 4 5 6 
#
# 1 93.4689 12.5852 22.4086 2.6923 10.4177 15.6614
# 2 12.5852 98.0095 -0.6525 19.2542 3.8672 2.9626
# 3 22.4086 -0.6525 100.2871 24.4011 -4.4386 -4.6407
# 4 2.6923 19.2542 24.4011 35.3349 -2.6624 -1.0144
# 5 10.4177 3.8672 -4.4386 -2.6624 24.1499 4.4106
# 6 15.6614 2.9626 -4.6407 -1.0144 4.4106 25.7927
#
#
#
# Elastic Compliance Matrix: (Units=1/GPa)
#
#
# Indices 1 2 3 4 5 6 
#
# 1 0.013754 -0.001812 -0.004215 0.002266 -0.004706 -0.008008
# 2 -0.001812 0.012140 0.002429 -0.008276 -0.001646 0.000099
# 3 -0.004215 0.002429 0.013683 -0.010179 0.002094 0.003984
# 4 0.002266 -0.008276 -0.010179 0.039865 0.003094 -0.001218
# 5 -0.004706 -0.001646 0.002094 0.003094 0.045192 -0.004183
# 6 -0.008008 0.000099 0.003984 -0.001218 -0.004183 0.045006
#
#
# Mechanical properties :
#
#
# Convention : Reuss Voigt Hill
#
# Bulk Modulus (GPa) = 30.88213 40.04980 35.46596
# Shear Modulus (GPa) = 26.64841 34.21711 30.43276
#
# Velocity S-wave (km/s) = 3.52819 3.99796 3.77040
# Velocity P-wave (km/s) = 5.56986 6.32612 5.95999
#
# Compressibility (1/GPa) = 0.03238119
#
# Stress axis : x y z
#
# Youngs Moduli (GPa) = 72.70477 82.37504 73.08466
#
# Poissons Ratio (x) = 0.14923 0.30806
# Poissons Ratio (y) = 0.13171 -0.17752
# Poissons Ratio (z) = 0.30646 -0.20009
#
# Static dielectric constant tensor:
#      x y z
#    x 1.752130 0.057350 0.057530 
#    y 0.057350 1.656210 -0.079440 
#    z 0.057530 -0.079440 1.821400 
# 
# From -- ./inp_files/215024.got.cif
#   From: 2010.05.17/outbox.cif.g08.bks.cpg/sg2_108_cif.got.tgz:215024.got - 2010.06.03 11:33:40.
