data_PCOD9098510
_publ_section_title
;
Structure prediction by ZEFSAII (Michael W. Deem and Ramdas Pophale) SiO2 
 PCOD9098510
Probable space group: P -1
;
_chemical_formula_sum "Si O2"
_cell_formula_units_Z 16
_cell_length_a 9.664281
_cell_length_b 9.125469
_cell_length_c 22.553929
_cell_angle_alpha 25.209767
_cell_angle_beta 66.176248
_cell_angle_gamma 70.653647
_cell_volume 772.030332
_symmetry_space_group_name_H-M "P -1"
_symmetry_group_IT_number 2
_symmetry_cell_setting 'triclinic'
loop_
_space_group_symop_operation_xyz
x,y,z
-x,-y,-z
loop_
_atom_site_type_symbol
_atom_site_label
_atom_site_fract_x
_atom_site_fract_y
_atom_site_fract_z
Si Si1 0.324322 0.338387 0.290228
Si Si2 0.110626 0.824933 0.339599
Si Si3 0.909663 0.136813 0.166023
Si Si4 0.280224 0.320391 0.439252
Si Si5 0.637742 0.201968 0.281942
Si Si6 0.756831 0.961459 0.013862
Si Si7 0.905919 0.870977 0.138109
Si Si8 0.976178 0.865200 0.642203
O O1 0.354941 0.372656 0.342942
O O2 0.464844 0.152954 0.307649
O O3 0.162878 0.125975 0.382227
O O4 0.306054 0.709547 0.127025
O O5 0.266193 0.670153 0.350980
O O6 0.000000 0.500000 0.500000
O O7 0.101135 0.108681 0.288872
O O8 0.036101 0.951371 0.247146
O O9 0.767289 0.152073 0.229277
O O10 0.859206 0.925980 0.193060
O O11 0.000000 0.500000 0.000000
O O12 0.339881 0.041893 0.575918
O O13 0.109233 0.168823 0.506715
O O14 0.661315 0.604303 0.148639
O O15 0.787740 0.002184 0.063701
O O16 0.927431 0.926928 0.972367
O O17 0.941778 0.483264 0.255965
#
# Coordination Sequence:
#
# PCOD9098510 Si02
#       8
#     2   2   2   2   2   2   2   2
#     4  11  25  38  65  93 126 164 206 250 319 367
#     4  10  20  39  64  92 121 157 206 263 301 349
#     4  12  23  37  65  94 123 160 208 252 309 364
#     4  11  22  43  66  90 121 168 210 253 305 370
#     4  12  23  44  59  92 132 164 198 261 310 371
#     4  10  20  40  62  90 123 157 208 260 300 367
#     4  10  20  36  67  95 116 160 214 254 301 355
#     4  10  20  41  66  91 122 157 209 258 297 359
#
# _framework density 20.724574
#
# number of rings (size 3 to 8) (size 9 to 14) (size 15 to 20)
#    0.000    1.250    5.000    2.625    3.500    1.000 
#    0.000    2.500    0.000    0.000    0.000    0.000 
#    0.000    0.000    0.000    0.000    0.000    0.000 
#
# Total GULP energy -89281.137002 kJ/mol
# GULP energy per Si atom -5580.071063 kJ/mol
# Density = 2.067740 g / cm^3
# Si number density = 20.724574 Si / 1000 Ang^3
#
#
#
# Elastic Constant Matrix: (Units=GPa)
#
#
# Indices 1 2 3 4 5 6 
#
# 1 69.1598 19.6511 25.1765 -0.0673 18.0773 -8.8122
# 2 19.6511 118.4740 38.6269 6.9693 17.1570 9.4573
# 3 25.1765 38.6269 90.8788 4.6235 24.4691 1.5196
# 4 -0.0673 6.9693 4.6235 27.4019 7.7473 6.7997
# 5 18.0773 17.1570 24.4691 7.7473 23.5869 3.4970
# 6 -8.8122 9.4573 1.5196 6.7997 3.4970 22.2250
#
#
#
# Elastic Compliance Matrix: (Units=1/GPa)
#
#
# Indices 1 2 3 4 5 6 
#
# 1 0.020958 -0.001836 -0.000987 0.002543 -0.016157 0.010923
# 2 -0.001836 0.010502 -0.003328 -0.000435 -0.001965 -0.004527
# 3 -0.000987 -0.003328 0.016573 0.001837 -0.014866 0.001669
# 4 0.002543 -0.000435 0.001837 0.043304 -0.016336 -0.009611
# 5 -0.016157 -0.001965 -0.014866 -0.016336 0.078768 -0.011949
# 6 0.010923 -0.004527 0.001669 -0.009611 -0.011949 0.055958
#
#
# Mechanical properties :
#
#
# Convention : Reuss Voigt Hill
#
# Bulk Modulus (GPa) = 27.98776 49.49129 38.73952
# Shear Modulus (GPa) = 19.97790 27.64664 23.81227
#
# Velocity S-wave (km/s) = 3.10816 3.65636 3.39335
# Velocity P-wave (km/s) = 5.13953 6.46202 5.83834
#
# Compressibility (1/GPa) = 0.03572991
#
# Stress axis : x y z
#
# Youngs Moduli (GPa) = 47.71485 95.22143 60.33876
#
# Poissons Ratio (x) = 0.17483 0.05958
# Poissons Ratio (y) = 0.08761 0.20081
# Poissons Ratio (z) = 0.04711 0.31690
#
# Static dielectric constant tensor:
#      x y z
#    x 1.727940 0.007300 -0.035560 
#    y 0.007300 1.813190 0.012020 
#    z -0.035560 0.012020 1.759630 
# 
# From -- ./inp_files/587705.got.cif
#   From: 2010.05.17/outbox.cif.g08.bks.cpg/sg2_294_cif.got.tgz:587705.got - 2010.06.03 11:33:40.
