data_PCOD9098085
_publ_section_title
;
Structure prediction by ZEFSAII (Michael W. Deem and Ramdas Pophale) SiO2 
 PCOD9098085
Probable space group: P -1
;
_chemical_formula_sum "Si O2"
_cell_formula_units_Z 14
_cell_length_a 6.837988
_cell_length_b 8.498052
_cell_length_c 13.369998
_cell_angle_alpha 108.000880
_cell_angle_beta 58.764712
_cell_angle_gamma 79.972528
_cell_volume 575.909577
_symmetry_space_group_name_H-M "P -1"
_symmetry_group_IT_number 2
_symmetry_cell_setting 'triclinic'
loop_
_space_group_symop_operation_xyz
x,y,z
-x,-y,-z
loop_
_atom_site_type_symbol
_atom_site_label
_atom_site_fract_x
_atom_site_fract_y
_atom_site_fract_z
Si Si1 0.068079 0.185896 0.922498
Si Si2 0.132640 0.460342 0.835284
Si Si3 0.020583 0.803287 0.480164
Si Si4 0.637508 0.350724 0.816951
Si Si5 0.564917 0.828511 0.750952
Si Si6 0.507119 0.515272 0.385564
Si Si7 0.546212 0.226280 0.019393
O O1 0.032601 0.310206 0.857380
O O2 0.321432 0.009562 0.823338
O O3 0.042754 0.336526 0.043149
O O4 0.821307 0.148034 0.983097
O O5 0.391613 0.392318 0.819412
O O6 0.234324 0.469494 0.703120
O O7 0.788672 0.809777 0.610766
O O8 0.111598 0.712671 0.329011
O O9 0.266185 0.693568 0.457609
O O10 0.000000 0.000000 0.500000
O O11 0.588520 0.554497 0.902304
O O12 0.619848 0.208902 0.877202
O O13 0.508286 0.652529 0.704674
O O14 0.602000 0.832033 0.864383
O O15 0.500000 0.500000 0.500000
#
# Coordination Sequence:
#
# PCOD9098085 Si02
#       7
#     2   2   2   2   2   2   2
#     4  10  20  37  63  88 124 165 202 254 316 366
#     4   9  19  41  60  86 126 164 201 255 312 377
#     4  11  24  45  64  88 131 173 206 255 320 385
#     4   9  19  39  61  86 121 160 205 249 316 367
#     4  12  22  40  66  92 126 165 211 262 314 369
#     4  11  24  42  63  94 127 162 213 265 314 368
#     4  10  20  36  63  93 119 155 212 260 300 370
#
# _framework density 24.309370000000001
#
# number of rings (size 3 to 8) (size 9 to 14) (size 15 to 20)
#    0.000    1.714    4.286    2.571    0.000    2.286 
#    7.714    3.571    0.000    0.000    0.000    0.000 
#    0.000    0.000    0.000    0.000    0.000    0.000 
#
# Total GULP energy -78075.437680 kJ/mol
# GULP energy per Si atom -5576.816977 kJ/mol
# Density = 2.425404 g / cm^3
# Si number density = 24.309370 Si / 1000 Ang^3
#
#
#
# Elastic Constant Matrix: (Units=GPa)
#
#
# Indices 1 2 3 4 5 6 
#
# 1 37.9092 7.7035 22.1569 -0.3990 -10.5523 3.4942
# 2 7.7035 107.9019 58.5271 -9.0487 -20.1190 -15.5466
# 3 22.1569 58.5271 182.6343 -38.4379 -33.8092 -14.6753
# 4 -0.3990 -9.0487 -38.4379 68.6110 -9.1769 -9.7641
# 5 -10.5523 -20.1190 -33.8092 -9.1769 39.8045 -13.5898
# 6 3.4942 -15.5466 -14.6753 -9.7641 -13.5898 34.6564
#
#
#
# Elastic Compliance Matrix: (Units=1/GPa)
#
#
# Indices 1 2 3 4 5 6 
#
# 1 0.029806 -0.000499 -0.004032 -0.002587 0.001956 -0.004898
# 2 -0.000499 0.013883 0.000092 0.005375 0.012557 0.012756
# 3 -0.004032 0.000092 0.013570 0.012645 0.019339 0.017340
# 4 -0.002587 0.005375 0.012645 0.030268 0.029328 0.028055
# 5 0.001956 0.012557 0.019339 0.029328 0.072333 0.050252
# 6 -0.004898 0.012756 0.017340 0.028055 0.050252 0.070023
#
#
# Mechanical properties :
#
#
# Convention : Reuss Voigt Hill
#
# Bulk Modulus (GPa) = 20.66907 56.13560 38.40234
# Shear Modulus (GPa) = 19.61656 44.61823 32.11739
#
# Velocity S-wave (km/s) = 2.84378 4.28884 3.63877
# Velocity P-wave (km/s) = 4.39360 6.90419 5.78669
#
# Compressibility (1/GPa) = 0.04838147
#
# Stress axis : x y z
#
# Youngs Moduli (GPa) = 33.55083 72.02939 73.69296
#
# Poissons Ratio (x) = 0.03593 0.29712
# Poissons Ratio (y) = 0.01674 -0.00679
# Poissons Ratio (z) = 0.13527 -0.00664
#
# Static dielectric constant tensor:
#      x y z
#    x 2.084160 0.078900 0.054870 
#    y 0.078900 1.987550 -0.068310 
#    z 0.054870 -0.068310 2.037950 
# 
# From -- ./inp_files/347671.got.cif
#   From: 2010.05.17/outbox.cif.g08.bks.cpg/sg2_174_cif.got.tgz:347671.got - 2010.06.03 11:33:40.
