data_PCOD9098813
_publ_section_title
;
Structure prediction by ZEFSAII (Michael W. Deem and Ramdas Pophale) SiO2 
 PCOD9098813
Probable space group: P -1
;
_chemical_formula_sum "Si O2"
_cell_formula_units_Z 14
_cell_length_a 10.518773
_cell_length_b 7.771872
_cell_length_c 7.963972
_cell_angle_alpha 108.696875
_cell_angle_beta 112.982985
_cell_angle_gamma 100.497698
_cell_volume 531.313102
_symmetry_space_group_name_H-M "P -1"
_symmetry_group_IT_number 2
_symmetry_cell_setting 'triclinic'
loop_
_space_group_symop_operation_xyz
x,y,z
-x,-y,-z
loop_
_atom_site_type_symbol
_atom_site_label
_atom_site_fract_x
_atom_site_fract_y
_atom_site_fract_z
Si Si1 0.718653 0.789664 0.719437
Si Si2 0.068850 0.487841 0.806737
Si Si3 0.974928 0.041950 0.730639
Si Si4 0.562025 0.153673 0.309463
Si Si5 0.229318 0.550326 0.231028
Si Si6 0.312064 0.475137 0.707266
Si Si7 0.256988 0.114737 0.745203
O O1 0.604071 0.894158 0.733403
O O2 0.713689 0.628975 0.805211
O O3 0.673205 0.646909 0.487383
O O4 0.876220 0.946242 0.807326
O O5 0.151098 0.487591 0.675349
O O6 0.012815 0.268737 0.784761
O O7 0.920833 0.535149 0.760283
O O8 0.186452 0.604772 0.043890
O O9 0.861008 0.941615 0.489051
O O10 0.136156 0.023554 0.799809
O O11 0.661207 0.272748 0.553491
O O12 0.590790 0.306285 0.218955
O O13 0.624959 0.987922 0.243966
O O14 0.332739 0.345846 0.832001
#
# Coordination Sequence:
#
# PCOD9098813 Si02
#       7
#     2   2   2   2   2   2   2
#     4  10  22  36  56  90 115 149 193 236 294 336
#     4  10  20  37  57  88 113 152 193 238 295 336
#     4   9  18  35  56  87 113 146 192 246 284 338
#     4  11  21  38  60  88 119 150 191 242 286 347
#     4  10  21  35  57  84 121 148 190 241 289 346
#     4   9  20  35  59  84 112 151 195 237 280 338
#     4   9  18  34  58  86 115 144 198 244 283 327
#
# _framework density 26.349807999999999
#
# number of rings (size 3 to 8) (size 9 to 14) (size 15 to 20)
#    0.000    2.286    1.429    2.571    2.000    4.000 
#    2.571    2.857    0.000    3.429    0.000    0.000 
#    0.000    0.000    0.000    0.000    0.000    0.000 
#
# Total GULP energy -78269.769950 kJ/mol
# GULP energy per Si atom -5590.697854 kJ/mol
# Density = 2.628983 g / cm^3
# Si number density = 26.349808 Si / 1000 Ang^3
#
#
#
# Elastic Constant Matrix: (Units=GPa)
#
#
# Indices 1 2 3 4 5 6 
#
# 1 178.8031 29.5894 35.5324 -6.8041 -4.0950 -33.2885
# 2 29.5894 60.4907 16.4887 -0.2857 0.5603 -5.7538
# 3 35.5324 16.4887 91.1431 -5.1565 0.5470 11.1886
# 4 -6.8041 -0.2857 -5.1565 21.6863 4.0945 2.3498
# 5 -4.0950 0.5603 0.5470 4.0945 29.5928 -1.9193
# 6 -33.2885 -5.7538 11.1886 2.3498 -1.9193 37.0202
#
#
#
# Elastic Compliance Matrix: (Units=1/GPa)
#
#
# Indices 1 2 3 4 5 6 
#
# 1 0.008352 -0.002248 -0.003866 0.000431 0.001754 0.008393
# 2 -0.002248 0.018549 -0.002764 -0.001247 -0.000324 0.001760
# 3 -0.003866 -0.002764 0.014226 0.003389 -0.001767 -0.008512
# 4 0.000431 -0.001247 0.003389 0.048826 -0.007014 -0.004293
# 5 0.001754 -0.000324 -0.001767 -0.007014 0.035325 0.004338
# 6 0.008393 0.001760 -0.008512 -0.004293 0.004338 0.037903
#
#
# Mechanical properties :
#
#
# Convention : Reuss Voigt Hill
#
# Bulk Modulus (GPa) = 42.78630 54.85088 48.81859
# Shear Modulus (GPa) = 26.49330 34.24828 30.37079
#
# Velocity S-wave (km/s) = 3.17432 3.60912 3.39868
# Velocity P-wave (km/s) = 5.45051 6.18298 5.82827
#
# Compressibility (1/GPa) = 0.02337197
#
# Stress axis : x y z
#
# Youngs Moduli (GPa) = 119.73120 53.91184 70.29269
#
# Poissons Ratio (x) = 0.12117 0.27174
# Poissons Ratio (y) = 0.26911 0.19429
# Poissons Ratio (z) = 0.46287 0.14902
#
# Static dielectric constant tensor:
#      x y z
#    x 2.101840 -0.004890 -0.032260 
#    y -0.004890 2.053740 -0.018550 
#    z -0.032260 -0.018550 2.167690 
# 
# From -- ./inp_files/159988.got.cif
#   From: 2010.05.17/outbox.cif.g08.bks.cpg/sg2_80_cif.got.tgz:159988.got - 2010.06.03 11:33:40.
