data_PCOD9098009
_publ_section_title
;
Structure prediction by ZEFSAII (Michael W. Deem and Ramdas Pophale) SiO2 
 PCOD9098009
Probable space group: P -1
;
_chemical_formula_sum "Si O2"
_cell_formula_units_Z 14
_cell_length_a 12.682754
_cell_length_b 9.820305
_cell_length_c 12.113414
_cell_angle_alpha 102.637800
_cell_angle_beta 44.552462
_cell_angle_gamma 126.670782
_cell_volume 789.556879
_symmetry_space_group_name_H-M "P -1"
_symmetry_group_IT_number 2
_symmetry_cell_setting 'triclinic'
loop_
_space_group_symop_operation_xyz
x,y,z
-x,-y,-z
loop_
_atom_site_type_symbol
_atom_site_label
_atom_site_fract_x
_atom_site_fract_y
_atom_site_fract_z
Si Si1 0.451836 0.325832 0.335996
Si Si2 0.096387 0.415610 0.455639
Si Si3 0.085859 0.262436 0.661174
Si Si4 0.093320 0.404762 0.910661
Si Si5 0.052250 0.151540 0.073858
Si Si6 0.908601 0.043363 0.402555
Si Si7 0.494618 0.452969 0.868782
O O1 0.319507 0.364137 0.503309
O O2 0.669870 0.442327 0.238552
O O3 0.462897 0.388515 0.213785
O O4 0.314419 0.108499 0.415038
O O5 0.049444 0.350108 0.606383
O O6 0.331725 0.552340 0.287302
O O7 0.000000 0.500000 0.500000
O O8 0.017225 0.235385 0.413362
O O9 0.029775 0.284253 0.826409
O O10 0.999107 0.056259 0.661532
O O11 0.036475 0.284715 0.040787
O O12 0.000000 0.500000 0.000000
O O13 0.919719 0.067989 0.266978
O O14 0.277967 0.271606 0.966251
O O15 0.000000 0.000000 0.000000
O O16 0.500000 0.500000 0.000000
#
# Coordination Sequence:
#
# PCOD9098009 Si02
#       7
#     2   2   2   2   2   2   2
#     4   8  20  37  60  83 114 160 205 224 295 366
#     4  11  23  37  59  93 119 152 196 257 306 341
#     4   9  20  37  62  79 115 162 197 229 288 372
#     4  11  22  37  60  90 122 152 190 254 306 338
#     4  11  21  39  62  89 118 158 206 244 290 360
#     4  10  20  38  63  80 117 156 208 230 288 366
#     4  10  20  36  63  86 118 160 202 243 292 362
#
# _framework density 17.731465
#
# number of rings (size 3 to 8) (size 9 to 14) (size 15 to 20)
#    0.857    1.143    2.857    0.857    2.000    1.143 
#    2.571    0.714    0.000    2.571    0.000    0.000 
#    0.000    0.000    0.000    0.000    0.000    0.000 
#
# Total GULP energy -77987.601647 kJ/mol
# GULP energy per Si atom -5570.542975 kJ/mol
# Density = 1.769111 g / cm^3
# Si number density = 17.731465 Si / 1000 Ang^3
#
#
#
# Elastic Constant Matrix: (Units=GPa)
#
#
# Indices 1 2 3 4 5 6 
#
# 1 107.8172 48.2335 35.3986 4.8996 0.0208 -13.7919
# 2 48.2335 84.0526 25.5568 -2.7842 -7.9012 -4.0115
# 3 35.3986 25.5568 66.7177 -7.0006 14.5036 -3.0591
# 4 4.8996 -2.7842 -7.0006 25.0352 -1.8825 1.0728
# 5 0.0208 -7.9012 14.5036 -1.8825 22.7249 6.7271
# 6 -13.7919 -4.0115 -3.0591 1.0728 6.7271 31.5023
#
#
#
# Elastic Compliance Matrix: (Units=1/GPa)
#
#
# Indices 1 2 3 4 5 6 
#
# 1 0.015217 -0.007107 -0.005428 -0.005617 -0.001165 0.005670
# 2 -0.007107 0.018745 -0.005809 0.002890 0.011615 -0.003867
# 3 -0.005428 -0.005809 0.024812 0.005854 -0.018251 0.002992
# 4 -0.005617 0.002890 0.005854 0.043287 0.001865 -0.003395
# 5 -0.001165 0.011615 -0.018251 0.001865 0.064159 -0.014567
# 6 0.005670 -0.003867 0.002992 -0.003395 -0.014567 0.037250
#
#
# Mechanical properties :
#
#
# Convention : Reuss Voigt Hill
#
# Bulk Modulus (GPa) = 45.27396 52.99614 49.13505
# Shear Modulus (GPa) = 20.20037 25.81239 23.00638
#
# Velocity S-wave (km/s) = 3.37892 3.81955 3.60598
# Velocity P-wave (km/s) = 6.38838 7.02887 6.71627
#
# Compressibility (1/GPa) = 0.02208775
#
# Stress axis : x y z
#
# Youngs Moduli (GPa) = 65.71539 53.34791 40.30260
#
# Poissons Ratio (x) = 0.37914 0.21875
# Poissons Ratio (y) = 0.46704 0.23411
# Poissons Ratio (z) = 0.35668 0.30988
#
# Static dielectric constant tensor:
#      x y z
#    x 1.602900 0.007560 0.007270 
#    y 0.007560 1.612990 -0.030680 
#    z 0.007270 -0.030680 1.612620 
# 
# From -- ./inp_files/415113.got.cif
#   From: 2010.05.17/outbox.cif.g08.bks.cpg/sg2_208_cif.got.tgz:415113.got - 2010.06.03 11:33:40.
