data_PCOD9098077
_publ_section_title
;
Structure prediction by ZEFSAII (Michael W. Deem and Ramdas Pophale) SiO2 
 PCOD9098077
Probable space group: P -1
;
_chemical_formula_sum "Si O2"
_cell_formula_units_Z 16
_cell_length_a 11.457773
_cell_length_b 7.190411
_cell_length_c 11.424763
_cell_angle_alpha 125.316505
_cell_angle_beta 73.487309
_cell_angle_gamma 83.281127
_cell_volume 687.098072
_symmetry_space_group_name_H-M "P -1"
_symmetry_group_IT_number 2
_symmetry_cell_setting 'triclinic'
loop_
_space_group_symop_operation_xyz
x,y,z
-x,-y,-z
loop_
_atom_site_type_symbol
_atom_site_label
_atom_site_fract_x
_atom_site_fract_y
_atom_site_fract_z
Si Si1 0.354549 0.568407 0.806514
Si Si2 0.848501 0.958397 0.043567
Si Si3 0.531005 0.091300 0.670893
Si Si4 0.998939 0.759606 0.143242
Si Si5 0.220520 0.852013 0.504857
Si Si6 0.618205 0.222931 0.355708
Si Si7 0.813250 0.480574 0.803659
Si Si8 0.509398 0.780496 0.004525
O O1 0.399626 0.286431 0.720903
O O2 0.424774 0.603150 0.679964
O O3 0.417776 0.657242 0.928027
O O4 0.211373 0.772415 0.901417
O O5 0.960120 0.928802 0.098561
O O6 0.723622 0.983578 0.173515
O O7 0.865218 0.711920 0.875352
O O8 0.663568 0.093182 0.576169
O O9 0.497868 0.849692 0.590221
O O10 0.537048 0.140975 0.824070
O O11 0.129134 0.681251 0.156072
O O12 0.888609 0.904092 0.323081
O O13 0.000000 0.500000 0.000000
O O14 0.295689 0.708507 0.546643
O O15 0.161243 0.694461 0.381634
O O16 0.657949 0.600694 0.896871
O O17 0.500000 0.000000 0.000000
#
# Coordination Sequence:
#
# PCOD9098077 Si02
#       8
#     2   2   2   2   2   2   2   2
#     4  10  20  36  63  92 130 167 214 240 316 391
#     4   8  17  37  62  89 120 168 211 244 304 378
#     4  12  22  35  64  95 134 165 205 261 316 379
#     4   9  20  40  64  87 120 173 222 254 307 376
#     4  11  23  35  59  99 124 166 216 258 318 367
#     4   9  20  40  54  89 137 164 204 250 314 372
#     4  11  19  35  62  93 123 166 213 257 301 377
#     4  12  20  38  62  98 127 169 199 254 327 373
#
# _framework density 23.286342000000001
#
# number of rings (size 3 to 8) (size 9 to 14) (size 15 to 20)
#    0.750    1.000    5.000    1.125    0.000    0.500 
#    0.000    0.000    0.000    1.500    6.500    0.000 
#    0.000    0.000    0.000    0.000    0.000    0.000 
#
# Total GULP energy -89196.454901 kJ/mol
# GULP energy per Si atom -5574.778431 kJ/mol
# Density = 2.323334 g / cm^3
# Si number density = 23.286342 Si / 1000 Ang^3
#
#
#
# Elastic Constant Matrix: (Units=GPa)
#
#
# Indices 1 2 3 4 5 6 
#
# 1 69.2714 34.5133 44.4104 3.0370 -9.0945 -29.4096
# 2 34.5133 126.4494 54.0385 -7.2639 -4.4292 -38.0948
# 3 44.4104 54.0385 159.2977 -1.6356 17.3251 -16.7084
# 4 3.0370 -7.2639 -1.6356 37.8909 -16.1038 4.3159
# 5 -9.0945 -4.4292 17.3251 -16.1038 48.3767 -1.0163
# 6 -29.4096 -38.0948 -16.7084 4.3159 -1.0163 40.7287
#
#
#
# Elastic Compliance Matrix: (Units=1/GPa)
#
#
# Indices 1 2 3 4 5 6 
#
# 1 0.026983 0.001255 -0.006895 -0.001012 0.007701 0.018129
# 2 0.001255 0.012915 -0.003959 0.002604 0.003938 0.011184
# 3 -0.006895 -0.003959 0.009664 -0.001717 -0.005789 -0.004680
# 4 -0.001012 0.002604 -0.001717 0.031915 0.011243 -0.002100
# 5 0.007701 0.003938 -0.005789 0.011243 0.028429 0.006387
# 6 0.018129 0.011184 -0.004680 -0.002100 0.006387 0.046566
#
#
# Mechanical properties :
#
#
# Convention : Reuss Voigt Hill
#
# Bulk Modulus (GPa) = 32.93467 68.99364 50.96416
# Shear Modulus (GPa) = 26.91188 40.20302 33.55745
#
# Velocity S-wave (km/s) = 3.40324 4.15958 3.80027
# Velocity P-wave (km/s) = 5.44213 7.26376 6.41790
#
# Compressibility (1/GPa) = 0.03036314
#
# Stress axis : x y z
#
# Youngs Moduli (GPa) = 37.06038 77.43157 103.47667
#
# Poissons Ratio (x) = -0.09716 0.71344
# Poissons Ratio (y) = -0.04650 0.40971
# Poissons Ratio (z) = 0.25552 0.30658
#
# Static dielectric constant tensor:
#      x y z
#    x 1.909000 0.032910 -0.016750 
#    y 0.032910 2.111440 0.291000 
#    z -0.016750 0.291000 2.354420 
# 
# From -- ./inp_files/446415.got.cif
#   From: 2010.05.17/outbox.cif.g08.bks.cpg/sg2_224_cif.got.tgz:446415.got - 2010.06.03 11:33:40.
