data_PCOD9098883
_publ_section_title
;
Structure prediction by ZEFSAII (Michael W. Deem and Ramdas Pophale) SiO2 
 PCOD9098883
Probable space group: P -1
;
_chemical_formula_sum "Si O2"
_cell_formula_units_Z 16
_cell_length_a 14.173460
_cell_length_b 9.912279
_cell_length_c 11.558948
_cell_angle_alpha 78.086195
_cell_angle_beta 138.649934
_cell_angle_gamma 125.730879
_cell_volume 785.252177
_symmetry_space_group_name_H-M "P -1"
_symmetry_group_IT_number 2
_symmetry_cell_setting 'triclinic'
loop_
_space_group_symop_operation_xyz
x,y,z
-x,-y,-z
loop_
_atom_site_type_symbol
_atom_site_label
_atom_site_fract_x
_atom_site_fract_y
_atom_site_fract_z
Si Si1 0.479124 0.108392 0.870998
Si Si2 0.370027 0.368376 0.509231
Si Si3 0.099784 0.905587 0.687631
Si Si4 0.099483 0.211931 0.698063
Si Si5 0.988547 0.656039 0.821572
Si Si6 0.317397 0.485044 0.042223
Si Si7 0.280720 0.988161 0.485640
Si Si8 0.925369 0.292579 0.843851
O O1 0.636978 0.327561 0.980515
O O2 0.280129 0.047337 0.745072
O O3 0.442106 0.042772 0.715047
O O4 0.500000 0.000000 0.000000
O O5 0.500000 0.500000 0.500000
O O6 0.192510 0.358078 0.353464
O O7 0.502533 0.452893 0.730158
O O8 0.310346 0.171101 0.467456
O O9 0.923747 0.767437 0.462180
O O10 0.122091 0.794286 0.815981
O O11 0.076604 0.032504 0.713038
O O12 0.919070 0.164393 0.604687
O O13 0.277150 0.375898 0.907280
O O14 0.929028 0.458541 0.792416
O O15 0.079995 0.731454 0.019152
O O16 0.128975 0.363381 0.972189
O O17 0.246911 0.890618 0.350884
#
# Coordination Sequence:
#
# PCOD9098883 Si02
#       8
#     2   2   2   2   2   2   2   2
#     4  10  21  37  58  83 117 152 186 236 293 336
#     4  11  21  38  60  87 117 148 192 243 289 332
#     4  10  20  37  58  82 117 151 187 233 284 342
#     4   9  19  36  59  85 109 148 193 234 279 337
#     4  11  22  38  61  86 117 152 193 236 288 343
#     4  10  21  38  61  86 114 149 196 240 283 337
#     4   9  20  39  61  83 112 153 195 233 280 348
#     4  10  22  40  62  83 115 155 196 233 282 348
#
# _framework density 20.375620999999999
#
# number of rings (size 3 to 8) (size 9 to 14) (size 15 to 20)
#    0.000    2.000    2.500    0.750    1.750    3.000 
#    2.250    4.375    0.000    0.000    0.000    0.000 
#    0.000    0.000    0.000    0.000    0.000    0.000 
#
# Total GULP energy -89260.685518 kJ/mol
# GULP energy per Si atom -5578.792845 kJ/mol
# Density = 2.032925 g / cm^3
# Si number density = 20.375621 Si / 1000 Ang^3
#
#
#
# Elastic Constant Matrix: (Units=GPa)
#
#
# Indices 1 2 3 4 5 6 
#
# 1 41.2827 19.7264 31.3100 8.9225 -16.5316 1.1607
# 2 19.7264 75.3829 78.2348 -5.1927 -34.1038 0.3594
# 3 31.3100 78.2348 126.9018 9.0439 -46.5403 -23.1671
# 4 8.9225 -5.1927 9.0439 36.6062 -10.5349 -4.6920
# 5 -16.5316 -34.1038 -46.5403 -10.5349 35.2913 5.3371
# 6 1.1607 0.3594 -23.1671 -4.6920 5.3371 35.2613
#
#
#
# Elastic Compliance Matrix: (Units=1/GPa)
#
#
# Indices 1 2 3 4 5 6 
#
# 1 0.033553 0.004073 -0.009485 -0.004340 0.007218 -0.009048
# 2 0.004073 0.064300 -0.038256 0.021036 0.023919 -0.026745
# 3 -0.009485 -0.038256 0.041869 -0.007969 0.007491 0.026017
# 4 -0.004340 0.021036 -0.007969 0.038619 0.019793 -0.003164
# 5 0.007218 0.023919 0.007491 0.019793 0.071178 -0.003700
# 6 -0.009048 -0.026745 0.026017 -0.003164 -0.003700 0.046162
#
#
# Mechanical properties :
#
#
# Convention : Reuss Voigt Hill
#
# Bulk Modulus (GPa) = 19.08804 55.78998 37.43901
# Shear Modulus (GPa) = 12.48503 29.05150 20.76827
#
# Velocity S-wave (km/s) = 2.47805 3.78007 3.19607
# Velocity P-wave (km/s) = 4.19238 6.81851 5.65987
#
# Compressibility (1/GPa) = 0.05238884
#
# Stress axis : x y z
#
# Youngs Moduli (GPa) = 29.80327 15.55199 23.88379
#
# Poissons Ratio (x) = -0.06334 0.22653
# Poissons Ratio (y) = -0.12139 0.91369
# Poissons Ratio (z) = 0.28267 0.59495
#
# Static dielectric constant tensor:
#      x y z
#    x 1.798460 0.009690 0.039570 
#    y 0.009690 1.682280 0.007590 
#    z 0.039570 0.007590 1.777340 
# 
# From -- ./inp_files/181357.got.cif
#   From: 2010.05.17/outbox.cif.g08.bks.cpg/sg2_91_cif.got.tgz:181357.got - 2010.06.03 11:33:40.
