data_PCOD9098344
_publ_section_title
;
Structure prediction by ZEFSAII (Michael W. Deem and Ramdas Pophale) SiO2 
 PCOD9098344
Probable space group: P -1
;
_chemical_formula_sum "Si O2"
_cell_formula_units_Z 16
_cell_length_a 19.989489
_cell_length_b 9.924716
_cell_length_c 8.624857
_cell_angle_alpha 64.135838
_cell_angle_beta 41.674084
_cell_angle_gamma 49.568382
_cell_volume 862.052799
_symmetry_space_group_name_H-M "P -1"
_symmetry_group_IT_number 2
_symmetry_cell_setting 'triclinic'
loop_
_space_group_symop_operation_xyz
x,y,z
-x,-y,-z
loop_
_atom_site_type_symbol
_atom_site_label
_atom_site_fract_x
_atom_site_fract_y
_atom_site_fract_z
Si Si1 0.408994 0.939274 0.168715
Si Si2 0.438386 0.393077 0.113561
Si Si3 0.110815 0.550251 0.143109
Si Si4 0.757331 0.414635 0.393157
Si Si5 0.738485 0.351248 0.949864
Si Si6 0.120704 0.905218 0.436193
Si Si7 0.858644 0.793097 0.584051
Si Si8 0.614241 0.319895 0.456040
O O1 0.411925 0.823360 0.366528
O O2 0.274010 0.104774 0.305770
O O3 0.456666 0.809117 0.001014
O O4 0.500000 0.000000 0.000000
O O5 0.335379 0.437744 0.396420
O O6 0.370765 0.469581 0.027477
O O7 0.500000 0.500000 0.000000
O O8 0.170834 0.604246 0.148712
O O9 0.124971 0.365247 0.256233
O O10 0.969243 0.699815 0.318419
O O11 0.179110 0.535338 0.872851
O O12 0.858642 0.238885 0.397002
O O13 0.675273 0.361337 0.469881
O O14 0.782949 0.218821 0.795662
O O15 0.704269 0.262296 0.186767
O O16 0.134175 0.056160 0.412903
O O17 0.000000 0.000000 0.500000
O O18 0.500000 0.500000 0.500000
#
# Coordination Sequence:
#
# PCOD9098344 Si02
#       8
#     2   2   2   2   2   2   2   2
#     4  12  24  39  62  95 128 162 207 257 316 368
#     4  11  19  39  62  89 124 166 200 252 308 368
#     4  10  23  42  65  88 123 168 208 255 320 369
#     4  10  22  39  67  91 121 166 212 254 308 377
#     4  10  20  36  65  88 118 161 209 249 308 373
#     4  11  21  39  63  93 122 156 205 257 310 364
#     4  11  23  42  62  90 130 164 204 263 314 365
#     4  11  20  37  62  93 120 162 209 251 299 378
#
# _framework density 18.560348999999999
#
# number of rings (size 3 to 8) (size 9 to 14) (size 15 to 20)
#    0.000    1.250    5.000    1.500    1.750    1.500 
#    2.250    1.250    0.000    0.000    0.000    0.000 
#    0.000    0.000    0.000    0.000    0.000    0.000 
#
# Total GULP energy -89220.871842 kJ/mol
# GULP energy per Si atom -5576.304490 kJ/mol
# Density = 1.851810 g / cm^3
# Si number density = 18.560349 Si / 1000 Ang^3
#
#
#
# Elastic Constant Matrix: (Units=GPa)
#
#
# Indices 1 2 3 4 5 6 
#
# 1 57.0678 -2.5959 12.9060 3.4101 -9.0288 -25.2442
# 2 -2.5959 65.7450 28.4144 8.9392 -1.1868 -10.9537
# 3 12.9060 28.4144 114.4136 -3.2619 5.3573 -2.2263
# 4 3.4101 8.9392 -3.2619 28.9045 -2.6250 -5.4184
# 5 -9.0288 -1.1868 5.3573 -2.6250 35.4234 6.6304
# 6 -25.2442 -10.9537 -2.2263 -5.4184 6.6304 33.8811
#
#
#
# Elastic Compliance Matrix: (Units=1/GPa)
#
#
# Indices 1 2 3 4 5 6 
#
# 1 0.030194 0.007617 -0.005084 -0.001700 0.004189 0.023534
# 2 0.007617 0.020732 -0.006015 -0.005860 0.001084 0.010834
# 3 -0.005084 -0.006015 0.010906 0.002714 -0.002167 -0.004158
# 4 -0.001700 -0.005860 0.002714 0.037549 0.001221 0.002783
# 5 0.004189 0.001084 -0.002167 0.001221 0.030199 -0.002385
# 6 0.023534 0.010834 -0.004158 0.002783 -0.002385 0.051191
#
#
# Mechanical properties :
#
#
# Convention : Reuss Voigt Hill
#
# Bulk Modulus (GPa) = 18.22573 34.96395 26.59484
# Shear Modulus (GPa) = 24.26912 32.87524 28.57218
#
# Velocity S-wave (km/s) = 3.61997 4.21320 3.92780
# Velocity P-wave (km/s) = 5.22621 6.52280 5.91017
#
# Compressibility (1/GPa) = 0.05486748
#
# Stress axis : x y z
#
# Youngs Moduli (GPa) = 33.11907 48.23463 91.69659
#
# Poissons Ratio (x) = -0.36742 0.46622
# Poissons Ratio (y) = -0.25228 0.55156
# Poissons Ratio (z) = 0.16839 0.29013
#
# Static dielectric constant tensor:
#      x y z
#    x 1.601300 -0.009130 0.042620 
#    y -0.009130 1.997920 0.243330 
#    z 0.042620 0.243330 1.775250 
# 
# From -- ./inp_files/179477.got.cif
#   From: 2010.05.17/outbox.cif.g08.bks.cpg/sg2_90_cif.got.tgz:179477.got - 2010.06.03 11:33:40.
