data_PCOD9098733
_publ_section_title
;
Structure prediction by ZEFSAII (Michael W. Deem and Ramdas Pophale) SiO2 
 PCOD9098733
Probable space group: P -1
;
_chemical_formula_sum "Si O2"
_cell_formula_units_Z 16
_cell_length_a 12.177833
_cell_length_b 9.783664
_cell_length_c 16.481296
_cell_angle_alpha 45.868608
_cell_angle_beta 24.725366
_cell_angle_gamma 54.940124
_cell_volume 578.385582
_symmetry_space_group_name_H-M "P -1"
_symmetry_group_IT_number 2
_symmetry_cell_setting 'triclinic'
loop_
_space_group_symop_operation_xyz
x,y,z
-x,-y,-z
loop_
_atom_site_type_symbol
_atom_site_label
_atom_site_fract_x
_atom_site_fract_y
_atom_site_fract_z
Si Si1 0.772803 0.275456 0.535264
Si Si2 0.356885 0.865020 0.481796
Si Si3 0.213612 0.975586 0.059714
Si Si4 0.548521 0.474124 0.805004
Si Si5 0.669225 0.273194 0.050791
Si Si6 0.054525 0.778606 0.390318
Si Si7 0.398552 0.564605 0.694673
Si Si8 0.105775 0.250994 0.900615
O O1 0.851111 0.231244 0.409254
O O2 0.972436 0.243435 0.486255
O O3 0.673738 0.481043 0.524785
O O4 0.503267 0.115975 0.803401
O O5 0.351739 0.776023 0.611762
O O6 0.616681 0.778055 0.313645
O O7 0.437421 0.093304 0.312521
O O8 0.088024 0.972669 0.234383
O O9 0.253553 0.777390 0.070479
O O10 0.024904 0.059545 0.088656
O O11 0.406453 0.521300 0.962972
O O12 0.654015 0.277957 0.800403
O O13 0.385147 0.525661 0.815583
O O14 0.826698 0.630702 0.557690
O O15 0.903175 0.262146 0.961463
O O16 0.184714 0.425232 0.839264
#
# Coordination Sequence:
#
# PCOD9098733 Si02
#       8
#     2   2   2   2   2   2   2   2
#     4   8  16  33  56  82 101 138 183 228 252 313
#     4   9  17  33  57  84 109 139 177 219 274 321
#     4   9  18  34  59  80 105 141 182 217 269 323
#     4  10  23  36  51  80 112 144 178 227 263 316
#     4  10  21  35  53  82 117 136 175 227 272 315
#     4  10  20  37  57  75 105 148 189 214 263 321
#     4   9  18  33  55  80 112 140 180 216 268 323
#     4   9  18  33  55  84 105 143 174 224 266 323
#
# _framework density 27.663205000000001
#
# number of rings (size 3 to 8) (size 9 to 14) (size 15 to 20)
#    0.000    3.250    0.000    3.375    3.500    1.500 
#    2.250    2.500    2.750    0.000    0.000    0.000 
#    0.000    0.000    0.000    0.000    0.000    0.000 
#
# Total GULP energy -89372.602352 kJ/mol
# GULP energy per Si atom -5585.787647 kJ/mol
# Density = 2.760024 g / cm^3
# Si number density = 27.663205 Si / 1000 Ang^3
#
#
#
# Elastic Constant Matrix: (Units=GPa)
#
#
# Indices 1 2 3 4 5 6 
#
# 1 163.1169 25.6295 21.7188 -6.9742 11.2036 -10.3081
# 2 25.6295 60.6329 -8.9141 10.1013 -1.1656 6.9250
# 3 21.7188 -8.9141 43.9639 -7.7295 5.8609 0.7034
# 4 -6.9742 10.1013 -7.7295 19.9124 4.5318 10.5140
# 5 11.2036 -1.1656 5.8609 4.5318 40.2618 -0.4977
# 6 -10.3081 6.9250 0.7034 10.5140 -0.4977 48.1840
#
#
#
# Elastic Compliance Matrix: (Units=1/GPa)
#
#
# Indices 1 2 3 4 5 6 
#
# 1 0.007765 -0.004614 -0.003984 0.003087 -0.002041 0.001688
# 2 -0.004614 0.021043 0.004484 -0.010112 0.002356 -0.001846
# 3 -0.003984 0.004484 0.028055 0.010369 -0.004065 -0.004211
# 4 0.003087 -0.010112 0.010369 0.069976 -0.010704 -0.013417
# 5 -0.002041 0.002356 -0.004065 -0.010704 0.027294 0.001902
# 6 0.001688 -0.001846 -0.004211 -0.013417 0.001902 0.024389
#
#
# Mechanical properties :
#
#
# Convention : Reuss Voigt Hill
#
# Bulk Modulus (GPa) = 20.56120 38.28690 29.42405
# Shear Modulus (GPa) = 24.63515 36.95694 30.79604
#
# Velocity S-wave (km/s) = 2.98743 3.65904 3.34016
# Velocity P-wave (km/s) = 4.39869 5.63222 5.05323
#
# Compressibility (1/GPa) = 0.04863529
#
# Stress axis : x y z
#
# Youngs Moduli (GPa) = 128.78580 47.52157 35.64380
#
# Poissons Ratio (x) = 0.21927 0.14199
# Poissons Ratio (y) = 0.59424 -0.15982
# Poissons Ratio (z) = 0.51303 -0.21308
#
# Static dielectric constant tensor:
#      x y z
#    x 2.117660 -0.042470 0.033750 
#    y -0.042470 2.307190 0.013360 
#    z 0.033750 0.013360 2.216190 
# 
# From -- ./inp_files/568552.got.cif
#   From: 2010.05.17/outbox.cif.g08.bks.cpg/sg2_285_cif.got.tgz:568552.got - 2010.06.03 11:33:40.
