data_PCOD9098353
_publ_section_title
;
Structure prediction by ZEFSAII (Michael W. Deem and Ramdas Pophale) SiO2 
 PCOD9098353
Probable space group: P -1
;
_chemical_formula_sum "Si O2"
_cell_formula_units_Z 12
_cell_length_a 10.495972
_cell_length_b 10.101046
_cell_length_c 15.835836
_cell_angle_alpha 61.933085
_cell_angle_beta 157.035920
_cell_angle_gamma 120.376955
_cell_volume 565.052230
_symmetry_space_group_name_H-M "P -1"
_symmetry_group_IT_number 2
_symmetry_cell_setting 'triclinic'
loop_
_space_group_symop_operation_xyz
x,y,z
-x,-y,-z
loop_
_atom_site_type_symbol
_atom_site_label
_atom_site_fract_x
_atom_site_fract_y
_atom_site_fract_z
Si Si1 0.685813 0.642866 0.514321
Si Si2 0.251638 0.855109 0.105846
Si Si3 0.866866 0.868953 0.704077
Si Si4 0.324883 0.177955 0.101951
Si Si5 0.126835 0.797121 0.348089
Si Si6 0.787806 0.471910 0.247805
O O1 0.500000 0.500000 0.500000
O O2 0.424549 0.720808 0.281500
O O3 0.879309 0.774199 0.655676
O O4 0.933412 0.584811 0.619728
O O5 0.455493 0.023642 0.207412
O O6 0.154949 0.849976 0.950742
O O7 0.907170 0.842753 0.951442
O O8 0.504050 0.803308 0.545403
O O9 0.880581 0.050348 0.649226
O O10 0.604046 0.331391 0.234524
O O11 0.083362 0.191820 0.870071
O O12 0.957315 0.638534 0.336591
O O13 0.500000 0.500000 0.000000
#
# Coordination Sequence:
#
# PCOD9098353 Si02
#       6
#     2   2   2   2   2   2
#     4  12  22  39  63  88 118 157 199 245 295 345
#     4  10  21  37  63  88 117 155 202 240 291 356
#     4  10  20  36  65  90 115 153 202 242 285 355
#     4   9  18  37  61  88 120 160 192 240 298 350
#     4   9  17  36  60  88 118 155 195 236 293 351
#     4  10  20  38  63  84 122 160 194 241 302 347
#
# _framework density 21.236975000000001
#
# number of rings (size 3 to 8) (size 9 to 14) (size 15 to 20)
#    0.000    2.000    3.333    1.000    2.333    1.333 
#    0.000    8.333    7.333    0.000    0.000    0.000 
#    0.000    0.000    0.000    0.000    0.000    0.000 
#
# Total GULP energy -67054.071617 kJ/mol
# GULP energy per Si atom -5587.839301 kJ/mol
# Density = 2.118864 g / cm^3
# Si number density = 21.236975 Si / 1000 Ang^3
#
#
#
# Elastic Constant Matrix: (Units=GPa)
#
#
# Indices 1 2 3 4 5 6 
#
# 1 16.9722 16.8202 4.9609 6.0929 -8.0573 -3.0591
# 2 16.8202 161.7231 33.7596 12.7158 0.8711 18.3724
# 3 4.9609 33.7596 78.3389 -18.9286 -10.6015 -5.2019
# 4 6.0929 12.7158 -18.9286 37.8673 -2.8788 4.4930
# 5 -8.0573 0.8711 -10.6015 -2.8788 21.0750 8.6833
# 6 -3.0591 18.3724 -5.2019 4.4930 8.6833 32.7127
#
#
#
# Elastic Compliance Matrix: (Units=1/GPa)
#
#
# Indices 1 2 3 4 5 6 
#
# 1 0.086636 -0.009457 0.000972 -0.008807 0.029991 0.006817
# 2 -0.009457 0.009203 -0.005386 -0.004068 -0.005215 -0.004967
# 3 0.000972 -0.005386 0.019618 0.012153 0.011499 0.001514
# 4 -0.008807 -0.004068 0.012153 0.036492 0.009618 -0.004171
# 5 0.029991 -0.005215 0.011499 0.009618 0.071475 -0.012732
# 6 0.006817 -0.004967 0.001514 -0.004171 -0.012732 0.038189
#
#
# Mechanical properties :
#
#
# Convention : Reuss Voigt Hill
#
# Bulk Modulus (GPa) = 11.40039 40.90172 26.15106
# Shear Modulus (GPa) = 15.69399 31.76389 23.72894
#
# Velocity S-wave (km/s) = 2.72139 3.87161 3.34629
# Velocity P-wave (km/s) = 3.90570 6.26796 5.22215
#
# Compressibility (1/GPa) = 0.08771631
#
# Stress axis : x y z
#
# Youngs Moduli (GPa) = 11.54252 108.65455 50.97484
#
# Poissons Ratio (x) = 1.02757 -0.04957
# Poissons Ratio (y) = 0.10916 0.27454
# Poissons Ratio (z) = -0.01122 0.58518
#
# Static dielectric constant tensor:
#      x y z
#    x 1.733640 0.027030 -0.026420 
#    y 0.027030 1.806060 0.012300 
#    z -0.026420 0.012300 1.757110 
# 
# From -- ./inp_files/147832.got.cif
#   From: 2010.05.17/outbox.cif.g08.bks.cpg/sg2_74_cif.got.tgz:147832.got - 2010.06.03 11:33:40.
