data_PCOD9098080
_publ_section_title
;
Structure prediction by ZEFSAII (Michael W. Deem and Ramdas Pophale) SiO2 
 PCOD9098080
Probable space group: P -1
;
_chemical_formula_sum "Si O2"
_cell_formula_units_Z 16
_cell_length_a 5.278334
_cell_length_b 23.710808
_cell_length_c 19.615780
_cell_angle_alpha 22.009627
_cell_angle_beta 56.871012
_cell_angle_gamma 65.915705
_cell_volume 731.452677
_symmetry_space_group_name_H-M "P -1"
_symmetry_group_IT_number 2
_symmetry_cell_setting 'triclinic'
loop_
_space_group_symop_operation_xyz
x,y,z
-x,-y,-z
loop_
_atom_site_type_symbol
_atom_site_label
_atom_site_fract_x
_atom_site_fract_y
_atom_site_fract_z
Si Si1 0.478565 0.649389 0.679571
Si Si2 0.619099 0.385416 0.412156
Si Si3 0.756021 0.380791 0.918986
Si Si4 0.921155 0.476719 0.634063
Si Si5 0.331392 0.102502 0.368362
Si Si6 0.230738 0.333227 0.239887
Si Si7 0.877586 0.226986 0.804207
Si Si8 0.543136 0.911242 0.161905
O O1 0.568212 0.705520 0.524992
O O2 0.502369 0.472592 0.867511
O O3 0.691239 0.719065 0.636752
O O4 0.122489 0.655852 0.730711
O O5 0.404036 0.476236 0.380201
O O6 0.708876 0.250309 0.593005
O O7 0.937627 0.523533 0.189147
O O8 0.893593 0.415970 0.783077
O O9 0.580568 0.202041 0.163951
O O10 0.946341 0.338196 0.735829
O O11 0.175234 0.646906 0.385287
O O12 0.271593 0.219280 0.302621
O O13 0.500000 0.000000 0.500000
O O14 0.000000 0.000000 0.500000
O O15 0.500000 0.500000 0.000000
O O16 0.163040 0.160329 0.812918
O O17 0.603348 0.058647 0.040274
O O18 0.500000 0.000000 0.000000
#
# Coordination Sequence:
#
# PCOD9098080 Si02
#       8
#     2   2   2   2   2   2   2   2
#     4  11  22  40  69 101 126 170 232 280 322 401
#     4  10  21  39  64  98 130 180 218 287 330 397
#     4  11  23  42  68  93 137 170 231 274 346 401
#     4   9  20  37  66  87 130 179 222 263 332 406
#     4  12  29  47  69  99 141 177 221 290 353 402
#     4  12  23  43  75  98 126 176 229 277 337 417
#     4   9  19  39  58  96 128 171 223 267 325 405
#     4  10  20  36  63  92 134 169 218 279 339 383
#
# _framework density 21.874279999999999
#
# number of rings (size 3 to 8) (size 9 to 14) (size 15 to 20)
#    0.000    1.500    2.500    1.875    5.250    2.000 
#    4.500    3.750    0.000    0.000    0.000    0.000 
#    0.000    0.000    0.000    0.000    0.000    0.000 
#
# Total GULP energy -89154.342707 kJ/mol
# GULP energy per Si atom -5572.146419 kJ/mol
# Density = 2.182449 g / cm^3
# Si number density = 21.874280 Si / 1000 Ang^3
#
#
#
# Elastic Constant Matrix: (Units=GPa)
#
#
# Indices 1 2 3 4 5 6 
#
# 1 97.4410 23.2474 28.9453 -4.9467 -3.8180 14.4306
# 2 23.2474 119.9468 26.0763 -21.2977 -0.3431 16.2276
# 3 28.9453 26.0763 116.0315 -13.3954 -2.3959 15.4817
# 4 -4.9467 -21.2977 -13.3954 34.9573 3.9819 2.6021
# 5 -3.8180 -0.3431 -2.3959 3.9819 31.1214 6.4446
# 6 14.4306 16.2276 15.4817 2.6021 6.4446 41.6934
#
#
#
# Elastic Compliance Matrix: (Units=1/GPa)
#
#
# Indices 1 2 3 4 5 6 
#
# 1 0.011762 -0.001395 -0.002182 -0.000012 0.001884 -0.003008
# 2 -0.001395 0.010349 -0.000797 0.006088 -0.000151 -0.003606
# 3 -0.002182 -0.000797 0.010131 0.003230 0.000713 -0.003008
# 4 -0.000012 0.006088 0.003230 0.034282 -0.002986 -0.005243
# 5 0.001884 -0.000151 0.000713 -0.002986 0.034027 -0.005932
# 6 -0.003008 -0.003606 -0.003008 -0.005243 -0.005932 0.028790
#
#
# Mechanical properties :
#
#
# Convention : Reuss Voigt Hill
#
# Bulk Modulus (GPa) = 42.56343 54.43971 48.50157
# Shear Modulus (GPa) = 34.26518 38.56444 36.41481
#
# Velocity S-wave (km/s) = 3.96215 4.20337 4.08454
# Velocity P-wave (km/s) = 6.35861 6.96415 6.66825
#
# Compressibility (1/GPa) = 0.02349435
#
# Stress axis : x y z
#
# Youngs Moduli (GPa) = 85.01718 96.62725 98.70916
#
# Poissons Ratio (x) = 0.13481 0.21536
# Poissons Ratio (y) = 0.11861 0.07866
# Poissons Ratio (z) = 0.18549 0.07700
#
# Static dielectric constant tensor:
#      x y z
#    x 1.927320 0.041170 -0.025550 
#    y 0.041170 1.852310 0.102220 
#    z -0.025550 0.102220 1.905060 
# 
# From -- ./inp_files/584425.got.cif
#   From: 2010.05.17/outbox.cif.g08.bks.cpg/sg2_293_cif.got.tgz:584425.got - 2010.06.03 11:33:40.
