data_PCOD9098023
_publ_section_title
;
Structure prediction by ZEFSAII (Michael W. Deem and Ramdas Pophale) SiO2 
 PCOD9098023
Probable space group: P -1
;
_chemical_formula_sum "Si O2"
_cell_formula_units_Z 16
_cell_length_a 9.358257
_cell_length_b 14.531792
_cell_length_c 13.526687
_cell_angle_alpha 148.136329
_cell_angle_beta 91.642437
_cell_angle_gamma 66.124094
_cell_volume 672.708837
_symmetry_space_group_name_H-M "P -1"
_symmetry_group_IT_number 2
_symmetry_cell_setting 'triclinic'
loop_
_space_group_symop_operation_xyz
x,y,z
-x,-y,-z
loop_
_atom_site_type_symbol
_atom_site_label
_atom_site_fract_x
_atom_site_fract_y
_atom_site_fract_z
Si Si1 0.215194 0.954390 0.056006
Si Si2 0.876301 0.349670 0.242873
Si Si3 0.585057 0.455550 0.075051
Si Si4 0.992861 0.606926 0.408642
Si Si5 0.037555 0.797902 0.248955
Si Si6 0.408264 0.982390 0.579387
Si Si7 0.294716 0.407815 0.061634
Si Si8 0.606333 0.718350 0.744315
O O1 0.065202 0.154927 0.147094
O O2 0.178352 0.119307 0.295777
O O3 0.153002 0.813375 0.952720
O O4 0.442151 0.747338 0.825676
O O5 0.677624 0.581802 0.515806
O O6 0.924044 0.467086 0.278570
O O7 0.527192 0.696670 0.333197
O O8 0.457581 0.418417 0.095353
O O9 0.500000 0.500000 0.000000
O O10 0.831438 0.239121 0.872700
O O11 0.096951 0.577439 0.283195
O O12 0.184309 0.448511 0.343150
O O13 0.193333 0.532093 0.066084
O O14 0.000000 0.000000 0.500000
O O15 0.827352 0.878650 0.305148
O O16 0.500000 0.000000 0.500000
O O17 0.409466 0.122315 0.794863
O O18 0.500000 0.000000 0.000000
#
# Coordination Sequence:
#
# PCOD9098023 Si02
#       8
#     2   2   2   2   2   2   2   2
#     4  10  20  38  63  87 115 164 201 237 286 356
#     4  10  20  36  63  88 118 154 205 241 281 354
#     4  10  20  39  59  86 115 150 201 246 290 354
#     4  11  23  40  55  89 130 150 189 255 304 343
#     4  11  20  40  66  85 112 157 205 245 290 363
#     4  12  21  39  66  88 112 153 208 247 290 363
#     4  11  24  40  59  89 124 155 194 256 309 342
#     4  11  18  38  66  86 114 162 203 235 284 355
#
# _framework density 23.784437
#
# number of rings (size 3 to 8) (size 9 to 14) (size 15 to 20)
#    0.000    1.250    7.500    1.500    0.000    1.000 
#    4.500    0.000    0.000    0.000    0.000    0.000 
#    0.000    0.000    0.000    0.000    0.000    0.000 
#
# Total GULP energy -89464.572221 kJ/mol
# GULP energy per Si atom -5591.535764 kJ/mol
# Density = 2.373030 g / cm^3
# Si number density = 23.784437 Si / 1000 Ang^3
#
#
#
# Elastic Constant Matrix: (Units=GPa)
#
#
# Indices 1 2 3 4 5 6 
#
# 1 187.6586 31.9596 55.8842 -4.1337 -7.2221 39.9312
# 2 31.9596 48.8702 12.2836 -8.4321 -3.6537 17.0069
# 3 55.8842 12.2836 113.1224 8.7906 0.4903 13.0196
# 4 -4.1337 -8.4321 8.7906 24.3760 10.5277 -8.3503
# 5 -7.2221 -3.6537 0.4903 10.5277 53.2449 -0.1167
# 6 39.9312 17.0069 13.0196 -8.3503 -0.1167 36.8015
#
#
#
# Elastic Compliance Matrix: (Units=1/GPa)
#
#
# Indices 1 2 3 4 5 6 
#
# 1 0.008065 -0.002263 -0.002837 -0.001310 0.001209 -0.006995
# 2 -0.002263 0.026063 -0.001327 0.006392 0.000213 -0.007669
# 3 -0.002837 -0.001327 0.010991 -0.005640 0.000535 -0.001475
# 4 -0.001310 0.006392 -0.005640 0.053828 -0.010302 0.012644
# 5 0.001209 0.000213 0.000535 -0.010302 0.020983 -0.003870
# 6 -0.006995 -0.007669 -0.001475 0.012644 -0.003870 0.041685
#
#
# Mechanical properties :
#
#
# Convention : Reuss Voigt Hill
#
# Bulk Modulus (GPa) = 30.99245 61.10067 46.04656
# Shear Modulus (GPa) = 26.99417 39.51938 33.25678
#
# Velocity S-wave (km/s) = 3.37256 4.08065 3.74339
# Velocity P-wave (km/s) = 5.31266 6.92441 6.17138
#
# Compressibility (1/GPa) = 0.03226592
#
# Stress axis : x y z
#
# Youngs Moduli (GPa) = 123.99069 38.36823 90.98063
#
# Poissons Ratio (x) = 0.08681 0.25811
# Poissons Ratio (y) = 0.28055 0.12076
# Poissons Ratio (z) = 0.35175 0.05093
#
# Static dielectric constant tensor:
#      x y z
#    x 2.171140 0.178210 -0.092650 
#    y 0.178210 2.131640 -0.043910 
#    z -0.092650 -0.043910 1.939300 
# 
# From -- ./inp_files/350956.got.cif
#   From: 2010.05.17/outbox.cif.g08.bks.cpg/sg2_176_cif.got.tgz:350956.got - 2010.06.03 11:33:40.
