data_PCOD9098060
_publ_section_title
;
Structure prediction by ZEFSAII (Michael W. Deem and Ramdas Pophale) SiO2 
 PCOD9098060
Probable space group: P -1
;
_chemical_formula_sum "Si O2"
_cell_formula_units_Z 16
_cell_length_a 16.081611
_cell_length_b 11.602340
_cell_length_c 9.780664
_cell_angle_alpha 117.243762
_cell_angle_beta 32.881093
_cell_angle_gamma 104.549813
_cell_volume 846.622605
_symmetry_space_group_name_H-M "P -1"
_symmetry_group_IT_number 2
_symmetry_cell_setting 'triclinic'
loop_
_space_group_symop_operation_xyz
x,y,z
-x,-y,-z
loop_
_atom_site_type_symbol
_atom_site_label
_atom_site_fract_x
_atom_site_fract_y
_atom_site_fract_z
Si Si1 0.577370 0.658244 0.084603
Si Si2 0.602907 0.667627 0.370846
Si Si3 0.317158 0.645143 0.944997
Si Si4 0.307102 0.626613 0.263560
Si Si5 0.013357 0.124190 0.459526
Si Si6 0.343551 0.105295 0.416438
Si Si7 0.352368 0.130402 0.100195
Si Si8 0.099639 0.923694 0.696629
O O1 0.569815 0.702702 0.275763
O O2 0.420024 0.617437 0.233985
O O3 0.721309 0.521165 0.790221
O O4 0.580938 0.770428 0.030521
O O5 0.443165 0.684187 0.691516
O O6 0.685905 0.506660 0.170690
O O7 0.698260 0.765552 0.357008
O O8 0.372020 0.642595 0.027756
O O9 0.143029 0.750221 0.235538
O O10 0.173950 0.766128 0.541874
O O11 0.178422 0.147893 0.288858
O O12 0.009614 0.077273 0.283719
O O13 0.000000 0.000000 0.500000
O O14 0.341245 0.156529 0.291900
O O15 0.233352 0.002181 0.520678
O O16 0.522105 0.017174 0.161447
O O17 0.000000 0.000000 0.000000
#
# Coordination Sequence:
#
# PCOD9098060 Si02
#       8
#     2   2   2   2   2   2   2   2
#     4  10  20  36  63  92 113 150 206 247 283 343
#     4  10  21  36  62  91 120 156 198 248 289 351
#     4   9  20  40  60  86 123 161 196 236 303 356
#     4   9  19  40  61  85 117 161 195 235 299 353
#     4  11  22  41  62  87 117 160 201 240 295 355
#     4  11  23  41  62  86 119 162 197 240 302 358
#     4  11  23  40  62  88 117 159 204 240 294 360
#     4  11  24  41  60  88 123 155 194 246 303 349
#
# _framework density 18.898620000000001
#
# number of rings (size 3 to 8) (size 9 to 14) (size 15 to 20)
#    0.000    1.750    2.500    1.500    5.250    3.500 
#    2.250    2.500    0.000    0.000    0.000    0.000 
#    0.000    0.000    0.000    0.000    0.000    0.000 
#
# Total GULP energy -89159.018109 kJ/mol
# GULP energy per Si atom -5572.438632 kJ/mol
# Density = 1.885561 g / cm^3
# Si number density = 18.898620 Si / 1000 Ang^3
#
#
#
# Elastic Constant Matrix: (Units=GPa)
#
#
# Indices 1 2 3 4 5 6 
#
# 1 104.7340 41.8527 47.1575 19.4544 9.9841 -13.1872
# 2 41.8527 60.8386 24.3921 16.6707 13.1734 -17.1100
# 3 47.1575 24.3921 87.0335 15.1693 21.7890 -11.5842
# 4 19.4544 16.6707 15.1693 20.1169 7.8317 2.3358
# 5 9.9841 13.1734 21.7890 7.8317 27.5684 -1.3588
# 6 -13.1872 -17.1100 -11.5842 2.3358 -1.3588 28.8073
#
#
#
# Elastic Compliance Matrix: (Units=1/GPa)
#
#
# Indices 1 2 3 4 5 6 
#
# 1 0.016529 -0.007597 -0.006754 -0.006641 0.004924 0.001109
# 2 -0.007597 0.033600 0.003221 -0.021749 -0.008729 0.019126
# 3 -0.006754 0.003221 0.019337 -0.006759 -0.012132 0.006573
# 4 -0.006641 -0.021749 -0.006759 0.085110 -0.007316 -0.025922
# 5 0.004924 -0.008729 -0.012132 -0.007316 0.050089 -0.004854
# 6 0.001109 0.019126 0.006573 -0.025922 -0.004854 0.051097
#
#
# Mechanical properties :
#
#
# Convention : Reuss Voigt Hill
#
# Bulk Modulus (GPa) = 21.18387 53.26787 37.22587
# Shear Modulus (GPa) = 17.02079 24.57877 20.79978
#
# Velocity S-wave (km/s) = 3.00432 3.61024 3.32112
# Velocity P-wave (km/s) = 4.82370 6.75468 5.86915
#
# Compressibility (1/GPa) = 0.04720572
#
# Stress axis : x y z
#
# Youngs Moduli (GPa) = 60.49974 29.76159 51.71454
#
# Poissons Ratio (x) = 0.22611 0.34929
# Poissons Ratio (y) = 0.45963 -0.16659
# Poissons Ratio (z) = 0.40863 -0.09587
#
# Static dielectric constant tensor:
#      x y z
#    x 1.614240 0.018920 0.007050 
#    y 0.018920 1.777670 0.013210 
#    z 0.007050 0.013210 1.651350 
# 
# From -- ./inp_files/207850.got.cif
#   From: 2010.05.17/outbox.cif.g08.bks.cpg/sg2_104_cif.got.tgz:207850.got - 2010.06.03 11:33:40.
