data_PCOD9098488
_publ_section_title
;
Structure prediction by ZEFSAII (Michael W. Deem and Ramdas Pophale) SiO2 
 PCOD9098488
Probable space group: P -1
;
_chemical_formula_sum "Si O2"
_cell_formula_units_Z 16
_cell_length_a 14.197931
_cell_length_b 9.281306
_cell_length_c 13.653859
_cell_angle_alpha 140.945124
_cell_angle_beta 137.811475
_cell_angle_gamma 61.657449
_cell_volume 739.477452
_symmetry_space_group_name_H-M "P -1"
_symmetry_group_IT_number 2
_symmetry_cell_setting 'triclinic'
loop_
_space_group_symop_operation_xyz
x,y,z
-x,-y,-z
loop_
_atom_site_type_symbol
_atom_site_label
_atom_site_fract_x
_atom_site_fract_y
_atom_site_fract_z
Si Si1 0.478704 0.618861 0.197227
Si Si2 0.279646 0.343783 0.746461
Si Si3 0.733058 0.937803 0.937445
Si Si4 0.052027 0.192465 0.343557
Si Si5 0.348885 0.510497 0.232055
Si Si6 0.113015 0.254661 0.213186
Si Si7 0.443495 0.969215 0.653548
Si Si8 0.070726 0.655553 0.045474
O O1 0.605886 0.550711 0.196043
O O2 0.472868 0.538313 0.261273
O O3 0.512847 0.897295 0.346570
O O4 0.331137 0.499358 0.962773
O O5 0.123345 0.307332 0.559152
O O6 0.321039 0.092119 0.664255
O O7 0.711176 0.746193 0.905838
O O8 0.760130 0.803963 0.786370
O O9 0.587312 0.020961 0.855749
O O10 0.878761 0.138212 0.173536
O O11 0.128892 0.326318 0.376464
O O12 0.083318 0.930155 0.224255
O O13 0.393554 0.693356 0.451584
O O14 0.226223 0.604728 0.129888
O O15 0.030937 0.402454 0.158490
O O16 0.000000 0.000000 0.000000
O O17 0.000000 0.500000 0.000000
#
# Coordination Sequence:
#
# PCOD9098488 Si02
#       8
#     2   2   2   2   2   2   2   2
#     4   9  22  37  59  78 109 141 198 225 264 325
#     4   9  20  40  60  76 104 154 190 225 261 331
#     4  10  21  33  49  91 120 130 174 243 272 321
#     4  10  19  34  58  76 112 148 182 213 282 323
#     4  12  20  32  59  87 112 142 181 229 279 324
#     4   8  18  28  49  77 113 137 170 216 271 315
#     4  10  21  35  58  79 110 145 183 225 277 320
#     4  10  16  31  51  82 115 143 168 225 275 325
#
# _framework density 21.636900000000001
#
# number of rings (size 3 to 8) (size 9 to 14) (size 15 to 20)
#    0.750    1.750    3.750    0.750    7.000    0.000 
#    0.000    1.875    0.000    0.000    0.000    0.000 
#    0.000    0.000    0.000    0.000    0.000    0.000 
#
# Total GULP energy -89144.011728 kJ/mol
# GULP energy per Si atom -5571.500733 kJ/mol
# Density = 2.158765 g / cm^3
# Si number density = 21.636900 Si / 1000 Ang^3
#
#
#
# Elastic Constant Matrix: (Units=GPa)
#
#
# Indices 1 2 3 4 5 6 
#
# 1 31.6439 12.5732 2.8650 1.6601 5.3024 2.3194
# 2 12.5732 83.8231 9.3375 -3.0757 0.7708 7.7425
# 3 2.8650 9.3375 68.3889 -12.1866 11.0146 -7.7626
# 4 1.6601 -3.0757 -12.1866 24.5339 -8.2287 8.8386
# 5 5.3024 0.7708 11.0146 -8.2287 14.5823 -4.5334
# 6 2.3194 7.7425 -7.7626 8.8386 -4.5334 26.5799
#
#
#
# Elastic Compliance Matrix: (Units=1/GPa)
#
#
# Indices 1 2 3 4 5 6 
#
# 1 0.037650 -0.005682 0.000533 -0.008819 -0.019341 -0.001840
# 2 -0.005682 0.013562 -0.002028 0.004023 0.003672 -0.004758
# 3 0.000533 -0.002028 0.017542 0.004061 -0.010247 0.002569
# 4 -0.008819 0.004023 0.004061 0.058438 0.028623 -0.013767
# 5 -0.019341 0.003672 -0.010247 0.028623 0.100962 0.005327
# 6 -0.001840 -0.004758 0.002569 -0.013767 0.005327 0.045406
#
#
# Mechanical properties :
#
#
# Convention : Reuss Voigt Hill
#
# Bulk Modulus (GPa) = 18.38279 25.93414 22.15846
# Shear Modulus (GPa) = 16.33732 23.74456 20.04094
#
# Velocity S-wave (km/s) = 2.75083 3.31631 3.04672
# Velocity P-wave (km/s) = 4.31322 5.16488 4.75815
#
# Compressibility (1/GPa) = 0.05439870
#
# Stress axis : x y z
#
# Youngs Moduli (GPa) = 26.56065 73.73791 57.00447
#
# Poissons Ratio (x) = 0.41902 -0.03040
# Poissons Ratio (y) = 0.15093 0.11562
# Poissons Ratio (z) = -0.01416 0.14956
#
# Static dielectric constant tensor:
#      x y z
#    x 1.831350 -0.021270 0.000090 
#    y -0.021270 1.811130 0.002670 
#    z 0.000090 0.002670 1.537300 
# 
# From -- ./inp_files/448240.got.cif
#   From: 2010.05.17/outbox.cif.g08.bks.cpg/sg2_225_cif.got.tgz:448240.got - 2010.06.03 11:33:40.
