data_PCOD9098828
_publ_section_title
;
Structure prediction by ZEFSAII (Michael W. Deem and Ramdas Pophale) SiO2 
 PCOD9098828
Probable space group: P -1
;
_chemical_formula_sum "Si O2"
_cell_formula_units_Z 14
_cell_length_a 11.422116
_cell_length_b 21.211188
_cell_length_c 8.822747
_cell_angle_alpha 150.076658
_cell_angle_beta 40.592883
_cell_angle_gamma 142.361840
_cell_volume 632.167438
_symmetry_space_group_name_H-M "P -1"
_symmetry_group_IT_number 2
_symmetry_cell_setting 'triclinic'
loop_
_space_group_symop_operation_xyz
x,y,z
-x,-y,-z
loop_
_atom_site_type_symbol
_atom_site_label
_atom_site_fract_x
_atom_site_fract_y
_atom_site_fract_z
Si Si1 0.315719 0.864274 0.564422
Si Si2 0.476484 0.397301 0.448305
Si Si3 0.884427 0.375472 0.969000
Si Si4 0.952858 0.035620 0.420372
Si Si5 0.824419 0.657648 0.140064
Si Si6 0.712270 0.900957 0.100294
Si Si7 0.920189 0.186520 0.019049
O O1 0.179902 0.761539 0.355681
O O2 0.530375 0.872441 0.336399
O O3 0.317786 0.012994 0.831489
O O4 0.229250 0.808604 0.697788
O O5 0.500000 0.500000 0.500000
O O6 0.388017 0.429537 0.758176
O O7 0.683468 0.385146 0.241592
O O8 0.314822 0.250105 0.238147
O O9 0.023290 0.368801 0.953276
O O10 0.000000 0.500000 0.000000
O O11 0.891811 0.995698 0.226258
O O12 0.973489 0.903623 0.196168
O O13 0.817668 0.089692 0.770886
O O14 0.145090 0.180503 0.544265
O O15 0.917073 0.667755 0.901344
#
# Coordination Sequence:
#
# PCOD9098828 Si02
#       7
#     2   2   2   2   2   2   2
#     4  10  20  37  57  90 115 146 198 246 282 348
#     4  11  23  37  61  88 116 150 200 249 279 344
#     4  11  22  39  64  86 114 157 199 235 295 340
#     4   9  19  36  54  90 114 154 188 234 299 343
#     4  10  20  40  57  85 118 153 189 241 290 344
#     4  10  21  34  60  88 113 149 200 242 287 342
#     4   9  20  35  55  87 119 153 186 237 299 349
#
# _framework density 22.146034
#
# number of rings (size 3 to 8) (size 9 to 14) (size 15 to 20)
#    0.857    1.143    2.857    0.857    2.000    1.714 
#    2.571    0.714    0.000    1.714    0.000    0.000 
#    0.000    0.000    0.000    0.000    0.000    0.000 
#
# Total GULP energy -77969.067039 kJ/mol
# GULP energy per Si atom -5569.219074 kJ/mol
# Density = 2.209563 g / cm^3
# Si number density = 22.146034 Si / 1000 Ang^3
#
#
#
# Elastic Constant Matrix: (Units=GPa)
#
#
# Indices 1 2 3 4 5 6 
#
# 1 27.1740 8.1666 7.1047 -14.0537 -2.6520 -16.0276
# 2 8.1666 123.4868 23.1989 -33.6382 -0.2778 -36.6191
# 3 7.1047 23.1989 44.7606 -23.5482 -3.4361 -11.4414
# 4 -14.0537 -33.6382 -23.5482 54.5177 -8.9209 6.7753
# 5 -2.6520 -0.2778 -3.4361 -8.9209 19.2755 -0.0598
# 6 -16.0276 -36.6191 -11.4414 6.7753 -0.0598 37.1379
#
#
#
# Elastic Compliance Matrix: (Units=1/GPa)
#
#
# Indices 1 2 3 4 5 6 
#
# 1 0.075459 0.015242 0.010854 0.032479 0.027708 0.045058
# 2 0.015242 0.016892 0.002591 0.014365 0.009517 0.021427
# 3 0.010854 0.002591 0.035127 0.020634 0.017387 0.014325
# 4 0.032479 0.014365 0.020634 0.046111 0.029776 0.026174
# 5 0.027708 0.009517 0.017387 0.029776 0.072775 0.021384
# 6 0.045058 0.021427 0.014325 0.026174 0.021384 0.067172
#
#
# Mechanical properties :
#
#
# Convention : Reuss Voigt Hill
#
# Bulk Modulus (GPa) = 5.40973 30.26242 17.83608
# Shear Modulus (GPa) = 15.73423 32.64964 24.19193
#
# Velocity S-wave (km/s) = 2.66837 3.84381 3.30871
# Velocity P-wave (km/s) = 3.45567 5.77879 4.76110
#
# Compressibility (1/GPa) = 0.18485209
#
# Stress axis : x y z
#
# Youngs Moduli (GPa) = 13.25224 59.20067 28.46803
#
# Poissons Ratio (x) = -0.90233 -0.30900
# Poissons Ratio (y) = -0.20199 -0.07375
# Poissons Ratio (z) = -0.14385 -0.15338
#
# Static dielectric constant tensor:
#      x y z
#    x 1.850250 0.018470 0.042080 
#    y 0.018470 1.934740 -0.047560 
#    z 0.042080 -0.047560 1.892620 
# 
# From -- ./inp_files/282518.got.cif
#   From: 2010.05.17/outbox.cif.g08.bks.cpg/sg2_142_cif.got.tgz:282518.got - 2010.06.03 11:33:40.
