data_PCOD9098263
_publ_section_title
;
Structure prediction by ZEFSAII (Michael W. Deem and Ramdas Pophale) SiO2 
 PCOD9098263
Probable space group: P -1
;
_chemical_formula_sum "Si O2"
_cell_formula_units_Z 14
_cell_length_a 9.005951
_cell_length_b 22.469468
_cell_length_c 9.367842
_cell_angle_alpha 132.739477
_cell_angle_beta 98.725814
_cell_angle_gamma 44.191494
_cell_volume 734.024577
_symmetry_space_group_name_H-M "P -1"
_symmetry_group_IT_number 2
_symmetry_cell_setting 'triclinic'
loop_
_space_group_symop_operation_xyz
x,y,z
-x,-y,-z
loop_
_atom_site_type_symbol
_atom_site_label
_atom_site_fract_x
_atom_site_fract_y
_atom_site_fract_z
Si Si1 0.211077 0.734237 0.415310
Si Si2 0.010263 0.533528 0.399314
Si Si3 0.813640 0.646035 0.114475
Si Si4 0.562121 0.190760 0.415261
Si Si5 0.830836 0.363600 0.310603
Si Si6 0.211625 0.080771 0.093598
Si Si7 0.188853 0.615261 0.989128
O O1 0.267312 0.804174 0.533612
O O2 0.176838 0.707783 0.213854
O O3 0.947806 0.836522 0.644921
O O4 0.492269 0.564086 0.244779
O O5 0.706437 0.667478 0.495567
O O6 0.000000 0.500000 0.500000
O O7 0.091035 0.590179 0.518608
O O8 0.225972 0.385326 0.089202
O O9 0.553520 0.782564 0.402006
O O10 0.992267 0.643559 0.095702
O O11 0.000000 0.500000 0.000000
O O12 0.726037 0.041456 0.127032
O O13 0.500000 0.500000 0.500000
O O14 0.005459 0.211377 0.156995
O O15 0.898098 0.343698 0.121104
O O16 0.500000 0.000000 0.000000
#
# Coordination Sequence:
#
# PCOD9098263 Si02
#       7
#     2   2   2   2   2   2   2
#     4  11  23  40  67  93 131 168 218 269 318 388
#     4  11  21  39  65  97 129 165 214 268 323 370
#     4  10  20  36  64  93 127 165 213 262 317 385
#     4  11  23  42  65  95 129 175 217 261 325 393
#     4  12  25  41  66  97 131 168 219 272 314 385
#     4  12  25  44  65  94 133 178 212 262 335 390
#     4  11  22  40  64 101 125 165 222 270 317 373
#
# _framework density 19.072932999999999
#
# number of rings (size 3 to 8) (size 9 to 14) (size 15 to 20)
#    0.000    0.857    7.143    1.286    4.000    0.000 
#    0.000    5.000    0.000    0.000    0.000    0.000 
#    0.000    0.000    0.000    0.000    0.000    0.000 
#
# Total GULP energy -78219.469709 kJ/mol
# GULP energy per Si atom -5587.104979 kJ/mol
# Density = 1.902952 g / cm^3
# Si number density = 19.072933 Si / 1000 Ang^3
#
#
#
# Elastic Constant Matrix: (Units=GPa)
#
#
# Indices 1 2 3 4 5 6 
#
# 1 123.3967 17.5525 39.7554 -1.6162 6.0173 -5.1726
# 2 17.5525 63.9524 23.8416 -8.3311 -3.6030 0.2868
# 3 39.7554 23.8416 114.7806 -10.9582 3.0576 -0.3587
# 4 -1.6162 -8.3311 -10.9582 32.2387 1.0648 3.2083
# 5 6.0173 -3.6030 3.0576 1.0648 46.3410 -5.9714
# 6 -5.1726 0.2868 -0.3587 3.2083 -5.9714 20.6443
#
#
#
# Elastic Compliance Matrix: (Units=1/GPa)
#
#
# Indices 1 2 3 4 5 6 
#
# 1 0.009430 -0.001681 -0.003000 -0.001180 -0.000837 0.002275
# 2 -0.001681 0.017699 -0.002799 0.003566 0.001593 -0.000809
# 3 -0.003000 -0.002799 0.010624 0.002881 -0.000749 -0.001193
# 4 -0.001180 0.003566 0.002881 0.033487 -0.001286 -0.005871
# 5 -0.000837 0.001593 -0.000749 -0.001286 0.022732 0.006530
# 6 0.002275 -0.000809 -0.001193 -0.005871 0.006530 0.051801
#
#
# Mechanical properties :
#
#
# Convention : Reuss Voigt Hill
#
# Bulk Modulus (GPa) = 43.87159 51.60319 47.73739
# Shear Modulus (GPa) = 29.70316 34.57683 32.14000
#
# Velocity S-wave (km/s) = 3.95060 4.26241 4.10946
# Velocity P-wave (km/s) = 6.62281 7.16510 6.89928
#
# Compressibility (1/GPa) = 0.02279379
#
# Stress axis : x y z
#
# Youngs Moduli (GPa) = 106.03946 56.49957 94.12543
#
# Poissons Ratio (x) = 0.09497 0.28242
# Poissons Ratio (y) = 0.17823 0.26343
# Poissons Ratio (z) = 0.31817 0.15813
#
# Static dielectric constant tensor:
#      x y z
#    x 1.665450 -0.003020 -0.004710 
#    y -0.003020 1.645260 -0.012490 
#    z -0.004710 -0.012490 1.679910 
# 
# From -- ./inp_files/172285.got.cif
#   From: 2010.05.17/outbox.cif.g08.bks.cpg/sg2_87_cif.got.tgz:172285.got - 2010.06.03 11:33:40.
