data_PCOD9098750
_publ_section_title
;
Structure prediction by ZEFSAII (Michael W. Deem and Ramdas Pophale) SiO2 
 PCOD9098750
Probable space group: P -1
;
_chemical_formula_sum "Si O2"
_cell_formula_units_Z 12
_cell_length_a 7.786675
_cell_length_b 9.328012
_cell_length_c 12.414004
_cell_angle_alpha 128.406227
_cell_angle_beta 42.951405
_cell_angle_gamma 115.019434
_cell_volume 480.595249
_symmetry_space_group_name_H-M "P -1"
_symmetry_group_IT_number 2
_symmetry_cell_setting 'triclinic'
loop_
_space_group_symop_operation_xyz
x,y,z
-x,-y,-z
loop_
_atom_site_type_symbol
_atom_site_label
_atom_site_fract_x
_atom_site_fract_y
_atom_site_fract_z
Si Si1 0.024693 0.343957 0.761226
Si Si2 0.817063 0.807664 0.594494
Si Si3 0.917617 0.259780 0.998932
Si Si4 0.352492 0.767690 0.288694
Si Si5 0.328033 0.064264 0.932692
Si Si6 0.364869 0.388890 0.225333
O O1 0.759150 0.304258 0.807310
O O2 0.219068 0.271747 0.545843
O O3 0.017452 0.561708 0.881087
O O4 0.073215 0.252077 0.812237
O O5 0.804086 0.641420 0.605895
O O6 0.099110 0.879989 0.499965
O O7 0.599011 0.959637 0.792702
O O8 0.641808 0.319967 0.104958
O O9 0.869586 0.084248 0.012135
O O10 0.597453 0.872643 0.193234
O O11 0.385283 0.591722 0.266250
O O12 0.271733 0.246297 0.113293
#
# Coordination Sequence:
#
# PCOD9098750 Si02
#       6
#     2   2   2   2   2   2
#     4   9  21  36  58  78 110 146 181 216 276 321
#     4   9  20  35  58  79 110 143 185 214 269 324
#     4  10  20  37  57  81 107 146 185 219 263 332
#     4  10  21  36  56  83 110 142 179 226 274 310
#     4  11  21  33  58  85 109 139 188 221 263 321
#     4  11  20  34  59  85 109 138 183 228 269 311
#
# _framework density 24.969035999999999
#
# number of rings (size 3 to 8) (size 9 to 14) (size 15 to 20)
#    1.000    1.000    1.667    3.500    0.000    2.667 
#    0.000    0.833    0.000    2.000    0.000    0.000 
#    0.000    0.000    0.000    0.000    0.000    0.000 
#
# Total GULP energy -67015.200102 kJ/mol
# GULP energy per Si atom -5584.600008 kJ/mol
# Density = 2.491221 g / cm^3
# Si number density = 24.969036 Si / 1000 Ang^3
#
#
#
# Elastic Constant Matrix: (Units=GPa)
#
#
# Indices 1 2 3 4 5 6 
#
# 1 41.4978 48.4246 21.3224 -6.7223 9.3283 -9.6639
# 2 48.4246 241.5699 52.9928 -28.0534 4.4969 -20.3084
# 3 21.3224 52.9928 89.0621 -18.9135 4.2120 -0.2765
# 4 -6.7223 -28.0534 -18.9135 43.3885 -0.5302 -0.0204
# 5 9.3283 4.4969 4.2120 -0.5302 18.4235 -4.1416
# 6 -9.6639 -20.3084 -0.2765 -0.0204 -4.1416 55.8393
#
#
#
# Elastic Compliance Matrix: (Units=1/GPa)
#
#
# Indices 1 2 3 4 5 6 
#
# 1 0.037823 -0.006006 -0.004784 -0.000301 -0.015890 0.003159
# 2 -0.006006 0.006067 -0.001804 0.002235 0.002336 0.001332
# 3 -0.004784 -0.001804 0.014398 0.004360 -0.000631 -0.001458
# 4 -0.000301 0.002235 0.004360 0.026342 -0.000461 0.000758
# 5 -0.015890 0.002336 -0.000631 -0.000461 0.062499 0.002732
# 6 0.003159 0.001332 -0.001458 0.000758 0.002732 0.019136
#
#
# Mechanical properties :
#
#
# Convention : Reuss Voigt Hill
#
# Bulk Modulus (GPa) = 30.21131 68.62327 49.41729
# Shear Modulus (GPa) = 24.69297 40.15626 32.42462
#
# Velocity S-wave (km/s) = 3.14816 4.01464 3.60751
# Velocity P-wave (km/s) = 5.03392 7.00234 6.09808
#
# Compressibility (1/GPa) = 0.03310019
#
# Stress axis : x y z
#
# Youngs Moduli (GPa) = 26.43873 164.81604 69.45321
#
# Poissons Ratio (x) = 0.98990 0.33229
# Poissons Ratio (y) = 0.15879 0.12529
# Poissons Ratio (z) = 0.12649 0.29731
#
# Static dielectric constant tensor:
#      x y z
#    x 2.018750 -0.030700 -0.064940 
#    y -0.030700 2.048570 -0.065460 
#    z -0.064940 -0.065460 2.030250 
# 
# From -- ./inp_files/146390.got.cif
#   From: 2010.05.17/outbox.cif.g08.bks.cpg/sg2_74_cif.got.tgz:146390.got - 2010.06.03 11:33:40.
