data_PCOD9098073
_publ_section_title
;
Structure prediction by ZEFSAII (Michael W. Deem and Ramdas Pophale) SiO2 
 PCOD9098073
Probable space group: P -1
;
_chemical_formula_sum "Si O2"
_cell_formula_units_Z 16
_cell_length_a 17.108194
_cell_length_b 10.430758
_cell_length_c 10.829866
_cell_angle_alpha 65.633459
_cell_angle_beta 116.612732
_cell_angle_gamma 154.021619
_cell_volume 756.614880
_symmetry_space_group_name_H-M "P -1"
_symmetry_group_IT_number 2
_symmetry_cell_setting 'triclinic'
loop_
_space_group_symop_operation_xyz
x,y,z
-x,-y,-z
loop_
_atom_site_type_symbol
_atom_site_label
_atom_site_fract_x
_atom_site_fract_y
_atom_site_fract_z
Si Si1 0.011813 0.685051 0.080724
Si Si2 0.471138 0.899338 0.384435
Si Si3 0.378681 0.468613 0.443260
Si Si4 0.909628 0.518078 0.793299
Si Si5 0.358280 0.838643 0.854340
Si Si6 0.539033 0.375155 0.817239
Si Si7 0.242234 0.186505 0.699634
Si Si8 0.681839 0.663704 0.041952
O O1 0.847858 0.492626 0.131283
O O2 0.094927 0.650065 0.187501
O O3 0.916334 0.525930 0.943477
O O4 0.165168 0.018457 0.035257
O O5 0.497012 0.767739 0.454513
O O6 0.263292 0.639447 0.308435
O O7 0.500000 0.000000 0.500000
O O8 0.581449 0.116186 0.259205
O O9 0.500000 0.500000 0.500000
O O10 0.322826 0.427693 0.279057
O O11 0.228984 0.238318 0.535409
O O12 0.087615 0.852284 0.742868
O O13 0.385026 0.045846 0.802288
O O14 0.500000 0.000000 0.000000
O O15 0.434740 0.375749 0.753724
O O16 0.629644 0.477636 0.973717
O O17 0.252396 0.289265 0.793569
O O18 0.500000 0.500000 0.000000
#
# Coordination Sequence:
#
# PCOD9098073 Si02
#       8
#     2   2   2   2   2   2   2   2
#     4  10  20  38  64  95 123 167 213 259 324 380
#     4  11  25  41  60  95 130 163 215 268 319 373
#     4   9  20  38  61  80 120 169 203 244 313 384
#     4  10  20  36  63  92 124 160 212 267 311 384
#     4  11  21  39  65  86 125 170 212 258 324 382
#     4   9  18  35  56  87 115 157 206 252 304 372
#     4   9  17  34  58  83 115 159 207 244 306 372
#     4   9  19  32  58  93 118 146 208 263 302 364
#
# _framework density 21.146822
#
# number of rings (size 3 to 8) (size 9 to 14) (size 15 to 20)
#    0.000    2.250    2.500    0.000    1.750    4.500 
#    2.250    1.250    0.000    0.000    0.000    0.000 
#    0.000    0.000    0.000    0.000    0.000    0.000 
#
# Total GULP energy -89149.063441 kJ/mol
# GULP energy per Si atom -5571.816465 kJ/mol
# Density = 2.109869 g / cm^3
# Si number density = 21.146822 Si / 1000 Ang^3
#
#
#
# Elastic Constant Matrix: (Units=GPa)
#
#
# Indices 1 2 3 4 5 6 
#
# 1 81.2858 36.1561 46.0775 -0.0506 -24.9781 -0.2586
# 2 36.1561 57.4505 33.4384 -3.1073 -24.0045 7.1507
# 3 46.0775 33.4384 94.1088 -17.1981 -44.5530 11.4425
# 4 -0.0506 -3.1073 -17.1981 25.9488 6.4494 -8.1692
# 5 -24.9781 -24.0045 -44.5530 6.4494 46.2418 -3.1970
# 6 -0.2586 7.1507 11.4425 -8.1692 -3.1970 24.5445
#
#
#
# Elastic Compliance Matrix: (Units=1/GPa)
#
#
# Indices 1 2 3 4 5 6 
#
# 1 0.021480 -0.009571 -0.009329 -0.005262 -0.001244 0.005450
# 2 -0.009571 0.028232 -0.000693 -0.001547 0.008522 -0.007408
# 3 -0.009329 -0.000693 0.027139 0.011221 0.018743 -0.006372
# 4 -0.005262 -0.001547 0.011221 0.049178 0.001114 0.011677
# 5 -0.001244 0.008522 0.018743 0.001114 0.042916 -0.005273
# 6 0.005450 -0.007408 -0.006372 0.011677 -0.005273 0.049128
#
#
# Mechanical properties :
#
#
# Convention : Reuss Voigt Hill
#
# Bulk Modulus (GPa) = 26.55049 51.57657 39.06353
# Shear Modulus (GPa) = 18.53129 27.15854 22.84492
#
# Velocity S-wave (km/s) = 2.96347 3.58758 3.29036
# Velocity P-wave (km/s) = 4.92871 6.45009 5.74003
#
# Compressibility (1/GPa) = 0.03766409
#
# Stress axis : x y z
#
# Youngs Moduli (GPa) = 46.55551 35.42097 36.84761
#
# Poissons Ratio (x) = 0.33900 0.34377
# Poissons Ratio (y) = 0.44557 0.02554
# Poissons Ratio (z) = 0.43434 0.02455
#
# Static dielectric constant tensor:
#      x y z
#    x 1.805290 -0.037150 -0.012080 
#    y -0.037150 1.742780 -0.027020 
#    z -0.012080 -0.027020 1.853450 
# 
# From -- ./inp_files/447182.got.cif
#   From: 2010.05.17/outbox.cif.g08.bks.cpg/sg2_224_cif.got.tgz:447182.got - 2010.06.03 11:33:40.
