data_PCOD9098829
_publ_section_title
;
Structure prediction by ZEFSAII (Michael W. Deem and Ramdas Pophale) SiO2 
 PCOD9098829
Probable space group: P -1
;
_chemical_formula_sum "Si O2"
_cell_formula_units_Z 16
_cell_length_a 12.810098
_cell_length_b 9.622758
_cell_length_c 12.499129
_cell_angle_alpha 144.938595
_cell_angle_beta 125.178909
_cell_angle_gamma 68.433089
_cell_volume 705.465598
_symmetry_space_group_name_H-M "P -1"
_symmetry_group_IT_number 2
_symmetry_cell_setting 'triclinic'
loop_
_space_group_symop_operation_xyz
x,y,z
-x,-y,-z
loop_
_atom_site_type_symbol
_atom_site_label
_atom_site_fract_x
_atom_site_fract_y
_atom_site_fract_z
Si Si1 0.764674 0.322562 0.535180
Si Si2 0.663814 0.489071 0.163180
Si Si3 0.271175 0.466111 0.141270
Si Si4 0.837157 0.323228 0.340215
Si Si5 0.970128 0.886325 0.795551
Si Si6 0.626568 0.759571 0.119760
Si Si7 0.008745 0.782285 0.286650
Si Si8 0.760302 0.029316 0.626995
O O1 0.714332 0.505050 0.703639
O O2 0.753534 0.296093 0.383889
O O3 0.918290 0.384408 0.700699
O O4 0.694637 0.044366 0.355618
O O5 0.760681 0.372412 0.218959
O O6 0.522303 0.309762 0.973841
O O7 0.665745 0.762001 0.385027
O O8 0.697881 0.577445 0.117126
O O9 0.361331 0.306605 0.038320
O O10 0.307061 0.742640 0.285634
O O11 0.123616 0.351545 0.935693
O O12 0.912321 0.103829 0.216863
O O13 0.930334 0.588496 0.590376
O O14 0.844104 0.991759 0.755370
O O15 0.000000 0.000000 0.000000
O O16 0.117663 0.903320 0.341374
O O17 0.000000 0.000000 0.500000
#
# Coordination Sequence:
#
# PCOD9098829 Si02
#       8
#     2   2   2   2   2   2   2   2
#     4  11  22  40  60  94 119 165 207 249 310 375
#     4  10  22  45  61  88 120 166 208 262 300 365
#     4  11  23  36  63  95 124 160 200 261 305 360
#     4  10  24  41  61  85 132 159 200 254 311 363
#     4  10  23  37  59  91 123 165 197 243 310 381
#     4  11  23  41  66  86 122 159 218 257 302 355
#     4  11  19  34  60  89 123 154 196 249 307 357
#     4  10  20  37  57  90 120 153 204 241 304 369
#
# _framework density 22.680057000000001
#
# number of rings (size 3 to 8) (size 9 to 14) (size 15 to 20)
#    0.000    1.500    3.750    2.250    5.250    2.000 
#    0.000    0.625    0.000    0.000    0.000    0.000 
#    0.000    0.000    0.000    0.000    0.000    0.000 
#
# Total GULP energy -89093.035270 kJ/mol
# GULP energy per Si atom -5568.314704 kJ/mol
# Density = 2.262844 g / cm^3
# Si number density = 22.680057 Si / 1000 Ang^3
#
#
#
# Elastic Constant Matrix: (Units=GPa)
#
#
# Indices 1 2 3 4 5 6 
#
# 1 38.0374 5.3274 29.0792 -6.0830 -12.9731 17.6832
# 2 5.3274 58.3799 25.9376 -11.8232 1.4597 11.6830
# 3 29.0792 25.9376 70.7921 -9.1344 -11.7889 9.9108
# 4 -6.0830 -11.8232 -9.1344 31.4927 13.0076 -4.8548
# 5 -12.9731 1.4597 -11.7889 13.0076 42.8249 -4.9605
# 6 17.6832 11.6830 9.9108 -4.8548 -4.9605 25.7317
#
#
#
# Elastic Compliance Matrix: (Units=1/GPa)
#
#
# Indices 1 2 3 4 5 6 
#
# 1 0.063311 0.012523 -0.023852 0.001027 0.007428 -0.038382
# 2 0.012523 0.026338 -0.012396 0.008365 -0.004811 -0.015139
# 3 -0.023852 -0.012396 0.027100 -0.000464 0.002178 0.011914
# 4 0.001027 0.008365 -0.000464 0.040129 -0.012186 0.000897
# 5 0.007428 -0.004811 0.002178 -0.012186 0.030035 -0.000269
# 6 -0.038382 -0.015139 0.011914 0.000897 -0.000269 0.067641
#
#
# Mechanical properties :
#
#
# Convention : Reuss Voigt Hill
#
# Bulk Modulus (GPa) = 14.43019 31.98864 23.20941
# Shear Modulus (GPa) = 15.37966 27.13423 21.25694
#
# Velocity S-wave (km/s) = 2.60689 3.46264 3.06478
# Velocity P-wave (km/s) = 3.92905 5.48830 4.77278
#
# Compressibility (1/GPa) = 0.06929915
#
# Stress axis : x y z
#
# Youngs Moduli (GPa) = 15.79497 37.96809 36.90004
#
# Poissons Ratio (x) = -0.47547 0.88012
# Poissons Ratio (y) = -0.19780 0.45743
# Poissons Ratio (z) = 0.37673 0.47067
#
# Static dielectric constant tensor:
#      x y z
#    x 1.954430 0.046220 -0.010960 
#    y 0.046220 1.982370 -0.008580 
#    z -0.010960 -0.008580 1.838370 
# 
# From -- ./inp_files/446511.got.cif
#   From: 2010.05.17/outbox.cif.g08.bks.cpg/sg2_224_cif.got.tgz:446511.got - 2010.06.03 11:33:40.
