data_PCOD9098064
_publ_section_title
;
Structure prediction by ZEFSAII (Michael W. Deem and Ramdas Pophale) SiO2 
 PCOD9098064
Probable space group: P -1
;
_chemical_formula_sum "Si O2"
_cell_formula_units_Z 16
_cell_length_a 14.757261
_cell_length_b 11.397686
_cell_length_c 21.822279
_cell_angle_alpha 154.414594
_cell_angle_beta 151.244002
_cell_angle_gamma 30.253298
_cell_volume 713.814422
_symmetry_space_group_name_H-M "P -1"
_symmetry_group_IT_number 2
_symmetry_cell_setting 'triclinic'
loop_
_space_group_symop_operation_xyz
x,y,z
-x,-y,-z
loop_
_atom_site_type_symbol
_atom_site_label
_atom_site_fract_x
_atom_site_fract_y
_atom_site_fract_z
Si Si1 0.461299 0.813889 0.042130
Si Si2 0.045341 0.810852 0.632776
Si Si3 0.663472 0.457572 0.878888
Si Si4 0.605955 0.913843 0.420507
Si Si5 0.931447 0.141966 0.460550
Si Si6 0.563400 0.460545 0.330222
Si Si7 0.291674 0.324747 0.754239
Si Si8 0.076593 0.211245 0.949947
O O1 0.598327 0.678561 0.000528
O O2 0.333197 0.607030 0.887358
O O3 0.606542 0.776475 0.168019
O O4 0.291098 0.118038 0.066851
O O5 0.843856 0.742505 0.489657
O O6 0.007481 0.018314 0.645756
O O7 0.241757 0.561109 0.606024
O O8 0.088947 0.959112 0.789168
O O9 0.546080 0.234414 0.715205
O O10 0.574688 0.622348 0.840034
O O11 0.896784 0.273511 0.921702
O O12 0.592744 0.921236 0.342600
O O13 0.558511 0.222177 0.568849
O O14 0.057129 0.361791 0.634565
O O15 0.689202 0.271263 0.371983
O O16 0.000000 0.000000 0.500000
O O17 0.000000 0.500000 0.000000
#
# Coordination Sequence:
#
# PCOD9098064 Si02
#       8
#     2   2   2   2   2   2   2   2
#     4  10  22  45  61  85 126 163 203 251 297 353
#     4   9  21  39  59  87 123 150 199 250 305 351
#     4  11  23  37  65  92 117 161 199 249 308 357
#     4  10  20  38  62  96 118 146 206 250 302 359
#     4   9  20  37  60  89 116 160 194 240 306 357
#     4  10  20  36  63  92 118 153 190 259 302 351
#     4   9  21  41  63  88 124 163 200 247 299 359
#     4  12  26  41  59  91 122 162 209 247 300 365
#
# _framework density 22.414791000000001
#
# number of rings (size 3 to 8) (size 9 to 14) (size 15 to 20)
#    0.750    1.250    2.500    0.375    1.750    3.000 
#    4.500    3.125    0.000    0.000    0.000    0.000 
#    0.000    0.000    0.000    0.000    0.000    0.000 
#
# Total GULP energy -89168.714858 kJ/mol
# GULP energy per Si atom -5573.044679 kJ/mol
# Density = 2.236377 g / cm^3
# Si number density = 22.414791 Si / 1000 Ang^3
#
#
#
# Elastic Constant Matrix: (Units=GPa)
#
#
# Indices 1 2 3 4 5 6 
#
# 1 94.0379 42.5040 18.3958 -11.7867 -16.2908 0.5934
# 2 42.5040 79.8477 23.7917 -31.5233 -26.8423 -8.1681
# 3 18.3958 23.7917 65.1989 -24.5898 -21.5270 -2.6011
# 4 -11.7867 -31.5233 -24.5898 34.7020 5.9015 -0.8945
# 5 -16.2908 -26.8423 -21.5270 5.9015 41.8894 -9.3160
# 6 0.5934 -8.1681 -2.6011 -0.8945 -9.3160 39.8014
#
#
#
# Elastic Compliance Matrix: (Units=1/GPa)
#
#
# Indices 1 2 3 4 5 6 
#
# 1 0.015054 -0.011285 -0.004287 -0.007707 -0.003334 -0.003774
# 2 -0.011285 0.039531 0.011376 0.036261 0.025178 0.015733
# 3 -0.004287 0.011376 0.028959 0.026432 0.018848 0.009297
# 4 -0.007707 0.036261 0.026432 0.073673 0.027297 0.017329
# 5 -0.003334 0.025178 0.018848 0.027297 0.048653 0.018450
# 6 -0.003774 0.015733 0.009297 0.017329 0.018450 0.033725
#
#
# Mechanical properties :
#
#
# Convention : Reuss Voigt Hill
#
# Bulk Modulus (GPa) = 13.30665 45.38525 29.34595
# Shear Modulus (GPa) = 18.31239 33.57144 25.94191
#
# Velocity S-wave (km/s) = 2.86138 3.87426 3.40569
# Velocity P-wave (km/s) = 4.10684 6.34862 5.34655
#
# Compressibility (1/GPa) = 0.07515040
#
# Stress axis : x y z
#
# Youngs Moduli (GPa) = 66.42835 25.29669 34.53138
#
# Poissons Ratio (x) = 0.28548 0.14804
# Poissons Ratio (y) = 0.74966 -0.39282
# Poissons Ratio (z) = 0.28479 -0.28777
#
# Static dielectric constant tensor:
#      x y z
#    x 1.894500 0.085990 0.038870 
#    y 0.085990 1.866330 -0.005930 
#    z 0.038870 -0.005930 1.862250 
# 
# From -- ./inp_files/597891.got.cif
#   From: 2010.05.17/outbox.cif.g08.bks.cpg/sg2_299_cif.got.tgz:597891.got - 2010.06.03 11:33:40.
