data_PCOD9098424
_publ_section_title
;
Structure prediction by ZEFSAII (Michael W. Deem and Ramdas Pophale) SiO2 
 PCOD9098424
Probable space group: P -1
;
_chemical_formula_sum "Si O2"
_cell_formula_units_Z 12
_cell_length_a 10.711994
_cell_length_b 15.769099
_cell_length_c 7.193876
_cell_angle_alpha 56.834869
_cell_angle_beta 62.374561
_cell_angle_gamma 25.567580
_cell_volume 437.512797
_symmetry_space_group_name_H-M "P -1"
_symmetry_group_IT_number 2
_symmetry_cell_setting 'triclinic'
loop_
_space_group_symop_operation_xyz
x,y,z
-x,-y,-z
loop_
_atom_site_type_symbol
_atom_site_label
_atom_site_fract_x
_atom_site_fract_y
_atom_site_fract_z
Si Si1 0.163082 0.520447 0.337636
Si Si2 0.308683 0.883821 0.139821
Si Si3 0.033328 0.573221 0.751937
Si Si4 0.100279 0.191944 0.143377
Si Si5 0.522230 0.479523 0.730103
Si Si6 0.729167 0.143113 0.194412
O O1 0.980306 0.588731 0.551922
O O2 0.273778 0.560055 0.290466
O O3 0.472296 0.279044 0.349388
O O4 0.970776 0.671994 0.112417
O O5 0.263096 0.939115 0.885726
O O6 0.617151 0.635781 0.238958
O O7 0.365090 0.694012 0.041811
O O8 0.313218 0.980632 0.148136
O O9 0.869367 0.771294 0.722649
O O10 0.000000 0.500000 0.000000
O O11 0.955789 0.027242 0.738858
O O12 0.500000 0.500000 0.500000
O O13 0.807694 0.309150 0.224260
#
# Coordination Sequence:
#
# PCOD9098424 Si02
#       6
#     2   2   2   2   2   2
#     4  11  20  42  67  95 130 167 204 269 329 376
#     4  11  21  41  65  96 135 160 208 266 317 388
#     4  12  28  46  63  90 129 178 224 259 307 377
#     4  11  22  42  66  94 129 165 210 267 323 376
#     4  11  17  35  65 102 133 159 197 268 336 380
#     4  10  20  36  66 103 131 157 205 263 333 386
#
# _framework density 27.427768
#
# number of rings (size 3 to 8) (size 9 to 14) (size 15 to 20)
#    0.000    1.000    8.333    1.000    0.000    2.000 
#    9.000    0.833    0.000    0.000    0.000    0.000 
#    0.000    0.000    0.000    0.000    0.000    0.000 
#
# Total GULP energy -67186.640136 kJ/mol
# GULP energy per Si atom -5598.886678 kJ/mol
# Density = 2.736534 g / cm^3
# Si number density = 27.427768 Si / 1000 Ang^3
#
#
#
# Elastic Constant Matrix: (Units=GPa)
#
#
# Indices 1 2 3 4 5 6 
#
# 1 82.3228 41.7266 25.1674 7.4679 -4.8322 -7.2287
# 2 41.7266 146.0143 40.6972 42.3647 -4.1382 29.6093
# 3 25.1674 40.6972 153.5750 42.6494 -14.2973 0.4334
# 4 7.4679 42.3647 42.6494 43.4796 8.6276 7.2856
# 5 -4.8322 -4.1382 -14.2973 8.6276 38.1106 11.5032
# 6 -7.2287 29.6093 0.4334 7.2856 11.5032 29.5581
#
#
#
# Elastic Compliance Matrix: (Units=1/GPa)
#
#
# Indices 1 2 3 4 5 6 
#
# 1 0.018491 -0.010162 -0.003476 0.008918 -0.006653 0.015144
# 2 -0.010162 0.019226 0.003068 -0.018843 0.012907 -0.022168
# 3 -0.003476 0.003068 0.011008 -0.014211 0.008402 -0.003851
# 4 0.008918 -0.018843 -0.014211 0.055694 -0.023943 0.016855
# 5 -0.006653 0.012907 0.008402 -0.023943 0.043079 -0.025543
# 6 0.015144 -0.022168 -0.003851 0.016855 -0.025543 0.065585
#
#
# Mechanical properties :
#
#
# Convention : Reuss Voigt Hill
#
# Bulk Modulus (GPa) = 36.25345 66.34383 51.29864
# Shear Modulus (GPa) = 20.54063 40.51773 30.52918
#
# Velocity S-wave (km/s) = 2.73957 3.84767 3.33990
# Velocity P-wave (km/s) = 4.82219 6.63178 5.79802
#
# Compressibility (1/GPa) = 0.02758358
#
# Stress axis : x y z
#
# Youngs Moduli (GPa) = 54.07952 52.01264 90.84376
#
# Poissons Ratio (x) = 0.52858 0.31577
# Poissons Ratio (y) = 0.54958 -0.27867
# Poissons Ratio (z) = 0.18798 -0.15955
#
# Static dielectric constant tensor:
#      x y z
#    x 2.192670 0.043540 -0.010990 
#    y 0.043540 2.233270 0.027840 
#    z -0.010990 0.027840 2.249120 
# 
# From -- ./inp_files/53412.got.cif
#   From: 2010.05.17/outbox.cif.g08.bks.cpg/sg2_27_cif.got.tgz:53412.got - 2010.06.03 11:33:40.
