data_PCOD9098290
_publ_section_title
;
Structure prediction by ZEFSAII (Michael W. Deem and Ramdas Pophale) SiO2 
 PCOD9098290
Probable space group: P -1
;
_chemical_formula_sum "Si O2"
_cell_formula_units_Z 14
_cell_length_a 15.632852
_cell_length_b 11.881813
_cell_length_c 8.316932
_cell_angle_alpha 131.173277
_cell_angle_beta 125.923904
_cell_angle_gamma 26.198213
_cell_volume 513.329485
_symmetry_space_group_name_H-M "P -1"
_symmetry_group_IT_number 2
_symmetry_cell_setting 'triclinic'
loop_
_space_group_symop_operation_xyz
x,y,z
-x,-y,-z
loop_
_atom_site_type_symbol
_atom_site_label
_atom_site_fract_x
_atom_site_fract_y
_atom_site_fract_z
Si Si1 0.345907 0.992300 0.432924
Si Si2 0.477271 0.510917 0.800418
Si Si3 0.272266 0.805447 0.577370
Si Si4 0.765929 0.744873 0.762250
Si Si5 0.932138 0.315157 0.296058
Si Si6 0.213314 0.225653 0.825993
Si Si7 0.125701 0.803892 0.164456
O O1 0.325708 0.127851 0.690617
O O2 0.366496 0.006930 0.279842
O O3 0.133287 0.166940 0.365728
O O4 0.501277 0.691116 0.386848
O O5 0.285162 0.800769 0.779439
O O6 0.670996 0.362986 0.819395
O O7 0.500000 0.500000 0.000000
O O8 0.500000 0.500000 0.500000
O O9 0.154374 0.801304 0.381695
O O10 0.215781 0.038048 0.672947
O O11 0.800228 0.562228 0.508191
O O12 0.988769 0.536013 0.840348
O O13 0.707514 0.805895 0.944574
O O14 0.880477 0.338593 0.076983
O O15 0.966277 0.111162 0.217554
#
# Coordination Sequence:
#
# PCOD9098290 Si02
#       7
#     2   2   2   2   2   2   2
#     4  10  18  33  51  79 102 134 169 209 260 297
#     4  10  19  31  53  76  99 131 176 217 243 297
#     4  10  16  31  51  72  95 132 174 205 242 298
#     4  10  19  29  53  79 103 130 170 212 254 308
#     4   9  16  31  51  75 105 130 162 206 264 311
#     4  10  17  30  49  78 100 130 172 208 256 292
#     4   9  17  30  54  73 100 135 163 206 263 304
#
# _framework density 27.272932000000001
#
# number of rings (size 3 to 8) (size 9 to 14) (size 15 to 20)
#    0.000    2.286    5.714    2.571    0.000    0.000 
#    0.000    0.000   12.571   12.000    0.000    0.000 
#    0.000    0.000    0.000    0.000    0.000    0.000 
#
# Total GULP energy -78010.680549 kJ/mol
# GULP energy per Si atom -5572.191468 kJ/mol
# Density = 2.721086 g / cm^3
# Si number density = 27.272932 Si / 1000 Ang^3
#
#
#
# Elastic Constant Matrix: (Units=GPa)
#
#
# Indices 1 2 3 4 5 6 
#
# 1 62.3676 11.6314 33.7922 -13.1806 -12.8998 -1.6270
# 2 11.6314 78.6736 39.0339 -21.8670 6.2838 32.7359
# 3 33.7922 39.0339 232.0520 -24.3156 -18.3818 7.3610
# 4 -13.1806 -21.8670 -24.3156 49.7891 7.5679 -5.2521
# 5 -12.8998 6.2838 -18.3818 7.5679 48.6209 -3.7549
# 6 -1.6270 32.7359 7.3610 -5.2521 -3.7549 34.8606
#
#
#
# Elastic Compliance Matrix: (Units=1/GPa)
#
#
# Indices 1 2 3 4 5 6 
#
# 1 0.019501 -0.004558 -0.001623 0.002242 0.005298 0.006442
# 2 -0.004558 0.029377 -0.003278 0.008735 -0.009677 -0.026834
# 3 -0.001623 -0.003278 0.005254 0.000618 0.002054 0.002207
# 4 0.002242 0.008735 0.000618 0.024988 -0.004573 -0.004956
# 5 0.005298 -0.009677 0.002054 -0.004573 0.025559 0.010965
# 6 0.006442 -0.026834 0.002207 -0.004956 0.010965 0.054153
#
#
# Mechanical properties :
#
#
# Convention : Reuss Voigt Hill
#
# Bulk Modulus (GPa) = 28.39712 60.22313 44.31013
# Shear Modulus (GPa) = 26.38668 45.89650 36.14159
#
# Velocity S-wave (km/s) = 3.11385 4.10672 3.64425
# Velocity P-wave (km/s) = 4.83352 6.67955 5.83006
#
# Compressibility (1/GPa) = 0.03521484
#
# Stress axis : x y z
#
# Youngs Moduli (GPa) = 51.27920 34.03986 190.31417
#
# Poissons Ratio (x) = 0.15517 0.30883
# Poissons Ratio (y) = 0.23375 0.62383
# Poissons Ratio (z) = 0.08321 0.11158
#
# Static dielectric constant tensor:
#      x y z
#    x 1.636730 -0.092960 1.335690 
#    y -0.092960 2.191130 0.497710 
#    z 1.335690 0.497710 -0.939010 
# 
# From -- ./inp_files/264226.got.cif
#   From: 2010.05.17/outbox.cif.g08.bks.cpg/sg2_133_cif.got.tgz:264226.got - 2010.06.03 11:33:40.
