data_PCOD9098484
_publ_section_title
;
Structure prediction by ZEFSAII (Michael W. Deem and Ramdas Pophale) SiO2 
 PCOD9098484
Probable space group: P -1
;
_chemical_formula_sum "Si O2"
_cell_formula_units_Z 16
_cell_length_a 9.877939
_cell_length_b 21.036790
_cell_length_c 26.535263
_cell_angle_alpha 12.474133
_cell_angle_beta 146.550204
_cell_angle_gamma 144.790197
_cell_volume 656.369362
_symmetry_space_group_name_H-M "P -1"
_symmetry_group_IT_number 2
_symmetry_cell_setting 'triclinic'
loop_
_space_group_symop_operation_xyz
x,y,z
-x,-y,-z
loop_
_atom_site_type_symbol
_atom_site_label
_atom_site_fract_x
_atom_site_fract_y
_atom_site_fract_z
Si Si1 0.696750 0.469937 0.470830
Si Si2 0.793491 0.508855 0.581191
Si Si3 0.451269 0.534892 0.191379
Si Si4 0.987925 0.707609 0.689956
Si Si5 0.633926 0.537179 0.933305
Si Si6 0.826032 0.850557 0.134368
Si Si7 0.256865 0.783100 0.561062
Si Si8 0.260802 0.992615 0.701557
O O1 0.816881 0.579089 0.475430
O O2 0.655652 0.748261 0.207183
O O3 0.466284 0.249886 0.574521
O O4 0.908732 0.255238 0.683308
O O5 0.500000 0.500000 0.500000
O O6 0.979050 0.709250 0.515362
O O7 0.857947 0.181773 0.871076
O O8 0.268208 0.430050 0.260438
O O9 0.692583 0.685739 0.174009
O O10 0.560351 0.303866 0.362675
O O11 0.293145 0.778663 0.924739
O O12 0.955463 0.819827 0.536019
O O13 0.000000 0.000000 0.500000
O O14 0.230567 0.529289 0.919814
O O15 0.354925 0.584232 0.791510
O O16 0.729542 0.868881 0.692921
O O17 0.702073 0.258434 0.135789
#
# Coordination Sequence:
#
# PCOD9098484 Si02
#       8
#     2   2   2   2   2   2   2   2
#     4  11  22  40  69 100 130 172 223 273 325 397
#     4  12  26  42  66 101 138 176 216 275 340 392
#     4  11  20  38  69  92 129 174 214 272 322 392
#     4  10  22  39  62  95 129 167 224 271 318 387
#     4   9  21  40  64  90 130 175 208 278 318 383
#     4  11  22  39  68  97 128 175 221 268 329 390
#     4  10  22  41  64  97 135 175 223 262 335 399
#     4  10  20  36  66  97 126 165 223 262 321 388
#
# _framework density 24.376518999999998
#
# number of rings (size 3 to 8) (size 9 to 14) (size 15 to 20)
#    0.000    1.500    3.750    1.875    1.750    5.000 
#    0.000    5.000    0.000    4.500    0.000    0.000 
#    0.000    0.000    0.000    0.000    0.000    0.000 
#
# Total GULP energy -89117.848344 kJ/mol
# GULP energy per Si atom -5569.865521 kJ/mol
# Density = 2.432104 g / cm^3
# Si number density = 24.376519 Si / 1000 Ang^3
#
#
#
# Elastic Constant Matrix: (Units=GPa)
#
#
# Indices 1 2 3 4 5 6 
#
# 1 60.4859 17.2501 32.5164 11.7112 4.3850 6.8503
# 2 17.2501 50.3252 217.3166 -54.4285 7.5934 -15.9206
# 3 32.5164 217.3166 -277.4241 163.1359 -5.4534 -15.7730
# 4 11.7112 -54.4285 163.1359 3.2659 -3.9853 -0.1894
# 5 4.3850 7.5934 -5.4534 -3.9853 27.4602 18.5617
# 6 6.8503 -15.9206 -15.7730 -0.1894 18.5617 25.1336
#
#
#
# Elastic Compliance Matrix: (Units=1/GPa)
#
#
# Indices 1 2 3 4 5 6 
#
# 1 0.021862 -0.005379 -0.003089 -0.003880 0.008947 -0.017940
# 2 -0.005379 0.010699 0.003639 -0.005278 -0.018433 0.024100
# 3 -0.003089 0.003639 0.001242 0.004565 -0.004555 0.007324
# 4 -0.003880 -0.005278 0.004565 0.015276 0.009451 -0.006285
# 5 0.008947 -0.018433 -0.004555 0.009451 0.103789 -0.093553
# 6 -0.017940 0.024100 0.007324 -0.006285 -0.093553 0.133583
#
#
# Mechanical properties :
#
#
# Convention : Reuss Voigt Hill
#
# Bulk Modulus (GPa) = 41.41605 40.83924 41.12765
# Shear Modulus (GPa) = 16.43900 -17.74112 -0.65106
#
# Velocity S-wave (km/s) = 2.59970 -2.70070 -0.51736
# Velocity P-wave (km/s) = 5.10277 2.65798 4.06836
#
# Compressibility (1/GPa) = 0.02414523
#
# Stress axis : x y z
#
# Youngs Moduli (GPa) = 45.74233 93.47075 805.39076
#
# Poissons Ratio (x) = 0.50275 2.48746
# Poissons Ratio (y) = 0.24603 -2.93073
# Poissons Ratio (z) = 0.14128 -0.34013
#
# Static dielectric constant tensor:
#      x y z
#    x 8.206340 4.496890 -1.853690 
#    y 4.496890 5.149830 -1.337200 
#    z -1.853690 -1.337200 2.480750 
# 
# From -- ./inp_files/623205.got.cif
#   From: 2010.05.17/outbox.cif.g08.bks.cpg/sg2_312_cif.got.tgz:623205.got - 2010.06.03 11:33:40.
