data_PCOD9098817
_publ_section_title
;
Structure prediction by ZEFSAII (Michael W. Deem and Ramdas Pophale) SiO2 
 PCOD9098817
Probable space group: P -1
;
_chemical_formula_sum "Si O2"
_cell_formula_units_Z 16
_cell_length_a 17.630640
_cell_length_b 15.305373
_cell_length_c 5.448185
_cell_angle_alpha 84.826285
_cell_angle_beta 117.997488
_cell_angle_gamma 138.367120
_cell_volume 772.563866
_symmetry_space_group_name_H-M "P -1"
_symmetry_group_IT_number 2
_symmetry_cell_setting 'triclinic'
loop_
_space_group_symop_operation_xyz
x,y,z
-x,-y,-z
loop_
_atom_site_type_symbol
_atom_site_label
_atom_site_fract_x
_atom_site_fract_y
_atom_site_fract_z
Si Si1 0.324068 0.573751 0.603050
Si Si2 0.587313 0.973471 0.357155
Si Si3 0.358473 0.446469 0.064558
Si Si4 0.588243 0.698898 0.746645
Si Si5 0.906564 0.917114 0.621205
Si Si6 0.126299 0.280110 0.150201
Si Si7 0.793224 0.975840 0.681284
Si Si8 0.595593 0.172547 0.381739
O O1 0.481835 0.682717 0.705657
O O2 0.199407 0.431897 0.281035
O O3 0.308316 0.664387 0.576458
O O4 0.325601 0.507564 0.847721
O O5 0.475484 0.874378 0.442832
O O6 0.688581 0.972117 0.507830
O O7 0.661393 0.128668 0.480216
O O8 0.517538 0.919815 0.993379
O O9 0.497389 0.589296 0.401316
O O10 0.392282 0.374196 0.048867
O O11 0.216712 0.317899 0.049910
O O12 0.731856 0.864106 0.833556
O O13 0.842568 0.767512 0.582309
O O14 0.800236 0.912492 0.483184
O O15 0.000000 0.000000 0.500000
O O16 0.000000 0.000000 0.000000
O O17 0.955451 0.144315 0.906420
#
# Coordination Sequence:
#
# PCOD9098817 Si02
#       8
#     2   2   2   2   2   2   2   2
#     4  11  22  37  61  87 127 172 204 260 323 378
#     4  10  22  42  68  98 122 155 216 271 316 374
#     4  10  21  38  53  85 127 169 208 256 311 381
#     4  10  20  37  57  88 121 162 221 261 306 371
#     4  10  23  40  57  86 128 172 207 247 303 369
#     4  10  24  37  55  89 129 169 208 249 315 382
#     4  11  21  41  64  91 128 165 218 263 312 369
#     4  10  22  42  68  95 124 161 207 270 327 369
#
# _framework density 20.710260000000002
#
# number of rings (size 3 to 8) (size 9 to 14) (size 15 to 20)
#    0.000    1.750    2.500    1.125    5.250    2.000 
#    6.750    0.625    0.000    0.750    0.000    0.000 
#    0.000    0.000    0.000    0.000    0.000    0.000 
#
# Total GULP energy -89197.984776 kJ/mol
# GULP energy per Si atom -5574.874048 kJ/mol
# Density = 2.066312 g / cm^3
# Si number density = 20.710260 Si / 1000 Ang^3
#
#
#
# Elastic Constant Matrix: (Units=GPa)
#
#
# Indices 1 2 3 4 5 6 
#
# 1 90.2310 37.8051 -0.6723 -8.7961 2.6777 -15.4506
# 2 37.8051 127.0509 2.2298 -4.3252 -1.0390 -12.0388
# 3 -0.6723 2.2298 38.4276 -6.0518 -3.3590 6.0349
# 4 -8.7961 -4.3252 -6.0518 31.6739 1.2501 6.0424
# 5 2.6777 -1.0390 -3.3590 1.2501 24.2720 -6.0758
# 6 -15.4506 -12.0388 6.0349 6.0424 -6.0758 51.4579
#
#
#
# Elastic Compliance Matrix: (Units=1/GPa)
#
#
# Indices 1 2 3 4 5 6 
#
# 1 0.013376 -0.003647 0.000380 0.002823 -0.001058 0.002662
# 2 -0.003647 0.009090 -0.000730 -0.000192 0.001016 0.001260
# 3 0.000380 -0.000730 0.027811 0.005928 0.002540 -0.003715
# 4 0.002823 -0.000192 0.005928 0.034355 -0.002320 -0.004200
# 5 -0.001058 0.001016 0.002540 -0.002320 0.043078 0.004981
# 6 0.002662 0.001260 -0.003715 -0.004200 0.004981 0.022044
#
#
# Mechanical properties :
#
#
# Convention : Reuss Voigt Hill
#
# Bulk Modulus (GPa) = 23.65123 37.15943 30.40533
# Shear Modulus (GPa) = 29.09619 35.90388 32.50004
#
# Velocity S-wave (km/s) = 3.75229 4.16820 3.96570
# Velocity P-wave (km/s) = 5.49707 6.41457 5.97346
#
# Compressibility (1/GPa) = 0.04228111
#
# Stress axis : x y z
#
# Youngs Moduli (GPa) = 74.76082 110.01027 35.95707
#
# Poissons Ratio (x) = 0.40122 -0.01365
# Poissons Ratio (y) = 0.27266 0.02627
# Poissons Ratio (z) = -0.02838 0.08036
#
# Static dielectric constant tensor:
#      x y z
#    x 1.786970 -0.004320 -0.057770 
#    y -0.004320 1.764230 0.000480 
#    z -0.057770 0.000480 1.868280 
# 
# From -- ./inp_files/110826.got.cif
#   From: 2010.05.17/outbox.cif.g08.bks.cpg/sg2_56_cif.got.tgz:110826.got - 2010.06.03 11:33:40.
