data_PCOD9098156
_publ_section_title
;
Structure prediction by ZEFSAII (Michael W. Deem and Ramdas Pophale) SiO2 
 PCOD9098156
Probable space group: P -1
;
_chemical_formula_sum "Si O2"
_cell_formula_units_Z 12
_cell_length_a 8.954088
_cell_length_b 14.317278
_cell_length_c 10.466530
_cell_angle_alpha 42.435623
_cell_angle_beta 125.169045
_cell_angle_gamma 148.629349
_cell_volume 465.684361
_symmetry_space_group_name_H-M "P -1"
_symmetry_group_IT_number 2
_symmetry_cell_setting 'triclinic'
loop_
_space_group_symop_operation_xyz
x,y,z
-x,-y,-z
loop_
_atom_site_type_symbol
_atom_site_label
_atom_site_fract_x
_atom_site_fract_y
_atom_site_fract_z
Si Si1 0.794294 0.893093 0.132216
Si Si2 0.714921 0.238600 0.111371
Si Si3 0.293597 0.087277 0.573796
Si Si4 0.722468 0.298969 0.335555
Si Si5 0.758728 0.561986 0.423144
Si Si6 0.184398 0.349064 0.941949
O O1 0.710223 0.686210 0.330828
O O2 0.516276 0.818238 0.031125
O O3 0.000000 0.000000 0.000000
O O4 0.979963 0.096247 0.115270
O O5 0.601436 0.173795 0.268386
O O6 0.756464 0.103993 0.228885
O O7 0.000000 0.500000 0.000000
O O8 0.471200 0.183829 0.429457
O O9 0.504847 0.297531 0.560348
O O10 0.000000 0.000000 0.500000
O O11 0.887165 0.542666 0.147742
O O12 0.960802 0.338629 0.473289
O O13 0.813605 0.622541 0.238179
O O14 0.500000 0.500000 0.000000
#
# Coordination Sequence:
#
# PCOD9098156 Si02
#       6
#     2   2   2   2   2   2
#     4  10  20  40  67  98 136 177 224 285 339 402
#     4  12  26  46  68 102 141 182 230 284 341 409
#     4  11  23  42  68 101 138 176 225 285 339 404
#     4  11  23  44  71  99 134 183 228 278 343 408
#     4  10  21  40  66 100 135 178 228 279 339 410
#     4  10  20  36  64 100 133 174 222 275 338 403
#
# _framework density 25.768526000000001
#
# number of rings (size 3 to 8) (size 9 to 14) (size 15 to 20)
#    0.000    1.333    0.000    8.500    0.000    4.000 
#    0.000   11.667    0.000    0.000    0.000    0.000 
#    0.000    0.000    0.000    0.000    0.000    0.000 
#
# Total GULP energy -67287.843961 kJ/mol
# GULP energy per Si atom -5607.320330 kJ/mol
# Density = 2.570988 g / cm^3
# Si number density = 25.768526 Si / 1000 Ang^3
#
#
#
# Elastic Constant Matrix: (Units=GPa)
#
#
# Indices 1 2 3 4 5 6 
#
# 1 172.0232 82.7159 82.4214 -6.5702 51.3677 -20.8808
# 2 82.7159 216.2143 95.5917 -8.8471 53.5731 5.1136
# 3 82.4214 95.5917 182.1295 -18.2978 54.9468 5.0260
# 4 -6.5702 -8.8471 -18.2978 72.8746 -1.6772 12.3184
# 5 51.3677 53.5731 54.9468 -1.6772 71.6309 -0.7291
# 6 -20.8808 5.1136 5.0260 12.3184 -0.7291 56.9578
#
#
#
# Elastic Compliance Matrix: (Units=1/GPa)
#
#
# Indices 1 2 3 4 5 6 
#
# 1 0.009296 -0.001745 -0.002420 -0.000719 -0.003482 0.003889
# 2 -0.001745 0.006793 -0.002025 0.000303 -0.002281 -0.001166
# 3 -0.002420 -0.002025 0.009004 0.002050 -0.003629 -0.001990
# 4 -0.000719 0.000303 0.002050 0.014810 -0.000974 -0.003687
# 5 -0.003482 -0.002281 -0.003629 -0.000974 0.020922 -0.000273
# 6 0.003889 -0.001166 -0.001990 -0.003687 -0.000273 0.020057
#
#
# Mechanical properties :
#
#
# Convention : Reuss Voigt Hill
#
# Bulk Modulus (GPa) = 78.65650 121.31387 99.98518
# Shear Modulus (GPa) = 51.28230 60.93519 56.10875
#
# Velocity S-wave (km/s) = 4.46591 4.86811 4.67134
# Velocity P-wave (km/s) = 7.56194 8.87572 8.24504
#
# Compressibility (1/GPa) = 0.01271351
#
# Stress axis : x y z
#
# Youngs Moduli (GPa) = 107.57077 147.21156 111.05731
#
# Poissons Ratio (x) = 0.25689 0.26876
# Poissons Ratio (y) = 0.18772 0.22488
# Poissons Ratio (z) = 0.26032 0.29809
#
# Static dielectric constant tensor:
#      x y z
#    x 1.694800 -0.031170 0.197770 
#    y -0.031170 1.950340 -0.088980 
#    z 0.197770 -0.088980 1.833950 
# 
# From -- ./inp_files/398484.got.cif
#   From: 2010.05.17/outbox.cif.g08.bks.cpg/sg2_200_cif.got.tgz:398484.got - 2010.06.03 11:33:40.
