data_PCOD9098135
_publ_section_title
;
Structure prediction by ZEFSAII (Michael W. Deem and Ramdas Pophale) SiO2 
 PCOD9098135
Probable space group: P -1
;
_chemical_formula_sum "Si O2"
_cell_formula_units_Z 16
_cell_length_a 13.429711
_cell_length_b 10.733135
_cell_length_c 10.795235
_cell_angle_alpha 51.540774
_cell_angle_beta 33.955229
_cell_angle_gamma 57.663667
_cell_volume 679.929255
_symmetry_space_group_name_H-M "P -1"
_symmetry_group_IT_number 2
_symmetry_cell_setting 'triclinic'
loop_
_space_group_symop_operation_xyz
x,y,z
-x,-y,-z
loop_
_atom_site_type_symbol
_atom_site_label
_atom_site_fract_x
_atom_site_fract_y
_atom_site_fract_z
Si Si1 0.274820 0.290127 0.472426
Si Si2 0.771025 0.617569 0.795696
Si Si3 0.873370 0.237212 0.678978
Si Si4 0.609794 0.047332 0.479698
Si Si5 0.887746 0.271729 0.937339
Si Si6 0.517004 0.204222 0.731874
Si Si7 0.595250 0.440519 0.690368
Si Si8 0.788870 0.983920 0.753520
O O1 0.220696 0.412396 0.342464
O O2 0.334465 0.134072 0.429321
O O3 0.408749 0.376105 0.373200
O O4 0.098981 0.249345 0.753975
O O5 0.829934 0.455906 0.907154
O O6 0.917660 0.748655 0.580197
O O7 0.564365 0.642849 0.022859
O O8 0.856833 0.250741 0.834843
O O9 0.776139 0.366144 0.608735
O O10 0.781094 0.077789 0.834099
O O11 0.500000 0.000000 0.500000
O O12 0.523533 0.150749 0.615853
O O13 0.777833 0.145897 0.202476
O O14 0.573007 0.379481 0.610897
O O15 0.665379 0.085412 0.720350
O O16 0.319795 0.172646 0.008963
O O17 0.000000 0.000000 0.500000
#
# Coordination Sequence:
#
# PCOD9098135 Si02
#       8
#     2   2   2   2   2   2   2   2
#     4  11  23  41  68  99 129 174 228 276 324 387
#     4  11  21  37  70  99 130 167 225 277 326 387
#     4  10  20  36  63  97 128 163 221 276 323 384
#     4  12  27  44  65  94 141 181 220 269 339 398
#     4  11  22  42  63  97 135 173 221 272 329 404
#     4  10  25  42  62 100 135 173 221 274 327 405
#     4  11  21  39  68  97 129 164 220 280 328 379
#     4  10  21  38  66  94 134 170 217 275 338 381
#
# _framework density 23.531859000000001
#
# number of rings (size 3 to 8) (size 9 to 14) (size 15 to 20)
#    0.000    1.250    2.500    3.750   10.500    0.000 
#    2.250    3.125    0.000    0.000    0.000    0.000 
#    0.000    0.000    0.000    0.000    0.000    0.000 
#
# Total GULP energy -89217.660397 kJ/mol
# GULP energy per Si atom -5576.103775 kJ/mol
# Density = 2.347830 g / cm^3
# Si number density = 23.531859 Si / 1000 Ang^3
#
#
#
# Elastic Constant Matrix: (Units=GPa)
#
#
# Indices 1 2 3 4 5 6 
#
# 1 96.7850 25.6684 41.7009 -3.6415 -17.0412 29.5914
# 2 25.6684 47.3535 21.9863 -16.3966 -1.5067 28.8479
# 3 41.7009 21.9863 124.6831 7.4465 -11.9908 17.8465
# 4 -3.6415 -16.3966 7.4465 39.9472 1.1280 -14.5995
# 5 -17.0412 -1.5067 -11.9908 1.1280 31.7104 -0.9483
# 6 29.5914 28.8479 17.8465 -14.5995 -0.9483 45.2102
#
#
#
# Elastic Compliance Matrix: (Units=1/GPa)
#
#
# Indices 1 2 3 4 5 6 
#
# 1 0.015999 -0.003085 -0.002819 -0.002417 0.007232 -0.008020
# 2 -0.003085 0.039131 -0.004078 0.009963 -0.002238 -0.018169
# 3 -0.002819 -0.004078 0.010294 -0.004259 0.002307 -0.000943
# 4 -0.002417 0.009963 -0.004259 0.032467 -0.003372 0.007320
# 5 0.007232 -0.002238 0.002307 -0.003372 0.036172 -0.004546
# 6 -0.008020 -0.018169 -0.000943 0.007320 -0.004546 0.041602
#
#
# Mechanical properties :
#
#
# Convention : Reuss Voigt Hill
#
# Bulk Modulus (GPa) = 21.99774 49.72587 35.86180
# Shear Modulus (GPa) = 23.72115 35.33795 29.52955
#
# Velocity S-wave (km/s) = 3.17842 3.87939 3.54627
# Velocity P-wave (km/s) = 4.77893 6.42210 5.66046
#
# Compressibility (1/GPa) = 0.04545921
#
# Stress axis : x y z
#
# Youngs Moduli (GPa) = 62.50247 25.55510 97.14767
#
# Poissons Ratio (x) = 0.07884 0.27389
# Poissons Ratio (y) = 0.19282 0.39618
# Poissons Ratio (z) = 0.17622 0.10422
#
# Static dielectric constant tensor:
#      x y z
#    x 1.935660 -0.038470 0.020170 
#    y -0.038470 2.126370 0.010610 
#    z 0.020170 0.010610 1.848850 
# 
# From -- ./inp_files/451048.got.cif
#   From: 2010.05.17/outbox.cif.g08.bks.cpg/sg2_226_cif.got.tgz:451048.got - 2010.06.03 11:33:40.
