data_PCOD9098761
_publ_section_title
;
Structure prediction by ZEFSAII (Michael W. Deem and Ramdas Pophale) SiO2 
 PCOD9098761
Probable space group: P -1
;
_chemical_formula_sum "Si O2"
_cell_formula_units_Z 16
_cell_length_a 12.321872
_cell_length_b 10.988381
_cell_length_c 9.070829
_cell_angle_alpha 100.639491
_cell_angle_beta 89.994410
_cell_angle_gamma 34.236045
_cell_volume 652.670127
_symmetry_space_group_name_H-M "P -1"
_symmetry_group_IT_number 2
_symmetry_cell_setting 'triclinic'
loop_
_space_group_symop_operation_xyz
x,y,z
-x,-y,-z
loop_
_atom_site_type_symbol
_atom_site_label
_atom_site_fract_x
_atom_site_fract_y
_atom_site_fract_z
Si Si1 0.652511 0.011109 0.399969
Si Si2 0.046318 0.819446 0.074111
Si Si3 0.689272 0.201586 0.981737
Si Si4 0.576077 0.408419 0.727349
Si Si5 0.264215 0.365493 0.959943
Si Si6 0.991466 0.511644 0.771015
Si Si7 0.380381 0.058111 0.294106
Si Si8 0.247661 0.801653 0.607394
O O1 0.496020 0.078702 0.320644
O O2 0.657729 0.150154 0.392693
O O3 0.598139 0.037637 0.575776
O O4 0.874569 0.738536 0.316566
O O5 0.196250 0.774877 0.993707
O O6 0.175566 0.578257 0.061014
O O7 0.948751 0.983315 0.249104
O O8 0.863185 0.951529 0.996534
O O9 0.630552 0.258106 0.822484
O O10 0.500872 0.399802 0.134375
O O11 0.386603 0.576473 0.654084
O O12 0.752435 0.247345 0.570560
O O13 0.159580 0.442193 0.818589
O O14 0.499563 0.126098 0.878283
O O15 0.171464 0.356093 0.070423
O O16 0.852727 0.694861 0.682393
#
# Coordination Sequence:
#
# PCOD9098761 Si02
#       8
#     2   2   2   2   2   2   2   2
#     4  10  21  38  57  83 117 150 189 235 282 338
#     4  10  20  37  57  82 116 149 180 236 287 331
#     4   9  20  38  59  83 113 143 188 234 279 339
#     4   9  20  38  59  85 110 146 188 231 281 342
#     4  10  21  36  57  87 112 148 192 234 279 336
#     4  10  20  39  58  80 118 149 187 238 281 334
#     4  10  22  37  58  84 114 152 192 232 283 336
#     4  10  20  37  58  80 117 149 181 235 288 332
#
# _framework density 24.514683000000002
#
# number of rings (size 3 to 8) (size 9 to 14) (size 15 to 20)
#    0.000    2.250    1.250    0.750    1.750    2.500 
#    4.500    0.000    0.000    0.000    0.000    0.000 
#    0.000    0.000    0.000    0.000    0.000    0.000 
#
# Total GULP energy -89282.483797 kJ/mol
# GULP energy per Si atom -5580.155237 kJ/mol
# Density = 2.445889 g / cm^3
# Si number density = 24.514683 Si / 1000 Ang^3
#
#
#
# Elastic Constant Matrix: (Units=GPa)
#
#
# Indices 1 2 3 4 5 6 
#
# 1 49.9821 26.7443 4.9767 -5.7087 -13.0877 -8.7783
# 2 26.7443 114.5434 53.6085 8.6595 15.4425 -21.5197
# 3 4.9767 53.6085 154.1437 7.7210 -15.8916 -11.5118
# 4 -5.7087 8.6595 7.7210 48.2640 -8.1605 1.3593
# 5 -13.0877 15.4425 -15.8916 -8.1605 19.9288 -4.5368
# 6 -8.7783 -21.5197 -11.5118 1.3593 -4.5368 16.5248
#
#
#
# Elastic Compliance Matrix: (Units=1/GPa)
#
#
# Indices 1 2 3 4 5 6 
#
# 1 0.117516 -0.066503 0.040798 0.050624 0.194121 0.053375
# 2 -0.066503 0.054651 -0.029550 -0.034002 -0.127360 -0.016912
# 3 0.040798 -0.029550 0.024511 0.019480 0.082037 0.021187
# 4 0.050624 -0.034002 0.019480 0.045763 0.098284 0.019403
# 5 0.194121 -0.127360 0.082037 0.098284 0.404164 0.097294
# 6 0.053375 -0.016912 0.021187 0.019403 0.097294 0.106721
#
#
# Mechanical properties :
#
#
# Convention : Reuss Voigt Hill
#
# Bulk Modulus (GPa) = 11.60511 54.36981 32.98746
# Shear Modulus (GPa) = 5.60187 32.49947 19.05067
#
# Velocity S-wave (km/s) = 1.51330 3.64499 2.79070
# Velocity P-wave (km/s) = 2.79243 6.31990 4.88563
#
# Compressibility (1/GPa) = 0.08616891
#
# Stress axis : x y z
#
# Youngs Moduli (GPa) = 8.50950 18.29782 40.79730
#
# Poissons Ratio (x) = 1.21686 -1.66445
# Poissons Ratio (y) = 0.56591 1.20555
# Poissons Ratio (z) = -0.34717 0.54070
#
# Static dielectric constant tensor:
#      x y z
#    x 1.964500 -0.043920 0.039980 
#    y -0.043920 2.010080 -0.037030 
#    z 0.039980 -0.037030 1.995820 
# 
# From -- ./inp_files/221646.got.cif
#   From: 2010.05.17/outbox.cif.g08.bks.cpg/sg2_111_cif.got.tgz:221646.got - 2010.06.03 11:33:40.
