data_PCOD9098623
_publ_section_title
;
Structure prediction by ZEFSAII (Michael W. Deem and Ramdas Pophale) SiO2 
 PCOD9098623
Probable space group: P -1
;
_chemical_formula_sum "Si O2"
_cell_formula_units_Z 16
_cell_length_a 10.848167
_cell_length_b 8.938852
_cell_length_c 18.258324
_cell_angle_alpha 128.078924
_cell_angle_beta 37.671093
_cell_angle_gamma 107.045361
_cell_volume 778.567765
_symmetry_space_group_name_H-M "P -1"
_symmetry_group_IT_number 2
_symmetry_cell_setting 'triclinic'
loop_
_space_group_symop_operation_xyz
x,y,z
-x,-y,-z
loop_
_atom_site_type_symbol
_atom_site_label
_atom_site_fract_x
_atom_site_fract_y
_atom_site_fract_z
Si Si1 0.610423 0.199247 0.882369
Si Si2 0.512260 0.483917 0.135466
Si Si3 0.252848 0.914495 0.376083
Si Si4 0.675938 0.755508 0.761191
Si Si5 0.333129 0.907772 0.587881
Si Si6 0.290130 0.306086 0.550874
Si Si7 0.971217 0.296839 0.818923
Si Si8 0.842524 0.433448 0.454658
O O1 0.602495 0.167575 0.790417
O O2 0.850337 0.192041 0.789623
O O3 0.591758 0.999547 0.865034
O O4 0.453173 0.409883 0.061569
O O5 0.332906 0.696953 0.314549
O O6 0.511210 0.304109 0.134143
O O7 0.757859 0.473350 0.009690
O O8 0.285587 0.096475 0.456274
O O9 0.000000 0.000000 0.500000
O O10 0.746335 0.631523 0.614038
O O11 0.895803 0.671610 0.682975
O O12 0.462947 0.780390 0.559204
O O13 0.260008 0.736509 0.533211
O O14 0.500000 0.000000 0.500000
O O15 0.113801 0.121138 0.756407
O O16 0.214709 0.476240 0.573644
O O17 0.123476 0.369632 0.718129
#
# Coordination Sequence:
#
# PCOD9098623 Si02
#       8
#     2   2   2   2   2   2   2   2
#     4  10  20  37  54  86 124 153 194 240 307 356
#     4  10  23  35  60  89 125 165 185 246 315 364
#     4  12  21  35  58  91 122 151 202 245 298 361
#     4  11  22  34  63  92 126 153 197 253 308 355
#     4  10  22  40  64  85 121 161 209 249 294 356
#     4  11  22  37  64  87 119 163 203 256 291 350
#     4   9  21  40  59  87 120 159 203 241 300 362
#     4  11  22  37  59  98 120 154 200 256 301 353
#
# _framework density 20.550554999999999
#
# number of rings (size 3 to 8) (size 9 to 14) (size 15 to 20)
#    0.750    0.750    3.750    1.875    5.250    0.000 
#    0.000    0.625    0.000    0.750    0.000    0.000 
#    0.000    0.000    0.000    0.000    0.000    0.000 
#
# Total GULP energy -89115.798760 kJ/mol
# GULP energy per Si atom -5569.737423 kJ/mol
# Density = 2.050378 g / cm^3
# Si number density = 20.550555 Si / 1000 Ang^3
#
#
#
# Elastic Constant Matrix: (Units=GPa)
#
#
# Indices 1 2 3 4 5 6 
#
# 1 73.7070 11.9717 22.8802 -6.5427 -18.7192 -11.4213
# 2 11.9717 93.6356 28.2236 10.7581 -4.1002 -5.4328
# 3 22.8802 28.2236 74.6457 10.5477 -9.0550 0.9048
# 4 -6.5427 10.7581 10.5477 26.4711 -6.7134 2.6513
# 5 -18.7192 -4.1002 -9.0550 -6.7134 23.0730 -3.0711
# 6 -11.4213 -5.4328 0.9048 2.6513 -3.0711 33.1313
#
#
#
# Elastic Compliance Matrix: (Units=1/GPa)
#
#
# Indices 1 2 3 4 5 6 
#
# 1 0.023859 -0.001243 -0.006212 0.013502 0.021842 0.009135
# 2 -0.001243 0.012587 -0.003944 -0.004387 -0.001333 0.001971
# 3 -0.006212 -0.003944 0.017667 -0.006999 -0.001220 -0.002824
# 4 0.013502 -0.004387 -0.006999 0.051207 0.022610 0.002124
# 5 0.021842 -0.001333 -0.001220 0.022610 0.068506 0.011885
# 6 0.009135 0.001971 -0.002824 0.002124 0.011885 0.034664
#
#
# Mechanical properties :
#
#
# Convention : Reuss Voigt Hill
#
# Bulk Modulus (GPa) = 31.93348 40.90436 36.41892
# Shear Modulus (GPa) = 20.68444 28.46261 24.57352
#
# Velocity S-wave (km/s) = 3.17600 3.72560 3.46173
# Velocity P-wave (km/s) = 5.38721 6.20115 5.80846
#
# Compressibility (1/GPa) = 0.03131510
#
# Stress axis : x y z
#
# Youngs Moduli (GPa) = 41.91339 79.44453 56.60177
#
# Poissons Ratio (x) = 0.09873 0.35162
# Poissons Ratio (y) = 0.05209 0.22324
# Poissons Ratio (z) = 0.26038 0.31334
#
# Static dielectric constant tensor:
#      x y z
#    x 1.776910 -0.048980 0.014920 
#    y -0.048980 1.770290 -0.025950 
#    z 0.014920 -0.025950 1.778700 
# 
# From -- ./inp_files/594171.got.cif
#   From: 2010.05.17/outbox.cif.g08.bks.cpg/sg2_298_cif.got.tgz:594171.got - 2010.06.03 11:33:40.
