data_PCOD9098858
_publ_section_title
;
Structure prediction by ZEFSAII (Michael W. Deem and Ramdas Pophale) SiO2 
 PCOD9098858
Probable space group: P -1
;
_chemical_formula_sum "Si O2"
_cell_formula_units_Z 16
_cell_length_a 9.393994
_cell_length_b 7.153450
_cell_length_c 21.589217
_cell_angle_alpha 122.548019
_cell_angle_beta 142.154256
_cell_angle_gamma 47.826225
_cell_volume 659.573571
_symmetry_space_group_name_H-M "P -1"
_symmetry_group_IT_number 2
_symmetry_cell_setting 'triclinic'
loop_
_space_group_symop_operation_xyz
x,y,z
-x,-y,-z
loop_
_atom_site_type_symbol
_atom_site_label
_atom_site_fract_x
_atom_site_fract_y
_atom_site_fract_z
Si Si1 0.335074 0.568119 0.040472
Si Si2 0.835984 0.770648 0.818774
Si Si3 0.428533 0.329455 0.549628
Si Si4 0.906433 0.221595 0.882949
Si Si5 0.717999 0.102747 0.365025
Si Si6 0.958294 0.242703 0.762900
Si Si7 0.272307 0.978107 0.505094
Si Si8 0.478584 0.902591 0.065708
O O1 0.304241 0.593667 0.107484
O O2 0.466647 0.729766 0.086775
O O3 0.467528 0.288867 0.008312
O O4 0.044495 0.709958 0.934493
O O5 0.534345 0.872974 0.753421
O O6 0.913001 0.506357 0.764504
O O7 0.869015 0.972828 0.824852
O O8 0.323447 0.617879 0.583078
O O9 0.733951 0.181137 0.651664
O O10 0.267865 0.210945 0.507670
O O11 0.475945 0.262227 0.481192
O O12 0.892004 0.312499 0.825058
O O13 0.196061 0.134995 0.995555
O O14 0.000394 0.961550 0.404272
O O15 0.707828 0.991386 0.409058
O O16 0.268588 0.055170 0.832835
#
# Coordination Sequence:
#
# PCOD9098858 Si02
#       8
#     2   2   2   2   2   2   2   2
#     4   9  19  34  54  77 107 144 178 215 261 306
#     4   9  19  34  53  78 107 136 173 218 259 304
#     4  10  21  38  55  79 112 136 168 223 268 307
#     4  11  20  35  56  76 107 147 177 215 262 302
#     4  10  20  37  58  80 106 137 175 217 261 318
#     4  10  21  35  55  80 107 140 179 218 259 311
#     4  10  21  36  59  82 102 138 177 210 268 328
#     4   9  18  34  52  77 107 140 180 218 256 308
#
# _framework density 24.258099000000001
#
# number of rings (size 3 to 8) (size 9 to 14) (size 15 to 20)
#    0.000    2.250    0.000    4.125    0.000    4.000 
#    0.000    3.750    0.000   12.000    0.000    0.000 
#    0.000    0.000    0.000    0.000    0.000    0.000 
#
# Total GULP energy -89437.421962 kJ/mol
# GULP energy per Si atom -5589.838873 kJ/mol
# Density = 2.420289 g / cm^3
# Si number density = 24.258099 Si / 1000 Ang^3
#
#
#
# Elastic Constant Matrix: (Units=GPa)
#
#
# Indices 1 2 3 4 5 6 
#
# 1 147.4125 23.5991 19.8527 2.9380 7.9632 -8.3191
# 2 23.5991 52.3798 -9.3247 8.2381 -0.6156 4.7725
# 3 19.8527 -9.3247 58.1357 -9.7598 27.4598 -3.7696
# 4 2.9380 8.2381 -9.7598 21.7838 -1.2404 8.2533
# 5 7.9632 -0.6156 27.4598 -1.2404 28.9076 7.0205
# 6 -8.3191 4.7725 -3.7696 8.2533 7.0205 37.6542
#
#
#
# Elastic Compliance Matrix: (Units=1/GPa)
#
#
# Indices 1 2 3 4 5 6 
#
# 1 0.008136 -0.004257 -0.004128 -0.002119 0.000962 0.002209
# 2 -0.004257 0.022972 0.006083 -0.005092 -0.003999 -0.001381
# 3 -0.004128 0.006083 0.039693 0.011313 -0.037610 0.006823
# 4 -0.002119 -0.005092 0.011313 0.056713 -0.005381 -0.010118
# 5 0.000962 -0.003999 -0.037610 -0.005381 0.073520 -0.015574
# 6 0.002209 -0.001381 0.006823 -0.010118 -0.015574 0.033025
#
#
# Mechanical properties :
#
#
# Convention : Reuss Voigt Hill
#
# Bulk Modulus (GPa) = 15.10661 36.24250 25.67456
# Shear Modulus (GPa) = 19.17699 32.58918 25.88308
#
# Velocity S-wave (km/s) = 2.81470 3.66927 3.27002
# Velocity P-wave (km/s) = 4.09931 5.73796 4.98641
#
# Compressibility (1/GPa) = 0.06619617
#
# Stress axis : x y z
#
# Youngs Moduli (GPa) = 122.90914 43.53123 25.19349
#
# Poissons Ratio (x) = 0.18532 0.10400
# Poissons Ratio (y) = 0.52325 -0.15325
# Poissons Ratio (z) = 0.50739 -0.26480
#
# Static dielectric constant tensor:
#      x y z
#    x 1.937420 -0.026620 -0.006940 
#    y -0.026620 1.953410 0.004650 
#    z -0.006940 0.004650 1.948710 
# 
# From -- ./inp_files/335716.got.cif
#   From: 2010.05.17/outbox.cif.g08.bks.cpg/sg2_168_cif.got.tgz:335716.got - 2010.06.03 11:33:40.
