data_PCOD9098019
_publ_section_title
;
Structure prediction by ZEFSAII (Michael W. Deem and Ramdas Pophale) SiO2 
 PCOD9098019
Probable space group: P -1
;
_chemical_formula_sum "Si O2"
_cell_formula_units_Z 16
_cell_length_a 11.027906
_cell_length_b 8.213980
_cell_length_c 12.572117
_cell_angle_alpha 82.850199
_cell_angle_beta 133.563394
_cell_angle_gamma 112.459268
_cell_volume 746.048168
_symmetry_space_group_name_H-M "P -1"
_symmetry_group_IT_number 2
_symmetry_cell_setting 'triclinic'
loop_
_space_group_symop_operation_xyz
x,y,z
-x,-y,-z
loop_
_atom_site_type_symbol
_atom_site_label
_atom_site_fract_x
_atom_site_fract_y
_atom_site_fract_z
Si Si1 0.872604 0.250197 0.426485
Si Si2 0.956408 0.603214 0.060404
Si Si3 0.657229 0.699728 0.093811
Si Si4 0.271328 0.972129 0.268966
Si Si5 0.634011 0.920062 0.447012
Si Si6 0.293360 0.315868 0.647990
Si Si7 0.388489 0.309323 0.160043
Si Si8 0.940510 0.527750 0.287213
O O1 0.822102 0.336004 0.285310
O O2 0.072769 0.251234 0.521318
O O3 0.904973 0.380471 0.538392
O O4 0.726403 0.064323 0.397390
O O5 0.087091 0.815388 0.126722
O O6 0.992774 0.518767 0.198976
O O7 0.000000 0.500000 0.000000
O O8 0.750611 0.591556 0.930827
O O9 0.652109 0.765238 0.204983
O O10 0.839316 0.661687 0.208613
O O11 0.500000 0.500000 0.000000
O O12 0.642371 0.788506 0.966661
O O13 0.431034 0.901933 0.352112
O O14 0.257576 0.008513 0.382881
O O15 0.334439 0.159131 0.229462
O O16 0.645038 0.744002 0.418790
O O17 0.410531 0.530462 0.716205
#
# Coordination Sequence:
#
# PCOD9098019 Si02
#       8
#     2   2   2   2   2   2   2   2
#     4  10  20  36  63  87 122 152 196 249 298 353
#     4  11  22  42  62  85 123 159 199 248 288 355
#     4   8  17  34  58  82 114 148 186 244 292 344
#     4  11  25  41  60  86 120 166 198 238 299 356
#     4  11  24  40  59  88 128 152 198 253 292 354
#     4  10  21  39  62  92 117 153 196 252 306 338
#     4  10  22  40  64  85 120 157 204 236 295 366
#     4   9  19  34  60  88 110 154 199 236 304 344
#
# _framework density 21.446338000000001
#
# number of rings (size 3 to 8) (size 9 to 14) (size 15 to 20)
#    0.000    2.000    1.250    1.500    7.000    1.500 
#    2.250    0.625    0.000    0.000    0.000    0.000 
#    0.000    0.000    0.000    0.000    0.000    0.000 
#
# Total GULP energy -89216.523440 kJ/mol
# GULP energy per Si atom -5576.032715 kJ/mol
# Density = 2.139753 g / cm^3
# Si number density = 21.446338 Si / 1000 Ang^3
#
#
#
# Elastic Constant Matrix: (Units=GPa)
#
#
# Indices 1 2 3 4 5 6 
#
# 1 106.6712 16.8410 52.9260 11.3252 -23.5772 -8.0598
# 2 16.8410 52.5494 17.8479 -7.0526 -20.2894 15.5064
# 3 52.9260 17.8479 54.0436 2.3880 -19.5277 -10.3324
# 4 11.3252 -7.0526 2.3880 29.4777 8.8764 -7.5837
# 5 -23.5772 -20.2894 -19.5277 8.8764 49.1820 4.9937
# 6 -8.0598 15.5064 -10.3324 -7.5837 4.9937 31.0995
#
#
#
# Elastic Compliance Matrix: (Units=1/GPa)
#
#
# Indices 1 2 3 4 5 6 
#
# 1 0.020281 0.002551 -0.019511 -0.008531 0.005116 -0.005400
# 2 0.002551 0.034503 -0.013751 -0.001465 0.012647 -0.023499
# 3 -0.019511 -0.013751 0.045489 0.005097 0.000277 0.018112
# 4 -0.008531 -0.001465 0.005097 0.043230 -0.011756 0.012643
# 5 0.005116 0.012647 0.000277 -0.011756 0.031536 -0.012819
# 6 -0.005400 -0.023499 0.018112 0.012643 -0.012819 0.053631
#
#
# Mechanical properties :
#
#
# Convention : Reuss Voigt Hill
#
# Bulk Modulus (GPa) = 25.73869 43.16601 34.45235
# Shear Modulus (GPa) = 16.49934 30.32846 23.41390
#
# Velocity S-wave (km/s) = 2.77669 3.76461 3.30774
# Velocity P-wave (km/s) = 4.72308 6.25040 5.53963
#
# Compressibility (1/GPa) = 0.03885201
#
# Stress axis : x y z
#
# Youngs Moduli (GPa) = 49.30787 28.98280 21.98312
#
# Poissons Ratio (x) = -0.07393 0.42890
# Poissons Ratio (y) = -0.12577 0.30228
# Poissons Ratio (z) = 0.96203 0.39854
#
# Static dielectric constant tensor:
#      x y z
#    x 1.828510 0.004310 0.001820 
#    y 0.004310 1.825930 -0.021350 
#    z 0.001820 -0.021350 1.836100 
# 
# From -- ./inp_files/416960.got.cif
#   From: 2010.05.17/outbox.cif.g08.bks.cpg/sg2_209_cif.got.tgz:416960.got - 2010.06.03 11:33:40.
