data_PCOD9098000
_publ_section_title
;
Structure prediction by ZEFSAII (Michael W. Deem and Ramdas Pophale) SiO2 
 PCOD9098000
Probable space group: P -1
;
_chemical_formula_sum "Si O2"
_cell_formula_units_Z 16
_cell_length_a 27.960413
_cell_length_b 14.501538
_cell_length_c 7.853712
_cell_angle_alpha 132.970478
_cell_angle_beta 135.320585
_cell_angle_gamma 21.413082
_cell_volume 815.073730
_symmetry_space_group_name_H-M "P -1"
_symmetry_group_IT_number 2
_symmetry_cell_setting 'triclinic'
loop_
_space_group_symop_operation_xyz
x,y,z
-x,-y,-z
loop_
_atom_site_type_symbol
_atom_site_label
_atom_site_fract_x
_atom_site_fract_y
_atom_site_fract_z
Si Si1 0.687722 0.897202 0.894564
Si Si2 0.242371 0.616340 0.618887
Si Si3 0.392754 0.001105 0.654746
Si Si4 0.990399 0.200657 0.755991
Si Si5 0.487328 0.371910 0.778652
Si Si6 0.952416 0.530783 0.237481
Si Si7 0.115932 0.475551 0.395310
Si Si8 0.527846 0.874840 0.179915
O O1 0.789323 0.784521 0.149973
O O2 0.575390 0.177116 0.912528
O O3 0.599738 0.919168 0.754295
O O4 0.786095 0.719582 0.759731
O O5 0.143798 0.663411 0.357174
O O6 0.341005 0.536840 0.640790
O O7 0.339913 0.400193 0.741601
O O8 0.126967 0.900395 0.748163
O O9 0.438199 0.800274 0.420152
O O10 0.229208 0.294396 0.605537
O O11 0.446403 0.027959 0.703156
O O12 0.469052 0.891671 0.890019
O O13 0.962620 0.280711 0.585328
O O14 0.001500 0.313668 0.028897
O O15 0.500000 0.500000 0.000000
O O16 0.000000 0.500000 0.500000
O O17 0.006985 0.546027 0.260838
#
# Coordination Sequence:
#
# PCOD9098000 Si02
#       8
#     2   2   2   2   2   2   2   2
#     4   9  20  36  60  84 113 153 199 237 282 345
#     4  10  22  39  60  85 116 159 196 242 287 352
#     4  10  21  36  63  87 118 150 192 250 296 343
#     4  10  21  39  61  85 117 155 202 235 290 352
#     4  10  23  37  58  86 116 157 198 234 291 351
#     4  11  23  38  60  91 120 153 192 246 294 343
#     4  10  20  36  63  86 114 154 198 240 281 348
#     4  10  20  39  60  91 117 146 194 249 301 344
#
# _framework density 19.630127000000002
#
# number of rings (size 3 to 8) (size 9 to 14) (size 15 to 20)
#    0.000    2.000    1.250    2.250    8.750    1.500 
#    2.250    1.250    0.000    3.000    0.000    0.000 
#    0.000    0.000    0.000    0.000    0.000    0.000 
#
# Total GULP energy -89092.021488 kJ/mol
# GULP energy per Si atom -5568.251343 kJ/mol
# Density = 1.958545 g / cm^3
# Si number density = 19.630127 Si / 1000 Ang^3
#
#
#
# Elastic Constant Matrix: (Units=GPa)
#
#
# Indices 1 2 3 4 5 6 
#
# 1 84.6509 23.6417 13.9596 -2.6690 18.1079 -7.5972
# 2 23.6417 117.2454 30.4260 -10.5884 3.8168 -1.4629
# 3 13.9596 30.4260 90.1716 -8.5934 3.3776 8.8378
# 4 -2.6690 -10.5884 -8.5934 35.8732 5.4156 7.1544
# 5 18.1079 3.8168 3.3776 5.4156 31.8759 -8.0111
# 6 -7.5972 -1.4629 8.8378 7.1544 -8.0111 21.6120
#
#
#
# Elastic Compliance Matrix: (Units=1/GPa)
#
#
# Indices 1 2 3 4 5 6 
#
# 1 0.014476 -0.002224 -0.001411 0.000660 -0.007265 0.002603
# 2 -0.002224 0.009897 -0.002862 0.001949 0.000170 0.000476
# 3 -0.001411 -0.002862 0.013740 0.004672 -0.003396 -0.009114
# 4 0.000660 0.001949 0.004672 0.034777 -0.011351 -0.017267
# 5 -0.007265 0.000170 -0.003396 -0.011351 0.042369 0.018309
# 6 0.002603 0.000476 -0.009114 -0.017267 0.018309 0.063447
#
#
# Mechanical properties :
#
#
# Convention : Reuss Voigt Hill
#
# Bulk Modulus (GPa) = 39.81210 47.56916 43.69063
# Shear Modulus (GPa) = 24.99101 32.80828 28.89964
#
# Velocity S-wave (km/s) = 3.57192 4.09262 3.84110
# Velocity P-wave (km/s) = 6.11037 6.82774 6.47899
#
# Compressibility (1/GPa) = 0.02511799
#
# Stress axis : x y z
#
# Youngs Moduli (GPa) = 69.08162 101.04202 72.78102
#
# Poissons Ratio (x) = 0.22474 0.10266
# Poissons Ratio (y) = 0.15365 0.20833
# Poissons Ratio (z) = 0.09744 0.28922
#
# Static dielectric constant tensor:
#      x y z
#    x 1.771660 0.003350 0.007890 
#    y 0.003350 1.732310 -0.049000 
#    z 0.007890 -0.049000 1.760060 
# 
# From -- ./inp_files/358891.got.cif
#   From: 2010.05.17/outbox.cif.g08.bks.cpg/sg2_180_cif.got.tgz:358891.got - 2010.06.03 11:33:40.
