data_PCOD9098822
_publ_section_title
;
Structure prediction by ZEFSAII (Michael W. Deem and Ramdas Pophale) SiO2 
 PCOD9098822
Probable space group: P -1
;
_chemical_formula_sum "Si O2"
_cell_formula_units_Z 16
_cell_length_a 10.076480
_cell_length_b 9.144280
_cell_length_c 11.896841
_cell_angle_alpha 73.785028
_cell_angle_beta 99.494045
_cell_angle_gamma 134.934584
_cell_volume 744.305192
_symmetry_space_group_name_H-M "P -1"
_symmetry_group_IT_number 2
_symmetry_cell_setting 'triclinic'
loop_
_space_group_symop_operation_xyz
x,y,z
-x,-y,-z
loop_
_atom_site_type_symbol
_atom_site_label
_atom_site_fract_x
_atom_site_fract_y
_atom_site_fract_z
Si Si1 0.641069 0.472770 0.538724
Si Si2 0.554063 0.249095 0.359592
Si Si3 0.959859 0.668644 0.878469
Si Si4 0.280120 0.820461 0.039743
Si Si5 0.087969 0.657141 0.654542
Si Si6 0.955766 0.129689 0.575523
Si Si7 0.225757 0.815744 0.297106
Si Si8 0.709612 0.677728 0.715326
O O1 0.500000 0.500000 0.500000
O O2 0.565364 0.280464 0.488985
O O3 0.658316 0.488045 0.673656
O O4 0.828440 0.679635 0.459881
O O5 0.755969 0.351276 0.323677
O O6 0.586411 0.990247 0.653793
O O7 0.461183 0.337842 0.286421
O O8 0.816710 0.420231 0.946756
O O9 0.828372 0.711025 0.829763
O O10 0.050628 0.692326 0.765558
O O11 0.136948 0.819591 0.953979
O O12 0.262267 0.836737 0.166236
O O13 0.500000 0.000000 0.000000
O O14 0.136910 0.829899 0.537787
O O15 0.891269 0.427337 0.634131
O O16 0.910611 0.157132 0.687077
O O17 0.858838 0.889948 0.613964
#
# Coordination Sequence:
#
# PCOD9098822 Si02
#       8
#     2   2   2   2   2   2   2   2
#     4  10  20  37  57  88 136 171 204 249 303 381
#     4  10  22  38  57  88 130 171 210 247 305 369
#     4  10  22  42  69  92 124 163 209 270 319 367
#     4  10  22  44  68  93 118 159 221 271 316 370
#     4  11  21  38  63  93 132 170 204 259 312 374
#     4  11  21  38  61  93 136 166 205 251 314 382
#     4  10  22  38  61  91 126 163 212 261 311 373
#     4  10  22  40  60  95 131 168 209 252 313 383
#
# _framework density 21.496558
#
# number of rings (size 3 to 8) (size 9 to 14) (size 15 to 20)
#    0.000    1.750    2.500    1.500    0.000    2.000 
#    6.750    2.500    0.000   15.750    0.000    0.000 
#    0.000    0.000    0.000    0.000    0.000    0.000 
#
# Total GULP energy -89204.867466 kJ/mol
# GULP energy per Si atom -5575.304217 kJ/mol
# Density = 2.144763 g / cm^3
# Si number density = 21.496558 Si / 1000 Ang^3
#
#
#
# Elastic Constant Matrix: (Units=GPa)
#
#
# Indices 1 2 3 4 5 6 
#
# 1 129.0200 24.6101 33.1103 1.0294 14.0943 26.6737
# 2 24.6101 108.0407 34.6440 16.7928 1.7006 13.4409
# 3 33.1103 34.6440 73.3489 2.5027 9.0678 8.4803
# 4 1.0294 16.7928 2.5027 19.8394 4.1987 -2.9089
# 5 14.0943 1.7006 9.0678 4.1987 38.1606 2.2607
# 6 26.6737 13.4409 8.4803 -2.9089 2.2607 44.2084
#
#
#
# Elastic Compliance Matrix: (Units=1/GPa)
#
#
# Indices 1 2 3 4 5 6 
#
# 1 0.010062 -0.000564 -0.003369 0.000183 -0.002608 -0.005108
# 2 -0.000564 0.013376 -0.005556 -0.011625 0.002422 -0.003550
# 3 -0.003369 -0.005556 0.017982 0.003381 -0.003192 0.000658
# 4 0.000183 -0.011625 0.003381 0.062497 -0.007660 0.007279
# 5 -0.002608 0.002422 -0.003192 -0.007660 0.028693 -0.000522
# 6 -0.005108 -0.003550 0.000658 0.007279 -0.000522 0.027161
#
#
# Mechanical properties :
#
#
# Convention : Reuss Voigt Hill
#
# Bulk Modulus (GPa) = 44.55744 55.01536 49.78640
# Shear Modulus (GPa) = 26.84877 34.97801 30.91339
#
# Velocity S-wave (km/s) = 3.53793 4.03816 3.79629
# Velocity P-wave (km/s) = 6.12061 6.88408 6.51354
#
# Compressibility (1/GPa) = 0.02244294
#
# Stress axis : x y z
#
# Youngs Moduli (GPa) = 99.37940 74.76128 55.61269
#
# Poissons Ratio (x) = 0.04213 0.18737
# Poissons Ratio (y) = 0.05601 0.30896
# Poissons Ratio (z) = 0.33484 0.41534
#
# Static dielectric constant tensor:
#      x y z
#    x 1.844280 -0.006340 0.031920 
#    y -0.006340 1.850030 0.045130 
#    z 0.031920 0.045130 1.789540 
# 
# From -- ./inp_files/425488.got.cif
#   From: 2010.05.17/outbox.cif.g08.bks.cpg/sg2_213_cif.got.tgz:425488.got - 2010.06.03 11:33:40.
