data_PCOD9098301
_publ_section_title
;
Structure prediction by ZEFSAII (Michael W. Deem and Ramdas Pophale) SiO2 
 PCOD9098301
Probable space group: P -1
;
_chemical_formula_sum "Si O2"
_cell_formula_units_Z 14
_cell_length_a 15.745445
_cell_length_b 12.907710
_cell_length_c 8.688569
_cell_angle_alpha 33.198927
_cell_angle_beta 146.207768
_cell_angle_gamma 146.374773
_cell_volume 480.037273
_symmetry_space_group_name_H-M "P -1"
_symmetry_group_IT_number 2
_symmetry_cell_setting 'triclinic'
loop_
_space_group_symop_operation_xyz
x,y,z
-x,-y,-z
loop_
_atom_site_type_symbol
_atom_site_label
_atom_site_fract_x
_atom_site_fract_y
_atom_site_fract_z
Si Si1 0.634775 0.296159 0.701063
Si Si2 0.136825 0.746089 0.336884
Si Si3 0.262546 0.348461 0.804431
Si Si4 0.314503 0.330796 0.264916
Si Si5 0.501399 0.134467 0.437345
Si Si6 0.125130 0.580862 0.819259
Si Si7 0.975239 0.029160 0.604404
O O1 0.642944 0.400560 0.408333
O O2 0.253147 0.484559 0.065705
O O3 0.531731 0.075401 0.730693
O O4 0.794354 0.343906 0.982643
O O5 0.359820 0.874157 0.469953
O O6 0.171378 0.790592 0.525464
O O7 0.065661 0.618720 0.212467
O O8 0.058719 0.910031 0.981730
O O9 0.257447 0.327059 0.005240
O O10 0.383398 0.241349 0.068213
O O11 0.093460 0.261900 0.556349
O O12 0.511329 0.380051 0.489949
O O13 0.221533 0.103478 0.487952
O O14 0.000000 0.500000 0.500000
O O15 0.000000 0.000000 0.500000
#
# Coordination Sequence:
#
# PCOD9098301 Si02
#       7
#     2   2   2   2   2   2   2
#     4  11  23  40  66 101 124 168 225 267 308 385
#     4   9  21  39  62  86 126 172 205 254 336 371
#     4  10  21  38  65  94 126 169 222 257 320 388
#     4  10  20  36  64  96 125 169 208 269 324 372
#     4  10  22  39  63  88 132 170 208 266 328 371
#     4  10  21  39  65  88 131 164 213 267 317 383
#     4  10  20  39  65  92 128 167 217 265 316 388
#
# _framework density 29.164403
#
# number of rings (size 3 to 8) (size 9 to 14) (size 15 to 20)
#    0.000    2.000    0.000    4.286    4.000    1.714 
#    2.571    0.714   18.857    0.000    0.000    0.000 
#    0.000    0.000    0.000    0.000    0.000    0.000 
#
# Total GULP energy -77946.749775 kJ/mol
# GULP energy per Si atom -5567.624984 kJ/mol
# Density = 2.909802 g / cm^3
# Si number density = 29.164403 Si / 1000 Ang^3
#
#
#
# Elastic Constant Matrix: (Units=GPa)
#
#
# Indices 1 2 3 4 5 6 
#
# 1 113.7453 24.3274 61.4566 1.2178 5.1790 -4.9174
# 2 24.3274 109.1536 77.3287 12.6277 -20.5113 -8.3637
# 3 61.4566 77.3287 188.4580 37.8649 -7.0302 4.9920
# 4 1.2178 12.6277 37.8649 49.2923 -7.8125 0.0172
# 5 5.1790 -20.5113 -7.0302 -7.8125 67.7132 4.3177
# 6 -4.9174 -8.3637 4.9920 0.0172 4.3177 54.0562
#
#
#
# Elastic Compliance Matrix: (Units=1/GPa)
#
#
# Indices 1 2 3 4 5 6 
#
# 1 0.011205 0.000213 -0.004400 0.002887 -0.001014 0.001539
# 2 0.000213 0.014149 -0.006139 0.001666 0.003666 0.002482
# 3 -0.004400 -0.006139 0.010614 -0.006637 -0.001044 -0.002245
# 4 0.002887 0.001666 -0.006637 0.025275 0.002452 0.000929
# 5 -0.001014 0.003666 -0.001044 0.002452 0.016177 -0.000722
# 6 0.001539 0.002482 -0.002245 0.000929 -0.000722 0.019288
#
#
# Mechanical properties :
#
#
# Convention : Reuss Voigt Hill
#
# Bulk Modulus (GPa) = 65.28879 81.95360 73.62120
# Shear Modulus (GPa) = 40.82737 50.76195 45.79466
#
# Velocity S-wave (km/s) = 3.74559 4.17651 3.96690
# Velocity P-wave (km/s) = 6.41412 7.17072 6.80295
#
# Compressibility (1/GPa) = 0.01531656
#
# Stress axis : x y z
#
# Youngs Moduli (GPa) = 89.24407 70.67395 94.21366
#
# Poissons Ratio (x) = -0.01507 0.41457
# Poissons Ratio (y) = -0.01903 0.57839
# Poissons Ratio (z) = 0.39270 0.43388
#
# Static dielectric constant tensor:
#      x y z
#    x 1.524130 0.261080 1.453530 
#    y 0.261080 2.968200 -0.325840 
#    z 1.453530 -0.325840 -0.233240 
# 
# From -- ./inp_files/336444.got.cif
#   From: 2010.05.17/outbox.cif.g08.bks.cpg/sg2_169_cif.got.tgz:336444.got - 2010.06.03 11:33:40.
