data_PCOD9098681
_publ_section_title
;
Structure prediction by ZEFSAII (Michael W. Deem and Ramdas Pophale) SiO2 
 PCOD9098681
Probable space group: P -1
;
_chemical_formula_sum "Si O2"
_cell_formula_units_Z 16
_cell_length_a 9.133487
_cell_length_b 18.612231
_cell_length_c 8.799530
_cell_angle_alpha 31.410480
_cell_angle_beta 92.816066
_cell_angle_gamma 83.969336
_cell_volume 746.965942
_symmetry_space_group_name_H-M "P -1"
_symmetry_group_IT_number 2
_symmetry_cell_setting 'triclinic'
loop_
_space_group_symop_operation_xyz
x,y,z
-x,-y,-z
loop_
_atom_site_type_symbol
_atom_site_label
_atom_site_fract_x
_atom_site_fract_y
_atom_site_fract_z
Si Si1 0.664906 0.857138 0.376445
Si Si2 0.229548 0.937066 0.192471
Si Si3 0.325036 0.766496 0.811873
Si Si4 0.751784 0.984809 0.425709
Si Si5 0.020285 0.713386 0.031772
Si Si6 0.569711 0.599398 0.926215
Si Si7 0.902680 0.587475 0.974766
Si Si8 0.074497 0.844914 0.085652
O O1 0.334129 0.028798 0.958582
O O2 0.639295 0.935344 0.396068
O O3 0.568505 0.743374 0.568412
O O4 0.837301 0.750360 0.608533
O O5 0.279853 0.844331 0.509809
O O6 0.192747 0.830953 0.255169
O O7 0.081546 0.062636 0.013281
O O8 0.474487 0.640538 0.002697
O O9 0.178078 0.725478 0.942774
O O10 0.346578 0.888444 0.704631
O O11 0.870112 0.852282 0.756186
O O12 0.864518 0.052819 0.210636
O O13 0.978080 0.598936 0.121752
O O14 0.052815 0.716502 0.209637
O O15 0.749500 0.538572 0.077706
O O16 0.500000 0.500000 0.000000
O O17 0.000000 0.500000 0.000000
#
# Coordination Sequence:
#
# PCOD9098681 Si02
#       8
#     2   2   2   2   2   2   2   2
#     4   8  20  33  50  79 111 132 174 223 260 312
#     4  10  17  28  49  83 118 139 159 209 279 322
#     4  11  19  29  58  83 110 144 165 212 273 318
#     4   9  15  31  48  83 110 132 175 216 261 306
#     4  10  16  31  52  84 106 134 179 220 253 308
#     4  10  22  37  50  80 102 138 189 223 253 312
#     4   9  19  36  56  75 100 139 183 229 252 297
#     4   9  16  26  46  80 116 135 164 206 258 319
#
# _framework density 21.419986000000002
#
# number of rings (size 3 to 8) (size 9 to 14) (size 15 to 20)
#    0.750    1.750    2.500    1.500    1.750    1.000 
#    0.000    0.000    0.000    0.750    3.250   12.250 
#    0.000    0.000    0.000    0.000    0.000    0.000 
#
# Total GULP energy -89073.465633 kJ/mol
# GULP energy per Si atom -5567.091602 kJ/mol
# Density = 2.137123 g / cm^3
# Si number density = 21.419986 Si / 1000 Ang^3
#
#
#
# Elastic Constant Matrix: (Units=GPa)
#
#
# Indices 1 2 3 4 5 6 
#
# 1 108.4747 80.1766 9.0691 -2.3063 2.9931 1.7043
# 2 80.1766 220.4712 19.6485 7.2622 0.2190 12.4946
# 3 9.0691 19.6485 22.9656 6.4688 -8.2167 9.2143
# 4 -2.3063 7.2622 6.4688 20.9606 -4.5912 3.4343
# 5 2.9931 0.2190 -8.2167 -4.5912 7.8760 -3.1244
# 6 1.7043 12.4946 9.2143 3.4343 -3.1244 40.4886
#
#
#
# Elastic Compliance Matrix: (Units=1/GPa)
#
#
# Indices 1 2 3 4 5 6 
#
# 1 0.013294 -0.004454 -0.005931 0.002644 -0.009083 0.001240
# 2 -0.004454 0.006724 -0.004829 -0.002323 -0.005282 -0.000999
# 3 -0.005931 -0.004829 0.086280 -0.005192 0.085054 -0.010892
# 4 0.002644 -0.002323 -0.005192 0.056275 0.026061 -0.000975
# 5 -0.009083 -0.005282 0.085054 0.026061 0.233896 -0.001506
# 6 0.001240 -0.000999 -0.010892 -0.000975 -0.001506 0.027400
#
#
# Mechanical properties :
#
#
# Convention : Reuss Voigt Hill
#
# Bulk Modulus (GPa) = 13.18018 63.29998 38.24008
# Shear Modulus (GPa) = 10.42563 30.06620 20.24591
#
# Velocity S-wave (km/s) = 2.20858 3.75060 3.07773
# Velocity P-wave (km/s) = 3.55954 6.95500 5.52459
#
# Compressibility (1/GPa) = 0.07587152
#
# Stress axis : x y z
#
# Youngs Moduli (GPa) = 75.22044 148.71316 11.59012
#
# Poissons Ratio (x) = 0.66242 0.06874
# Poissons Ratio (y) = 0.33506 0.05597
# Poissons Ratio (z) = 0.44610 0.71811
#
# Static dielectric constant tensor:
#      x y z
#    x 1.834330 0.024810 0.061800 
#    y 0.024810 1.843280 -0.054000 
#    z 0.061800 -0.054000 1.872550 
# 
# From -- ./inp_files/195838.got.cif
#   From: 2010.05.17/outbox.cif.g08.bks.cpg/sg2_98_cif.got.tgz:195838.got - 2010.06.03 11:33:40.
