data_PCOD9098655
_publ_section_title
;
Structure prediction by ZEFSAII (Michael W. Deem and Ramdas Pophale) SiO2 
 PCOD9098655
Probable space group: P -1
;
_chemical_formula_sum "Si O2"
_cell_formula_units_Z 16
_cell_length_a 14.787989
_cell_length_b 12.633611
_cell_length_c 5.333335
_cell_angle_alpha 85.285160
_cell_angle_beta 69.208939
_cell_angle_gamma 113.090343
_cell_volume 828.007837
_symmetry_space_group_name_H-M "P -1"
_symmetry_group_IT_number 2
_symmetry_cell_setting 'triclinic'
loop_
_space_group_symop_operation_xyz
x,y,z
-x,-y,-z
loop_
_atom_site_type_symbol
_atom_site_label
_atom_site_fract_x
_atom_site_fract_y
_atom_site_fract_z
Si Si1 0.829670 0.987601 0.684361
Si Si2 0.864349 0.818135 0.019009
Si Si3 0.761680 0.598711 0.837833
Si Si4 0.869237 0.446784 0.617742
Si Si5 0.317408 0.229209 0.407493
Si Si6 0.526520 0.445623 0.235129
Si Si7 0.914433 0.134713 0.056803
Si Si8 0.106746 0.628136 0.891094
O O1 0.887951 0.909642 0.748354
O O2 0.714280 0.881645 0.726530
O O3 0.874967 0.065251 0.373744
O O4 0.842635 0.070498 0.896547
O O5 0.834359 0.688654 0.963006
O O6 0.965660 0.855308 0.094999
O O7 0.760345 0.814085 0.265174
O O8 0.830992 0.548970 0.623397
O O9 0.720400 0.678388 0.701075
O O10 0.654991 0.491381 0.081788
O O11 0.833404 0.362460 0.430369
O O12 0.000000 0.500000 0.500000
O O13 0.827728 0.379817 0.932912
O O14 0.442956 0.306062 0.336791
O O15 0.500000 0.500000 0.500000
O O16 0.500000 0.500000 0.000000
O O17 0.922431 0.264555 0.059252
O O18 0.000000 0.500000 0.000000
#
# Coordination Sequence:
#
# PCOD9098655 Si02
#       8
#     2   2   2   2   2   2   2   2
#     4  11  24  38  52  83 114 156 195 226 276 345
#     4  11  21  34  56  83 119 152 191 225 278 349
#     4  10  22  34  60  86 120 157 182 236 299 331
#     4  10  21  35  54  81 115 144 189 227 276 345
#     4  10  22  36  58  84 119 152 192 231 275 347
#     4  10  20  37  55  85 117 151 191 233 282 345
#     4  12  24  36  57  78 117 157 186 232 286 337
#     4  10  22  38  54  78 109 143 191 236 275 332
#
# _framework density 19.323488999999999
#
# number of rings (size 3 to 8) (size 9 to 14) (size 15 to 20)
#    0.000    1.500    2.500    3.000    8.750    0.000 
#    0.000    0.000    0.000    0.000    0.000    5.250 
#    0.000    0.000    0.000    0.000    0.000    0.000 
#
# Total GULP energy -89203.722801 kJ/mol
# GULP energy per Si atom -5575.232675 kJ/mol
# Density = 1.927951 g / cm^3
# Si number density = 19.323489 Si / 1000 Ang^3
#
#
#
# Elastic Constant Matrix: (Units=GPa)
#
#
# Indices 1 2 3 4 5 6 
#
# 1 34.4798 36.9144 21.8135 -0.9343 -2.0601 1.4779
# 2 36.9144 146.2957 42.0483 10.7814 -4.0661 12.0939
# 3 21.8135 42.0483 107.7036 12.3934 15.8349 12.8918
# 4 -0.9343 10.7814 12.3934 35.6465 3.0314 3.5403
# 5 -2.0601 -4.0661 15.8349 3.0314 26.2887 5.7246
# 6 1.4779 12.0939 12.8918 3.5403 5.7246 23.3341
#
#
#
# Elastic Compliance Matrix: (Units=1/GPa)
#
#
# Indices 1 2 3 4 5 6 
#
# 1 0.044105 -0.009769 -0.006942 0.005727 0.004571 0.004115
# 2 -0.009769 0.010430 -0.001746 -0.002653 0.003116 -0.004185
# 3 -0.006942 -0.001746 0.013310 -0.003269 -0.007663 -0.003633
# 4 0.005727 -0.002653 -0.003269 0.030391 -0.001169 -0.001506
# 5 0.004571 0.003116 -0.007663 -0.001169 0.045516 -0.008660
# 6 0.004115 -0.004185 -0.003633 -0.001506 -0.008660 0.049124
#
#
# Mechanical properties :
#
#
# Convention : Reuss Voigt Hill
#
# Bulk Modulus (GPa) = 32.32918 54.44793 43.38856
# Shear Modulus (GPa) = 20.82462 29.56738 25.19600
#
# Velocity S-wave (km/s) = 3.28637 3.91593 3.61488
# Velocity P-wave (km/s) = 5.58275 6.97741 6.31868
#
# Compressibility (1/GPa) = 0.03093181
#
# Stress axis : x y z
#
# Youngs Moduli (GPa) = 22.67323 95.87594 75.13154
#
# Poissons Ratio (x) = 0.93658 0.52160
# Poissons Ratio (y) = 0.22149 0.13114
# Poissons Ratio (z) = 0.15741 0.16735
#
# Static dielectric constant tensor:
#      x y z
#    x 1.674850 0.041590 0.041330 
#    y 0.041590 1.748380 0.018450 
#    z 0.041330 0.018450 1.776440 
# 
# From -- ./inp_files/94933.got.cif
#   From: 2010.05.17/outbox.cif.g08.bks.cpg/sg2_48_cif.got.tgz:94933.got - 2010.06.03 11:33:40.
