data_PCOD9098850
_publ_section_title
;
Structure prediction by ZEFSAII (Michael W. Deem and Ramdas Pophale) SiO2 
 PCOD9098850
Probable space group: P -1
;
_chemical_formula_sum "Si O2"
_cell_formula_units_Z 16
_cell_length_a 9.484041
_cell_length_b 11.729381
_cell_length_c 10.909657
_cell_angle_alpha 65.544673
_cell_angle_beta 45.104490
_cell_angle_gamma 52.781653
_cell_volume 684.443408
_symmetry_space_group_name_H-M "P -1"
_symmetry_group_IT_number 2
_symmetry_cell_setting 'triclinic'
loop_
_space_group_symop_operation_xyz
x,y,z
-x,-y,-z
loop_
_atom_site_type_symbol
_atom_site_label
_atom_site_fract_x
_atom_site_fract_y
_atom_site_fract_z
Si Si1 0.680117 0.474767 0.536915
Si Si2 0.515413 0.790309 0.116895
Si Si3 0.269806 0.731642 0.612828
Si Si4 0.416557 0.150120 0.547825
Si Si5 0.138576 0.346741 0.820006
Si Si6 0.151677 0.299593 0.409116
Si Si7 0.225731 0.089419 0.249538
Si Si8 0.360164 0.443240 0.033894
O O1 0.423341 0.595800 0.667504
O O2 0.675965 0.348230 0.517130
O O3 0.773293 0.554918 0.349367
O O4 0.882150 0.405570 0.541125
O O5 0.734116 0.698243 0.109296
O O6 0.315969 0.920260 0.256999
O O7 0.586671 0.873737 0.936705
O O8 0.481916 0.675175 0.110383
O O9 0.374842 0.833514 0.534614
O O10 0.999410 0.822514 0.734440
O O11 0.237699 0.199446 0.746861
O O12 0.282536 0.261840 0.472387
O O13 0.500000 0.000000 0.500000
O O14 0.868523 0.433464 0.943574
O O15 0.177431 0.158947 0.383484
O O16 0.261077 0.368919 0.221321
O O17 0.500000 0.500000 0.000000
#
# Coordination Sequence:
#
# PCOD9098850 Si02
#       8
#     2   2   2   2   2   2   2   2
#     4   8  17  35  55  78 105 140 184 227 274 323
#     4  10  20  37  58  78 110 150 185 229 274 327
#     4   9  18  34  55  80 104 135 187 230 265 324
#     4  11  23  37  55  83 117 150 180 223 283 335
#     4  10  21  37  56  80 113 148 185 226 276 331
#     4   9  19  38  59  80 115 148 179 228 280 330
#     4   9  19  37  59  80 105 147 193 226 272 326
#     4  10  22  37  58  88 112 142 187 232 280 326
#
# _framework density 23.376660999999999
#
# number of rings (size 3 to 8) (size 9 to 14) (size 15 to 20)
#    0.000    2.500    0.000    1.875    0.000    7.500 
#    0.000   16.250    0.000    6.000    0.000    0.000 
#    0.000    0.000    0.000    0.000    0.000    0.000 
#
# Total GULP energy -89384.574482 kJ/mol
# GULP energy per Si atom -5586.535905 kJ/mol
# Density = 2.332345 g / cm^3
# Si number density = 23.376661 Si / 1000 Ang^3
#
#
#
# Elastic Constant Matrix: (Units=GPa)
#
#
# Indices 1 2 3 4 5 6 
#
# 1 143.6299 70.5130 26.6309 17.7962 -0.9955 11.3245
# 2 70.5130 137.7763 19.4520 22.2294 -5.7045 28.9826
# 3 26.6309 19.4520 49.8354 5.6512 0.7091 7.3335
# 4 17.7962 22.2294 5.6512 27.1141 -2.7434 8.4834
# 5 -0.9955 -5.7045 0.7091 -2.7434 33.7953 3.9622
# 6 11.3245 28.9826 7.3335 8.4834 3.9622 46.5774
#
#
#
# Elastic Compliance Matrix: (Units=1/GPa)
#
#
# Indices 1 2 3 4 5 6 
#
# 1 0.010065 -0.004575 -0.003499 -0.002678 -0.000796 0.001506
# 2 -0.004575 0.011660 -0.000837 -0.004487 0.002117 -0.005374
# 3 -0.003499 -0.000837 0.022692 -0.001202 -0.000592 -0.001932
# 4 -0.002678 -0.004487 -0.001202 0.044388 0.003348 -0.004737
# 5 -0.000796 0.002117 -0.000592 0.003348 0.030706 -0.004252
# 6 0.001506 -0.005374 -0.001932 -0.004737 -0.004252 0.025976
#
#
# Mechanical properties :
#
#
# Convention : Reuss Voigt Hill
#
# Bulk Modulus (GPa) = 37.60256 62.71483 50.15870
# Shear Modulus (GPa) = 29.04050 35.80708 32.42379
#
# Velocity S-wave (km/s) = 3.52843 3.91800 3.72831
# Velocity P-wave (km/s) = 5.72016 6.88141 6.32748
#
# Compressibility (1/GPa) = 0.02659393
#
# Stress axis : x y z
#
# Youngs Moduli (GPa) = 99.35888 85.76639 44.06902
#
# Poissons Ratio (x) = 0.39235 0.15421
# Poissons Ratio (y) = 0.45453 0.03689
# Poissons Ratio (z) = 0.34769 0.07179
#
# Static dielectric constant tensor:
#      x y z
#    x 1.834380 0.017860 0.000320 
#    y 0.017860 1.963880 -0.017940 
#    z 0.000320 -0.017940 1.943800 
# 
# From -- ./inp_files/392463.got.cif
#   From: 2010.05.17/outbox.cif.g08.bks.cpg/sg2_197_cif.got.tgz:392463.got - 2010.06.03 11:33:40.
