data_PCOD9098984
_publ_section_title
;
Structure prediction by ZEFSAII (Michael W. Deem and Ramdas Pophale) SiO2 
 PCOD9098984
Probable space group: P -1
;
_chemical_formula_sum "Si O2"
_cell_formula_units_Z 16
_cell_length_a 20.748233
_cell_length_b 9.154624
_cell_length_c 8.339913
_cell_angle_alpha 130.286515
_cell_angle_beta 138.905899
_cell_angle_gamma 58.832467
_cell_volume 792.823449
_symmetry_space_group_name_H-M "P -1"
_symmetry_group_IT_number 2
_symmetry_cell_setting 'triclinic'
loop_
_space_group_symop_operation_xyz
x,y,z
-x,-y,-z
loop_
_atom_site_type_symbol
_atom_site_label
_atom_site_fract_x
_atom_site_fract_y
_atom_site_fract_z
Si Si1 0.878827 0.151687 0.228940
Si Si2 0.902853 0.544654 0.742005
Si Si3 0.616939 0.997341 0.391969
Si Si4 0.487861 0.306972 0.208248
Si Si5 0.260216 0.170991 0.200947
Si Si6 0.350463 0.429843 0.301660
Si Si7 0.789525 0.199913 0.735155
Si Si8 0.016127 0.889595 0.115499
O O1 0.884563 0.350405 0.474718
O O2 0.835048 0.193984 0.996965
O O3 0.980587 0.027612 0.292205
O O4 0.811029 0.002075 0.083066
O O5 0.808304 0.648203 0.727215
O O6 0.000000 0.500000 0.000000
O O7 0.943666 0.717776 0.839229
O O8 0.553014 0.198284 0.394211
O O9 0.709658 0.037656 0.478483
O O10 0.663283 0.920069 0.589102
O O11 0.542786 0.844686 0.085048
O O12 0.387927 0.379791 0.158218
O O13 0.554724 0.467510 0.377558
O O14 0.316345 0.252200 0.212548
O O15 0.264466 0.594113 0.247584
O O16 0.869709 0.173655 0.726527
O O17 0.000000 0.000000 0.000000
#
# Coordination Sequence:
#
# PCOD9098984 Si02
#       8
#     2   2   2   2   2   2   2   2
#     4   9  21  40  58  81 120 164 189 239 297 334
#     4  11  23  40  56  83 126 156 191 242 292 342
#     4   9  19  39  58  83 119 151 188 242 292 351
#     4   9  20  38  60  83 118 151 185 244 302 341
#     4  10  22  39  60  89 118 152 201 238 285 355
#     4  10  20  37  58  90 113 148 196 240 291 353
#     4   9  18  36  59  85 115 148 203 240 280 355
#     4   9  19  37  57  85 115 150 198 241 277 345
#
# _framework density 20.181038000000001
#
# number of rings (size 3 to 8) (size 9 to 14) (size 15 to 20)
#    0.000    2.500    0.000    1.500    1.750    5.000 
#   13.500    0.000    0.000    0.000    0.000    0.000 
#    0.000    0.000    0.000    0.000    0.000    0.000 
#
# Total GULP energy -89106.318282 kJ/mol
# GULP energy per Si atom -5569.144893 kJ/mol
# Density = 2.013511 g / cm^3
# Si number density = 20.181038 Si / 1000 Ang^3
#
#
#
# Elastic Constant Matrix: (Units=GPa)
#
#
# Indices 1 2 3 4 5 6 
#
# 1 71.1917 25.4873 15.7192 10.3308 18.1734 8.2810
# 2 25.4873 69.9155 25.5895 8.1977 0.9087 2.4601
# 3 15.7192 25.5895 66.9518 19.9183 -5.9594 3.9203
# 4 10.3308 8.1977 19.9183 42.4439 -3.1518 6.4188
# 5 18.1734 0.9087 -5.9594 -3.1518 17.2885 5.3271
# 6 8.2810 2.4601 3.9203 6.4188 5.3271 37.1251
#
#
#
# Elastic Compliance Matrix: (Units=1/GPa)
#
#
# Indices 1 2 3 4 5 6 
#
# 1 0.025573 -0.006698 -0.004565 -0.004988 -0.029092 0.000259
# 2 -0.006698 0.018559 -0.005404 0.000896 0.004349 0.000056
# 3 -0.004565 -0.005404 0.021183 -0.006721 0.011578 -0.001360
# 4 -0.004988 0.000896 -0.006721 0.029176 0.009636 -0.004664
# 5 -0.029092 0.004349 0.011578 0.009636 0.097220 -0.010638
# 6 0.000259 0.000056 -0.001360 -0.004664 -0.010638 0.029351
#
#
# Mechanical properties :
#
#
# Convention : Reuss Voigt Hill
#
# Bulk Modulus (GPa) = 31.26774 37.96124 34.61449
# Shear Modulus (GPa) = 18.86406 28.78904 23.82655
#
# Velocity S-wave (km/s) = 3.06067 3.78105 3.43977
# Velocity P-wave (km/s) = 5.29316 6.15735 5.74154
#
# Compressibility (1/GPa) = 0.03198184
#
# Stress axis : x y z
#
# Youngs Moduli (GPa) = 39.10445 53.88282 47.20825
#
# Poissons Ratio (x) = 0.36089 0.21550
# Poissons Ratio (y) = 0.26191 0.25509
# Poissons Ratio (z) = 0.17851 0.29116
#
# Static dielectric constant tensor:
#      x y z
#    x 1.718000 -0.041420 0.018390 
#    y -0.041420 1.773910 -0.024150 
#    z 0.018390 -0.024150 1.721800 
# 
# From -- ./inp_files/328431.got.cif
#   From: 2010.05.17/outbox.cif.g08.bks.cpg/sg2_165_cif.got.tgz:328431.got - 2010.06.03 11:33:40.
