data_PCOD9098149
_publ_section_title
;
Structure prediction by ZEFSAII (Michael W. Deem and Ramdas Pophale) SiO2 
 PCOD9098149
Probable space group: P -1
;
_chemical_formula_sum "Si O2"
_cell_formula_units_Z 14
_cell_length_a 19.922262
_cell_length_b 20.197039
_cell_length_c 5.387964
_cell_angle_alpha 55.812216
_cell_angle_beta 57.954084
_cell_angle_gamma 19.357163
_cell_volume 594.411014
_symmetry_space_group_name_H-M "P -1"
_symmetry_group_IT_number 2
_symmetry_cell_setting 'triclinic'
loop_
_space_group_symop_operation_xyz
x,y,z
-x,-y,-z
loop_
_atom_site_type_symbol
_atom_site_label
_atom_site_fract_x
_atom_site_fract_y
_atom_site_fract_z
Si Si1 0.807552 0.588848 0.258171
Si Si2 0.230556 0.200656 0.023854
Si Si3 0.841454 0.808289 0.316011
Si Si4 0.543332 0.681354 0.570481
Si Si5 0.283027 0.654545 0.093540
Si Si6 0.257755 0.745833 0.449414
Si Si7 0.294730 0.897806 0.102686
O O1 0.666649 0.646609 0.346204
O O2 0.982822 0.438575 0.024930
O O3 0.942397 0.435177 0.552731
O O4 0.699762 0.773260 0.128908
O O5 0.270846 0.108097 0.380227
O O6 0.274196 0.120671 0.842928
O O7 0.863416 0.882765 0.081557
O O8 0.378857 0.825060 0.371144
O O9 0.676725 0.476863 0.720163
O O10 0.456235 0.765004 0.844621
O O11 0.178102 0.782931 0.781507
O O12 0.500000 0.500000 0.000000
O O13 0.176758 0.778077 0.295831
O O14 0.500000 0.500000 0.500000
O O15 0.239368 0.857813 0.248580
#
# Coordination Sequence:
#
# PCOD9098149 Si02
#       7
#     2   2   2   2   2   2   2
#     4   9  23  38  65  77 110 145 199 221 267 333
#     4   9  20  41  64  74 104 160 192 208 273 351
#     4  10  21  39  59  81 110 153 180 224 281 340
#     4  12  22  33  57  92 109 138 190 241 264 317
#     4  10  16  31  50  77 107 143 180 217 264 325
#     4  10  16  32  50  75 106 154 174 211 262 349
#     4  12  22  34  56  89 118 136 184 234 286 314
#
# _framework density 23.552728999999999
#
# number of rings (size 3 to 8) (size 9 to 14) (size 15 to 20)
#    0.857    0.857    5.714    1.286    2.000    0.000 
#    0.000    4.286    0.000    1.714    0.000    0.000 
#    0.000    0.000    0.000    0.000    0.000    0.000 
#
# Total GULP energy -78204.390898 kJ/mol
# GULP energy per Si atom -5586.027921 kJ/mol
# Density = 2.349912 g / cm^3
# Si number density = 23.552729 Si / 1000 Ang^3
#
#
#
# Elastic Constant Matrix: (Units=GPa)
#
#
# Indices 1 2 3 4 5 6 
#
# 1 79.1784 10.6135 40.5776 -6.0271 -12.5291 17.8380
# 2 10.6135 41.0141 24.6184 -1.0707 -12.8151 3.3900
# 3 40.5776 24.6184 127.6130 -31.5723 -3.8140 28.1174
# 4 -6.0271 -1.0707 -31.5723 5.6081 49.2248 -15.6031
# 5 -12.5291 -12.8151 -3.8140 49.2248 41.8371 11.4169
# 6 17.8380 3.3900 28.1174 -15.6031 11.4169 31.4144
#
#
#
# Elastic Compliance Matrix: (Units=1/GPa)
#
#
# Indices 1 2 3 4 5 6 
#
# 1 0.015094 -0.002464 -0.002450 0.004895 -0.001346 -0.003191
# 2 -0.002464 0.026841 -0.004240 0.005827 -0.001305 0.005667
# 3 -0.002450 -0.004240 0.011488 -0.001603 0.003796 -0.010609
# 4 0.004895 0.005827 -0.001603 -0.008920 0.017037 -0.012595
# 5 -0.001346 -0.001305 0.003796 0.017037 0.001966 0.005255
# 6 -0.003191 0.005667 -0.010609 -0.012595 0.005255 0.034363
#
#
# Mechanical properties :
#
#
# Convention : Reuss Voigt Hill
#
# Bulk Modulus (GPa) = 28.47967 44.38051 36.43009
# Shear Modulus (GPa) = 45.10771 27.23831 36.17301
#
# Velocity S-wave (km/s) = 4.38102 3.40440 3.92322
# Velocity P-wave (km/s) = 6.14079 5.85979 6.00194
#
# Compressibility (1/GPa) = 0.03511277
#
# Stress axis : x y z
#
# Youngs Moduli (GPa) = 66.25010 37.25684 87.05024
#
# Poissons Ratio (x) = 0.09182 0.21329
# Poissons Ratio (y) = 0.16327 0.36912
# Poissons Ratio (z) = 0.16233 0.15798
#
# Static dielectric constant tensor:
#      x y z
#    x 1.892240 -0.045720 0.019280 
#    y -0.045720 1.737420 -0.064860 
#    z 0.019280 -0.064860 1.866200 
# 
# From -- ./inp_files/111576.got.cif
#   From: 2010.05.17/outbox.cif.g08.bks.cpg/sg2_56_cif.got.tgz:111576.got - 2010.06.03 11:33:40.
