data_PCOD9098505
_publ_section_title
;
Structure prediction by ZEFSAII (Michael W. Deem and Ramdas Pophale) SiO2 
 PCOD9098505
Probable space group: P -1
;
_chemical_formula_sum "Si O2"
_cell_formula_units_Z 16
_cell_length_a 6.007088
_cell_length_b 8.352793
_cell_length_c 15.764323
_cell_angle_alpha 123.877476
_cell_angle_beta 86.990413
_cell_angle_gamma 83.002742
_cell_volume 644.817840
_symmetry_space_group_name_H-M "P -1"
_symmetry_group_IT_number 2
_symmetry_cell_setting 'triclinic'
loop_
_space_group_symop_operation_xyz
x,y,z
-x,-y,-z
loop_
_atom_site_type_symbol
_atom_site_label
_atom_site_fract_x
_atom_site_fract_y
_atom_site_fract_z
Si Si1 0.132537 0.334673 0.509780
Si Si2 0.915874 0.607214 0.200142
Si Si3 0.234348 0.900388 0.313062
Si Si4 0.896778 0.101580 0.157271
Si Si5 0.344292 0.849672 0.991661
Si Si6 0.475233 0.384594 0.650284
Si Si7 0.611342 0.778001 0.123198
Si Si8 0.146828 0.424309 0.282015
O O1 0.161998 0.126712 0.403412
O O2 0.375237 0.354733 0.551174
O O3 0.000000 0.500000 0.500000
O O4 0.970996 0.380150 0.608317
O O5 0.722635 0.602100 0.272281
O O6 0.122864 0.449130 0.187524
O O7 0.798437 0.608429 0.112066
O O8 0.018555 0.805557 0.263768
O O9 0.416132 0.848674 0.217922
O O10 0.351535 0.795264 0.364519
O O11 0.735529 0.963245 0.157846
O O12 0.002880 0.257327 0.257352
O O13 0.766714 0.211171 0.110279
O O14 0.124309 0.961366 0.078668
O O15 0.499196 0.722480 0.021684
O O16 0.500000 0.000000 0.000000
O O17 0.592776 0.577476 0.702591
#
# Coordination Sequence:
#
# PCOD9098505 Si02
#       8
#     2   2   2   2   2   2   2   2
#     4  11  25  39  56  94 128 159 207 264 306 357
#     4   9  20  39  62  88 118 161 211 250 297 364
#     4  10  21  40  64  87 122 171 210 249 304 366
#     4  10  21  40  63  91 124 157 201 252 308 368
#     4   9  20  37  62  92 121 159 198 246 311 375
#     4   9  21  42  61  81 120 173 213 245 307 368
#     4  10  20  36  67  92 119 158 209 250 299 366
#     4  10  23  41  60  86 127 164 199 254 307 360
#
# _framework density 24.813210000000002
#
# number of rings (size 3 to 8) (size 9 to 14) (size 15 to 20)
#    0.000    2.250    0.000    1.125    3.500   11.000 
#    0.000    0.625    0.000   19.500    0.000    0.000 
#    0.000    0.000    0.000    0.000    0.000    0.000 
#
# Total GULP energy -89282.200194 kJ/mol
# GULP energy per Si atom -5580.137512 kJ/mol
# Density = 2.475673 g / cm^3
# Si number density = 24.813210 Si / 1000 Ang^3
#
#
#
# Elastic Constant Matrix: (Units=GPa)
#
#
# Indices 1 2 3 4 5 6 
#
# 1 119.8153 35.3744 49.0954 -2.2900 33.3413 26.8136
# 2 35.3744 71.8900 31.1425 -19.7536 24.5201 1.0177
# 3 49.0954 31.1425 72.9134 -13.9067 23.3891 0.2084
# 4 -2.2900 -19.7536 -13.9067 41.8156 -15.1874 18.7542
# 5 33.3413 24.5201 23.3891 -15.1874 54.0153 -4.2368
# 6 26.8136 1.0177 0.2084 18.7542 -4.2368 54.2247
#
#
#
# Elastic Compliance Matrix: (Units=1/GPa)
#
#
# Indices 1 2 3 4 5 6 
#
# 1 0.015694 -0.002630 -0.007775 -0.001860 -0.006239 -0.007525
# 2 -0.002630 0.020493 -0.004293 0.007612 -0.003836 -0.002000
# 3 -0.007775 -0.004293 0.021889 0.003024 -0.001671 0.002665
# 4 -0.001860 0.007612 0.003024 0.035344 0.005455 -0.011032
# 5 -0.006239 -0.003836 -0.001671 0.005455 0.026627 0.003357
# 6 -0.007525 -0.002000 0.002665 -0.011032 0.003357 0.026268
#
#
# Mechanical properties :
#
#
# Convention : Reuss Voigt Hill
#
# Bulk Modulus (GPa) = 34.87092 55.09371 44.98231
# Shear Modulus (GPa) = 26.98733 39.94487 33.46610
#
# Velocity S-wave (km/s) = 3.30149 4.01661 3.67648
# Velocity P-wave (km/s) = 5.34948 6.61532 6.01579
#
# Compressibility (1/GPa) = 0.02867719
#
# Stress axis : x y z
#
# Youngs Moduli (GPa) = 63.72007 48.79732 45.68472
#
# Poissons Ratio (x) = 0.12836 0.35522
# Poissons Ratio (y) = 0.16761 0.19614
# Poissons Ratio (z) = 0.49545 0.20951
#
# Static dielectric constant tensor:
#      x y z
#    x 2.037770 -0.054540 0.055450 
#    y -0.054540 2.081520 -0.066610 
#    z 0.055450 -0.066610 2.008180 
# 
# From -- ./inp_files/37467.got.cif
#   From: 2010.05.17/outbox.cif.g08.bks.cpg/sg2_19_cif.got.tgz:37467.got - 2010.06.03 11:33:40.
