data_PCOD9098280
_publ_section_title
;
Structure prediction by ZEFSAII (Michael W. Deem and Ramdas Pophale) SiO2 
 PCOD9098280
Probable space group: P -1
;
_chemical_formula_sum "Si O2"
_cell_formula_units_Z 16
_cell_length_a 8.838295
_cell_length_b 15.292002
_cell_length_c 14.942670
_cell_angle_alpha 48.451586
_cell_angle_beta 46.553344
_cell_angle_gamma 31.104693
_cell_volume 742.396393
_symmetry_space_group_name_H-M "P -1"
_symmetry_group_IT_number 2
_symmetry_cell_setting 'triclinic'
loop_
_space_group_symop_operation_xyz
x,y,z
-x,-y,-z
loop_
_atom_site_type_symbol
_atom_site_label
_atom_site_fract_x
_atom_site_fract_y
_atom_site_fract_z
Si Si1 0.758843 0.340212 0.263323
Si Si2 0.905611 0.937878 0.340344
Si Si3 0.452547 0.576417 0.063778
Si Si4 0.771077 0.738997 0.607472
Si Si5 0.261455 0.404053 0.534600
Si Si6 0.210055 0.946827 0.365105
Si Si7 0.892515 0.924690 0.138360
Si Si8 0.262556 0.280097 0.158390
O O1 0.590723 0.430097 0.178189
O O2 0.517848 0.389012 0.401471
O O3 0.925180 0.394455 0.180194
O O4 0.044401 0.134460 0.277893
O O5 0.849107 0.828889 0.468106
O O6 0.946252 0.913602 0.232231
O O7 0.161657 0.884972 0.338876
O O8 0.585227 0.139877 0.355716
O O9 0.104878 0.741737 0.128133
O O10 0.500000 0.500000 0.000000
O O11 0.620423 0.634844 0.955729
O O12 0.762317 0.749557 0.709191
O O13 0.049962 0.539136 0.607624
O O14 0.450748 0.213487 0.622105
O O15 0.000000 0.500000 0.500000
O O16 0.000000 0.000000 0.500000
O O17 0.534515 0.079746 0.153030
O O18 0.000000 0.000000 0.000000
#
# Coordination Sequence:
#
# PCOD9098280 Si02
#       8
#     2   2   2   2   2   2   2   2
#     4  11  24  42  67  93 143 178 225 285 349 397
#     4  10  20  37  64  98 135 181 227 273 353 415
#     4  11  25  43  74  99 131 181 240 289 339 408
#     4  10  20  36  64  94 131 179 220 276 341 416
#     4  11  24  39  65  99 138 176 228 277 345 413
#     4  10  22  38  61  96 137 175 222 278 337 406
#     4   9  21  41  69  95 136 181 229 281 343 412
#     4  10  23  44  66  97 139 179 228 283 350 412
#
# _framework density 21.551826999999999
#
# number of rings (size 3 to 8) (size 9 to 14) (size 15 to 20)
#    0.000    1.750    0.000    4.125    7.000    6.000 
#    0.000    0.625    0.000    0.000    0.000    0.000 
#    0.000    0.000    0.000    0.000    0.000    0.000 
#
# Total GULP energy -89154.078839 kJ/mol
# GULP energy per Si atom -5572.129927 kJ/mol
# Density = 2.150277 g / cm^3
# Si number density = 21.551827 Si / 1000 Ang^3
#
#
#
# Elastic Constant Matrix: (Units=GPa)
#
#
# Indices 1 2 3 4 5 6 
#
# 1 47.3876 22.6562 -4.9689 11.5394 -8.9827 -12.7580
# 2 22.6562 162.9728 29.2700 0.4573 0.6008 -11.3956
# 3 -4.9689 29.2700 86.1660 0.6800 6.5121 0.8053
# 4 11.5394 0.4573 0.6800 37.7383 -5.7159 2.9059
# 5 -8.9827 0.6008 6.5121 -5.7159 26.3213 -1.8788
# 6 -12.7580 -11.3956 0.8053 2.9059 -1.8788 24.0108
#
#
#
# Elastic Compliance Matrix: (Units=1/GPa)
#
#
# Indices 1 2 3 4 5 6 
#
# 1 0.031795 -0.003648 0.002271 -0.009588 0.009503 0.016991
# 2 -0.003648 0.007218 -0.002648 0.000896 -0.000458 0.001432
# 3 0.002271 -0.002648 0.012852 -0.001255 -0.002655 -0.000537
# 4 -0.009588 0.000896 -0.001255 0.030529 0.003071 -0.008082
# 5 0.009503 -0.000458 -0.002655 0.003071 0.043135 0.007925
# 6 0.016991 0.001432 -0.000537 -0.008082 0.007925 0.052972
#
#
# Mechanical properties :
#
#
# Convention : Reuss Voigt Hill
#
# Bulk Modulus (GPa) = 22.82305 43.38232 33.10269
# Shear Modulus (GPa) = 24.85640 34.25201 29.55421
#
# Velocity S-wave (km/s) = 3.39976 3.99091 3.70714
# Velocity P-wave (km/s) = 5.10137 6.43502 5.80661
#
# Compressibility (1/GPa) = 0.04381535
#
# Stress axis : x y z
#
# Youngs Moduli (GPa) = 31.45111 138.54140 77.81121
#
# Poissons Ratio (x) = 0.50542 -0.17675
# Poissons Ratio (y) = 0.11474 0.20606
# Poissons Ratio (z) = -0.07144 0.36688
#
# Static dielectric constant tensor:
#      x y z
#    x 1.877000 -0.099250 -0.117230 
#    y -0.099250 1.739520 -0.097850 
#    z -0.117230 -0.097850 1.673670 
# 
# From -- ./inp_files/505352.got.cif
#   From: 2010.05.17/outbox.cif.g08.bks.cpg/sg2_253_cif.got.tgz:505352.got - 2010.06.03 11:33:40.
