data_PCOD9098936
_publ_section_title
;
Structure prediction by ZEFSAII (Michael W. Deem and Ramdas Pophale) SiO2 
 PCOD9098936
Probable space group: P -1
;
_chemical_formula_sum "Si O2"
_cell_formula_units_Z 16
_cell_length_a 9.282673
_cell_length_b 18.087134
_cell_length_c 10.686819
_cell_angle_alpha 148.494353
_cell_angle_beta 51.956934
_cell_angle_gamma 116.313715
_cell_volume 723.601937
_symmetry_space_group_name_H-M "P -1"
_symmetry_group_IT_number 2
_symmetry_cell_setting 'triclinic'
loop_
_space_group_symop_operation_xyz
x,y,z
-x,-y,-z
loop_
_atom_site_type_symbol
_atom_site_label
_atom_site_fract_x
_atom_site_fract_y
_atom_site_fract_z
Si Si1 0.775588 0.203458 0.398193
Si Si2 0.724512 0.953098 0.315752
Si Si3 0.514811 0.147961 0.126552
Si Si4 0.829002 0.886107 0.874121
Si Si5 0.048149 0.307100 0.003603
Si Si6 0.836960 0.122399 0.709870
Si Si7 0.417961 0.378621 0.938497
Si Si8 0.707073 0.401217 0.494835
O O1 0.792066 0.327020 0.470089
O O2 0.794731 0.054479 0.095715
O O3 0.576904 0.237824 0.623913
O O4 0.956546 0.183639 0.358565
O O5 0.787773 0.905568 0.073051
O O6 0.831381 0.821753 0.158384
O O7 0.500000 0.000000 0.500000
O O8 0.788978 0.086444 0.543700
O O9 0.575857 0.287620 0.360640
O O10 0.312567 0.190683 0.233095
O O11 0.663266 0.116362 0.886902
O O12 0.500000 0.000000 0.000000
O O13 0.932367 0.258150 0.880651
O O14 0.221029 0.376933 0.976649
O O15 0.880982 0.396962 0.304694
O O16 0.000000 0.000000 0.500000
O O17 0.388821 0.436280 0.179822
O O18 0.500000 0.500000 0.000000
#
# Coordination Sequence:
#
# PCOD9098936 Si02
#       8
#     2   2   2   2   2   2   2   2
#     4  10  21  37  56  89 116 158 202 239 301 359
#     4  11  19  33  57  90 126 157 191 240 304 365
#     4  11  21  36  60  89 125 154 194 249 306 357
#     4  11  21  35  60  88 127 156 191 250 306 353
#     4  10  20  37  58  86 119 154 204 252 296 352
#     4   9  21  32  54  87 120 153 193 240 300 351
#     4  10  22  38  61  85 115 159 211 249 291 360
#     4  10  20  38  60  88 118 157 205 244 295 358
#
# _framework density 22.111605000000001
#
# number of rings (size 3 to 8) (size 9 to 14) (size 15 to 20)
#    0.000    1.750    3.750    1.125    1.750    0.000 
#    0.000    0.625    0.000    5.250    0.000    0.000 
#    0.000    0.000    0.000    0.000    0.000    0.000 
#
# Total GULP energy -89115.466628 kJ/mol
# GULP energy per Si atom -5569.716664 kJ/mol
# Density = 2.206128 g / cm^3
# Si number density = 22.111605 Si / 1000 Ang^3
#
#
#
# Elastic Constant Matrix: (Units=GPa)
#
#
# Indices 1 2 3 4 5 6 
#
# 1 143.2760 28.2298 36.5744 -19.9040 3.1791 42.2106
# 2 28.2298 64.0444 -7.5649 -12.9340 4.8204 25.7249
# 3 36.5744 -7.5649 72.1161 -20.1915 -5.1676 20.5469
# 4 -19.9040 -12.9340 -20.1915 20.8987 4.2499 -8.1336
# 5 3.1791 4.8204 -5.1676 4.2499 21.0219 -8.7410
# 6 42.2106 25.7249 20.5469 -8.1336 -8.7410 42.8073
#
#
#
# Elastic Compliance Matrix: (Units=1/GPa)
#
#
# Indices 1 2 3 4 5 6 
#
# 1 0.012165 0.003619 0.000676 0.010989 -0.010801 -0.014613
# 2 0.003619 0.044229 0.024592 0.045353 -0.030241 -0.039510
# 3 0.000676 0.024592 0.034456 0.041937 -0.017195 -0.027526
# 4 0.010989 0.045353 0.041937 0.118496 -0.044317 -0.044754
# 5 -0.010801 -0.030241 -0.017195 -0.044317 0.079538 0.044898
# 6 -0.014613 -0.039510 -0.027526 -0.044754 0.044898 0.075390
#
#
# Mechanical properties :
#
#
# Convention : Reuss Voigt Hill
#
# Bulk Modulus (GPa) = 6.72836 43.76835 25.24835
# Shear Modulus (GPa) = 14.04335 31.75873 22.90104
#
# Velocity S-wave (km/s) = 2.52288 3.79396 3.22172
# Velocity P-wave (km/s) = 3.39648 6.24735 5.02819
#
# Compressibility (1/GPa) = 0.14862460
#
# Stress axis : x y z
#
# Youngs Moduli (GPa) = 82.20248 22.60960 29.02284
#
# Poissons Ratio (x) = -0.08183 -0.01962
# Poissons Ratio (y) = -0.29752 -0.71373
# Poissons Ratio (z) = -0.05557 -0.55602
#
# Static dielectric constant tensor:
#      x y z
#    x 1.824850 0.040330 0.050820 
#    y 0.040330 2.096540 0.150790 
#    z 0.050820 0.150790 2.006790 
# 
# From -- ./inp_files/189228.got.cif
#   From: 2010.05.17/outbox.cif.g08.bks.cpg/sg2_95_cif.got.tgz:189228.got - 2010.06.03 11:33:40.
