data_PCOD9098517
_publ_section_title
;
Structure prediction by ZEFSAII (Michael W. Deem and Ramdas Pophale) SiO2 
 PCOD9098517
Probable space group: P -1
;
_chemical_formula_sum "Si O2"
_cell_formula_units_Z 16
_cell_length_a 9.357774
_cell_length_b 8.318471
_cell_length_c 11.525218
_cell_angle_alpha 123.736702
_cell_angle_beta 109.974383
_cell_angle_gamma 62.268087
_cell_volume 656.143023
_symmetry_space_group_name_H-M "P -1"
_symmetry_group_IT_number 2
_symmetry_cell_setting 'triclinic'
loop_
_space_group_symop_operation_xyz
x,y,z
-x,-y,-z
loop_
_atom_site_type_symbol
_atom_site_label
_atom_site_fract_x
_atom_site_fract_y
_atom_site_fract_z
Si Si1 0.139035 0.990358 0.129455
Si Si2 0.826190 0.949462 0.277211
Si Si3 0.309382 0.613624 0.469797
Si Si4 0.917488 0.462869 0.845881
Si Si5 0.355236 0.801742 0.316237
Si Si6 0.317175 0.117036 0.028817
Si Si7 0.707659 0.775271 0.398017
Si Si8 0.035137 0.419889 0.334523
O O1 0.055635 0.185705 0.269244
O O2 0.245317 0.809334 0.174234
O O3 0.273158 0.036587 0.105475
O O4 0.000000 0.000000 0.000000
O O5 0.776352 0.936965 0.126429
O O6 0.733311 0.862465 0.313911
O O7 0.007868 0.780913 0.263135
O O8 0.781059 0.184245 0.397255
O O9 0.500000 0.500000 0.500000
O O10 0.310957 0.692925 0.371064
O O11 0.200676 0.471905 0.402616
O O12 0.996430 0.558808 0.804803
O O13 0.737215 0.634896 0.877828
O O14 0.000000 0.500000 0.000000
O O15 0.550858 0.707721 0.317120
O O16 0.326227 0.036587 0.445255
O O17 0.500000 0.000000 0.000000
O O18 0.875566 0.594856 0.409986
#
# Coordination Sequence:
#
# PCOD9098517 Si02
#       8
#     2   2   2   2   2   2   2   2
#     4  11  26  46  69 101 141 188 231 285 357 430
#     4   9  19  38  65  96 138 174 236 285 345 412
#     4  11  26  42  69 106 140 184 241 301 355 421
#     4   8  17  34  59  93 126 172 219 274 333 397
#     4  10  23  44  69  99 148 177 231 290 356 418
#     4  10  20  36  67  98 135 181 228 287 341 409
#     4   9  20  40  71 103 132 187 226 292 356 411
#     4  10  23  42  67  97 138 178 239 284 352 425
#
# _framework density 24.384926
#
# number of rings (size 3 to 8) (size 9 to 14) (size 15 to 20)
#    0.000    2.250    0.000    0.750    8.750   10.000 
#    2.250    0.625    0.000    0.000    0.000    0.000 
#    0.000    0.000    0.000    0.000    0.000    0.000 
#
# Total GULP energy -89284.799891 kJ/mol
# GULP energy per Si atom -5580.299993 kJ/mol
# Density = 2.432942 g / cm^3
# Si number density = 24.384926 Si / 1000 Ang^3
#
#
#
# Elastic Constant Matrix: (Units=GPa)
#
#
# Indices 1 2 3 4 5 6 
#
# 1 138.2265 54.0345 38.8019 -1.1091 -1.5950 -34.9204
# 2 54.0345 124.2720 42.7714 2.3017 8.5087 -34.6722
# 3 38.8019 42.7714 110.5843 3.9524 -0.4254 -4.0482
# 4 -1.1091 2.3017 3.9524 57.2209 -5.2580 -9.3132
# 5 -1.5950 8.5087 -0.4254 -5.2580 35.8272 -2.0934
# 6 -34.9204 -34.6722 -4.0482 -9.3132 -2.0934 43.2716
#
#
#
# Elastic Compliance Matrix: (Units=1/GPa)
#
#
# Indices 1 2 3 4 5 6 
#
# 1 0.010599 -0.001708 -0.002847 0.001814 0.001541 0.007384
# 2 -0.001708 0.012708 -0.004046 0.000887 -0.002516 0.008495
# 3 -0.002847 -0.004046 0.011486 -0.001414 0.000486 -0.004746
# 4 0.001814 0.000887 -0.001414 0.018864 0.002987 0.006247
# 5 0.001541 -0.002516 0.000486 0.002987 0.029099 0.001324
# 6 0.007384 0.008495 -0.004746 0.006247 0.001324 0.036840
#
#
# Mechanical properties :
#
#
# Convention : Reuss Voigt Hill
#
# Bulk Modulus (GPa) = 56.84950 71.58873 64.21912
# Shear Modulus (GPa) = 35.04786 43.09559 39.07172
#
# Velocity S-wave (km/s) = 3.79525 4.20849 4.00720
# Velocity P-wave (km/s) = 6.52451 7.28263 6.91397
#
# Compressibility (1/GPa) = 0.01759030
#
# Stress axis : x y z
#
# Youngs Moduli (GPa) = 94.34850 78.69070 87.06584
#
# Poissons Ratio (x) = 0.13438 0.24789
# Poissons Ratio (y) = 0.16111 0.35230
# Poissons Ratio (z) = 0.26862 0.31841
#
# Static dielectric constant tensor:
#      x y z
#    x 1.958100 0.051900 0.129110 
#    y 0.051900 1.975630 0.013440 
#    z 0.129110 0.013440 2.127250 
# 
# From -- ./inp_files/383313.got.cif
#   From: 2010.05.17/outbox.cif.g08.bks.cpg/sg2_192_cif.got.tgz:383313.got - 2010.06.03 11:33:40.
