data_PCOD9098146
_publ_section_title
;
Structure prediction by ZEFSAII (Michael W. Deem and Ramdas Pophale) SiO2 
 PCOD9098146
Probable space group: P -1
;
_chemical_formula_sum "Si O2"
_cell_formula_units_Z 16
_cell_length_a 9.537385
_cell_length_b 11.300177
_cell_length_c 13.592067
_cell_angle_alpha 39.091438
_cell_angle_beta 81.320945
_cell_angle_gamma 111.705923
_cell_volume 570.022030
_symmetry_space_group_name_H-M "P -1"
_symmetry_group_IT_number 2
_symmetry_cell_setting 'triclinic'
loop_
_space_group_symop_operation_xyz
x,y,z
-x,-y,-z
loop_
_atom_site_type_symbol
_atom_site_label
_atom_site_fract_x
_atom_site_fract_y
_atom_site_fract_z
Si Si1 0.975651 0.776212 0.437219
Si Si2 0.482306 0.304926 0.203986
Si Si3 0.263132 0.365224 0.626719
Si Si4 0.651089 0.907124 0.964956
Si Si5 0.226091 0.735463 0.099276
Si Si6 0.108913 0.913495 0.652673
Si Si7 0.693737 0.196747 0.160804
Si Si8 0.767196 0.642039 0.148795
O O1 0.779716 0.548047 0.520510
O O2 0.962847 0.609878 0.630688
O O3 0.944269 0.950226 0.372061
O O4 0.200190 0.971480 0.225039
O O5 0.253637 0.109216 0.414859
O O6 0.680307 0.475722 0.159451
O O7 0.500000 0.500000 0.000000
O O8 0.484721 0.108602 0.273712
O O9 0.500000 0.500000 0.500000
O O10 0.260123 0.468521 0.666621
O O11 0.027806 0.993867 0.889875
O O12 0.783328 0.129444 0.898887
O O13 0.445532 0.828911 0.018577
O O14 0.594172 0.639718 0.176531
O O15 0.258179 0.859076 0.910814
O O16 0.121553 0.443230 0.104607
O O17 0.259324 0.914289 0.693556
#
# Coordination Sequence:
#
# PCOD9098146 Si02
#       8
#     2   2   2   2   2   2   2   2
#     4  11  23  43  70 101 137 183 236 291 356 434
#     4  12  25  47  77 105 142 194 247 306 359 431
#     4  10  20  36  63  98 141 173 221 286 349 424
#     4  10  22  42  66  99 143 176 231 296 349 431
#     4  11  24  43  69 100 141 182 238 289 361 428
#     4  11  26  46  69 103 144 184 248 299 364 431
#     4  11  26  46  68 103 141 193 237 306 361 427
#     4  10  22  39  64 105 134 180 237 282 356 428
#
# _framework density 28.069091
#
# number of rings (size 3 to 8) (size 9 to 14) (size 15 to 20)
#    0.000    1.250    0.000    6.000    1.750    5.000 
#   11.250    0.000    0.000    0.000    0.000    0.000 
#    0.000    0.000    0.000    0.000    0.000    0.000 
#
# Total GULP energy -89543.404175 kJ/mol
# GULP energy per Si atom -5596.462761 kJ/mol
# Density = 2.800520 g / cm^3
# Si number density = 28.069091 Si / 1000 Ang^3
#
#
#
# Elastic Constant Matrix: (Units=GPa)
#
#
# Indices 1 2 3 4 5 6 
#
# 1 107.6816 50.2612 28.9525 10.6966 -6.9263 -7.9239
# 2 50.2612 168.9704 63.5658 21.2152 -3.2088 -11.7866
# 3 28.9525 63.5658 143.1556 44.3040 -10.4411 -7.9713
# 4 10.6966 21.2152 44.3040 57.0606 5.2623 -5.8804
# 5 -6.9263 -3.2088 -10.4411 5.2623 48.4114 -0.2256
# 6 -7.9239 -11.7866 -7.9713 -5.8804 -0.2256 61.1647
#
#
#
# Elastic Compliance Matrix: (Units=1/GPa)
#
#
# Indices 1 2 3 4 5 6 
#
# 1 0.010998 -0.002887 -0.000640 -0.000535 0.001306 0.000738
# 2 -0.002887 0.007923 -0.002927 -0.000005 -0.000515 0.000769
# 3 -0.000640 -0.002927 0.010974 -0.007573 0.002905 0.000066
# 4 -0.000535 -0.000005 -0.007573 0.024033 -0.004317 0.001237
# 5 0.001306 -0.000515 0.002905 -0.004317 0.021905 0.000114
# 6 0.000738 0.000769 0.000066 0.001237 0.000114 0.016721
#
#
# Mechanical properties :
#
#
# Convention : Reuss Voigt Hill
#
# Bulk Modulus (GPa) = 58.87413 78.37406 68.62409
# Shear Modulus (GPa) = 44.99442 51.79589 48.39516
#
# Velocity S-wave (km/s) = 4.00808 4.30036 4.15679
# Velocity P-wave (km/s) = 6.51459 7.25533 6.89491
#
# Compressibility (1/GPa) = 0.01698539
#
# Stress axis : x y z
#
# Youngs Moduli (GPa) = 90.92724 126.22077 91.12415
#
# Poissons Ratio (x) = 0.36439 0.05835
# Poissons Ratio (y) = 0.26250 0.26675
# Poissons Ratio (z) = 0.05822 0.36948
#
# Static dielectric constant tensor:
#      x y z
#    x 2.117850 0.130540 -0.003580 
#    y 0.130540 2.442340 -0.011860 
#    z -0.003580 -0.011860 2.281680 
# 
# From -- ./inp_files/517684.got.cif
#   From: 2010.05.17/outbox.cif.g08.bks.cpg/sg2_259_cif.got.tgz:517684.got - 2010.06.03 11:33:40.
