data_PCOD9098583
_publ_section_title
;
Structure prediction by ZEFSAII (Michael W. Deem and Ramdas Pophale) SiO2 
 PCOD9098583
Probable space group: P -1
;
_chemical_formula_sum "Si O2"
_cell_formula_units_Z 15
_cell_length_a 22.590635
_cell_length_b 6.837536
_cell_length_c 5.195738
_cell_angle_alpha 102.691131
_cell_angle_beta 98.201531
_cell_angle_gamma 47.476581
_cell_volume 577.014811
_symmetry_space_group_name_H-M "P -1"
_symmetry_group_IT_number 2
_symmetry_cell_setting 'triclinic'
loop_
_space_group_symop_operation_xyz
x,y,z
-x,-y,-z
loop_
_atom_site_type_symbol
_atom_site_label
_atom_site_fract_x
_atom_site_fract_y
_atom_site_fract_z
Si Si1 0.776506 0.738651 0.531479
Si Si2 0.678282 0.730884 0.825774
Si Si3 0.429929 0.708710 0.814297
Si Si4 0.919314 0.428290 0.889139
Si Si5 0.156353 0.738746 0.948512
Si Si6 0.858154 0.871881 0.334264
Si Si7 0.449704 0.285947 0.419045
Si Si8 0.000000 0.500000 0.500000
O O1 0.696421 0.802925 0.586403
O O2 0.827292 0.672813 0.802843
O O3 0.826402 0.463824 0.324648
O O4 0.782269 0.923751 0.413113
O O5 0.614530 0.694053 0.778645
O O6 0.762361 0.449988 0.887129
O O7 0.642267 0.995372 0.041317
O O8 0.404404 0.551295 0.641100
O O9 0.480882 0.736858 0.668896
O O10 0.500000 0.500000 0.000000
O O11 0.973787 0.376141 0.674958
O O12 0.914316 0.212224 0.921515
O O13 0.928011 0.551091 0.187174
O O14 0.151769 0.951018 0.844817
O O15 0.912222 0.815705 0.590985
O O16 0.500000 0.000000 0.500000
#
# Coordination Sequence:
#
# PCOD9098583 Si02
#       8
#     2   2   2   2   2   2   2   1
#     4   9  22  43  61  93 134 168 218 276 320 409
#     4  11  24  45  67  96 136 178 226 278 346 399
#     4  11  25  46  68  99 135 172 223 291 336 403
#     4   9  20  41  61  94 134 167 222 274 320 395
#     4  10  23  43  63  93 135 173 221 274 327 404
#     4  10  21  43  65  94 133 172 221 271 331 389
#     4  11  25  46  69  98 136 171 226 287 336 411
#     4  10  20  36  70  96 130 178 218 272 332 386
#
# _framework density 25.995864000000001
#
# number of rings (size 3 to 8) (size 9 to 14) (size 15 to 20)
#    0.000    1.867    1.333    0.800    1.867    4.800 
#   19.200    6.667    0.000    0.000    0.000    0.000 
#    0.000    0.000    0.000    0.000    0.000    0.000 
#
# Total GULP energy -83604.513887 kJ/mol
# GULP energy per Si atom -5573.634259 kJ/mol
# Density = 2.593670 g / cm^3
# Si number density = 25.995864 Si / 1000 Ang^3
#
#
#
# Elastic Constant Matrix: (Units=GPa)
#
#
# Indices 1 2 3 4 5 6 
#
# 1 103.7593 67.4097 22.6424 -10.1836 -4.0064 17.5322
# 2 67.4097 130.2222 28.4100 -27.7796 -7.4767 33.8029
# 3 22.6424 28.4100 69.7016 -10.6212 -13.6689 27.9739
# 4 -10.1836 -27.7796 -10.6212 39.3737 14.2037 2.7902
# 5 -4.0064 -7.4767 -13.6689 14.2037 43.4596 -8.6478
# 6 17.5322 33.8029 27.9739 2.7902 -8.6478 60.4184
#
#
#
# Elastic Compliance Matrix: (Units=1/GPa)
#
#
# Indices 1 2 3 4 5 6 
#
# 1 0.014986 -0.008212 -0.002517 -0.002867 0.000434 0.001606
# 2 -0.008212 0.015990 0.000276 0.010848 -0.002980 -0.007619
# 3 -0.002517 0.000276 0.019617 0.004375 0.002905 -0.008293
# 4 -0.002867 0.010848 0.004375 0.038481 -0.011732 -0.010719
# 5 0.000434 -0.002980 0.002905 -0.011732 0.028236 0.004780
# 6 0.001606 -0.007619 -0.008293 -0.010719 0.004780 0.025367
#
#
# Mechanical properties :
#
#
# Convention : Reuss Voigt Hill
#
# Bulk Modulus (GPa) = 33.68470 60.06747 46.87608
# Shear Modulus (GPa) = 28.82185 40.99839 34.91012
#
# Velocity S-wave (km/s) = 3.33334 3.97560 3.66855
# Velocity P-wave (km/s) = 5.27264 6.65060 6.00130
#
# Compressibility (1/GPa) = 0.02968707
#
# Stress axis : x y z
#
# Youngs Moduli (GPa) = 66.72834 62.53728 50.97698
#
# Poissons Ratio (x) = 0.51355 0.12833
# Poissons Ratio (y) = 0.54797 -0.01408
# Poissons Ratio (z) = 0.16798 -0.01727
#
# Static dielectric constant tensor:
#      x y z
#    x -36.053420 9.336250 -39.053140 
#    y 9.336250 -0.235080 9.613640 
#    z -39.053140 9.613640 -37.915040 
# 
# From -- ./inp_files/7892.got.cif
#   From: 2010.05.17/outbox.cif.g08.bks.cpg/sg2_4_cif.got.tgz:7892.got - 2010.06.03 11:33:40.
