data_PCOD9098589
_publ_section_title
;
Structure prediction by ZEFSAII (Michael W. Deem and Ramdas Pophale) SiO2 
 PCOD9098589
Probable space group: P -1
;
_chemical_formula_sum "Si O2"
_cell_formula_units_Z 12
_cell_length_a 23.195130
_cell_length_b 12.161999
_cell_length_c 17.517423
_cell_angle_alpha 19.785994
_cell_angle_beta 161.505051
_cell_angle_gamma 153.160834
_cell_volume 530.643289
_symmetry_space_group_name_H-M "P -1"
_symmetry_group_IT_number 2
_symmetry_cell_setting 'triclinic'
loop_
_space_group_symop_operation_xyz
x,y,z
-x,-y,-z
loop_
_atom_site_type_symbol
_atom_site_label
_atom_site_fract_x
_atom_site_fract_y
_atom_site_fract_z
Si Si1 0.471135 0.612187 0.801725
Si Si2 0.896772 0.225058 0.314540
Si Si3 0.180429 0.719202 0.587708
Si Si4 0.792596 0.901593 0.782799
Si Si5 0.033826 0.841078 0.861887
Si Si6 0.199950 0.413915 0.462431
O O1 0.335125 0.428774 0.692776
O O2 0.363489 0.949774 0.457384
O O3 0.500000 0.500000 0.000000
O O4 0.660132 0.545803 0.039910
O O5 0.997495 0.371549 0.271581
O O6 0.778942 0.913132 0.347033
O O7 0.786841 0.515038 0.024828
O O8 0.057233 0.100326 0.654294
O O9 0.000000 0.500000 0.500000
O O10 0.223835 0.936462 0.426454
O O11 0.136232 0.988944 0.420172
O O12 0.000000 0.000000 0.000000
O O13 0.187212 0.738594 0.182491
O O14 0.000000 0.500000 0.000000
#
# Coordination Sequence:
#
# PCOD9098589 Si02
#       6
#     2   2   2   2   2   2
#     4  10  23  40  65  94 132 169 218 264 317 383
#     4  10  20  36  71  94 125 170 208 257 327 379
#     4  11  23  40  61  91 129 171 215 268 317 374
#     4  11  19  39  65  95 129 170 212 262 319 383
#     4  10  21  39  65  94 123 169 212 257 322 382
#     4  10  20  41  65  94 128 167 211 262 318 385
#
# _framework density 22.614061
#
# number of rings (size 3 to 8) (size 9 to 14) (size 15 to 20)
#    0.000    1.667    3.333    1.000    2.333    0.000 
#    0.000   15.833    0.000    0.000    0.000    0.000 
#    0.000    0.000    0.000    0.000    0.000    0.000 
#
# Total GULP energy -66864.900478 kJ/mol
# GULP energy per Si atom -5572.075040 kJ/mol
# Density = 2.256259 g / cm^3
# Si number density = 22.614061 Si / 1000 Ang^3
#
#
#
# Elastic Constant Matrix: (Units=GPa)
#
#
# Indices 1 2 3 4 5 6 
#
# 1 89.9696 42.2919 67.1791 -7.6437 11.2197 -19.0588
# 2 42.2919 82.3889 82.7758 -13.5583 14.5341 -25.8156
# 3 67.1791 82.7758 180.7479 -27.5659 33.0557 -12.8735
# 4 -7.6437 -13.5583 -27.5659 35.3063 -9.2571 2.1710
# 5 11.2197 14.5341 33.0557 -9.2571 70.3091 -6.1666
# 6 -19.0588 -25.8156 -12.8735 2.1710 -6.1666 29.4993
#
#
#
# Elastic Compliance Matrix: (Units=1/GPa)
#
#
# Indices 1 2 3 4 5 6 
#
# 1 0.017405 -0.000864 -0.005833 -0.001446 0.000672 0.008190
# 2 -0.000864 0.032939 -0.013284 0.001143 0.001720 0.022746
# 3 -0.005833 -0.013284 0.014379 0.004604 -0.003368 -0.010162
# 4 -0.001446 0.001143 0.004604 0.032595 0.002132 0.000122
# 5 0.000672 0.001720 -0.003368 0.002132 0.015944 0.003645
# 6 0.008190 0.022746 -0.010162 0.000122 0.003645 0.055415
#
#
# Mechanical properties :
#
#
# Convention : Reuss Voigt Hill
#
# Bulk Modulus (GPa) = 40.38644 81.95556 61.17100
# Shear Modulus (GPa) = 23.05276 37.74693 30.39984
#
# Velocity S-wave (km/s) = 3.19627 4.08999 3.67043
# Velocity P-wave (km/s) = 5.61420 7.65661 6.71353
#
# Compressibility (1/GPa) = 0.02476079
#
# Stress axis : x y z
#
# Youngs Moduli (GPa) = 57.45489 30.35871 69.54723
#
# Poissons Ratio (x) = 0.02621 0.40570
# Poissons Ratio (y) = 0.04961 0.92388
# Poissons Ratio (z) = 0.33516 0.40329
#
# Static dielectric constant tensor:
#      x y z
#    x 1.881770 -0.044770 -0.024870 
#    y -0.044770 1.848270 0.002120 
#    z -0.024870 0.002120 1.872430 
# 
# From -- ./inp_files/259819.got.cif
#   From: 2010.05.17/outbox.cif.g08.bks.cpg/sg2_130_cif.got.tgz:259819.got - 2010.06.03 11:33:40.
