data_PCOD9098737
_publ_section_title
;
Structure prediction by ZEFSAII (Michael W. Deem and Ramdas Pophale) SiO2 
 PCOD9098737
Probable space group: P -1
;
_chemical_formula_sum "Si O2"
_cell_formula_units_Z 10
_cell_length_a 7.158785
_cell_length_b 9.421107
_cell_length_c 13.201225
_cell_angle_alpha 52.995428
_cell_angle_beta 96.984638
_cell_angle_gamma 133.663262
_cell_volume 442.795563
_symmetry_space_group_name_H-M "P -1"
_symmetry_group_IT_number 2
_symmetry_cell_setting 'triclinic'
loop_
_space_group_symop_operation_xyz
x,y,z
-x,-y,-z
loop_
_atom_site_type_symbol
_atom_site_label
_atom_site_fract_x
_atom_site_fract_y
_atom_site_fract_z
Si Si1 0.477816 0.722219 0.802559
Si Si2 0.608542 0.214631 0.656131
Si Si3 0.088976 0.294586 0.140155
Si Si4 0.883306 0.625533 0.668153
Si Si5 0.494432 0.297201 0.411193
O O1 0.737357 0.764814 0.811831
O O2 0.355725 0.616436 0.725499
O O3 0.611712 0.013261 0.708621
O O4 0.227516 0.494549 0.967296
O O5 0.817862 0.423328 0.672282
O O6 0.664581 0.377088 0.491152
O O7 0.265018 0.995199 0.763450
O O8 0.151975 0.443673 0.185804
O O9 0.786961 0.047279 0.461848
O O10 0.651463 0.614707 0.631775
#
# Coordination Sequence:
#
# PCOD9098737 Si02
#       5
#     2   2   2   2   2
#     4  10  20  37  57  79 110 142 177 221 267 314
#     4  11  20  35  60  81 103 144 183 216 264 319
#     4   9  21  40  54  76 114 143 172 222 269 314
#     4   9  19  36  57  79 108 143 178 218 267 316
#     4   9  19  36  54  79 112 140 173 223 269 312
#
# _framework density 22.583787000000001
#
# number of rings (size 3 to 8) (size 9 to 14) (size 15 to 20)
#    0.000    2.400    0.000    3.000    0.000    1.600 
#    0.000   19.000    0.000    0.000    0.000    0.000 
#    0.000    0.000    0.000    0.000    0.000    0.000 
#
# Total GULP energy -55989.968179 kJ/mol
# GULP energy per Si atom -5598.996818 kJ/mol
# Density = 2.253239 g / cm^3
# Si number density = 22.583787 Si / 1000 Ang^3
#
#
#
# Elastic Constant Matrix: (Units=GPa)
#
#
# Indices 1 2 3 4 5 6 
#
# 1 77.7899 27.6865 36.4968 8.8965 -1.4995 1.9462
# 2 27.6865 79.5409 22.9320 23.0046 -5.2014 2.8211
# 3 36.4968 22.9320 135.1744 39.8553 -9.4173 2.7115
# 4 8.8965 23.0046 39.8553 29.1947 -2.3145 -2.2429
# 5 -1.4995 -5.2014 -9.4173 -2.3145 32.8707 1.5599
# 6 1.9462 2.8211 2.7115 -2.2429 1.5599 19.2609
#
#
#
# Elastic Compliance Matrix: (Units=1/GPa)
#
#
# Indices 1 2 3 4 5 6 
#
# 1 0.017091 -0.006764 -0.006065 0.008376 -0.001496 0.001214
# 2 -0.006764 0.019790 0.004741 -0.020186 0.003020 -0.005478
# 3 -0.006065 0.004741 0.015351 -0.022965 0.003501 -0.005200
# 4 0.008376 -0.020186 -0.022965 0.079754 -0.004487 0.014994
# 5 -0.001496 0.003020 0.003501 -0.004487 0.031703 -0.003874
# 6 0.001214 -0.005478 -0.005200 0.014994 -0.003874 0.055390
#
#
# Mechanical properties :
#
#
# Convention : Reuss Voigt Hill
#
# Bulk Modulus (GPa) = 27.73573 51.85953 39.79763
# Shear Modulus (GPa) = 20.22062 29.95793 25.08928
#
# Velocity S-wave (km/s) = 2.99550 3.64610 3.33670
# Velocity P-wave (km/s) = 4.92666 6.38266 5.70133
#
# Compressibility (1/GPa) = 0.03605458
#
# Stress axis : x y z
#
# Youngs Moduli (GPa) = 58.51039 50.53176 65.14405
#
# Poissons Ratio (x) = 0.34179 0.39512
# Poissons Ratio (y) = 0.39575 -0.30884
# Poissons Ratio (z) = 0.35489 -0.23957
#
# Static dielectric constant tensor:
#      x y z
#    x 1.878880 -0.000360 -0.007700 
#    y -0.000360 1.769140 0.023150 
#    z -0.007700 0.023150 1.827500 
# 
# From -- ./inp_files/32419.got.cif
#   From: 2010.05.17/outbox.cif.g08.bks.cpg/sg2_17_cif.got.tgz:32419.got - 2010.06.03 11:33:40.
