data_PCOD9098855
_publ_section_title
;
Structure prediction by ZEFSAII (Michael W. Deem and Ramdas Pophale) SiO2 
 PCOD9098855
Probable space group: P -1
;
_chemical_formula_sum "Si O2"
_cell_formula_units_Z 14
_cell_length_a 9.247865
_cell_length_b 18.616630
_cell_length_c 16.744393
_cell_angle_alpha 21.879984
_cell_angle_beta 63.273754
_cell_angle_gamma 49.862409
_cell_volume 700.980921
_symmetry_space_group_name_H-M "P -1"
_symmetry_group_IT_number 2
_symmetry_cell_setting 'triclinic'
loop_
_space_group_symop_operation_xyz
x,y,z
-x,-y,-z
loop_
_atom_site_type_symbol
_atom_site_label
_atom_site_fract_x
_atom_site_fract_y
_atom_site_fract_z
Si Si1 0.653956 0.705677 0.850428
Si Si2 0.166738 0.499517 0.735152
Si Si3 0.529146 0.702181 0.276244
Si Si4 0.430283 0.983603 0.292373
Si Si5 0.258760 0.232843 0.706701
Si Si6 0.803151 0.915737 0.496209
Si Si7 0.229468 0.731584 0.617291
O O1 0.824305 0.709927 0.759522
O O2 0.566032 0.903100 0.743169
O O3 0.451485 0.831731 0.710616
O O4 0.729991 0.443211 0.138703
O O5 0.257090 0.435248 0.690851
O O6 0.289175 0.559611 0.699564
O O7 0.913988 0.759133 0.546729
O O8 0.235137 0.240419 0.023048
O O9 0.500000 0.500000 0.500000
O O10 0.587316 0.746635 0.301104
O O11 0.326571 0.975278 0.999008
O O12 0.647390 0.834149 0.337616
O O13 0.361749 0.820313 0.494924
O O14 0.000000 0.500000 0.500000
O O15 0.961578 0.957911 0.443268
#
# Coordination Sequence:
#
# PCOD9098855 Si02
#       7
#     2   2   2   2   2   2   2
#     4  10  20  38  54  80 112 140 180 225 267 323
#     4   8  19  36  56  77 110 144 175 221 274 316
#     4  10  20  39  60  80 111 149 186 226 276 334
#     4  10  20  37  58  79 111 143 180 225 270 324
#     4  10  23  38  55  86 115 142 185 234 277 325
#     4   9  20  38  55  78 112 142 178 224 269 322
#     4   9  19  36  55  80 108 140 182 220 263 323
#
# _framework density 19.972013
#
# number of rings (size 3 to 8) (size 9 to 14) (size 15 to 20)
#    0.857    1.714    0.000    1.286    2.000    1.143 
#    5.143    1.429    0.000    0.000    0.000    0.000 
#    0.000    0.000    0.000    0.000    0.000    0.000 
#
# Total GULP energy -77958.599842 kJ/mol
# GULP energy per Si atom -5568.471417 kJ/mol
# Density = 1.992656 g / cm^3
# Si number density = 19.972013 Si / 1000 Ang^3
#
#
#
# Elastic Constant Matrix: (Units=GPa)
#
#
# Indices 1 2 3 4 5 6 
#
# 1 41.5145 9.0072 38.7671 1.6128 -9.1332 -5.9671
# 2 9.0072 80.7908 10.1064 -0.8000 0.9460 -0.1512
# 3 38.7671 10.1064 71.5804 5.1048 -19.2867 -11.1414
# 4 1.6128 -0.8000 5.1048 24.4472 -2.4303 4.6263
# 5 -9.1332 0.9460 -19.2867 -2.4303 25.7856 -4.3644
# 6 -5.9671 -0.1512 -11.1414 4.6263 -4.3644 27.4949
#
#
#
# Elastic Compliance Matrix: (Units=1/GPa)
#
#
# Indices 1 2 3 4 5 6 
#
# 1 0.049422 -0.001981 -0.027743 0.002423 -0.003188 -0.001441
# 2 -0.001981 0.012863 -0.001809 0.000978 -0.002720 -0.001688
# 3 -0.027743 -0.001809 0.037036 -0.006512 0.019558 0.013177
# 4 0.002423 0.000978 -0.006512 0.043822 -0.001564 -0.009729
# 5 -0.003188 -0.002720 0.019558 -0.001564 0.054976 0.016208
# 6 -0.001441 -0.001688 0.013177 -0.009729 0.016208 0.045598
#
#
# Mechanical properties :
#
#
# Convention : Reuss Voigt Hill
#
# Bulk Modulus (GPa) = 27.58159 34.40526 30.99343
# Shear Modulus (GPa) = 15.68052 24.61255 20.14654
#
# Velocity S-wave (km/s) = 2.80505 3.51430 3.17951
# Velocity P-wave (km/s) = 4.93266 5.80785 5.38806
#
# Compressibility (1/GPa) = 0.03625607
#
# Stress axis : x y z
#
# Youngs Moduli (GPa) = 20.23398 77.74156 27.00087
#
# Poissons Ratio (x) = 0.15400 0.74908
# Poissons Ratio (y) = 0.04008 0.04884
# Poissons Ratio (z) = 0.56135 0.14062
#
# Static dielectric constant tensor:
#      x y z
#    x 3.116890 0.057020 -0.181040 
#    y 0.057020 1.718930 -0.023870 
#    z -0.181040 -0.023870 1.743730 
# 
# From -- ./inp_files/550748.got.cif
#   From: 2010.05.17/outbox.cif.g08.bks.cpg/sg2_276_cif.got.tgz:550748.got - 2010.06.03 11:33:40.
