data_PCOD9098386
_publ_section_title
;
Structure prediction by ZEFSAII (Michael W. Deem and Ramdas Pophale) SiO2 
 PCOD9098386
Probable space group: P -1
;
_chemical_formula_sum "Si O2"
_cell_formula_units_Z 14
_cell_length_a 9.257422
_cell_length_b 15.513737
_cell_length_c 14.025022
_cell_angle_alpha 39.625208
_cell_angle_beta 36.432697
_cell_angle_gamma 30.455295
_cell_volume 586.312497
_symmetry_space_group_name_H-M "P -1"
_symmetry_group_IT_number 2
_symmetry_cell_setting 'triclinic'
loop_
_space_group_symop_operation_xyz
x,y,z
-x,-y,-z
loop_
_atom_site_type_symbol
_atom_site_label
_atom_site_fract_x
_atom_site_fract_y
_atom_site_fract_z
Si Si1 0.407625 0.600448 0.567462
Si Si2 0.104698 0.098702 0.518835
Si Si3 0.370568 0.376665 0.921360
Si Si4 0.500978 0.840672 0.127397
Si Si5 0.920552 0.630043 0.249176
Si Si6 0.169566 0.831502 0.986561
Si Si7 0.427906 0.224163 0.353757
O O1 0.500000 0.500000 0.500000
O O2 0.471737 0.470081 0.726282
O O3 0.626561 0.650924 0.428969
O O4 0.039487 0.776274 0.604027
O O5 0.204799 0.184805 0.463445
O O6 0.800745 0.121218 0.695154
O O7 0.406109 0.892239 0.539805
O O8 0.504972 0.200934 0.942721
O O9 0.509093 0.327130 0.994608
O O10 0.000000 0.500000 0.000000
O O11 0.816508 0.673695 0.155569
O O12 0.500000 0.000000 0.000000
O O13 0.968145 0.767010 0.137252
O O14 0.225332 0.432674 0.282925
O O15 0.285225 0.853463 0.807013
O O16 0.000000 0.000000 0.000000
#
# Coordination Sequence:
#
# PCOD9098386 Si02
#       7
#     2   2   2   2   2   2   2
#     4  11  20  42  70  92 125 175 225 258 313 396
#     4  10  20  36  65  94 118 165 223 265 303 367
#     4  12  24  41  65  97 133 166 206 274 332 369
#     4  11  21  40  65  90 123 174 226 252 309 398
#     4  11  22  41  69  93 120 175 227 258 309 395
#     4  12  27  41  60  97 143 163 201 276 346 371
#     4  11  21  39  65  94 127 167 222 264 312 388
#
# _framework density 23.878052
#
# number of rings (size 3 to 8) (size 9 to 14) (size 15 to 20)
#    0.000    0.857    4.286    4.714    0.000    1.714 
#    0.000    1.429    0.000    7.714    0.000    0.000 
#    0.000    0.000    0.000    0.000    0.000    0.000 
#
# Total GULP energy -78286.230658 kJ/mol
# GULP energy per Si atom -5591.873618 kJ/mol
# Density = 2.382370 g / cm^3
# Si number density = 23.878052 Si / 1000 Ang^3
#
#
#
# Elastic Constant Matrix: (Units=GPa)
#
#
# Indices 1 2 3 4 5 6 
#
# 1 80.8505 37.3053 28.9814 -15.1025 -19.4184 -11.0912
# 2 37.3053 102.9336 26.4082 -29.9180 -7.3258 -26.9381
# 3 28.9814 26.4082 103.7835 -22.7803 -39.3047 17.0449
# 4 -15.1025 -29.9180 -22.7803 34.3997 -6.4418 1.3271
# 5 -19.4184 -7.3258 -39.3047 -6.4418 52.6955 -13.4943
# 6 -11.0912 -26.9381 17.0449 1.3271 -13.4943 34.2633
#
#
#
# Elastic Compliance Matrix: (Units=1/GPa)
#
#
# Indices 1 2 3 4 5 6 
#
# 1 0.017993 -0.001210 -0.001271 0.007285 0.008611 0.008615
# 2 -0.001210 0.021783 -0.000777 0.018896 0.009464 0.020116
# 3 -0.001271 -0.000777 0.019979 0.014968 0.014681 -0.005759
# 4 0.007285 0.018896 0.014968 0.063325 0.029017 0.018743
# 5 0.008611 0.009464 0.014681 0.029017 0.042734 0.018632
# 6 0.008615 0.020116 -0.005759 0.018743 0.018632 0.057267
#
#
# Mechanical properties :
#
#
# Convention : Reuss Voigt Hill
#
# Bulk Modulus (GPa) = 18.78323 52.55083 35.66703
# Shear Modulus (GPa) = 20.21464 37.26322 28.73893
#
# Velocity S-wave (km/s) = 2.91276 3.95468 3.47302
# Velocity P-wave (km/s) = 4.38128 6.55046 5.57244
#
# Compressibility (1/GPa) = 0.05323898
#
# Stress axis : x y z
#
# Youngs Moduli (GPa) = 55.57611 45.90740 50.05142
#
# Poissons Ratio (x) = 0.05556 0.06363
# Poissons Ratio (y) = 0.06726 0.03888
# Poissons Ratio (z) = 0.07066 0.03566
#
# Static dielectric constant tensor:
#      x y z
#    x 1.904700 -0.036900 0.046390 
#    y -0.036900 1.992180 -0.017400 
#    z 0.046390 -0.017400 1.899920 
# 
# From -- ./inp_files/505202.got.cif
#   From: 2010.05.17/outbox.cif.g08.bks.cpg/sg2_253_cif.got.tgz:505202.got - 2010.06.03 11:33:40.
