data_PCOD9098056
_publ_section_title
;
Structure prediction by ZEFSAII (Michael W. Deem and Ramdas Pophale) SiO2 
 PCOD9098056
Probable space group: P -1
;
_chemical_formula_sum "Si O2"
_cell_formula_units_Z 16
_cell_length_a 10.653159
_cell_length_b 14.529138
_cell_length_c 14.167402
_cell_angle_alpha 66.413317
_cell_angle_beta 135.031423
_cell_angle_gamma 147.887958
_cell_volume 698.563956
_symmetry_space_group_name_H-M "P -1"
_symmetry_group_IT_number 2
_symmetry_cell_setting 'triclinic'
loop_
_space_group_symop_operation_xyz
x,y,z
-x,-y,-z
loop_
_atom_site_type_symbol
_atom_site_label
_atom_site_fract_x
_atom_site_fract_y
_atom_site_fract_z
Si Si1 0.319154 0.523265 0.209315
Si Si2 0.603294 0.292121 0.493508
Si Si3 0.695497 0.486665 0.288209
Si Si4 0.777494 0.799695 0.009613
Si Si5 0.148237 0.894362 0.845622
Si Si6 0.858298 0.109704 0.650150
Si Si7 0.323689 0.302504 0.491702
Si Si8 0.377854 0.702374 0.994941
O O1 0.658063 0.708110 0.383237
O O2 0.362255 0.606387 0.102927
O O3 0.174953 0.337899 0.197229
O O4 0.981610 0.409748 0.133214
O O5 0.595013 0.365183 0.371092
O O6 0.557675 0.336560 0.544011
O O7 0.966355 0.405647 0.626289
O O8 0.264890 0.050672 0.402871
O O9 0.842652 0.667817 0.322629
O O10 0.384357 0.344057 0.103110
O O11 0.446268 0.685553 0.938169
O O12 0.015663 0.858271 0.190084
O O13 0.000000 0.000000 0.000000
O O14 0.046388 0.872713 0.692546
O O15 0.272639 0.054776 0.900743
O O16 0.500000 0.000000 0.000000
O O17 0.500000 0.000000 0.500000
O O18 0.500000 0.500000 0.500000
#
# Coordination Sequence:
#
# PCOD9098056 Si02
#       8
#     2   2   2   2   2   2   2   2
#     4   9  20  40  60  88 118 158 209 249 308 369
#     4  10  20  40  63  91 128 166 206 271 321 374
#     4  10  22  39  64  89 126 168 213 261 320 379
#     4  12  23  40  65  95 127 168 213 260 322 388
#     4   9  19  36  59  86 123 158 199 252 306 368
#     4  10  22  41  61  89 129 167 216 262 315 380
#     4  10  20  36  63  91 124 159 207 255 315 379
#     4  10  21  39  63  85 122 161 199 259 309 363
#
# _framework density 22.904129999999999
#
# number of rings (size 3 to 8) (size 9 to 14) (size 15 to 20)
#    0.000    2.000    1.250    1.875    0.000    2.500 
#    2.250    2.500    8.250    0.000    0.000    0.000 
#    0.000    0.000    0.000    0.000    0.000    0.000 
#
# Total GULP energy -89386.742510 kJ/mol
# GULP energy per Si atom -5586.671407 kJ/mol
# Density = 2.285200 g / cm^3
# Si number density = 22.904130 Si / 1000 Ang^3
#
#
#
# Elastic Constant Matrix: (Units=GPa)
#
#
# Indices 1 2 3 4 5 6 
#
# 1 81.2874 39.0737 17.2993 6.4387 -8.1453 -8.1090
# 2 39.0737 142.6443 38.3192 12.2667 -18.9310 -2.6323
# 3 17.2993 38.3192 107.9104 5.9297 -12.1511 -1.9299
# 4 6.4387 12.2667 5.9297 29.1232 -11.1135 -3.3347
# 5 -8.1453 -18.9310 -12.1511 -11.1135 52.2329 1.1522
# 6 -8.1090 -2.6323 -1.9299 -3.3347 1.1522 42.5629
#
#
#
# Elastic Compliance Matrix: (Units=1/GPa)
#
#
# Indices 1 2 3 4 5 6 
#
# 1 0.014577 -0.003543 -0.000921 -0.001078 0.000492 0.002419
# 2 -0.003543 0.008998 -0.002331 -0.001905 0.001771 -0.000421
# 3 -0.000921 -0.002331 0.010418 -0.000413 0.001346 0.000084
# 4 -0.001078 -0.001905 -0.000413 0.038485 0.007179 0.002479
# 5 0.000492 0.001771 0.001346 0.007179 0.021699 0.000239
# 6 0.002419 -0.000421 0.000084 0.002479 0.000239 0.024121
#
#
# Mechanical properties :
#
#
# Convention : Reuss Voigt Hill
#
# Bulk Modulus (GPa) = 49.01026 57.91407 53.46217
# Shear Modulus (GPa) = 36.05214 40.59380 38.32297
#
# Velocity S-wave (km/s) = 3.97173 4.21448 4.09490
# Velocity P-wave (km/s) = 6.51746 7.00163 6.76388
#
# Compressibility (1/GPa) = 0.02040389
#
# Stress axis : x y z
#
# Youngs Moduli (GPa) = 68.60111 111.13507 95.98848
#
# Poissons Ratio (x) = 0.39375 0.08839
# Poissons Ratio (y) = 0.24305 0.22373
# Poissons Ratio (z) = 0.06317 0.25903
#
# Static dielectric constant tensor:
#      x y z
#    x 1.897580 0.007740 0.041760 
#    y 0.007740 1.830860 0.011850 
#    z 0.041760 0.011850 1.862220 
# 
# From -- ./inp_files/521593.got.cif
#   From: 2010.05.17/outbox.cif.g08.bks.cpg/sg2_261_cif.got.tgz:521593.got - 2010.06.03 11:33:40.
