data_PCOD9098659
_publ_section_title
;
Structure prediction by ZEFSAII (Michael W. Deem and Ramdas Pophale) SiO2 
 PCOD9098659
Probable space group: P -1
;
_chemical_formula_sum "Si O2"
_cell_formula_units_Z 16
_cell_length_a 16.046761
_cell_length_b 11.221328
_cell_length_c 5.320870
_cell_angle_alpha 127.180575
_cell_angle_beta 64.737427
_cell_angle_gamma 106.900626
_cell_volume 689.635486
_symmetry_space_group_name_H-M "P -1"
_symmetry_group_IT_number 2
_symmetry_cell_setting 'triclinic'
loop_
_space_group_symop_operation_xyz
x,y,z
-x,-y,-z
loop_
_atom_site_type_symbol
_atom_site_label
_atom_site_fract_x
_atom_site_fract_y
_atom_site_fract_z
Si Si1 0.947084 0.149123 0.676957
Si Si2 0.823264 0.934361 0.260581
Si Si3 0.229164 0.764508 0.754631
Si Si4 0.137930 0.241730 0.508436
Si Si5 0.350811 0.005401 0.172999
Si Si6 0.371780 0.587570 0.090475
Si Si7 0.301713 0.487096 0.552177
Si Si8 0.503638 0.141915 0.865820
O O1 0.029039 0.269919 0.664425
O O2 0.880810 0.086724 0.458137
O O3 0.878193 0.207597 0.050885
O O4 0.000000 0.000000 0.500000
O O5 0.846790 0.818545 0.305745
O O6 0.714841 0.950454 0.460343
O O7 0.848129 0.877433 0.884070
O O8 0.279698 0.687299 0.360316
O O9 0.254078 0.646406 0.787405
O O10 0.285554 0.916679 0.946515
O O11 0.216881 0.367820 0.518163
O O12 0.424390 0.895695 0.053494
O O13 0.405314 0.138819 0.127140
O O14 0.363264 0.485318 0.218577
O O15 0.456820 0.708385 0.126459
O O16 0.362703 0.493547 0.730150
O O17 0.500000 0.000000 0.500000
#
# Coordination Sequence:
#
# PCOD9098659 Si02
#       8
#     2   2   2   2   2   2   2   2
#     4   9  20  39  60  89 119 151 193 242 292 342
#     4  10  23  40  61  86 122 150 190 242 297 343
#     4   9  19  37  56  88 118 153 185 240 293 338
#     4  11  22  41  61  84 113 163 200 235 278 345
#     4  10  21  35  57  95 116 149 185 242 302 351
#     4  10  20  37  55  87 116 152 185 242 288 339
#     4  10  21  38  59  82 115 161 198 231 283 340
#     4  11  19  32  60  90 119 144 191 239 299 348
#
# _framework density 23.200662999999999
#
# number of rings (size 3 to 8) (size 9 to 14) (size 15 to 20)
#    0.750    1.250    2.500    1.125    3.500    1.500 
#    4.500    0.625    0.000    4.500    0.000    0.000 
#    0.000    0.000    0.000    0.000    0.000    0.000 
#
# Total GULP energy -89314.587967 kJ/mol
# GULP energy per Si atom -5582.161748 kJ/mol
# Density = 2.314786 g / cm^3
# Si number density = 23.200663 Si / 1000 Ang^3
#
#
#
# Elastic Constant Matrix: (Units=GPa)
#
#
# Indices 1 2 3 4 5 6 
#
# 1 58.9732 44.2688 38.2515 -14.3253 -0.6075 18.6916
# 2 44.2688 133.2504 28.0037 -26.1814 17.1776 38.9179
# 3 38.2515 28.0037 58.7847 -18.1152 12.5457 -6.1332
# 4 -14.3253 -26.1814 -18.1152 25.2210 -3.0928 -1.4662
# 5 -0.6075 17.1776 12.5457 -3.0928 39.8854 -5.2795
# 6 18.6916 38.9179 -6.1332 -1.4662 -5.2795 37.9373
#
#
#
# Elastic Compliance Matrix: (Units=1/GPa)
#
#
# Indices 1 2 3 4 5 6 
#
# 1 0.052575 -0.002805 -0.038240 -0.000872 0.010288 -0.027810
# 2 -0.002805 0.017935 -0.002873 0.012893 -0.008263 -0.018133
# 3 -0.038240 -0.002873 0.052879 0.013629 -0.011039 0.029328
# 4 -0.000872 0.012893 0.013629 0.061022 -0.006328 -0.009116
# 5 0.010288 -0.008263 -0.011039 -0.006328 0.032551 0.005909
# 6 -0.027810 -0.018133 0.029328 -0.009116 0.005909 0.063874
#
#
# Mechanical properties :
#
#
# Convention : Reuss Voigt Hill
#
# Bulk Modulus (GPa) = 28.12868 52.45070 40.28969
# Shear Modulus (GPa) = 13.13981 29.97435 21.55708
#
# Velocity S-wave (km/s) = 2.38240 3.59828 3.05152
# Velocity P-wave (km/s) = 4.44052 6.31823 5.46069
#
# Compressibility (1/GPa) = 0.03555090
#
# Stress axis : x y z
#
# Youngs Moduli (GPa) = 19.02060 55.75668 18.91122
#
# Poissons Ratio (x) = 0.15641 0.72316
# Poissons Ratio (y) = 0.05336 0.05434
# Poissons Ratio (z) = 0.72735 0.16022
#
# Static dielectric constant tensor:
#      x y z
#    x 1.909850 -0.016090 -0.020020 
#    y -0.016090 1.908910 -0.015130 
#    z -0.020020 -0.015130 1.868220 
# 
# From -- ./inp_files/110622.got.cif
#   From: 2010.05.17/outbox.cif.g08.bks.cpg/sg2_56_cif.got.tgz:110622.got - 2010.06.03 11:33:40.
