data_PCOD9098239
_publ_section_title
;
Structure prediction by ZEFSAII (Michael W. Deem and Ramdas Pophale) SiO2 
 PCOD9098239
Probable space group: P -1
;
_chemical_formula_sum "Si O2"
_cell_formula_units_Z 16
_cell_length_a 14.681808
_cell_length_b 15.983290
_cell_length_c 15.388151
_cell_angle_alpha 34.306604
_cell_angle_beta 18.873794
_cell_angle_gamma 37.211629
_cell_volume 656.205991
_symmetry_space_group_name_H-M "P -1"
_symmetry_group_IT_number 2
_symmetry_cell_setting 'triclinic'
loop_
_space_group_symop_operation_xyz
x,y,z
-x,-y,-z
loop_
_atom_site_type_symbol
_atom_site_label
_atom_site_fract_x
_atom_site_fract_y
_atom_site_fract_z
Si Si1 0.197879 0.754268 0.867584
Si Si2 0.647062 0.590739 0.480679
Si Si3 0.247858 0.012525 0.000764
Si Si4 0.995312 0.818994 0.652425
Si Si5 0.253465 0.632285 0.102447
Si Si6 0.886338 0.400392 0.562413
Si Si7 0.206403 0.181573 0.349361
Si Si8 0.600283 0.724361 0.235605
O O1 0.445468 0.715148 0.607912
O O2 0.307787 0.735965 0.882595
O O3 0.971091 0.633839 0.154103
O O4 0.000024 0.905655 0.903874
O O5 0.654988 0.444321 0.659713
O O6 0.578506 0.592029 0.439221
O O7 0.516439 0.924808 0.790274
O O8 0.372680 0.134721 0.845236
O O9 0.076955 0.902538 0.306838
O O10 0.317635 0.754723 0.410071
O O11 0.810487 0.783083 0.767207
O O12 0.000000 0.000000 0.500000
O O13 0.866362 0.738147 0.921150
O O14 0.197479 0.691965 0.198833
O O15 0.971932 0.554694 0.393965
O O16 0.500000 0.500000 0.000000
O O17 0.154858 0.319790 0.341391
#
# Coordination Sequence:
#
# PCOD9098239 Si02
#       8
#     2   2   2   2   2   2   2   2
#     4  10  20  36  64  92 117 155 205 253 296 358
#     4  10  20  37  62  89 119 155 208 254 296 351
#     4  11  21  38  58  91 124 163 200 243 305 357
#     4  12  21  37  58  91 122 163 209 242 293 354
#     4  10  20  42  69  89 113 156 213 255 296 366
#     4  10  24  41  62  94 120 159 202 252 312 361
#     4  12  25  38  60  89 132 161 195 253 306 364
#     4  11  20  37  61  88 118 161 212 249 285 352
#
# _framework density 24.382587999999998
#
# number of rings (size 3 to 8) (size 9 to 14) (size 15 to 20)
#    0.000    1.250    3.750    4.125    1.750    0.000 
#    0.000    2.500    0.000    0.000    0.000    0.000 
#    0.000    0.000    0.000    0.000    0.000    0.000 
#
# Total GULP energy -89397.626341 kJ/mol
# GULP energy per Si atom -5587.351646 kJ/mol
# Density = 2.432709 g / cm^3
# Si number density = 24.382588 Si / 1000 Ang^3
#
#
#
# Elastic Constant Matrix: (Units=GPa)
#
#
# Indices 1 2 3 4 5 6 
#
# 1 106.5923 46.2517 23.9958 -4.0119 27.5491 -22.3698
# 2 46.2517 80.0984 21.5033 25.5359 5.8873 -12.7406
# 3 23.9958 21.5033 105.8615 21.8014 11.6643 0.3981
# 4 -4.0119 25.5359 21.8014 32.3402 0.0044 -2.7397
# 5 27.5491 5.8873 11.6643 0.0044 48.2598 -0.7445
# 6 -22.3698 -12.7406 0.3981 -2.7397 -0.7445 39.4220
#
#
#
# Elastic Compliance Matrix: (Units=1/GPa)
#
#
# Indices 1 2 3 4 5 6 
#
# 1 0.022162 -0.015455 -0.004767 0.018910 -0.009480 0.008764
# 2 -0.015455 0.028549 0.002616 -0.026335 0.004690 -0.001311
# 3 -0.004767 0.002616 0.012392 -0.011246 -0.000635 -0.002778
# 4 0.018910 -0.026335 -0.011246 0.062199 -0.004769 0.006566
# 5 -0.009480 0.004690 -0.000635 -0.004769 0.025658 -0.003704
# 6 0.008764 -0.001311 -0.002778 0.006566 -0.003704 0.030330
#
#
# Mechanical properties :
#
#
# Convention : Reuss Voigt Hill
#
# Bulk Modulus (GPa) = 35.85436 52.89487 44.37461
# Shear Modulus (GPa) = 22.14347 37.39114 29.76731
#
# Velocity S-wave (km/s) = 3.01685 3.92026 3.49785
# Velocity P-wave (km/s) = 5.18382 6.49862 5.87810
#
# Compressibility (1/GPa) = 0.02789061
#
# Stress axis : x y z
#
# Youngs Moduli (GPa) = 45.12208 35.02710 80.69804
#
# Poissons Ratio (x) = 0.54135 0.38468
# Poissons Ratio (y) = 0.69737 -0.21109
# Poissons Ratio (z) = 0.21509 -0.09163
#
# Static dielectric constant tensor:
#      x y z
#    x 2.002760 -0.015550 0.051180 
#    y -0.015550 1.998440 -0.081230 
#    z 0.051180 -0.081230 1.945510 
# 
# From -- ./inp_files/535062.got.cif
#   From: 2010.05.17/outbox.cif.g08.bks.cpg/sg2_268_cif.got.tgz:535062.got - 2010.06.03 11:33:40.
