data_PCOD9098851
_publ_section_title
;
Structure prediction by ZEFSAII (Michael W. Deem and Ramdas Pophale) SiO2 
 PCOD9098851
Probable space group: P -1
;
_chemical_formula_sum "Si O2"
_cell_formula_units_Z 16
_cell_length_a 8.109680
_cell_length_b 24.069500
_cell_length_c 5.126801
_cell_angle_alpha 100.895630
_cell_angle_beta 55.029921
_cell_angle_gamma 73.995293
_cell_volume 707.631969
_symmetry_space_group_name_H-M "P -1"
_symmetry_group_IT_number 2
_symmetry_cell_setting 'triclinic'
loop_
_space_group_symop_operation_xyz
x,y,z
-x,-y,-z
loop_
_atom_site_type_symbol
_atom_site_label
_atom_site_fract_x
_atom_site_fract_y
_atom_site_fract_z
Si Si1 0.016740 0.597405 0.592745
Si Si2 0.940300 0.177321 0.622080
Si Si3 0.337278 0.856530 0.496247
Si Si4 0.860623 0.074418 0.757385
Si Si5 0.372042 0.377307 0.391753
Si Si6 0.754204 0.484389 0.189675
Si Si7 0.544836 0.262320 0.463155
Si Si8 0.164501 0.698389 0.369266
O O1 0.095074 0.567431 0.776501
O O2 0.053776 0.658761 0.562844
O O3 0.762869 0.615384 0.746963
O O4 0.173312 0.542883 0.189655
O O5 0.663360 0.111034 0.748048
O O6 0.028421 0.107900 0.617788
O O7 0.008895 0.232545 0.545854
O O8 0.711055 0.218441 0.040175
O O9 0.126775 0.841332 0.611750
O O10 0.523194 0.785615 0.360227
O O11 0.262611 0.907906 0.837975
O O12 0.000000 0.000000 0.500000
O O13 0.259950 0.446863 0.685555
O O14 0.355366 0.324190 0.541512
O O15 0.641181 0.348371 0.054846
O O16 0.500000 0.500000 0.500000
O O17 0.688161 0.285972 0.537512
#
# Coordination Sequence:
#
# PCOD9098851 Si02
#       8
#     2   2   2   2   2   2   2   2
#     4  12  27  41  60  86 109 141 187 233 278 341
#     4   7  16  28  46  73 100 144 179 218 270 315
#     4   8  15  26  41  69 102 144 180 218 267 319
#     4   9  14  23  40  70 110 145 179 220 266 314
#     4  11  24  38  61  83 110 143 185 232 285 334
#     4  12  25  45  61  82 112 146 181 229 287 341
#     4   9  17  34  55  75 104 145 181 224 280 328
#     4  10  20  37  58  78 112 145 183 228 283 330
#
# _framework density 22.610623
#
# number of rings (size 3 to 8) (size 9 to 14) (size 15 to 20)
#    0.750    1.500    1.250    2.250    5.250    0.000 
#    0.000    0.000    0.000    0.000    0.000    0.000 
#    0.000   10.000    0.000   12.875    0.000    5.250 
#
# Total GULP energy -89089.647597 kJ/mol
# GULP energy per Si atom -5568.102975 kJ/mol
# Density = 2.255916 g / cm^3
# Si number density = 22.610623 Si / 1000 Ang^3
#
#
#
# Elastic Constant Matrix: (Units=GPa)
#
#
# Indices 1 2 3 4 5 6 
#
# 1 33.1647 9.8806 16.9413 -0.4214 7.7650 -5.5227
# 2 9.8806 125.5676 31.6774 26.4248 -1.9621 2.4639
# 3 16.9413 31.6774 83.1988 8.4604 26.8430 5.5295
# 4 -0.4214 26.4248 8.4604 36.4477 2.8160 10.0193
# 5 7.7650 -1.9621 26.8430 2.8160 26.0444 -5.6807
# 6 -5.5227 2.4639 5.5295 10.0193 -5.6807 27.1345
#
#
#
# Elastic Compliance Matrix: (Units=1/GPa)
#
#
# Indices 1 2 3 4 5 6 
#
# 1 0.035867 -0.001612 -0.006513 0.001138 -0.002518 0.007826
# 2 -0.001612 0.011988 -0.007278 -0.009515 0.011206 0.005926
# 3 -0.006513 -0.007278 0.025793 0.005256 -0.028788 -0.013889
# 4 0.001138 -0.009515 0.005256 0.039038 -0.014495 -0.017425
# 5 -0.002518 0.011206 -0.028788 -0.014495 0.076852 0.025778
# 6 0.007826 0.005926 -0.013889 -0.017425 0.025778 0.052569
#
#
# Mechanical properties :
#
#
# Convention : Reuss Voigt Hill
#
# Bulk Modulus (GPa) = 23.34109 39.88109 31.61109
# Shear Modulus (GPa) = 17.40983 30.15411 23.78197
#
# Velocity S-wave (km/s) = 2.77787 3.65585 3.24667
# Velocity P-wave (km/s) = 4.54249 5.95792 5.29769
#
# Compressibility (1/GPa) = 0.04284291
#
# Stress axis : x y z
#
# Youngs Moduli (GPa) = 27.88076 83.41705 38.76960
#
# Poissons Ratio (x) = 0.13443 0.25252
# Poissons Ratio (y) = 0.04493 0.28216
# Poissons Ratio (z) = 0.18159 0.60710
#
# Static dielectric constant tensor:
#      x y z
#    x 1.906960 -0.000640 -0.017760 
#    y -0.000640 1.943740 -0.021050 
#    z -0.017760 -0.021050 1.880310 
# 
# From -- ./inp_files/54525.got.cif
#   From: 2010.05.17/outbox.cif.g08.bks.cpg/sg2_28_cif.got.tgz:54525.got - 2010.06.03 11:33:40.
