data_PCOD9098377
_publ_section_title
;
Structure prediction by ZEFSAII (Michael W. Deem and Ramdas Pophale) SiO2 
 PCOD9098377
Probable space group: P -1
;
_chemical_formula_sum "Si O2"
_cell_formula_units_Z 16
_cell_length_a 24.768585
_cell_length_b 8.024537
_cell_length_c 5.693943
_cell_angle_alpha 66.226272
_cell_angle_beta 120.364375
_cell_angle_gamma 135.625958
_cell_volume 681.243053
_symmetry_space_group_name_H-M "P -1"
_symmetry_group_IT_number 2
_symmetry_cell_setting 'triclinic'
loop_
_space_group_symop_operation_xyz
x,y,z
-x,-y,-z
loop_
_atom_site_type_symbol
_atom_site_label
_atom_site_fract_x
_atom_site_fract_y
_atom_site_fract_z
Si Si1 0.609103 0.360337 0.494377
Si Si2 0.256323 0.440692 0.694520
Si Si3 0.550406 0.611300 0.298787
Si Si4 0.894004 0.821009 0.818106
Si Si5 0.151089 0.576864 0.361941
Si Si6 0.838048 0.988296 0.979957
Si Si7 0.990747 0.284968 0.487920
Si Si8 0.554302 0.997346 0.931799
O O1 0.660095 0.401958 0.355424
O O2 0.619820 0.588912 0.458568
O O3 0.512426 0.178330 0.316552
O O4 0.619829 0.244947 0.801506
O O5 0.186523 0.256152 0.455616
O O6 0.224146 0.582035 0.609395
O O7 0.244195 0.257505 0.958392
O O8 0.500000 0.500000 0.500000
O O9 0.500000 0.500000 0.000000
O O10 0.586118 0.880068 0.198779
O O11 0.879884 0.580010 0.862849
O O12 0.971518 0.070837 0.727527
O O13 0.878329 0.893750 0.983463
O O14 0.072122 0.403745 0.450584
O O15 0.173616 0.832450 0.256704
O O16 0.910211 0.159499 0.226113
O O17 0.000000 0.500000 0.500000
O O18 0.500000 0.000000 0.000000
#
# Coordination Sequence:
#
# PCOD9098377 Si02
#       8
#     2   2   2   2   2   2   2   2
#     4  10  21  40  62  89 131 164 203 267 316 388
#     4   9  24  42  56  89 126 164 207 250 318 390
#     4  10  20  37  62  94 126 163 206 265 321 371
#     4   9  22  40  59  88 123 158 211 256 315 374
#     4  10  22  41  60  89 124 159 209 261 316 378
#     4  11  22  41  61  87 124 165 210 262 319 373
#     4  11  21  38  64  90 119 159 213 271 313 370
#     4  10  20  36  65  93 123 157 215 259 312 377
#
# _framework density 23.48648
#
# number of rings (size 3 to 8) (size 9 to 14) (size 15 to 20)
#    0.750    1.250    2.500    0.750    0.000    3.500 
#    0.000    1.250    0.000    0.000    0.000    0.000 
#    0.000    0.000    0.000    0.000    0.000    0.000 
#
# Total GULP energy -89117.979441 kJ/mol
# GULP energy per Si atom -5569.873715 kJ/mol
# Density = 2.343302 g / cm^3
# Si number density = 23.486480 Si / 1000 Ang^3
#
#
#
# Elastic Constant Matrix: (Units=GPa)
#
#
# Indices 1 2 3 4 5 6 
#
# 1 105.5971 52.1839 38.2396 -32.9993 9.9524 -19.4743
# 2 52.1839 96.7957 43.8821 -31.7653 0.8409 -11.2973
# 3 38.2396 43.8821 93.7273 -41.7479 4.2538 -9.5437
# 4 -32.9993 -31.7653 -41.7479 62.4489 -13.2488 0.5705
# 5 9.9524 0.8409 4.2538 -13.2488 33.3046 -5.1377
# 6 -19.4743 -11.2973 -9.5437 0.5705 -5.1377 41.6398
#
#
#
# Elastic Compliance Matrix: (Units=1/GPa)
#
#
# Indices 1 2 3 4 5 6 
#
# 1 0.014985 -0.005723 -0.001167 0.003773 -0.001928 0.004899
# 2 -0.005723 0.016406 -0.003828 0.003463 0.003357 0.001264
# 3 -0.001167 -0.003828 0.017321 0.009503 0.002407 0.002552
# 4 0.003773 0.003463 0.009503 0.028113 0.009632 0.005686
# 5 -0.001928 0.003357 0.002407 0.009632 0.034769 0.004719
# 6 0.004899 0.001264 0.002552 0.005686 0.004719 0.027739
#
#
# Mechanical properties :
#
#
# Convention : Reuss Voigt Hill
#
# Bulk Modulus (GPa) = 36.66077 62.74791 49.70434
# Shear Modulus (GPa) = 29.43592 38.26631 33.85112
#
# Velocity S-wave (km/s) = 3.54406 4.04083 3.80057
# Velocity P-wave (km/s) = 5.69125 6.96747 6.36145
#
# Compressibility (1/GPa) = 0.02727711
#
# Stress axis : x y z
#
# Youngs Moduli (GPa) = 66.73363 60.95216 57.73372
#
# Poissons Ratio (x) = 0.34880 0.06740
# Poissons Ratio (y) = 0.38189 0.22098
# Poissons Ratio (z) = 0.07791 0.23329
#
# Static dielectric constant tensor:
#      x y z
#    x 1.894860 -0.026380 0.022070 
#    y -0.026380 1.904900 0.001920 
#    z 0.022070 0.001920 1.999890 
# 
# From -- ./inp_files/122166.got.cif
#   From: 2010.05.17/outbox.cif.g08.bks.cpg/sg2_62_cif.got.tgz:122166.got - 2010.06.03 11:33:40.
