data_PCOD9098234
_publ_section_title
;
Structure prediction by ZEFSAII (Michael W. Deem and Ramdas Pophale) SiO2 
 PCOD9098234
Probable space group: P -1
;
_chemical_formula_sum "Si O2"
_cell_formula_units_Z 16
_cell_length_a 10.395566
_cell_length_b 20.301747
_cell_length_c 20.760477
_cell_angle_alpha 21.435521
_cell_angle_beta 155.550092
_cell_angle_gamma 145.396948
_cell_volume 654.169507
_symmetry_space_group_name_H-M "P -1"
_symmetry_group_IT_number 2
_symmetry_cell_setting 'triclinic'
loop_
_space_group_symop_operation_xyz
x,y,z
-x,-y,-z
loop_
_atom_site_type_symbol
_atom_site_label
_atom_site_fract_x
_atom_site_fract_y
_atom_site_fract_z
Si Si1 0.627288 0.473724 0.859742
Si Si2 0.094228 0.612705 0.804394
Si Si3 0.545003 0.203921 0.817595
Si Si4 0.575593 0.540680 0.351162
Si Si5 0.735759 0.163451 0.802077
Si Si6 0.236859 0.972250 0.500066
Si Si7 0.632678 0.111163 0.659696
Si Si8 0.801820 0.750185 0.879127
O O1 0.472975 0.375765 0.819171
O O2 0.416384 0.675695 0.577849
O O3 0.668286 0.382489 0.031252
O O4 0.000000 0.500000 0.000000
O O5 0.041510 0.813546 0.569113
O O6 0.758275 0.541814 0.725289
O O7 0.264763 0.448277 0.987922
O O8 0.380226 0.331086 0.684774
O O9 0.515909 0.213686 0.718469
O O10 0.891796 0.255565 0.933764
O O11 0.500000 0.000000 0.000000
O O12 0.827591 0.357212 0.643136
O O13 0.598358 0.094828 0.735630
O O14 0.032286 0.009469 0.095374
O O15 0.523296 0.869360 0.681531
O O16 0.360501 0.038504 0.562645
O O17 0.111876 0.147068 0.240395
#
# Coordination Sequence:
#
# PCOD9098234 Si02
#       8
#     2   2   2   2   2   2   2   2
#     4   9  18  38  62  90 129 162 196 269 323 365
#     4  10  20  36  64  91 123 164 208 252 324 376
#     4  11  23  39  63  89 124 172 211 260 313 377
#     4   9  21  39  60  89 130 162 207 267 308 374
#     4  10  21  40  61  88 125 170 209 252 313 378
#     4  11  21  37  63  93 120 167 203 262 321 373
#     4  10  20  39  65  89 126 165 206 260 319 372
#     4  10  22  40  56  90 134 154 208 266 312 369
#
# _framework density 24.458490999999999
#
# number of rings (size 3 to 8) (size 9 to 14) (size 15 to 20)
#    0.000    2.000    2.500    0.750    1.750    1.000 
#    0.000    8.125    0.000    4.500    0.000    0.000 
#    0.000    0.000    0.000    0.000    0.000    0.000 
#
# Total GULP energy -89180.743833 kJ/mol
# GULP energy per Si atom -5573.796490 kJ/mol
# Density = 2.440282 g / cm^3
# Si number density = 24.458491 Si / 1000 Ang^3
#
#
#
# Elastic Constant Matrix: (Units=GPa)
#
#
# Indices 1 2 3 4 5 6 
#
# 1 61.6670 58.3189 25.4429 3.5504 -10.7018 -33.4795
# 2 58.3189 94.3758 30.8081 4.1230 -23.6502 -46.1743
# 3 25.4429 30.8081 108.5042 1.1170 -6.4914 -24.2568
# 4 3.5504 4.1230 1.1170 46.0220 -7.6322 -2.6125
# 5 -10.7018 -23.6502 -6.4914 -7.6322 40.3526 0.8179
# 6 -33.4795 -46.1743 -24.2568 -2.6125 0.8179 40.4724
#
#
#
# Elastic Compliance Matrix: (Units=1/GPa)
#
#
# Indices 1 2 3 4 5 6 
#
# 1 0.041620 -0.020978 -0.001811 -0.001077 -0.001942 0.009379
# 2 -0.020978 0.045441 0.001047 0.003001 0.021097 0.034883
# 3 -0.001811 0.001047 0.010830 0.000438 0.001833 0.006178
# 4 -0.001077 0.003001 0.000438 0.022722 0.005757 0.004146
# 5 -0.001942 0.021097 0.001833 0.005757 0.037545 0.023174
# 6 0.009379 0.034883 0.006178 0.004146 0.023174 0.075767
#
#
# Mechanical properties :
#
#
# Convention : Reuss Voigt Hill
#
# Bulk Modulus (GPa) = 18.38084 54.85411 36.61747
# Shear Modulus (GPa) = 16.91790 35.36786 26.14288
#
# Velocity S-wave (km/s) = 2.63287 3.80680 3.27290
# Velocity P-wave (km/s) = 4.09562 6.46517 5.41168
#
# Compressibility (1/GPa) = 0.05440448
#
# Stress axis : x y z
#
# Youngs Moduli (GPa) = 24.02717 22.00679 92.33591
#
# Poissons Ratio (x) = 0.46166 0.16724
# Poissons Ratio (y) = 0.50405 -0.09665
# Poissons Ratio (z) = 0.04352 -0.02303
#
# Static dielectric constant tensor:
#      x y z
#    x 2.139260 -0.014670 -0.052360 
#    y -0.014670 1.910910 -0.009050 
#    z -0.052360 -0.009050 2.033020 
# 
# From -- ./inp_files/596226.got.cif
#   From: 2010.05.17/outbox.cif.g08.bks.cpg/sg2_299_cif.got.tgz:596226.got - 2010.06.03 11:33:40.
