data_PCOD9098843
_publ_section_title
;
Structure prediction by ZEFSAII (Michael W. Deem and Ramdas Pophale) SiO2 
 PCOD9098843
Probable space group: P -1
;
_chemical_formula_sum "Si O2"
_cell_formula_units_Z 14
_cell_length_a 5.442172
_cell_length_b 12.127360
_cell_length_c 12.653280
_cell_angle_alpha 133.222233
_cell_angle_beta 89.564265
_cell_angle_gamma 100.665523
_cell_volume 589.696701
_symmetry_space_group_name_H-M "P -1"
_symmetry_group_IT_number 2
_symmetry_cell_setting 'triclinic'
loop_
_space_group_symop_operation_xyz
x,y,z
-x,-y,-z
loop_
_atom_site_type_symbol
_atom_site_label
_atom_site_fract_x
_atom_site_fract_y
_atom_site_fract_z
Si Si1 0.621450 0.386102 0.129252
Si Si2 0.989191 0.635504 0.173522
Si Si3 0.687250 0.472791 0.634766
Si Si4 0.537050 0.793586 0.209493
Si Si5 0.230336 0.309665 0.397428
Si Si6 0.207459 0.858417 0.619038
Si Si7 0.598911 0.160105 0.164754
O O1 0.856697 0.533648 0.205941
O O2 0.373752 0.444266 0.204832
O O3 0.696999 0.281043 0.150678
O O4 0.545884 0.283707 0.956203
O O5 0.776589 0.727605 0.201947
O O6 0.277401 0.741255 0.244812
O O7 0.000000 0.500000 0.000000
O O8 0.414737 0.437725 0.553341
O O9 0.866628 0.585158 0.623006
O O10 0.733460 0.300928 0.526668
O O11 0.638226 0.980509 0.322731
O O12 0.373947 0.214426 0.259354
O O13 0.094900 0.185902 0.406761
O O14 0.234573 0.860648 0.748925
O O15 0.500000 0.000000 0.000000
#
# Coordination Sequence:
#
# PCOD9098843 Si02
#       7
#     2   2   2   2   2   2   2
#     4  10  20  42  63  92 123 168 219 263 310 391
#     4  10  23  45  67  94 127 173 218 266 321 374
#     4   9  20  39  58  87 127 169 211 252 319 391
#     4  11  24  43  70  95 129 168 216 274 323 370
#     4   9  20  37  58  85 130 171 205 249 322 399
#     4  11  22  38  63  92 132 163 206 267 332 378
#     4  10  20  37  57  97 128 156 203 268 325 377
#
# _framework density 23.741018
#
# number of rings (size 3 to 8) (size 9 to 14) (size 15 to 20)
#    0.000    2.000    1.429    3.000    4.000    0.571 
#   23.143    1.429    0.000    0.000    0.000    0.000 
#    0.000    0.000    0.000    0.000    0.000    0.000 
#
# Total GULP energy -78057.374263 kJ/mol
# GULP energy per Si atom -5575.526733 kJ/mol
# Density = 2.368698 g / cm^3
# Si number density = 23.741018 Si / 1000 Ang^3
#
#
#
# Elastic Constant Matrix: (Units=GPa)
#
#
# Indices 1 2 3 4 5 6 
#
# 1 74.6179 35.7534 -15.2960 8.6164 2.1724 10.5324
# 2 35.7534 149.1737 -10.9629 29.3369 13.5787 24.4418
# 3 -15.2960 -10.9629 56.2943 11.4527 5.2335 -3.0215
# 4 8.6164 29.3369 11.4527 40.7023 4.7771 2.2436
# 5 2.1724 13.5787 5.2335 4.7771 18.3179 0.8800
# 6 10.5324 24.4418 -3.0215 2.2436 0.8800 40.6566
#
#
#
# Elastic Compliance Matrix: (Units=1/GPa)
#
#
# Indices 1 2 3 4 5 6 
#
# 1 0.016172 -0.002676 0.004315 -0.002545 -0.000402 -0.002111
# 2 -0.002676 0.010192 0.002921 -0.006623 -0.006119 -0.004719
# 3 0.004315 0.002921 0.021787 -0.008327 -0.006699 -0.000650
# 4 -0.002545 -0.006623 -0.008327 0.032207 -0.000917 0.002265
# 5 -0.000402 -0.006119 -0.006699 -0.000917 0.061231 0.002010
# 6 -0.002111 -0.004719 -0.000650 0.002265 0.002010 0.027763
#
#
# Mechanical properties :
#
#
# Convention : Reuss Voigt Hill
#
# Bulk Modulus (GPa) = 17.46083 33.23054 25.34568
# Shear Modulus (GPa) = 27.88255 37.97477 32.92866
#
# Velocity S-wave (km/s) = 3.43074 4.00377 3.72828
# Velocity P-wave (km/s) = 4.80249 5.94988 5.40671
#
# Compressibility (1/GPa) = 0.05727106
#
# Stress axis : x y z
#
# Youngs Moduli (GPa) = 61.83576 98.11278 45.89897
#
# Poissons Ratio (x) = 0.26254 -0.19805
# Poissons Ratio (y) = 0.16546 -0.13406
# Poissons Ratio (z) = -0.26682 -0.28657
#
# Static dielectric constant tensor:
#      x y z
#    x 1.929270 -0.037320 0.160800 
#    y -0.037320 1.927880 -0.015680 
#    z 0.160800 -0.015680 1.850820 
# 
# From -- ./inp_files/66579.got.cif
#   From: 2010.05.17/outbox.cif.g08.bks.cpg/sg2_34_cif.got.tgz:66579.got - 2010.06.03 11:33:40.
