data_PCOD9098833
_publ_section_title
;
Structure prediction by ZEFSAII (Michael W. Deem and Ramdas Pophale) SiO2 
 PCOD9098833
Probable space group: P -1
;
_chemical_formula_sum "Si O2"
_cell_formula_units_Z 16
_cell_length_a 10.183497
_cell_length_b 8.925725
_cell_length_c 18.892262
_cell_angle_alpha 143.738912
_cell_angle_beta 119.987561
_cell_angle_gamma 73.277888
_cell_volume 857.144849
_symmetry_space_group_name_H-M "P -1"
_symmetry_group_IT_number 2
_symmetry_cell_setting 'triclinic'
loop_
_space_group_symop_operation_xyz
x,y,z
-x,-y,-z
loop_
_atom_site_type_symbol
_atom_site_label
_atom_site_fract_x
_atom_site_fract_y
_atom_site_fract_z
Si Si1 0.097420 0.210166 0.970785
Si Si2 0.474186 0.008921 0.082163
Si Si3 0.842973 0.270727 0.648166
Si Si4 0.633905 0.752371 0.143685
Si Si5 0.044898 0.354827 0.853690
Si Si6 0.682816 0.795851 0.335970
Si Si7 0.845204 0.331920 0.167680
Si Si8 0.397524 0.533962 0.251492
O O1 0.050219 0.250101 0.893770
O O2 0.108368 0.915402 0.875600
O O3 0.264973 0.394512 0.106331
O O4 0.981926 0.350540 0.037790
O O5 0.601922 0.930451 0.137485
O O6 0.469234 0.300900 0.209795
O O7 0.302924 0.822645 0.977696
O O8 0.500000 0.000000 0.000000
O O9 0.691277 0.363627 0.669299
O O10 0.907453 0.179531 0.704218
O O11 0.989811 0.498845 0.751474
O O12 0.799539 0.049166 0.494104
O O13 0.796433 0.672387 0.148490
O O14 0.633243 0.840126 0.258662
O O15 0.500000 0.500000 0.000000
O O16 0.765149 0.548562 0.265514
O O17 0.531097 0.731446 0.320760
#
# Coordination Sequence:
#
# PCOD9098833 Si02
#       8
#     2   2   2   2   2   2   2   2
#     4   9  21  37  63  89 122 146 200 256 305 348
#     4  11  20  38  64  96 118 149 201 257 304 349
#     4  11  24  41  58  85 125 166 202 237 301 367
#     4  12  21  34  60  91 118 151 201 250 303 344
#     4  10  20  37  57  91 118 156 194 247 304 358
#     4  12  23  40  60  88 121 163 204 243 296 366
#     4  11  21  38  63  87 120 155 195 252 299 348
#     4  10  22  40  63  86 117 162 201 250 303 351
#
# _framework density 18.666622
#
# number of rings (size 3 to 8) (size 9 to 14) (size 15 to 20)
#    0.000    1.250    3.750    3.000    0.000    5.500 
#    0.000    2.500    0.000    0.000    0.000    0.000 
#    0.000    0.000    0.000    0.000    0.000    0.000 
#
# Total GULP energy -89105.945712 kJ/mol
# GULP energy per Si atom -5569.121607 kJ/mol
# Density = 1.862414 g / cm^3
# Si number density = 18.666622 Si / 1000 Ang^3
#
#
#
# Elastic Constant Matrix: (Units=GPa)
#
#
# Indices 1 2 3 4 5 6 
#
# 1 92.9822 21.6939 8.6748 10.3635 7.4394 -2.7388
# 2 21.6939 101.5475 38.3428 -2.8716 -3.6031 -17.2124
# 3 8.6748 38.3428 88.5458 -0.8388 -8.5109 12.2948
# 4 10.3635 -2.8716 -0.8388 14.8178 8.5426 2.7263
# 5 7.4394 -3.6031 -8.5109 8.5426 22.2832 3.5770
# 6 -2.7388 -17.2124 12.2948 2.7263 3.5770 29.9308
#
#
#
# Elastic Compliance Matrix: (Units=1/GPa)
#
#
# Indices 1 2 3 4 5 6 
#
# 1 0.012520 -0.002702 -0.000394 -0.008498 -0.001625 0.000722
# 2 -0.002702 0.015745 -0.008554 0.004138 -0.003388 0.012349
# 3 -0.000394 -0.008554 0.017648 -0.003032 0.008734 -0.012973
# 4 -0.008498 0.004138 -0.003032 0.093534 -0.033236 -0.001700
# 5 -0.001625 -0.003388 0.008734 -0.033236 0.062576 -0.010136
# 6 0.000722 0.012349 -0.012973 -0.001700 -0.010136 0.047273
#
#
# Mechanical properties :
#
#
# Convention : Reuss Voigt Hill
#
# Bulk Modulus (GPa) = 44.22039 46.72207 45.47123
# Shear Modulus (GPa) = 17.84858 27.69729 22.77293
#
# Velocity S-wave (km/s) = 3.09556 3.85617 3.49661
# Velocity P-wave (km/s) = 6.04299 6.70156 6.38077
#
# Compressibility (1/GPa) = 0.02261400
#
# Stress axis : x y z
#
# Youngs Moduli (GPa) = 79.87016 63.51321 56.66223
#
# Poissons Ratio (x) = 0.17160 0.02231
# Poissons Ratio (y) = 0.21579 0.48471
# Poissons Ratio (z) = 0.03144 0.54332
#
# Static dielectric constant tensor:
#      x y z
#    x 1.745170 0.011330 0.000460 
#    y 0.011330 1.717940 -0.014790 
#    z 0.000460 -0.014790 1.634150 
# 
# From -- ./inp_files/557698.got.cif
#   From: 2010.05.17/outbox.cif.g08.bks.cpg/sg2_279_cif.got.tgz:557698.got - 2010.06.03 11:33:40.
