data_PCOD9098053
_publ_section_title
;
Structure prediction by ZEFSAII (Michael W. Deem and Ramdas Pophale) SiO2 
 PCOD9098053
Probable space group: P -1
;
_chemical_formula_sum "Si O2"
_cell_formula_units_Z 14
_cell_length_a 21.187306
_cell_length_b 10.884889
_cell_length_c 16.851451
_cell_angle_alpha 151.186898
_cell_angle_beta 163.048961
_cell_angle_gamma 34.144543
_cell_volume 544.559288
_symmetry_space_group_name_H-M "P -1"
_symmetry_group_IT_number 2
_symmetry_cell_setting 'triclinic'
loop_
_space_group_symop_operation_xyz
x,y,z
-x,-y,-z
loop_
_atom_site_type_symbol
_atom_site_label
_atom_site_fract_x
_atom_site_fract_y
_atom_site_fract_z
Si Si1 0.665613 0.196897 0.188678
Si Si2 0.394998 0.645590 0.108027
Si Si3 0.755251 0.063937 0.048365
Si Si4 0.846488 0.974908 0.876730
Si Si5 0.838097 0.128798 0.521286
Si Si6 0.542918 0.523762 0.471114
Si Si7 0.936378 0.479179 0.094793
O O1 0.460123 0.362334 0.045418
O O2 0.720788 0.046757 0.250325
O O3 0.878817 0.397190 0.554251
O O4 0.658659 0.062054 0.020138
O O5 0.617314 0.822242 0.493553
O O6 0.327269 0.702618 0.968753
O O7 0.208287 0.762850 0.001100
O O8 0.659788 0.797837 0.743533
O O9 0.015606 0.065060 0.368913
O O10 0.987928 0.791653 0.995759
O O11 0.000000 0.000000 0.000000
O O12 0.675289 0.291882 0.467387
O O13 0.027833 0.336036 0.833320
O O14 0.500000 0.500000 0.500000
O O15 0.294854 0.527126 0.146260
#
# Coordination Sequence:
#
# PCOD9098053 Si02
#       7
#     2   2   2   2   2   2   2
#     4   9  22  44  63  87 126 168 200 246 312 371
#     4  10  22  37  63  90 122 161 203 250 304 359
#     4  12  22  40  67  91 126 159 205 259 307 352
#     4  10  20  36  63  91 122 159 205 248 305 364
#     4  10  23  41  65  84 128 163 204 245 311 365
#     4  12  23  37  65  96 121 156 213 260 297 357
#     4   9  21  39  62  86 124 159 207 240 308 359
#
# _framework density 25.708863000000001
#
# number of rings (size 3 to 8) (size 9 to 14) (size 15 to 20)
#    0.857    0.857    1.429    3.000    6.000    0.000 
#    0.000    2.857    0.000    3.429    0.000    0.000 
#    0.000    0.000    0.000    0.000    0.000    0.000 
#
# Total GULP energy -78276.928476 kJ/mol
# GULP energy per Si atom -5591.209177 kJ/mol
# Density = 2.565035 g / cm^3
# Si number density = 25.708863 Si / 1000 Ang^3
#
#
#
# Elastic Constant Matrix: (Units=GPa)
#
#
# Indices 1 2 3 4 5 6 
#
# 1 76.1877 11.3855 8.8262 -9.6275 -3.7634 -22.9867
# 2 11.3855 130.2117 33.4815 -41.8838 -12.9490 -19.8678
# 3 8.8262 33.4815 77.8945 -16.7346 11.8520 -8.8245
# 4 -9.6275 -41.8838 -16.7346 29.3986 -0.2848 -1.6373
# 5 -3.7634 -12.9490 11.8520 -0.2848 34.1051 -14.4235
# 6 -22.9867 -19.8678 -8.8245 -1.6373 -14.4235 51.6392
#
#
#
# Elastic Compliance Matrix: (Units=1/GPa)
#
#
# Indices 1 2 3 4 5 6 
#
# 1 0.019887 0.008436 -0.002114 0.018344 0.013035 0.015959
# 2 0.008436 0.025204 -0.004714 0.037281 0.020749 0.019624
# 3 -0.002114 -0.004714 0.016559 0.001805 -0.008739 -0.002309
# 4 0.018344 0.037281 0.001805 0.096386 0.030955 0.034520
# 5 0.013035 0.020749 -0.008739 0.030955 0.053915 0.028333
# 6 0.015959 0.019624 -0.002309 0.034520 0.028333 0.042633
#
#
# Mechanical properties :
#
#
# Convention : Reuss Voigt Hill
#
# Bulk Modulus (GPa) = 15.41616 43.52004 29.46810
# Shear Modulus (GPa) = 18.31574 38.40196 28.35885
#
# Velocity S-wave (km/s) = 2.67203 3.86907 3.32486
# Velocity P-wave (km/s) = 3.94070 6.07654 5.12120
#
# Compressibility (1/GPa) = 0.06486699
#
# Stress axis : x y z
#
# Youngs Moduli (GPa) = 50.28500 39.67679 60.38842
#
# Poissons Ratio (x) = -0.33473 0.12766
# Poissons Ratio (y) = -0.42423 0.28466
# Poissons Ratio (z) = 0.10631 0.18703
#
# Static dielectric constant tensor:
#      x y z
#    x 2.047300 0.079860 -0.038580 
#    y 0.079860 2.092310 0.014630 
#    z -0.038580 0.014630 2.063170 
# 
# From -- ./inp_files/578043.got.cif
#   From: 2010.05.17/outbox.cif.g08.bks.cpg/sg2_290_cif.got.tgz:578043.got - 2010.06.03 11:33:40.
