data_PCOD9098409
_publ_section_title
;
Structure prediction by ZEFSAII (Michael W. Deem and Ramdas Pophale) SiO2 
 PCOD9098409
Probable space group: P -1
;
_chemical_formula_sum "Si O2"
_cell_formula_units_Z 16
_cell_length_a 13.483476
_cell_length_b 7.504345
_cell_length_c 9.884557
_cell_angle_alpha 99.373242
_cell_angle_beta 93.542020
_cell_angle_gamma 129.812192
_cell_volume 739.597621
_symmetry_space_group_name_H-M "P -1"
_symmetry_group_IT_number 2
_symmetry_cell_setting 'triclinic'
loop_
_space_group_symop_operation_xyz
x,y,z
-x,-y,-z
loop_
_atom_site_type_symbol
_atom_site_label
_atom_site_fract_x
_atom_site_fract_y
_atom_site_fract_z
Si Si1 0.557193 0.509018 0.147823
Si Si2 0.275804 0.584305 0.593059
Si Si3 0.359813 0.780082 0.895627
Si Si4 0.848712 0.343272 0.926395
Si Si5 0.995731 0.278544 0.472543
Si Si6 0.697291 0.802634 0.430101
Si Si7 0.811252 0.572930 0.710957
Si Si8 0.308144 0.166348 0.271157
O O1 0.651599 0.451289 0.121018
O O2 0.627736 0.748266 0.273456
O O3 0.431851 0.295974 0.199048
O O4 0.500000 0.500000 0.000000
O O5 0.348505 0.792910 0.734404
O O6 0.323983 0.437583 0.584038
O O7 0.272471 0.632653 0.440192
O O8 0.119145 0.379890 0.592872
O O9 0.243708 0.738320 0.960993
O O10 0.500000 0.000000 0.000000
O O11 0.821782 0.478009 0.838649
O O12 0.801252 0.108366 0.814854
O O13 0.000000 0.500000 0.000000
O O14 0.000000 0.500000 0.500000
O O15 0.045478 0.257183 0.330635
O O16 0.852057 0.036293 0.466941
O O17 0.646713 0.819209 0.569315
O O18 0.751498 0.702138 0.730677
#
# Coordination Sequence:
#
# PCOD9098409 Si02
#       8
#     2   2   2   2   2   2   2   2
#     4  11  24  43  66  93 131 179 224 273 341 405
#     4   8  21  38  65  89 125 170 218 269 326 392
#     4  11  23  44  64  92 138 174 220 273 337 403
#     4  12  27  42  69 101 138 178 221 280 342 395
#     4  10  20  36  65  97 130 161 222 269 341 388
#     4  10  21  39  69  91 125 174 219 279 327 398
#     4   9  23  43  65  98 134 166 227 282 321 406
#     4  11  23  44  68  94 134 175 229 276 334 394
#
# _framework density 21.633384
#
# number of rings (size 3 to 8) (size 9 to 14) (size 15 to 20)
#    0.750    1.000    1.250    2.250    3.500    3.500 
#    0.000    0.625    0.000    0.000    0.000    0.000 
#    0.000    0.000    0.000    0.000    0.000    0.000 
#
# Total GULP energy -89224.140717 kJ/mol
# GULP energy per Si atom -5576.508795 kJ/mol
# Density = 2.158415 g / cm^3
# Si number density = 21.633384 Si / 1000 Ang^3
#
#
#
# Elastic Constant Matrix: (Units=GPa)
#
#
# Indices 1 2 3 4 5 6 
#
# 1 78.6919 24.5774 33.3331 7.5423 -6.0286 -0.8342
# 2 24.5774 51.5947 29.2594 19.5604 0.4087 4.6644
# 3 33.3331 29.2594 152.8809 25.4650 0.3178 -0.5146
# 4 7.5423 19.5604 25.4650 27.0911 7.2520 5.1769
# 5 -6.0286 0.4087 0.3178 7.2520 29.9933 -1.2815
# 6 -0.8342 4.6644 -0.5146 5.1769 -1.2815 36.1378
#
#
#
# Elastic Compliance Matrix: (Units=1/GPa)
#
#
# Indices 1 2 3 4 5 6 
#
# 1 0.016015 -0.007113 -0.002469 0.002018 0.002900 0.001066
# 2 -0.007113 0.031038 -0.001072 -0.019975 0.002936 -0.001220
# 3 -0.002469 -0.001072 0.008460 -0.007048 0.001186 0.001254
# 4 0.002018 -0.019975 -0.007048 0.062665 -0.014697 -0.006974
# 5 0.002900 0.002936 0.001186 -0.014697 0.037559 0.003142
# 6 0.001066 -0.001220 0.001254 -0.006974 0.003142 0.028982
#
#
# Mechanical properties :
#
#
# Convention : Reuss Voigt Hill
#
# Bulk Modulus (GPa) = 29.23598 50.83414 40.03506
# Shear Modulus (GPa) = 22.99581 31.71093 27.35337
#
# Velocity S-wave (km/s) = 3.26387 3.83277 3.55971
# Velocity P-wave (km/s) = 5.26758 6.56779 5.95329
#
# Compressibility (1/GPa) = 0.03420443
#
# Stress axis : x y z
#
# Youngs Moduli (GPa) = 62.44008 32.21827 118.19859
#
# Poissons Ratio (x) = 0.22918 0.29184
# Poissons Ratio (y) = 0.44415 0.12676
# Poissons Ratio (z) = 0.15417 0.03455
#
# Static dielectric constant tensor:
#      x y z
#    x 2.147630 -0.071490 0.061760 
#    y -0.071490 1.781770 -0.015030 
#    z 0.061760 -0.015030 1.874040 
# 
# From -- ./inp_files/296124.got.cif
#   From: 2010.05.17/outbox.cif.g08.bks.cpg/sg2_149_cif.got.tgz:296124.got - 2010.06.03 11:33:40.
