data_PCOD9098206
_publ_section_title
;
Structure prediction by ZEFSAII (Michael W. Deem and Ramdas Pophale) SiO2 
 PCOD9098206
Probable space group: P -1
;
_chemical_formula_sum "Si O2"
_cell_formula_units_Z 16
_cell_length_a 21.706878
_cell_length_b 12.220152
_cell_length_c 8.833637
_cell_angle_alpha 41.631143
_cell_angle_beta 127.220131
_cell_angle_gamma 150.504270
_cell_volume 758.931852
_symmetry_space_group_name_H-M "P -1"
_symmetry_group_IT_number 2
_symmetry_cell_setting 'triclinic'
loop_
_space_group_symop_operation_xyz
x,y,z
-x,-y,-z
loop_
_atom_site_type_symbol
_atom_site_label
_atom_site_fract_x
_atom_site_fract_y
_atom_site_fract_z
Si Si1 0.633196 0.783226 0.342002
Si Si2 0.839111 0.897405 0.012093
Si Si3 0.633492 0.153738 0.091342
Si Si4 0.401936 0.413751 0.829768
Si Si5 0.421934 0.985221 0.509596
Si Si6 0.882975 0.128190 0.505195
Si Si7 0.152741 0.480019 0.593398
Si Si8 0.102365 0.457641 0.889971
O O1 0.500000 0.500000 0.500000
O O2 0.624742 0.745701 0.188429
O O3 0.640189 0.977581 0.222150
O O4 0.754065 0.880636 0.476426
O O5 0.722862 0.760043 0.081460
O O6 0.827209 0.681793 0.196150
O O7 0.849167 0.009756 0.749076
O O8 0.968201 0.149553 0.033089
O O9 0.779171 0.446199 0.966230
O O10 0.624370 0.167551 0.243247
O O11 0.500000 0.000000 0.000000
O O12 0.480211 0.711342 0.600341
O O13 0.500000 0.500000 0.000000
O O14 0.500000 0.000000 0.500000
O O15 0.286090 0.791873 0.425438
O O16 0.901811 0.355997 0.272672
O O17 0.021167 0.286555 0.508009
O O18 0.121251 0.493415 0.699490
#
# Coordination Sequence:
#
# PCOD9098206 Si02
#       8
#     2   2   2   2   2   2   2   2
#     4  11  23  43  62  91 126 163 214 254 314 374
#     4  11  21  38  61  95 122 161 216 255 312 374
#     4  10  23  41  66  92 124 167 208 257 311 374
#     4  12  27  40  64  93 127 168 209 264 313 374
#     4  11  23  43  61  95 129 160 210 256 317 370
#     4  10  21  39  66  89 121 164 209 266 310 365
#     4  10  20  36  64  89 123 160 210 253 309 375
#     4   9  20  36  61  92 123 158 212 254 310 371
#
# _framework density 21.082262
#
# number of rings (size 3 to 8) (size 9 to 14) (size 15 to 20)
#    0.000    1.500    2.500    3.750    7.000    3.000 
#    0.000    4.375    0.000    0.000    0.000    0.000 
#    0.000    0.000    0.000    0.000    0.000    0.000 
#
# Total GULP energy -89071.709932 kJ/mol
# GULP energy per Si atom -5566.981871 kJ/mol
# Density = 2.103428 g / cm^3
# Si number density = 21.082262 Si / 1000 Ang^3
#
#
#
# Elastic Constant Matrix: (Units=GPa)
#
#
# Indices 1 2 3 4 5 6 
#
# 1 100.2238 49.1364 14.9703 7.6881 -1.7183 24.2792
# 2 49.1364 174.8996 23.7025 10.9282 -8.1915 46.2121
# 3 14.9703 23.7025 17.9295 5.8611 -0.9437 8.7258
# 4 7.6881 10.9282 5.8611 37.3350 5.6785 1.9731
# 5 -1.7183 -8.1915 -0.9437 5.6785 18.5240 -4.9706
# 6 24.2792 46.2121 8.7258 1.9731 -4.9706 46.4100
#
#
#
# Elastic Compliance Matrix: (Units=1/GPa)
#
#
# Indices 1 2 3 4 5 6 
#
# 1 0.012726 -0.001690 -0.006290 -0.000836 -0.000658 -0.003827
# 2 -0.001690 0.009017 -0.006829 -0.001193 0.002095 -0.006536
# 3 -0.006290 -0.006829 0.074579 -0.008526 0.001907 -0.003365
# 4 -0.000836 -0.001193 -0.008526 0.030125 -0.010040 0.000872
# 5 -0.000658 0.002095 0.001907 -0.010040 0.059279 0.004676
# 6 -0.003827 -0.006536 -0.003365 0.000872 0.004676 0.031153
#
#
# Mechanical properties :
#
#
# Convention : Reuss Voigt Hill
#
# Bulk Modulus (GPa) = 14.99160 52.07459 33.53310
# Shear Modulus (GPa) = 18.60596 34.13672 26.37134
#
# Velocity S-wave (km/s) = 2.97398 4.02831 3.54061
# Velocity P-wave (km/s) = 4.34962 6.81107 5.71445
#
# Compressibility (1/GPa) = 0.06670401
#
# Stress axis : x y z
#
# Youngs Moduli (GPa) = 78.58106 110.89754 13.40869
#
# Poissons Ratio (x) = 0.18744 0.08434
# Poissons Ratio (y) = 0.13282 0.09156
# Poissons Ratio (z) = 0.49426 0.75728
#
# Static dielectric constant tensor:
#      x y z
#    x 1.698850 0.038420 0.055940 
#    y 0.038420 1.857030 -0.017650 
#    z 0.055940 -0.017650 1.873990 
# 
# From -- ./inp_files/277678.got.cif
#   From: 2010.05.17/outbox.cif.g08.bks.cpg/sg2_139_cif.got.tgz:277678.got - 2010.06.03 11:33:40.
