data_PCOD9098636
_publ_section_title
;
Structure prediction by ZEFSAII (Michael W. Deem and Ramdas Pophale) SiO2 
 PCOD9098636
Probable space group: P -1
;
_chemical_formula_sum "Si O2"
_cell_formula_units_Z 16
_cell_length_a 11.831289
_cell_length_b 7.249484
_cell_length_c 10.412056
_cell_angle_alpha 51.011137
_cell_angle_beta 82.546898
_cell_angle_gamma 57.774391
_cell_volume 557.709536
_symmetry_space_group_name_H-M "P -1"
_symmetry_group_IT_number 2
_symmetry_cell_setting 'triclinic'
loop_
_space_group_symop_operation_xyz
x,y,z
-x,-y,-z
loop_
_atom_site_type_symbol
_atom_site_label
_atom_site_fract_x
_atom_site_fract_y
_atom_site_fract_z
Si Si1 0.193628 0.206155 0.382714
Si Si2 0.489085 0.617379 0.195137
Si Si3 0.004547 0.784832 0.989323
Si Si4 0.740423 0.366814 0.116382
Si Si5 0.442115 0.167598 0.271638
Si Si6 0.243132 0.823283 0.310831
Si Si7 0.694084 0.907569 0.191143
Si Si8 0.946562 0.276948 0.480893
O O1 0.342560 0.160160 0.393701
O O2 0.237296 0.940389 0.400056
O O3 0.094718 0.236112 0.499500
O O4 0.087457 0.484143 0.186352
O O5 0.653766 0.471012 0.215913
O O6 0.474718 0.387963 0.221573
O O7 0.403106 0.659434 0.315761
O O8 0.399376 0.918438 0.995939
O O9 0.100092 0.745684 0.870343
O O10 0.851328 0.925669 0.892624
O O11 0.000000 0.000000 0.000000
O O12 0.727192 0.127127 0.152027
O O13 0.658825 0.656029 0.911959
O O14 0.586014 0.899055 0.305982
O O15 0.148864 0.699993 0.396107
O O16 0.836704 0.590063 0.292702
O O17 0.000000 0.000000 0.500000
#
# Coordination Sequence:
#
# PCOD9098636 Si02
#       8
#     2   2   2   2   2   2   2   2
#     4  10  20  37  55  78 109 144 180 224 272 320
#     4   9  17  34  59  83 104 133 177 230 273 318
#     4  11  20  35  59  84 105 139 184 228 272 318
#     4   8  16  31  55  84 106 128 175 230 273 315
#     4   8  16  33  59  83 102 133 181 224 268 321
#     4  11  22  35  51  78 112 146 181 222 265 319
#     4   9  16  34  59  77 102 144 179 216 270 320
#     4  10  22  37  50  73 113 153 183 216 263 321
#
# _framework density 28.688769000000001
#
# number of rings (size 3 to 8) (size 9 to 14) (size 15 to 20)
#    0.000    2.500    0.000    5.625    0.000    1.000 
#    0.000   20.000    0.000    0.000    0.000    0.000 
#    0.000    0.000    0.000    0.000    0.000    0.000 
#
# Total GULP energy -89554.566688 kJ/mol
# GULP energy per Si atom -5597.160418 kJ/mol
# Density = 2.862347 g / cm^3
# Si number density = 28.688769 Si / 1000 Ang^3
#
#
#
# Elastic Constant Matrix: (Units=GPa)
#
#
# Indices 1 2 3 4 5 6 
#
# 1 97.0363 56.1248 22.1610 5.0675 -12.7940 -42.2073
# 2 56.1248 190.6311 52.6361 6.5069 -12.3927 -65.1879
# 3 22.1610 52.6361 116.7983 9.1019 13.7682 -15.7915
# 4 5.0675 6.5069 9.1019 48.9644 -14.3121 -8.7575
# 5 -12.7940 -12.3927 13.7682 -14.3121 45.8652 12.3809
# 6 -42.2073 -65.1879 -15.7915 -8.7575 12.3809 65.3585
#
#
#
# Elastic Compliance Matrix: (Units=1/GPa)
#
#
# Indices 1 2 3 4 5 6 
#
# 1 0.015040 -0.001172 -0.001662 0.001064 0.002607 0.007791
# 2 -0.001172 0.009029 -0.003114 0.001243 0.001441 0.007390
# 3 -0.001662 -0.003114 0.011038 -0.003200 -0.005368 -0.000925
# 4 0.001064 0.001243 -0.003200 0.023641 0.008224 0.002763
# 5 0.002607 0.001441 -0.005368 0.008224 0.027725 -0.002327
# 6 0.007791 0.007390 -0.000925 0.002763 -0.002327 0.028290
#
#
# Mechanical properties :
#
#
# Convention : Reuss Voigt Hill
#
# Bulk Modulus (GPa) = 43.08527 74.03439 58.55983
# Shear Modulus (GPa) = 37.20395 50.27388 43.73891
#
# Velocity S-wave (km/s) = 3.60503 4.19070 3.90885
# Velocity P-wave (km/s) = 5.69027 7.01983 6.38972
#
# Compressibility (1/GPa) = 0.02320979
#
# Stress axis : x y z
#
# Youngs Moduli (GPa) = 66.49122 110.75678 90.59863
#
# Poissons Ratio (x) = 0.12976 0.15061
# Poissons Ratio (y) = 0.07790 0.28214
# Poissons Ratio (z) = 0.11053 0.34492
#
# Static dielectric constant tensor:
#      x y z
#    x 2.233990 -0.024170 -0.102900 
#    y -0.024170 2.230100 0.038170 
#    z -0.102900 0.038170 2.302710 
# 
# From -- ./inp_files/528084.got.cif
#   From: 2010.05.17/outbox.cif.g08.bks.cpg/sg2_265_cif.got.tgz:528084.got - 2010.06.03 11:33:40.
