data_PCOD9098947
_publ_section_title
;
Structure prediction by ZEFSAII (Michael W. Deem and Ramdas Pophale) SiO2 
 PCOD9098947
Probable space group: P -1
;
_chemical_formula_sum "Si O2"
_cell_formula_units_Z 16
_cell_length_a 9.297847
_cell_length_b 11.436496
_cell_length_c 9.667397
_cell_angle_alpha 114.987955
_cell_angle_beta 118.985236
_cell_angle_gamma 98.905898
_cell_volume 726.445283
_symmetry_space_group_name_H-M "P -1"
_symmetry_group_IT_number 2
_symmetry_cell_setting 'triclinic'
loop_
_space_group_symop_operation_xyz
x,y,z
-x,-y,-z
loop_
_atom_site_type_symbol
_atom_site_label
_atom_site_fract_x
_atom_site_fract_y
_atom_site_fract_z
Si Si1 0.625199 0.343981 0.435571
Si Si2 0.859065 0.932861 0.220000
Si Si3 0.326689 0.942469 0.188264
Si Si4 0.256636 0.182087 0.599153
Si Si5 0.383547 0.802077 0.380303
Si Si6 0.875713 0.649200 0.571630
Si Si7 0.789981 0.819033 0.830700
Si Si8 0.727158 0.170976 0.194676
O O1 0.702191 0.325357 0.611108
O O2 0.747704 0.494661 0.496625
O O3 0.415607 0.311089 0.348255
O O4 0.601891 0.213380 0.255525
O O5 0.752884 0.828310 0.245172
O O6 0.775409 0.047180 0.216404
O O7 0.836113 0.846178 0.025335
O O8 0.077171 0.030867 0.400424
O O9 0.255201 0.822712 0.216248
O O10 0.520806 0.057909 0.404026
O O11 0.218953 0.038202 0.161273
O O12 0.343826 0.876770 0.017474
O O13 0.445782 0.201493 0.626633
O O14 0.214873 0.306916 0.576526
O O15 0.910626 0.770839 0.766824
O O16 0.080915 0.682234 0.644450
#
# Coordination Sequence:
#
# PCOD9098947 Si02
#       8
#     2   2   2   2   2   2   2   2
#     4  11  23  39  56  85 112 157 193 224 275 334
#     4   9  22  36  59  90 116 138 188 234 297 328
#     4   9  20  36  56  90 111 139 186 233 295 323
#     4  10  20  37  58  87 116 149 177 237 285 338
#     4  10  21  34  61  85 117 146 181 237 282 338
#     4  11  22  41  58  79 116 156 194 221 277 339
#     4  10  21  36  63  85 111 147 185 242 276 334
#     4  10  23  37  62  83 114 149 185 241 277 335
#
# _framework density 22.02506
#
# number of rings (size 3 to 8) (size 9 to 14) (size 15 to 20)
#    0.000    2.000    2.500    0.750    8.750    4.000 
#    0.000    2.500    0.000    0.000    0.000    0.000 
#    0.000    0.000    0.000    0.000    0.000    0.000 
#
# Total GULP energy -89419.477794 kJ/mol
# GULP energy per Si atom -5588.717362 kJ/mol
# Density = 2.197493 g / cm^3
# Si number density = 22.025060 Si / 1000 Ang^3
#
#
#
# Elastic Constant Matrix: (Units=GPa)
#
#
# Indices 1 2 3 4 5 6 
#
# 1 69.8549 20.9718 14.5127 -6.5392 -12.3629 0.7481
# 2 20.9718 161.7119 45.5587 -29.7380 -4.5163 23.9086
# 3 14.5127 45.5587 79.2435 -36.5296 -18.8223 -5.3403
# 4 -6.5392 -29.7380 -36.5296 42.0400 11.4378 -3.3121
# 5 -12.3629 -4.5163 -18.8223 11.4378 29.4919 0.7208
# 6 0.7481 23.9086 -5.3403 -3.3121 0.7208 22.3914
#
#
#
# Elastic Compliance Matrix: (Units=1/GPa)
#
#
# Indices 1 2 3 4 5 6 
#
# 1 0.016106 -0.002111 -0.000715 -0.001270 0.006436 0.001151
# 2 -0.002111 0.010248 -0.006664 0.001187 -0.003732 -0.012165
# 3 -0.000715 -0.006664 0.028513 0.018738 0.009209 0.016415
# 4 -0.001270 0.001187 0.018738 0.042915 -0.005274 0.009762
# 5 0.006436 -0.003732 0.009209 -0.005274 0.043865 0.003774
# 6 0.001151 -0.012165 0.016415 0.009762 0.003774 0.062849
#
#
# Mechanical properties :
#
#
# Convention : Reuss Voigt Hill
#
# Bulk Modulus (GPa) = 27.86591 52.54408 40.20499
# Shear Modulus (GPa) = 21.23708 34.10246 27.66977
#
# Velocity S-wave (km/s) = 3.10856 3.93917 3.54826
# Velocity P-wave (km/s) = 5.05605 6.67815 5.92289
#
# Compressibility (1/GPa) = 0.03588615
#
# Stress axis : x y z
#
# Youngs Moduli (GPa) = 62.09019 97.58267 35.07148
#
# Poissons Ratio (x) = 0.20601 0.02507
# Poissons Ratio (y) = 0.13108 0.23372
# Poissons Ratio (z) = 0.04439 0.65030
#
# Static dielectric constant tensor:
#      x y z
#    x 1.823660 -0.006950 0.038980 
#    y -0.006950 1.856100 -0.014210 
#    z 0.038980 -0.014210 1.811580 
# 
# From -- ./inp_files/259087.got.cif
#   From: 2010.05.17/outbox.cif.g08.bks.cpg/sg2_130_cif.got.tgz:259087.got - 2010.06.03 11:33:40.
