data_PCOD9098935
_publ_section_title
;
Structure prediction by ZEFSAII (Michael W. Deem and Ramdas Pophale) SiO2 
 PCOD9098935
Probable space group: P -1
;
_chemical_formula_sum "Si O2"
_cell_formula_units_Z 12
_cell_length_a 17.964332
_cell_length_b 17.473196
_cell_length_c 7.913566
_cell_angle_alpha 44.231027
_cell_angle_beta 140.467885
_cell_angle_gamma 161.636040
_cell_volume 496.649079
_symmetry_space_group_name_H-M "P -1"
_symmetry_group_IT_number 2
_symmetry_cell_setting 'triclinic'
loop_
_space_group_symop_operation_xyz
x,y,z
-x,-y,-z
loop_
_atom_site_type_symbol
_atom_site_label
_atom_site_fract_x
_atom_site_fract_y
_atom_site_fract_z
Si Si1 0.784727 0.719498 0.723849
Si Si2 0.096495 0.681234 0.265539
Si Si3 0.201519 0.273380 0.892874
Si Si4 0.608417 0.246799 0.892159
Si Si5 0.089077 0.918978 0.622512
Si Si6 0.437424 0.024158 0.607278
O O1 0.500000 0.500000 0.500000
O O2 0.880509 0.924156 0.587736
O O3 0.777856 0.659172 0.990774
O O4 0.955581 0.801912 0.754942
O O5 0.318738 0.817458 0.319970
O O6 0.000000 0.500000 0.500000
O O7 0.228716 0.872515 0.334228
O O8 0.864865 0.516523 0.990944
O O9 0.500000 0.500000 0.000000
O O10 0.082051 0.250216 0.575021
O O11 0.000000 0.000000 0.000000
O O12 0.362370 0.087247 0.817010
O O13 0.530565 0.190082 0.647636
O O14 0.657662 0.159664 0.157529
#
# Coordination Sequence:
#
# PCOD9098935 Si02
#       6
#     2   2   2   2   2   2
#     4  10  20  39  62  79 120 161 193 255 312 365
#     4   9  18  36  58  81 116 155 195 241 301 363
#     4  10  20  39  63  86 121 163 206 256 315 377
#     4  10  20  37  58  86 118 151 200 248 299 358
#     4  10  22  38  57  90 117 154 208 251 309 371
#     4   9  19  37  60  81 116 159 192 242 305 360
#
# _framework density 24.161929000000001
#
# number of rings (size 3 to 8) (size 9 to 14) (size 15 to 20)
#    0.000    2.333    1.667    0.500    0.000    1.333 
#   12.000    0.000    0.000    0.000    0.000    0.000 
#    0.000    0.000    0.000    0.000    0.000    0.000 
#
# Total GULP energy -66935.582035 kJ/mol
# GULP energy per Si atom -5577.965170 kJ/mol
# Density = 2.410694 g / cm^3
# Si number density = 24.161929 Si / 1000 Ang^3
#
#
#
# Elastic Constant Matrix: (Units=GPa)
#
#
# Indices 1 2 3 4 5 6 
#
# 1 160.0968 44.1694 91.7724 30.7810 -49.0734 16.5120
# 2 44.1694 73.2023 41.3036 26.8644 -13.6371 2.0514
# 3 91.7724 41.3036 157.2458 47.4204 -39.5383 7.2470
# 4 30.7810 26.8644 47.4204 54.2177 -6.0094 6.6281
# 5 -49.0734 -13.6371 -39.5383 -6.0094 55.3750 -1.2117
# 6 16.5120 2.0514 7.2470 6.6281 -1.2117 39.6830
#
#
#
# Elastic Compliance Matrix: (Units=1/GPa)
#
#
# Indices 1 2 3 4 5 6 
#
# 1 0.012152 -0.003486 -0.004212 -0.000264 0.006790 -0.003856
# 2 -0.003486 0.018716 -0.000891 -0.006711 0.000194 0.001772
# 3 -0.004212 -0.000891 0.012318 -0.007609 0.004038 0.000943
# 4 -0.000264 -0.006711 -0.007609 0.028470 -0.004296 -0.003040
# 5 0.006790 0.000194 0.004038 -0.004296 0.026497 -0.002046
# 6 -0.003856 0.001772 0.000943 -0.003040 -0.002046 0.026985
#
#
# Mechanical properties :
#
#
# Convention : Reuss Voigt Hill
#
# Bulk Modulus (GPa) = 38.44806 82.78174 60.61490
# Shear Modulus (GPa) = 33.11587 44.07510 38.59549
#
# Velocity S-wave (km/s) = 3.70615 4.27565 4.00104
# Velocity P-wave (km/s) = 5.85331 7.66228 6.81806
#
# Compressibility (1/GPa) = 0.02600911
#
# Stress axis : x y z
#
# Youngs Moduli (GPa) = 82.28920 53.43019 81.18106
#
# Poissons Ratio (x) = 0.18626 0.34193
# Poissons Ratio (y) = 0.28686 0.07231
# Poissons Ratio (z) = 0.34660 0.04759
#
# Static dielectric constant tensor:
#      x y z
#    x 1.887260 -0.025290 -0.043320 
#    y -0.025290 1.977790 -0.031380 
#    z -0.043320 -0.031380 1.950220 
# 
# From -- ./inp_files/336482.got.cif
#   From: 2010.05.17/outbox.cif.g08.bks.cpg/sg2_169_cif.got.tgz:336482.got - 2010.06.03 11:33:40.
