data_PCOD9098974
_publ_section_title
;
Structure prediction by ZEFSAII (Michael W. Deem and Ramdas Pophale) SiO2 
 PCOD9098974
Probable space group: P -1
;
_chemical_formula_sum "Si O2"
_cell_formula_units_Z 14
_cell_length_a 7.880956
_cell_length_b 19.639228
_cell_length_c 9.089191
_cell_angle_alpha 64.231026
_cell_angle_beta 106.163797
_cell_angle_gamma 149.374061
_cell_volume 631.189055
_symmetry_space_group_name_H-M "P -1"
_symmetry_group_IT_number 2
_symmetry_cell_setting 'triclinic'
loop_
_space_group_symop_operation_xyz
x,y,z
-x,-y,-z
loop_
_atom_site_type_symbol
_atom_site_label
_atom_site_fract_x
_atom_site_fract_y
_atom_site_fract_z
Si Si1 0.870066 0.695707 0.276325
Si Si2 0.838575 0.866616 0.667962
Si Si3 0.091514 0.365488 0.375873
Si Si4 0.411610 0.784471 0.160430
Si Si5 0.690164 0.346860 0.481961
Si Si6 0.200513 0.653520 0.921957
Si Si7 0.170613 0.931043 0.960586
O O1 0.490919 0.526413 0.329025
O O2 0.969924 0.728783 0.442954
O O3 0.119661 0.729781 0.217900
O O4 0.881871 0.780282 0.118827
O O5 0.605865 0.731915 0.625140
O O6 0.566698 0.787136 0.804923
O O7 0.113272 0.922976 0.780270
O O8 0.000000 0.000000 0.500000
O O9 0.884483 0.356167 0.419583
O O10 0.985606 0.342887 0.204103
O O11 0.517646 0.765863 0.329632
O O12 0.727994 0.954015 0.046995
O O13 0.252852 0.687109 0.073809
O O14 0.000000 0.500000 0.500000
O O15 0.000000 0.500000 0.000000
O O16 0.500000 0.000000 0.000000
#
# Coordination Sequence:
#
# PCOD9098974 Si02
#       7
#     2   2   2   2   2   2   2
#     4   9  19  37  61  81 121 165 209 248 318 375
#     4  11  22  41  64  91 125 168 208 264 319 369
#     4   9  19  37  58  86 119 163 204 261 306 374
#     4  10  20  37  58  89 117 162 206 261 306 377
#     4  10  20  37  62  90 125 159 212 262 317 371
#     4  11  23  38  62  90 126 158 213 267 319 370
#     4  10  21  38  62  86 125 167 207 250 316 376
#
# _framework density 22.180357999999998
#
# number of rings (size 3 to 8) (size 9 to 14) (size 15 to 20)
#    0.000    2.000    1.429    2.571    2.000    1.143 
#    2.571    7.857    0.000    0.000    0.000    0.000 
#    0.000    0.000    0.000    0.000    0.000    0.000 
#
# Total GULP energy -77978.972872 kJ/mol
# GULP energy per Si atom -5569.926634 kJ/mol
# Density = 2.212987 g / cm^3
# Si number density = 22.180358 Si / 1000 Ang^3
#
#
#
# Elastic Constant Matrix: (Units=GPa)
#
#
# Indices 1 2 3 4 5 6 
#
# 1 24.0461 19.3249 29.2515 8.7033 1.2690 11.8210
# 2 19.3249 106.6757 52.3122 20.4499 7.1986 -6.8423
# 3 29.2515 52.3122 148.1011 8.7431 17.3872 3.5128
# 4 8.7033 20.4499 8.7431 56.9488 11.6128 5.4947
# 5 1.2690 7.1986 17.3872 11.6128 30.0002 1.8881
# 6 11.8210 -6.8423 3.5128 5.4947 1.8881 29.2237
#
#
#
# Elastic Compliance Matrix: (Units=1/GPa)
#
#
# Indices 1 2 3 4 5 6 
#
# 1 0.084918 -0.010812 -0.013074 -0.005982 0.011092 -0.034901
# 2 -0.010812 0.013970 -0.002737 -0.003696 -0.000425 0.008696
# 3 -0.013074 -0.002737 0.010810 0.002252 -0.006136 0.003321
# 4 -0.005982 -0.003696 0.002252 0.021359 -0.008295 -0.002196
# 5 0.011092 -0.000425 -0.006136 -0.008295 0.040040 -0.004876
# 6 -0.034901 0.008696 0.003321 -0.002196 -0.004876 0.050701
#
#
# Mechanical properties :
#
#
# Convention : Reuss Voigt Hill
#
# Bulk Modulus (GPa) = 17.71462 53.40001 35.55731
# Shear Modulus (GPa) = 17.01480 35.09684 26.05582
#
# Velocity S-wave (km/s) = 2.77268 3.98218 3.43114
# Velocity P-wave (km/s) = 4.27251 6.72839 5.63585
#
# Compressibility (1/GPa) = 0.05645056
#
# Stress axis : x y z
#
# Youngs Moduli (GPa) = 11.77610 71.58088 92.50761
#
# Poissons Ratio (x) = 0.77395 1.20947
# Poissons Ratio (y) = 0.12733 0.25321
# Poissons Ratio (z) = 0.15396 0.19593
#
# Static dielectric constant tensor:
#      x y z
#    x 1.967020 0.038920 0.135830 
#    y 0.038920 1.911520 -0.017960 
#    z 0.135830 -0.017960 1.968700 
# 
# From -- ./inp_files/221983.got.cif
#   From: 2010.05.17/outbox.cif.g08.bks.cpg/sg2_111_cif.got.tgz:221983.got - 2010.06.03 11:33:40.
