data_PCOD9098549
_publ_section_title
;
Structure prediction by ZEFSAII (Michael W. Deem and Ramdas Pophale) SiO2 
 PCOD9098549
Probable space group: P -1
;
_chemical_formula_sum "Si O2"
_cell_formula_units_Z 15
_cell_length_a 9.128503
_cell_length_b 8.188351
_cell_length_c 21.252421
_cell_angle_alpha 41.536115
_cell_angle_beta 49.499266
_cell_angle_gamma 80.478761
_cell_volume 618.037246
_symmetry_space_group_name_H-M "P -1"
_symmetry_group_IT_number 2
_symmetry_cell_setting 'triclinic'
loop_
_space_group_symop_operation_xyz
x,y,z
-x,-y,-z
loop_
_atom_site_type_symbol
_atom_site_label
_atom_site_fract_x
_atom_site_fract_y
_atom_site_fract_z
Si Si1 0.300252 0.739536 0.274388
Si Si2 0.338735 0.993678 0.796680
Si Si3 0.070638 0.549771 0.642780
Si Si4 0.987984 0.074376 0.622530
Si Si5 0.500000 0.500000 0.500000
Si Si6 0.781899 0.229104 0.329961
Si Si7 0.612054 0.777309 0.709710
Si Si8 0.858810 0.711743 0.073112
O O1 0.567556 0.959334 0.170496
O O2 0.156817 0.853570 0.313987
O O3 0.197470 0.675835 0.250966
O O4 0.176717 0.391929 0.437683
O O5 0.456236 0.313589 0.632816
O O6 0.438707 0.835000 0.778319
O O7 0.046731 0.810463 0.935494
O O8 0.257329 0.485071 0.587764
O O9 0.057959 0.534186 0.725733
O O10 0.215607 0.919326 0.472870
O O11 0.789932 0.808255 0.704100
O O12 0.128033 0.973887 0.649381
O O13 0.804593 0.411671 0.210264
O O14 0.500000 0.000000 0.500000
O O15 0.418230 0.436715 0.828644
O O16 0.000000 0.000000 0.000000
#
# Coordination Sequence:
#
# PCOD9098549 Si02
#       8
#     2   2   2   2   1   2   2   2
#     4   9  20  39  67 100 128 170 217 276 322 383
#     4  10  22  40  66  95 129 167 216 269 332 385
#     4  10  21  37  62  97 127 172 219 264 322 379
#     4   9  20  39  67  95 129 165 224 269 327 390
#     4  10  20  36  68  96 124 160 224 270 312 390
#     4  12  26  41  63  99 134 175 225 267 322 390
#     4   9  20  42  62  89 123 172 215 268 327 381
#     4  12  26  42  61  94 138 178 213 267 333 384
#
# _framework density 24.270381
#
# number of rings (size 3 to 8) (size 9 to 14) (size 15 to 20)
#    0.000    1.867    1.333    3.600    5.600    3.200 
#    0.000    8.000    0.000    0.000    0.000    0.000 
#    0.000    0.000    0.000    0.000    0.000    0.000 
#
# Total GULP energy -83649.716103 kJ/mol
# GULP energy per Si atom -5576.647740 kJ/mol
# Density = 2.421514 g / cm^3
# Si number density = 24.270381 Si / 1000 Ang^3
#
#
#
# Elastic Constant Matrix: (Units=GPa)
#
#
# Indices 1 2 3 4 5 6 
#
# 1 91.3579 25.9242 14.5968 -12.2266 -9.1439 -8.1020
# 2 25.9242 72.6864 16.3757 -1.6491 -9.5374 -3.1342
# 3 14.5968 16.3757 44.8748 8.1445 -6.3615 -3.4689
# 4 -12.2266 -1.6491 8.1445 30.6268 7.3374 -5.2491
# 5 -9.1439 -9.5374 -6.3615 7.3374 31.0631 0.5986
# 6 -8.1020 -3.1342 -3.4689 -5.2491 0.5986 55.4465
#
#
#
# Elastic Compliance Matrix: (Units=1/GPa)
#
#
# Indices 1 2 3 4 5 6 
#
# 1 0.013778 -0.003681 -0.004112 0.006655 0.000469 0.002173
# 2 -0.003681 0.016455 -0.004329 -0.000168 0.003120 0.000072
# 3 -0.004112 -0.004329 0.027941 -0.010703 0.005714 -0.000172
# 4 0.006655 -0.000168 -0.010703 0.041310 -0.010125 0.004314
# 5 0.000469 0.003120 0.005714 -0.010125 0.036865 -0.000754
# 6 0.002173 0.000072 -0.000172 0.004314 -0.000754 0.018763
#
#
# Mechanical properties :
#
#
# Convention : Reuss Voigt Hill
#
# Bulk Modulus (GPa) = 29.47293 35.85695 32.66494
# Shear Modulus (GPa) = 26.22397 33.56209 29.89303
#
# Velocity S-wave (km/s) = 3.29065 3.72269 3.51332
# Velocity P-wave (km/s) = 5.15827 5.76922 5.47228
#
# Compressibility (1/GPa) = 0.03392944
#
# Stress axis : x y z
#
# Youngs Moduli (GPa) = 72.57969 60.77293 35.79015
#
# Poissons Ratio (x) = 0.22373 0.14716
# Poissons Ratio (y) = 0.26719 0.15493
# Poissons Ratio (z) = 0.29842 0.26308
#
# Static dielectric constant tensor:
#      x y z
#    x 1.911820 0.041690 -0.070470 
#    y 0.041690 2.031160 -0.044570 
#    z -0.070470 -0.044570 1.874270 
# 
# From -- ./inp_files/587752.got.cif
#   From: 2010.05.17/outbox.cif.g08.bks.cpg/sg2_294_cif.got.tgz:587752.got - 2010.06.03 11:33:40.
