data_PCOD9098097
_publ_section_title
;
Structure prediction by ZEFSAII (Michael W. Deem and Ramdas Pophale) SiO2 
 PCOD9098097
Probable space group: P -1
;
_chemical_formula_sum "Si O2"
_cell_formula_units_Z 14
_cell_length_a 12.047659
_cell_length_b 14.159568
_cell_length_c 6.818312
_cell_angle_alpha 53.667701
_cell_angle_beta 53.790271
_cell_angle_gamma 41.145460
_cell_volume 593.148555
_symmetry_space_group_name_H-M "P -1"
_symmetry_group_IT_number 2
_symmetry_cell_setting 'triclinic'
loop_
_space_group_symop_operation_xyz
x,y,z
-x,-y,-z
loop_
_atom_site_type_symbol
_atom_site_label
_atom_site_fract_x
_atom_site_fract_y
_atom_site_fract_z
Si Si1 0.051980 0.642041 0.275404
Si Si2 0.797245 0.195775 0.018842
Si Si3 0.799070 0.801352 0.905600
Si Si4 0.419901 0.345734 0.276854
Si Si5 0.171876 0.402797 0.161323
Si Si6 0.465493 0.060595 0.680770
Si Si7 0.997278 0.918050 0.416749
O O1 0.073146 0.768924 0.091877
O O2 0.240469 0.500248 0.345258
O O3 0.059653 0.575916 0.134836
O O4 0.904158 0.659446 0.539283
O O5 0.826182 0.171502 0.785652
O O6 0.596439 0.326050 0.118953
O O7 0.857048 0.046979 0.251268
O O8 0.829490 0.651866 0.983183
O O9 0.944920 0.815741 0.662907
O O10 0.625045 0.926115 0.805154
O O11 0.725224 0.869650 0.115262
O O12 0.363358 0.336695 0.125172
O O13 0.460379 0.204052 0.519134
O O14 0.500000 0.000000 0.500000
O O15 0.000000 0.000000 0.500000
#
# Coordination Sequence:
#
# PCOD9098097 Si02
#       7
#     2   2   2   2   2   2   2
#     4   9  19  38  65  91 125 167 209 250 306 372
#     4  11  22  41  67  86 132 169 201 250 318 365
#     4  11  22  39  61  90 126 157 210 259 303 368
#     4  10  20  36  63  94 121 164 207 250 312 362
#     4   9  19  37  63  92 122 160 210 255 301 362
#     4  11  22  36  63  92 119 159 202 261 314 359
#     4  11  26  39  60  94 125 167 208 251 310 378
#
# _framework density 23.602855000000002
#
# number of rings (size 3 to 8) (size 9 to 14) (size 15 to 20)
#    0.857    0.857    4.286    0.429    2.000    1.143 
#    0.000    2.143    0.000    2.571    0.000    0.000 
#    0.000    0.000    0.000    0.000    0.000    0.000 
#
# Total GULP energy -78154.584134 kJ/mol
# GULP energy per Si atom -5582.470295 kJ/mol
# Density = 2.354913 g / cm^3
# Si number density = 23.602855 Si / 1000 Ang^3
#
#
#
# Elastic Constant Matrix: (Units=GPa)
#
#
# Indices 1 2 3 4 5 6 
#
# 1 70.0998 -5.2560 14.9238 10.7989 -3.7795 11.8286
# 2 -5.2560 79.2338 14.6780 6.6047 3.9918 9.3182
# 3 14.9238 14.6780 89.6549 19.9293 -4.6839 11.0707
# 4 10.7989 6.6047 19.9293 29.2435 11.7652 -3.7333
# 5 -3.7795 3.9918 -4.6839 11.7652 31.7806 6.9092
# 6 11.8286 9.3182 11.0707 -3.7333 6.9092 41.6814
#
#
#
# Elastic Compliance Matrix: (Units=1/GPa)
#
#
# Indices 1 2 3 4 5 6 
#
# 1 0.018028 0.002640 0.000720 -0.012115 0.008218 -0.008345
# 2 0.002640 0.013798 -0.001269 -0.004038 0.000755 -0.003983
# 3 0.000720 -0.001269 0.016269 -0.016118 0.010214 -0.007378
# 4 -0.012115 -0.004038 -0.016118 0.065996 -0.032055 0.019846
# 5 0.008218 0.000755 0.010214 -0.032055 0.049253 -0.016249
# 6 -0.008345 -0.003983 -0.007378 0.019846 -0.016249 0.033681
#
#
# Mechanical properties :
#
#
# Convention : Reuss Voigt Hill
#
# Bulk Modulus (GPa) = 19.12949 31.96444 25.54697
# Shear Modulus (GPa) = 23.77899 34.85061 29.31480
#
# Velocity S-wave (km/s) = 3.17750 3.84675 3.52803
# Velocity P-wave (km/s) = 4.64589 5.77079 5.23862
#
# Compressibility (1/GPa) = 0.05227531
#
# Stress axis : x y z
#
# Youngs Moduli (GPa) = 55.47074 72.47312 61.46526
#
# Poissons Ratio (x) = -0.19131 -0.04424
# Poissons Ratio (y) = -0.14643 0.07803
# Poissons Ratio (z) = -0.03993 0.09200
#
# Static dielectric constant tensor:
#      x y z
#    x 1.901580 -0.027410 0.063770 
#    y -0.027410 1.970740 -0.027080 
#    z 0.063770 -0.027080 1.923380 
# 
# From -- ./inp_files/75396.got.cif
#   From: 2010.05.17/outbox.cif.g08.bks.cpg/sg2_38_cif.got.tgz:75396.got - 2010.06.03 11:33:40.
