data_PCOD9098114
_publ_section_title
;
Structure prediction by ZEFSAII (Michael W. Deem and Ramdas Pophale) SiO2 
 PCOD9098114
Probable space group: P -1
;
_chemical_formula_sum "Si O2"
_cell_formula_units_Z 16
_cell_length_a 15.135200
_cell_length_b 9.235608
_cell_length_c 11.653459
_cell_angle_alpha 108.574326
_cell_angle_beta 29.632505
_cell_angle_gamma 100.104934
_cell_volume 745.367876
_symmetry_space_group_name_H-M "P -1"
_symmetry_group_IT_number 2
_symmetry_cell_setting 'triclinic'
loop_
_space_group_symop_operation_xyz
x,y,z
-x,-y,-z
loop_
_atom_site_type_symbol
_atom_site_label
_atom_site_fract_x
_atom_site_fract_y
_atom_site_fract_z
Si Si1 0.541553 0.628227 0.850563
Si Si2 0.922968 0.676444 0.889918
Si Si3 0.955324 0.604722 0.462701
Si Si4 0.324122 0.682550 0.509935
Si Si5 0.417853 0.908278 0.885166
Si Si6 0.034769 0.110961 0.329490
Si Si7 0.457217 0.169331 0.530088
Si Si8 0.354661 0.843732 0.287707
O O1 0.745701 0.619584 0.665132
O O2 0.552235 0.474414 0.723767
O O3 0.472604 0.774224 0.882008
O O4 0.406329 0.674795 0.123507
O O5 0.927296 0.788525 0.801005
O O6 0.926124 0.502113 0.795228
O O7 0.112815 0.670099 0.741736
O O8 0.745882 0.745374 0.181152
O O9 0.983826 0.772921 0.511226
O O10 0.000000 0.500000 0.500000
O O11 0.402428 0.731985 0.551597
O O12 0.339526 0.814060 0.431681
O O13 0.515953 0.851691 0.640454
O O14 0.491065 0.060006 0.881084
O O15 0.203168 0.967728 0.120259
O O16 0.840881 0.068072 0.515681
O O17 0.500000 0.000000 0.500000
#
# Coordination Sequence:
#
# PCOD9098114 Si02
#       8
#     2   2   2   2   2   2   2   2
#     4  11  24  42  64  95 138 162 205 274 322 372
#     4   9  20  38  61  97 120 159 216 273 299 361
#     4   9  19  37  63  90 127 159 203 262 314 370
#     4  10  23  41  65  96 119 166 224 261 307 373
#     4  12  25  43  59  97 138 170 205 262 323 375
#     4  10  20  36  63  95 128 164 208 259 320 373
#     4  12  23  40  68  89 127 175 216 253 311 385
#     4  11  22  39  68  94 126 167 212 262 320 381
#
# _framework density 21.465910000000001
#
# number of rings (size 3 to 8) (size 9 to 14) (size 15 to 20)
#    0.000    1.500    3.750    1.500    3.500    2.500 
#    0.000    2.500    0.000    0.000    0.000    0.000 
#    0.000    0.000    0.000    0.000    0.000    0.000 
#
# Total GULP energy -89465.143638 kJ/mol
# GULP energy per Si atom -5591.571477 kJ/mol
# Density = 2.141705 g / cm^3
# Si number density = 21.465910 Si / 1000 Ang^3
#
#
#
# Elastic Constant Matrix: (Units=GPa)
#
#
# Indices 1 2 3 4 5 6 
#
# 1 82.9789 16.7326 37.3416 8.7534 0.0350 11.1673
# 2 16.7326 24.5172 10.8811 12.8400 -1.2893 8.5143
# 3 37.3416 10.8811 133.9794 27.2482 -6.0782 2.1937
# 4 8.7534 12.8400 27.2482 22.1782 0.2744 1.1362
# 5 0.0350 -1.2893 -6.0782 0.2744 41.0389 6.9006
# 6 11.1673 8.5143 2.1937 1.1362 6.9006 27.3841
#
#
#
# Elastic Compliance Matrix: (Units=1/GPa)
#
#
# Indices 1 2 3 4 5 6 
#
# 1 0.016227 -0.011225 -0.004858 0.006216 -0.000651 -0.002832
# 2 -0.011225 0.078194 0.007401 -0.048992 0.007274 -0.020128
# 3 -0.004858 0.007401 0.011750 -0.016774 0.002281 -0.001140
# 4 0.006216 -0.048992 -0.016774 0.091079 -0.006645 0.011937
# 5 -0.000651 0.007274 0.002281 -0.006645 0.026418 -0.008560
# 6 -0.002832 -0.020128 -0.001140 0.011937 -0.008560 0.045684
#
#
# Mechanical properties :
#
#
# Convention : Reuss Voigt Hill
#
# Bulk Modulus (GPa) = 11.26025 41.26512 26.26268
# Shear Modulus (GPa) = 15.80691 29.88825 22.84758
#
# Velocity S-wave (km/s) = 2.71656 3.73548 3.26600
# Velocity P-wave (km/s) = 3.88544 6.15389 5.14621
#
# Compressibility (1/GPa) = 0.08880801
#
# Stress axis : x y z
#
# Youngs Moduli (GPa) = 61.62698 12.78869 85.10397
#
# Poissons Ratio (x) = 0.14355 0.41346
# Poissons Ratio (y) = 0.69173 -0.62988
# Poissons Ratio (z) = 0.29941 -0.09465
#
# Static dielectric constant tensor:
#      x y z
#    x 1.758520 0.000530 0.002040 
#    y 0.000530 1.807230 0.004320 
#    z 0.002040 0.004320 1.756650 
# 
# From -- ./inp_files/273468.got.cif
#   From: 2010.05.17/outbox.cif.g08.bks.cpg/sg2_137_cif.got.tgz:273468.got - 2010.06.03 11:33:40.
