data_PCOD9098294
_publ_section_title
;
Structure prediction by ZEFSAII (Michael W. Deem and Ramdas Pophale) SiO2 
 PCOD9098294
Probable space group: P -1
;
_chemical_formula_sum "Si O2"
_cell_formula_units_Z 16
_cell_length_a 14.092504
_cell_length_b 7.264203
_cell_length_c 7.564359
_cell_angle_alpha 109.854291
_cell_angle_beta 69.563464
_cell_angle_gamma 119.692170
_cell_volume 616.999959
_symmetry_space_group_name_H-M "P -1"
_symmetry_group_IT_number 2
_symmetry_cell_setting 'triclinic'
loop_
_space_group_symop_operation_xyz
x,y,z
-x,-y,-z
loop_
_atom_site_type_symbol
_atom_site_label
_atom_site_fract_x
_atom_site_fract_y
_atom_site_fract_z
Si Si1 0.875276 0.951152 0.795112
Si Si2 0.224778 0.224077 0.664620
Si Si3 0.588037 0.170777 0.724977
Si Si4 0.051618 0.323710 0.586450
Si Si5 0.366485 0.213307 0.254340
Si Si6 0.615823 0.464379 0.101240
Si Si7 0.115696 0.805078 0.792235
Si Si8 0.647365 0.158053 0.276063
O O1 0.935749 0.138952 0.671607
O O2 0.910639 0.759923 0.645658
O O3 0.742053 0.863271 0.824147
O O4 0.923232 0.078083 0.989446
O O5 0.143077 0.318753 0.668982
O O6 0.325745 0.284742 0.481932
O O7 0.286589 0.308228 0.837157
O O8 0.155819 0.969804 0.656695
O O9 0.629433 0.197605 0.506552
O O10 0.612556 0.992300 0.760620
O O11 0.452942 0.075796 0.776381
O O12 0.640667 0.384529 0.873898
O O13 0.052072 0.559263 0.682572
O O14 0.483639 0.401512 0.175326
O O15 0.629346 0.316828 0.202287
O O16 0.228162 0.812618 0.809641
#
# Coordination Sequence:
#
# PCOD9098294 Si02
#       8
#     2   2   2   2   2   2   2   2
#     4  10  23  44  71  96 127 180 231 274 351 412
#     4  11  24  40  65  98 133 175 224 275 344 408
#     4  10  20  36  64  95 130 180 229 272 338 412
#     4  10  24  47  67  97 136 171 227 293 337 403
#     4  10  20  40  62  92 133 174 221 278 335 406
#     4  11  21  39  64  97 136 180 219 278 342 403
#     4  12  22  43  68  98 132 175 224 283 343 404
#     4  10  20  37  64  93 138 174 220 286 336 400
#
# _framework density 25.931930000000001
#
# number of rings (size 3 to 8) (size 9 to 14) (size 15 to 20)
#    0.000    1.500    2.500    3.750    0.000    1.500 
#    0.000    6.875    0.000    0.000    0.000    0.000 
#    0.000    0.000    0.000    0.000    0.000    0.000 
#
# Total GULP energy -89560.268169 kJ/mol
# GULP energy per Si atom -5597.516761 kJ/mol
# Density = 2.587291 g / cm^3
# Si number density = 25.931930 Si / 1000 Ang^3
#
#
#
# Elastic Constant Matrix: (Units=GPa)
#
#
# Indices 1 2 3 4 5 6 
#
# 1 123.9221 46.2090 29.1036 12.9795 -7.3639 -2.2316
# 2 46.2090 124.2036 44.0113 22.5101 13.1068 -9.0697
# 3 29.1036 44.0113 129.6812 30.4412 26.1036 3.3886
# 4 12.9795 22.5101 30.4412 39.0965 16.0890 8.0107
# 5 -7.3639 13.1068 26.1036 16.0890 11.5317 -5.5926
# 6 -2.2316 -9.0697 3.3886 8.0107 -5.5926 34.1426
#
#
#
# Elastic Compliance Matrix: (Units=1/GPa)
#
#
# Indices 1 2 3 4 5 6 
#
# 1 -0.005753 -0.001250 0.013981 0.040728 -0.104692 -0.028800
# 2 -0.001250 0.010836 -0.003893 -0.009495 0.012569 0.007470
# 3 0.013981 -0.003893 -0.004449 -0.046785 0.102304 0.028056
# 4 0.040728 -0.009495 -0.046785 -0.077116 0.283946 0.069387
# 5 -0.104692 0.012569 0.102304 0.283946 -0.718144 -0.197911
# 6 -0.028800 0.007470 0.028056 0.069387 -0.197911 -0.022092
#
#
# Mechanical properties :
#
#
# Convention : Reuss Voigt Hill
#
# Bulk Modulus (GPa) = 54.61766 68.49498 61.55632
# Shear Modulus (GPa) = -6.03654 34.18636 14.07491
#
# Velocity S-wave (km/s) = -1.52738 3.63479 2.33226
# Velocity P-wave (km/s) = 4.24230 6.63976 5.57151
#
# Compressibility (1/GPa) = 0.01830910
#
# Stress axis : x y z
#
# Youngs Moduli (GPa) = -173.81147 92.28466 -224.76688
#
# Poissons Ratio (x) = 0.11539 3.14253
# Poissons Ratio (y) = -0.21732 -0.87506
# Poissons Ratio (z) = 2.43011 0.35928
#
# Static dielectric constant tensor:
#      x y z
#    x 2.025570 0.003960 -0.009040 
#    y 0.003960 2.036030 0.065380 
#    z -0.009040 0.065380 2.058840 
# 
# From -- ./inp_files/326585.got.cif
#   From: 2010.05.17/outbox.cif.g08.bks.cpg/sg2_164_cif.got.tgz:326585.got - 2010.06.03 11:33:40.
