data_PCOD9098582
_publ_section_title
;
Structure prediction by ZEFSAII (Michael W. Deem and Ramdas Pophale) SiO2 
 PCOD9098582
Probable space group: P -1
;
_chemical_formula_sum "Si O2"
_cell_formula_units_Z 12
_cell_length_a 14.604892
_cell_length_b 8.869055
_cell_length_c 9.466230
_cell_angle_alpha 106.049378
_cell_angle_beta 110.462307
_cell_angle_gamma 29.222291
_cell_volume 559.746667
_symmetry_space_group_name_H-M "P -1"
_symmetry_group_IT_number 2
_symmetry_cell_setting 'triclinic'
loop_
_space_group_symop_operation_xyz
x,y,z
-x,-y,-z
loop_
_atom_site_type_symbol
_atom_site_label
_atom_site_fract_x
_atom_site_fract_y
_atom_site_fract_z
Si Si1 0.292618 0.716208 0.091387
Si Si2 0.530047 0.621350 0.628154
Si Si3 0.111034 0.703834 0.404958
Si Si4 0.050071 0.251891 0.928938
Si Si5 0.807626 0.666699 0.415707
Si Si6 0.878978 0.344374 0.117272
O O1 0.460760 0.439360 0.216555
O O2 0.248337 0.633991 0.941181
O O3 0.105065 0.990201 0.166360
O O4 0.255790 0.919577 0.026403
O O5 0.500000 0.500000 0.500000
O O6 0.720841 0.445744 0.631529
O O7 0.362255 0.973819 0.589612
O O8 0.976936 0.782555 0.249569
O O9 0.199493 0.458998 0.502194
O O10 0.000000 0.000000 0.500000
O O11 0.888316 0.387183 0.971866
O O12 0.000000 0.500000 0.000000
O O13 0.817298 0.562766 0.245727
O O14 0.000000 0.500000 0.500000
#
# Coordination Sequence:
#
# PCOD9098582 Si02
#       6
#     2   2   2   2   2   2
#     4   9  18  39  61  89 123 170 215 257 335 378
#     4  12  25  42  65  97 138 176 222 283 326 397
#     4  12  24  44  69 101 134 175 226 276 335 402
#     4  10  20  36  70  96 127 170 219 273 329 400
#     4  12  25  41  68  99 133 178 224 271 341 395
#     4   9  18  39  65  88 126 173 215 260 336 396
#
# _framework density 21.438268000000001
#
# number of rings (size 3 to 8) (size 9 to 14) (size 15 to 20)
#    1.000    0.333    1.667    5.500    2.333    0.667 
#    0.000    0.000    0.000    4.000    0.000    0.000 
#    0.000    0.000    0.000    0.000    0.000    0.000 
#
# Total GULP energy -66897.726161 kJ/mol
# GULP energy per Si atom -5574.810513 kJ/mol
# Density = 2.138947 g / cm^3
# Si number density = 21.438268 Si / 1000 Ang^3
#
#
#
# Elastic Constant Matrix: (Units=GPa)
#
#
# Indices 1 2 3 4 5 6 
#
# 1 44.2199 37.3667 4.1853 0.2064 1.6119 13.1424
# 2 37.3667 172.6849 70.6507 -2.6762 2.9985 37.3594
# 3 4.1853 70.6507 91.5299 -1.2015 -12.4141 11.1553
# 4 0.2064 -2.6762 -1.2015 37.8576 7.2089 3.9301
# 5 1.6119 2.9985 -12.4141 7.2089 20.4293 0.9619
# 6 13.1424 37.3594 11.1553 3.9301 0.9619 36.3483
#
#
#
# Elastic Compliance Matrix: (Units=1/GPa)
#
#
# Indices 1 2 3 4 5 6 
#
# 1 0.029960 -0.007849 0.005579 -0.000569 0.002590 -0.004484
# 2 -0.007849 0.013650 -0.010274 0.003117 -0.008344 -0.008155
# 3 0.005579 -0.010274 0.020226 -0.003083 0.014339 0.002289
# 4 -0.000569 0.003117 -0.003083 0.029417 -0.012436 -0.004904
# 5 0.002590 -0.008344 0.014339 -0.012436 0.062934 0.002918
# 6 -0.004484 -0.008155 0.002289 -0.004904 0.002918 0.037265
#
#
# Mechanical properties :
#
#
# Convention : Reuss Voigt Hill
#
# Bulk Modulus (GPa) = 25.80812 59.20446 42.50629
# Shear Modulus (GPa) = 21.60221 32.00916 26.80569
#
# Velocity S-wave (km/s) = 3.17779 3.86824 3.53989
# Velocity P-wave (km/s) = 5.05262 6.90125 6.04798
#
# Compressibility (1/GPa) = 0.03874749
#
# Stress axis : x y z
#
# Youngs Moduli (GPa) = 33.37798 73.25763 49.44071
#
# Poissons Ratio (x) = 0.57501 -0.27583
# Poissons Ratio (y) = 0.26199 0.50798
# Poissons Ratio (z) = -0.18622 0.75268
#
# Static dielectric constant tensor:
#      x y z
#    x 1.837610 -0.008810 -0.053500 
#    y -0.008810 1.849290 -0.030710 
#    z -0.053500 -0.030710 1.833010 
# 
# From -- ./inp_files/329327.got.cif
#   From: 2010.05.17/outbox.cif.g08.bks.cpg/sg2_165_cif.got.tgz:329327.got - 2010.06.03 11:33:40.
