data_PCOD9098673
_publ_section_title
;
Structure prediction by ZEFSAII (Michael W. Deem and Ramdas Pophale) SiO2 
 PCOD9098673
Probable space group: P -1
;
_chemical_formula_sum "Si O2"
_cell_formula_units_Z 16
_cell_length_a 15.655926
_cell_length_b 7.454357
_cell_length_c 10.213777
_cell_angle_alpha 135.537848
_cell_angle_beta 89.715728
_cell_angle_gamma 63.841196
_cell_volume 645.341305
_symmetry_space_group_name_H-M "P -1"
_symmetry_group_IT_number 2
_symmetry_cell_setting 'triclinic'
loop_
_space_group_symop_operation_xyz
x,y,z
-x,-y,-z
loop_
_atom_site_type_symbol
_atom_site_label
_atom_site_fract_x
_atom_site_fract_y
_atom_site_fract_z
Si Si1 0.834423 0.757150 0.460918
Si Si2 0.293710 0.587596 0.374810
Si Si3 0.602655 0.419680 0.376926
Si Si4 0.397145 0.016136 0.353595
Si Si5 0.142793 0.460711 0.213484
Si Si6 0.480187 0.710341 0.910306
Si Si7 0.948994 0.969195 0.676233
Si Si8 0.977195 0.738019 0.001010
O O1 0.924834 0.458935 0.209715
O O2 0.778868 0.079622 0.536760
O O3 0.733183 0.775179 0.514612
O O4 0.882854 0.828885 0.621522
O O5 0.306988 0.687346 0.569539
O O6 0.231936 0.435949 0.287823
O O7 0.415401 0.340227 0.180041
O O8 0.500000 0.500000 0.500000
O O9 0.612733 0.195345 0.145072
O O10 0.574705 0.748294 0.488107
O O11 0.460807 0.670306 0.247280
O O12 0.434203 0.914352 0.149825
O O13 0.133786 0.653373 0.181928
O O14 0.129370 0.189204 0.030852
O O15 0.030407 0.731691 0.435573
O O16 0.019221 0.983861 0.793283
O O17 0.000000 0.500000 0.000000
#
# Coordination Sequence:
#
# PCOD9098673 Si02
#       8
#     2   2   2   2   2   2   2   2
#     4   9  18  31  50  77 106 134 170 217 259 302
#     4   9  17  32  50  75 107 134 167 215 263 307
#     4  10  21  36  54  77 106 138 175 220 265 311
#     4  10  20  37  56  76 104 139 178 217 259 312
#     4   8  14  26  43  69 103 131 160 207 255 297
#     4   9  20  37  56  75 101 139 179 217 260 308
#     4   8  14  26  44  70 102 130 164 208 251 297
#     4   9  15  26  48  77 104 132 169 213 259 300
#
# _framework density 24.793081999999998
#
# number of rings (size 3 to 8) (size 9 to 14) (size 15 to 20)
#    0.000    3.000    0.000    2.625    0.000    3.000 
#    0.000   22.500    0.000    3.000    0.000    7.875 
#    0.000    0.000    0.000    0.000    0.000    0.000 
#
# Total GULP energy -89346.048710 kJ/mol
# GULP energy per Si atom -5584.128044 kJ/mol
# Density = 2.473665 g / cm^3
# Si number density = 24.793082 Si / 1000 Ang^3
#
#
#
# Elastic Constant Matrix: (Units=GPa)
#
#
# Indices 1 2 3 4 5 6 
#
# 1 155.8352 9.4791 43.4365 -27.0284 29.2675 -2.4332
# 2 9.4791 57.6302 -20.7535 -9.0681 -2.9810 -5.6906
# 3 43.4365 -20.7535 99.1861 -25.8622 15.5066 1.7703
# 4 -27.0284 -9.0681 -25.8622 28.0386 -8.2321 11.8454
# 5 29.2675 -2.9810 15.5066 -8.2321 44.8999 -13.2189
# 6 -2.4332 -5.6906 1.7703 11.8454 -13.2189 42.2399
#
#
#
# Elastic Compliance Matrix: (Units=1/GPa)
#
#
# Indices 1 2 3 4 5 6 
#
# 1 0.009022 -0.001734 -0.001851 0.006185 -0.005096 -0.002966
# 2 -0.001734 0.023530 0.009506 0.015762 0.001966 -0.001133
# 3 -0.001851 0.009506 0.018729 0.020377 -0.002712 -0.006174
# 4 0.006185 0.015762 0.020377 0.073108 -0.002397 -0.019626
# 5 -0.005096 0.001966 -0.002712 -0.002397 0.029128 0.009873
# 6 -0.002966 -0.001133 -0.006174 -0.019626 0.009873 0.032203
#
#
# Mechanical properties :
#
#
# Convention : Reuss Voigt Hill
#
# Bulk Modulus (GPa) = 15.84235 41.88618 28.86426
# Shear Modulus (GPa) = 25.65151 41.73498 33.69324
#
# Velocity S-wave (km/s) = 3.22005 4.10729 3.69043
# Velocity P-wave (km/s) = 4.49762 6.27886 5.46135
#
# Compressibility (1/GPa) = 0.06312197
#
# Stress axis : x y z
#
# Youngs Moduli (GPa) = 110.83927 42.49838 53.39273
#
# Poissons Ratio (x) = 0.07369 0.09886
# Poissons Ratio (y) = 0.19218 -0.50753
# Poissons Ratio (z) = 0.20522 -0.40397
#
# Static dielectric constant tensor:
#      x y z
#    x 1.971880 -0.038630 0.010830 
#    y -0.038630 2.057620 0.047720 
#    z 0.010830 0.047720 1.928490 
# 
# From -- ./inp_files/448348.got.cif
#   From: 2010.05.17/outbox.cif.g08.bks.cpg/sg2_225_cif.got.tgz:448348.got - 2010.06.03 11:33:40.
