data_PCOD9098428
_publ_section_title
;
Structure prediction by ZEFSAII (Michael W. Deem and Ramdas Pophale) SiO2 
 PCOD9098428
Probable space group: P -1
;
_chemical_formula_sum "Si O2"
_cell_formula_units_Z 16
_cell_length_a 15.097447
_cell_length_b 9.128936
_cell_length_c 12.989261
_cell_angle_alpha 93.384968
_cell_angle_beta 153.394255
_cell_angle_gamma 102.113240
_cell_volume 647.684301
_symmetry_space_group_name_H-M "P -1"
_symmetry_group_IT_number 2
_symmetry_cell_setting 'triclinic'
loop_
_space_group_symop_operation_xyz
x,y,z
-x,-y,-z
loop_
_atom_site_type_symbol
_atom_site_label
_atom_site_fract_x
_atom_site_fract_y
_atom_site_fract_z
Si Si1 0.060889 0.185617 0.693985
Si Si2 0.200983 0.153206 0.138582
Si Si3 0.000464 0.390728 0.897606
Si Si4 0.187537 0.629722 0.610688
Si Si5 0.427092 0.493100 0.723612
Si Si6 0.508410 0.962080 0.630640
Si Si7 0.525390 0.298179 0.669059
Si Si8 0.326595 0.206346 0.765931
O O1 0.156328 0.201921 0.677013
O O2 0.917560 0.274307 0.549342
O O3 0.317805 0.312700 0.024825
O O4 0.861980 0.974542 0.502165
O O5 0.111171 0.275356 0.022864
O O6 0.260821 0.045586 0.118332
O O7 0.445547 0.275936 0.466265
O O8 0.000000 0.000000 0.000000
O O9 0.186964 0.546133 0.019085
O O10 0.000000 0.500000 0.000000
O O11 0.720409 0.232432 0.577611
O O12 0.236788 0.523512 0.574236
O O13 0.000000 0.500000 0.500000
O O14 0.451463 0.777351 0.944124
O O15 0.375491 0.363319 0.570007
O O16 0.456933 0.387188 0.841658
O O17 0.500000 0.000000 0.500000
O O18 0.492939 0.118339 0.668348
#
# Coordination Sequence:
#
# PCOD9098428 Si02
#       8
#     2   2   2   2   2   2   2   2
#     4  10  20  38  62  90 114 159 205 235 285 358
#     4  11  20  40  65  87 114 156 210 245 290 365
#     4  12  21  39  66  87 112 154 208 251 291 360
#     4  11  18  38  65  89 114 161 205 235 282 362
#     4  11  23  40  55  89 131 151 191 252 309 342
#     4  10  20  39  61  87 112 151 201 243 292 362
#     4  11  24  40  59  89 124 157 194 259 307 347
#     4  10  20  36  66  84 117 160 198 243 285 348
#
# _framework density 24.703393999999999
#
# number of rings (size 3 to 8) (size 9 to 14) (size 15 to 20)
#    0.000    1.250    7.500    1.500    0.000    1.000 
#    4.500    1.250    0.000    0.000    0.000    0.000 
#    0.000    0.000    0.000    0.000    0.000    0.000 
#
# Total GULP energy -89397.998187 kJ/mol
# GULP energy per Si atom -5587.374887 kJ/mol
# Density = 2.464717 g / cm^3
# Si number density = 24.703394 Si / 1000 Ang^3
#
#
#
# Elastic Constant Matrix: (Units=GPa)
#
#
# Indices 1 2 3 4 5 6 
#
# 1 71.6590 28.2767 18.3982 0.2384 24.7768 -22.9365
# 2 28.2767 120.8456 41.0739 4.8994 19.7126 -32.6272
# 3 18.3982 41.0739 113.4464 5.5818 30.4230 -10.9028
# 4 0.2384 4.8994 5.5818 53.6122 -1.1734 11.6689
# 5 24.7768 19.7126 30.4230 -1.1734 30.1312 -8.6930
# 6 -22.9365 -32.6272 -10.9028 11.6689 -8.6930 43.4545
#
#
#
# Elastic Compliance Matrix: (Units=1/GPa)
#
#
# Indices 1 2 3 4 5 6 
#
# 1 0.022885 -0.000562 0.002439 -0.002738 -0.018325 0.009338
# 2 -0.000562 0.012077 -0.002702 -0.002686 -0.002412 0.008332
# 3 0.002439 -0.002702 0.013101 -0.001477 -0.013451 0.000252
# 4 -0.002738 -0.002686 -0.001477 0.021046 0.003803 -0.008723
# 5 -0.018325 -0.002412 -0.013451 0.003803 0.062595 -0.003357
# 6 0.009338 0.008332 0.000252 -0.008723 -0.003357 0.035932
#
#
# Mechanical properties :
#
#
# Convention : Reuss Voigt Hill
#
# Bulk Modulus (GPa) = 21.54593 53.49427 37.52010
# Shear Modulus (GPa) = 27.06260 39.98638 33.52449
#
# Velocity S-wave (km/s) = 3.31343 4.02762 3.68785
# Velocity P-wave (km/s) = 4.83520 6.58260 5.77537
#
# Compressibility (1/GPa) = 0.04641247
#
# Stress axis : x y z
#
# Youngs Moduli (GPa) = 43.69697 82.80454 76.32762
#
# Poissons Ratio (x) = 0.04655 -0.18613
# Poissons Ratio (y) = 0.02457 0.20621
# Poissons Ratio (z) = -0.10656 0.22371
#
# Static dielectric constant tensor:
#      x y z
#    x 2.056060 -0.057610 -0.047730 
#    y -0.057610 1.944070 0.015410 
#    z -0.047730 0.015410 2.013130 
# 
# From -- ./inp_files/575556.got.cif
#   From: 2010.05.17/outbox.cif.g08.bks.cpg/sg2_288_cif.got.tgz:575556.got - 2010.06.03 11:33:40.
