data_PCOD9098119
_publ_section_title
;
Structure prediction by ZEFSAII (Michael W. Deem and Ramdas Pophale) SiO2 
 PCOD9098119
Probable space group: P -1
;
_chemical_formula_sum "Si O2"
_cell_formula_units_Z 16
_cell_length_a 9.203553
_cell_length_b 11.811603
_cell_length_c 9.449837
_cell_angle_alpha 90.983996
_cell_angle_beta 95.306127
_cell_angle_gamma 49.041671
_cell_volume 771.172892
_symmetry_space_group_name_H-M "P -1"
_symmetry_group_IT_number 2
_symmetry_cell_setting 'triclinic'
loop_
_space_group_symop_operation_xyz
x,y,z
-x,-y,-z
loop_
_atom_site_type_symbol
_atom_site_label
_atom_site_fract_x
_atom_site_fract_y
_atom_site_fract_z
Si Si1 0.090934 0.147107 0.758866
Si Si2 0.063590 0.520559 0.655591
Si Si3 0.914817 0.170164 0.005830
Si Si4 0.298820 0.305503 0.180999
Si Si5 0.691864 0.201442 0.233559
Si Si6 0.726180 0.940234 0.786788
Si Si7 0.008002 0.806707 0.575866
Si Si8 0.663581 0.753693 0.147490
O O1 0.212514 0.195474 0.812871
O O2 0.909503 0.222909 0.850126
O O3 0.025937 0.184401 0.592500
O O4 0.225539 0.967560 0.785207
O O5 0.062503 0.655330 0.636958
O O6 0.263201 0.372114 0.731866
O O7 0.000000 0.500000 0.500000
O O8 0.904652 0.566898 0.760446
O O9 0.732616 0.251368 0.094047
O O10 0.083333 0.153915 0.100043
O O11 0.000000 0.000000 0.000000
O O12 0.467387 0.302562 0.247853
O O13 0.345881 0.151962 0.228056
O O14 0.300344 0.305390 0.010642
O O15 0.826671 0.190104 0.363412
O O16 0.808154 0.939347 0.643014
O O17 0.559738 0.101076 0.842902
#
# Coordination Sequence:
#
# PCOD9098119 Si02
#       8
#     2   2   2   2   2   2   2   2
#     4  11  19  34  64  95 123 159 204 252 311 361
#     4  11  25  44  62  89 127 168 206 252 305 372
#     4   9  18  33  57  93 123 152 192 256 309 352
#     4  11  22  40  66  94 121 160 210 257 307 362
#     4  10  21  39  63  92 126 158 203 259 310 360
#     4  10  20  36  63  96 122 154 205 261 302 359
#     4  10  23  41  63  89 130 167 203 247 312 370
#     4  12  21  37  66  96 123 157 211 254 309 359
#
# _framework density 20.747617999999999
#
# number of rings (size 3 to 8) (size 9 to 14) (size 15 to 20)
#    0.000    1.500    3.750    2.625    0.000    1.500 
#    0.000    2.500    8.250    0.000    0.000    0.000 
#    0.000    0.000    0.000    0.000    0.000    0.000 
#
# Total GULP energy -89379.087394 kJ/mol
# GULP energy per Si atom -5586.192962 kJ/mol
# Density = 2.070040 g / cm^3
# Si number density = 20.747618 Si / 1000 Ang^3
#
#
#
# Elastic Constant Matrix: (Units=GPa)
#
#
# Indices 1 2 3 4 5 6 
#
# 1 102.8958 2.7468 33.8404 2.4442 0.8048 0.5738
# 2 2.7468 42.7197 9.3012 2.5082 -3.9786 -1.1538
# 3 33.8404 9.3012 129.2398 -1.4289 -6.3791 -5.3756
# 4 2.4442 2.5082 -1.4289 20.4989 9.3152 1.3950
# 5 0.8048 -3.9786 -6.3791 9.3152 23.2132 2.8318
# 6 0.5738 -1.1538 -5.3756 1.3950 2.8318 17.1561
#
#
#
# Elastic Compliance Matrix: (Units=1/GPa)
#
#
# Indices 1 2 3 4 5 6 
#
# 1 0.010707 -0.000079 -0.002884 -0.001124 -0.000595 -0.001078
# 2 -0.000079 0.024676 -0.001491 -0.005943 0.006126 0.000667
# 3 -0.002884 -0.001491 0.008797 0.000099 0.001926 0.002427
# 4 -0.001124 -0.005943 0.000099 0.061271 -0.025403 -0.001120
# 5 -0.000595 0.006126 0.001926 -0.025403 0.055615 -0.006079
# 6 -0.001078 0.000667 0.002427 -0.001120 -0.006079 0.060224
#
#
# Mechanical properties :
#
#
# Convention : Reuss Voigt Hill
#
# Bulk Modulus (GPa) = 28.35171 40.73690 34.54430
# Shear Modulus (GPa) = 20.66505 27.43810 24.05157
#
# Velocity S-wave (km/s) = 3.15940 3.64052 3.40846
# Velocity P-wave (km/s) = 5.19652 6.11133 5.67240
#
# Compressibility (1/GPa) = 0.03527124
#
# Stress axis : x y z
#
# Youngs Moduli (GPa) = 93.39980 40.52601 113.67250
#
# Poissons Ratio (x) = 0.00320 0.32787
# Poissons Ratio (y) = 0.00737 0.16946
# Poissons Ratio (z) = 0.26940 0.06042
#
# Static dielectric constant tensor:
#      x y z
#    x 1.764180 0.009720 -0.004870 
#    y 0.009720 1.754880 0.019700 
#    z -0.004870 0.019700 1.770480 
# 
# From -- ./inp_files/184162.got.cif
#   From: 2010.05.17/outbox.cif.g08.bks.cpg/sg2_93_cif.got.tgz:184162.got - 2010.06.03 11:33:40.
