data_PCOD9098435
_publ_section_title
;
Structure prediction by ZEFSAII (Michael W. Deem and Ramdas Pophale) SiO2 
 PCOD9098435
Probable space group: P -1
;
_chemical_formula_sum "Si O2"
_cell_formula_units_Z 16
_cell_length_a 5.219505
_cell_length_b 24.247999
_cell_length_c 12.092212
_cell_angle_alpha 40.652666
_cell_angle_beta 128.121325
_cell_angle_gamma 122.768104
_cell_volume 776.392993
_symmetry_space_group_name_H-M "P -1"
_symmetry_group_IT_number 2
_symmetry_cell_setting 'triclinic'
loop_
_space_group_symop_operation_xyz
x,y,z
-x,-y,-z
loop_
_atom_site_type_symbol
_atom_site_label
_atom_site_fract_x
_atom_site_fract_y
_atom_site_fract_z
Si Si1 0.790560 0.225181 0.064420
Si Si2 0.720842 0.090725 0.429929
Si Si3 0.612438 0.472448 0.454316
Si Si4 0.462128 0.636253 0.075797
Si Si5 0.631720 0.316351 0.423014
Si Si6 0.200830 0.702848 0.256912
Si Si7 0.983512 0.401644 0.181925
Si Si8 0.610240 0.834541 0.579754
O O1 0.611082 0.154319 0.208889
O O2 0.163447 0.209046 0.206703
O O3 0.750999 0.317955 0.962752
O O4 0.681511 0.221706 0.913325
O O5 0.663977 0.129809 0.475262
O O6 0.109326 0.092858 0.506871
O O7 0.500000 0.000000 0.500000
O O8 0.500000 0.500000 0.500000
O O9 0.444201 0.533701 0.236694
O O10 0.000000 0.500000 0.500000
O O11 0.573260 0.371448 0.587874
O O12 0.834237 0.671371 0.159222
O O13 0.304612 0.649063 0.895621
O O14 0.316724 0.363198 0.298743
O O15 0.517711 0.232482 0.446723
O O16 0.793692 0.288919 0.622106
O O17 0.868953 0.380613 0.309349
O O18 0.000000 0.500000 0.000000
#
# Coordination Sequence:
#
# PCOD9098435 Si02
#       8
#     2   2   2   2   2   2   2   2
#     4  10  20  36  66  89 123 160 213 253 317 363
#     4  10  21  39  69 102 127 155 209 260 318 387
#     4  10  21  35  53  80 117 156 206 265 304 339
#     4  11  22  40  62  87 121 169 225 265 309 370
#     4  12  25  43  60  93 129 167 216 265 326 385
#     4  11  24  38  62  91 127 170 221 267 316 378
#     4  12  26  42  62  86 128 174 223 275 326 368
#     4  10  21  41  66  95 125 166 201 263 320 379
#
# _framework density 20.60812
#
# number of rings (size 3 to 8) (size 9 to 14) (size 15 to 20)
#    0.750    0.500    2.500    4.500    1.750    2.000 
#    0.000    0.000    0.000    1.500    0.000    0.000 
#    0.000    0.000    0.000    0.000    0.000    0.000 
#
# Total GULP energy -89197.785612 kJ/mol
# GULP energy per Si atom -5574.861601 kJ/mol
# Density = 2.056122 g / cm^3
# Si number density = 20.608120 Si / 1000 Ang^3
#
#
#
# Elastic Constant Matrix: (Units=GPa)
#
#
# Indices 1 2 3 4 5 6 
#
# 1 119.0328 28.7330 39.2995 11.8903 -23.4608 -4.3830
# 2 28.7330 81.2868 45.0560 13.8679 -26.7377 -0.2310
# 3 39.2995 45.0560 78.7659 31.1651 -20.2407 -3.2657
# 4 11.8903 13.8679 31.1651 33.2113 -2.4721 -8.6119
# 5 -23.4608 -26.7377 -20.2407 -2.4721 35.3959 2.8416
# 6 -4.3830 -0.2310 -3.2657 -8.6119 2.8416 32.8494
#
#
#
# Elastic Compliance Matrix: (Units=1/GPa)
#
#
# Indices 1 2 3 4 5 6 
#
# 1 0.010724 0.000080 -0.004581 0.000983 0.004550 0.000840
# 2 0.000080 0.020978 -0.009651 0.000654 0.010550 -0.001543
# 3 -0.004581 -0.009651 0.031847 -0.024926 0.006514 -0.004611
# 4 0.000983 0.000654 -0.024926 0.055507 -0.010284 0.013099
# 5 0.004550 0.010550 0.006514 -0.010284 0.042650 -0.005057
# 6 0.000840 -0.001543 -0.004611 0.013099 -0.005057 0.033956
#
#
# Mechanical properties :
#
#
# Convention : Reuss Voigt Hill
#
# Bulk Modulus (GPa) = 28.37336 56.14029 42.25683
# Shear Modulus (GPa) = 21.21214 31.35779 26.28497
#
# Velocity S-wave (km/s) = 3.21177 3.90503 3.57524
# Velocity P-wave (km/s) = 5.24899 6.90169 6.13128
#
# Compressibility (1/GPa) = 0.03524433
#
# Stress axis : x y z
#
# Youngs Moduli (GPa) = 93.25123 47.66991 31.39978
#
# Poissons Ratio (x) = -0.00381 0.14384
# Poissons Ratio (y) = -0.00745 0.30304
# Poissons Ratio (z) = 0.42718 0.46007
#
# Static dielectric constant tensor:
#      x y z
#    x 1.791870 0.033470 -0.037280 
#    y 0.033470 1.761980 0.003060 
#    z -0.037280 0.003060 1.821900 
# 
# From -- ./inp_files/371055.got.cif
#   From: 2010.05.17/outbox.cif.g08.bks.cpg/sg2_186_cif.got.tgz:371055.got - 2010.06.03 11:33:40.
