data_PCOD9098423
_publ_section_title
;
Structure prediction by ZEFSAII (Michael W. Deem and Ramdas Pophale) SiO2 
 PCOD9098423
Probable space group: P -1
;
_chemical_formula_sum "Si O2"
_cell_formula_units_Z 15
_cell_length_a 12.114050
_cell_length_b 13.184300
_cell_length_c 13.275955
_cell_angle_alpha 31.947366
_cell_angle_beta 45.003494
_cell_angle_gamma 67.086741
_cell_volume 655.762064
_symmetry_space_group_name_H-M "P -1"
_symmetry_group_IT_number 2
_symmetry_cell_setting 'triclinic'
loop_
_space_group_symop_operation_xyz
x,y,z
-x,-y,-z
loop_
_atom_site_type_symbol
_atom_site_label
_atom_site_fract_x
_atom_site_fract_y
_atom_site_fract_z
Si Si1 0.377740 0.000514 0.169324
Si Si2 0.737377 0.637396 0.633973
Si Si3 0.027378 0.161522 0.490147
Si Si4 0.192504 0.286576 0.864069
Si Si5 0.511046 0.269646 0.571913
Si Si6 0.000000 0.500000 0.500000
Si Si7 0.087131 0.884959 0.977014
Si Si8 0.606831 0.609948 0.056648
O O1 0.439755 0.917225 0.294112
O O2 0.156132 0.842219 0.418529
O O3 0.500000 0.000000 0.000000
O O4 0.428500 0.251959 0.952913
O O5 0.847729 0.673152 0.636707
O O6 0.845285 0.565432 0.550309
O O7 0.518294 0.446829 0.914362
O O8 0.770441 0.885858 0.375732
O O9 0.174384 0.237078 0.241972
O O10 0.939185 0.904420 0.807175
O O11 0.310033 0.196620 0.808686
O O12 0.337304 0.525677 0.623665
O O13 0.067232 0.297351 0.850281
O O14 0.541955 0.374199 0.353835
O O15 0.862527 0.256468 0.864042
O O16 0.000000 0.000000 0.000000
#
# Coordination Sequence:
#
# PCOD9098423 Si02
#       8
#     2   2   2   2   2   1   2   2
#     4  12  25  42  73  99 130 177 234 273 329 399
#     4  10  24  40  68  95 135 177 223 270 335 396
#     4  11  24  47  68  97 139 178 219 276 345 398
#     4  10  20  40  64  94 133 172 215 278 331 394
#     4  11  22  39  68  96 130 171 229 274 329 394
#     4  10  20  36  66 102 128 166 228 276 316 384
#     4   9  19  35  58  94 134 167 213 270 333 380
#     4  12  26  46  66  99 141 178 218 280 339 395
#
# _framework density 22.874151000000001
#
# number of rings (size 3 to 8) (size 9 to 14) (size 15 to 20)
#    0.000    1.333    2.667    3.200    3.733    2.667 
#    0.000    0.000    0.000    4.000    0.000    0.000 
#    0.000    0.000    0.000    0.000    0.000    0.000 
#
# Total GULP energy -83504.312591 kJ/mol
# GULP energy per Si atom -5566.954173 kJ/mol
# Density = 2.282209 g / cm^3
# Si number density = 22.874151 Si / 1000 Ang^3
#
#
#
# Elastic Constant Matrix: (Units=GPa)
#
#
# Indices 1 2 3 4 5 6 
#
# 1 116.4279 27.6642 33.0423 -12.3665 -9.1055 -6.9020
# 2 27.6642 37.8061 29.2294 0.7099 -0.6570 -9.8871
# 3 33.0423 29.2294 49.2059 14.1574 0.6752 -15.6359
# 4 -12.3665 0.7099 14.1574 30.9371 -6.5042 6.3438
# 5 -9.1055 -0.6570 0.6752 -6.5042 52.3075 -13.1984
# 6 -6.9020 -9.8871 -15.6359 6.3438 -13.1984 38.1656
#
#
#
# Elastic Compliance Matrix: (Units=1/GPa)
#
#
# Indices 1 2 3 4 5 6 
#
# 1 0.014559 -0.000175 -0.015559 0.014676 0.003272 -0.005095
# 2 -0.000175 0.055789 -0.039487 0.018034 0.002435 -0.003912
# 3 -0.015559 -0.039487 0.074882 -0.045266 -0.003781 0.023851
# 4 0.014676 0.018034 -0.045266 0.063853 0.006351 -0.019636
# 5 0.003272 0.002435 -0.003781 0.006351 0.022140 0.006274
# 6 -0.005095 -0.003912 0.023851 -0.019636 0.006274 0.039472
#
#
# Mechanical properties :
#
#
# Convention : Reuss Voigt Hill
#
# Bulk Modulus (GPa) = 28.74639 42.59019 35.66829
# Shear Modulus (GPa) = 12.73134 31.84898 22.29016
#
# Velocity S-wave (km/s) = 2.36176 3.73548 3.12504
# Velocity P-wave (km/s) = 4.47568 6.10449 5.35241
#
# Compressibility (1/GPa) = 0.03478698
#
# Stress axis : x y z
#
# Youngs Moduli (GPa) = 68.68585 17.92478 13.35443
#
# Poissons Ratio (x) = 0.00314 0.20778
# Poissons Ratio (y) = 0.01205 0.52733
# Poissons Ratio (z) = 1.06867 0.70780
#
# Static dielectric constant tensor:
#      x y z
#    x 1.198620 0.175730 -0.625000 
#    y 0.175730 1.807380 0.094590 
#    z -0.625000 0.094590 1.337370 
# 
# From -- ./inp_files/522107.got.cif
#   From: 2010.05.17/outbox.cif.g08.bks.cpg/sg2_262_cif.got.tgz:522107.got - 2010.06.03 11:33:40.
