data_PCOD9098304
_publ_section_title
;
Structure prediction by ZEFSAII (Michael W. Deem and Ramdas Pophale) SiO2 
 PCOD9098304
Probable space group: P -1
;
_chemical_formula_sum "Si O2"
_cell_formula_units_Z 16
_cell_length_a 9.434852
_cell_length_b 18.900879
_cell_length_c 4.947570
_cell_angle_alpha 58.767389
_cell_angle_beta 114.216717
_cell_angle_gamma 109.958512
_cell_volume 678.599440
_symmetry_space_group_name_H-M "P -1"
_symmetry_group_IT_number 2
_symmetry_cell_setting 'triclinic'
loop_
_space_group_symop_operation_xyz
x,y,z
-x,-y,-z
loop_
_atom_site_type_symbol
_atom_site_label
_atom_site_fract_x
_atom_site_fract_y
_atom_site_fract_z
Si Si1 0.628179 0.822899 0.873118
Si Si2 0.508607 0.682592 0.475758
Si Si3 0.086219 0.183612 0.180708
Si Si4 0.295738 0.635227 0.911970
Si Si5 0.153686 0.038327 0.876657
Si Si6 0.616458 0.073557 0.601177
Si Si7 0.110469 0.783346 0.550686
Si Si8 0.614873 0.525974 0.789686
O O1 0.553925 0.768158 0.175796
O O2 0.738363 0.777833 0.854911
O O3 0.503654 0.865685 0.518179
O O4 0.746795 0.895831 0.971153
O O5 0.436019 0.675413 0.734155
O O6 0.645940 0.626198 0.643799
O O7 0.360945 0.639713 0.259028
O O8 0.101763 0.091153 0.484370
O O9 0.972663 0.185315 0.836689
O O10 0.012959 0.227960 0.281049
O O11 0.170770 0.697901 0.687521
O O12 0.257904 0.536729 0.998445
O O13 0.274079 0.974094 0.029094
O O14 0.000000 0.000000 0.000000
O O15 0.746000 0.141178 0.409566
O O16 0.500000 0.000000 0.500000
O O17 0.500000 0.500000 0.500000
O O18 0.500000 0.500000 0.000000
#
# Coordination Sequence:
#
# PCOD9098304 Si02
#       8
#     2   2   2   2   2   2   2   2
#     4  11  24  41  66  95 128 164 211 268 320 372
#     4  10  20  36  64  97 130 159 202 262 320 365
#     4  12  26  45  63  89 126 176 214 250 321 387
#     4  10  20  36  64  96 129 161 208 256 309 376
#     4  11  23  45  65  88 123 170 215 262 318 383
#     4  10  23  44  64  96 121 160 212 275 322 363
#     4  12  24  44  67  90 127 172 213 260 314 383
#     4   8  16  32  56  94 130 160 193 250 315 372
#
# _framework density 23.577971999999999
#
# number of rings (size 3 to 8) (size 9 to 14) (size 15 to 20)
#    0.000    1.500    3.750    0.750    1.750    2.500 
#    2.250    0.000    0.000    1.500    0.000    0.000 
#    0.000    0.000    0.000    0.000    0.000    0.000 
#
# Total GULP energy -89304.292388 kJ/mol
# GULP energy per Si atom -5581.518274 kJ/mol
# Density = 2.352431 g / cm^3
# Si number density = 23.577972 Si / 1000 Ang^3
#
#
#
# Elastic Constant Matrix: (Units=GPa)
#
#
# Indices 1 2 3 4 5 6 
#
# 1 93.5701 43.3218 57.0249 -6.8685 22.7530 -27.1083
# 2 43.3218 71.3121 34.5098 -10.7104 13.3939 -31.2607
# 3 57.0249 34.5098 113.5706 -6.0819 19.5662 -21.9797
# 4 -6.8685 -10.7104 -6.0819 45.9734 -23.7919 4.5172
# 5 22.7530 13.3939 19.5662 -23.7919 41.8380 -2.1392
# 6 -27.1083 -31.2607 -21.9797 4.5172 -2.1392 31.5761
#
#
#
# Elastic Compliance Matrix: (Units=1/GPa)
#
#
# Indices 1 2 3 4 5 6 
#
# 1 0.021188 -0.004863 -0.006038 -0.004424 -0.009189 0.009184
# 2 -0.004863 0.028422 -0.001024 0.001463 -0.003980 0.022772
# 3 -0.006038 -0.001024 0.013195 -0.001321 -0.003159 0.002963
# 4 -0.004424 0.001463 -0.001321 0.032660 0.020794 -0.006533
# 5 -0.009189 -0.003980 -0.003159 0.020794 0.042754 -0.014106
# 6 0.009184 0.022772 0.002963 -0.006533 -0.014106 0.064140
#
#
# Mechanical properties :
#
#
# Convention : Reuss Voigt Hill
#
# Bulk Modulus (GPa) = 25.66965 60.90730 43.28847
# Shear Modulus (GPa) = 20.90371 33.45059 27.17715
#
# Velocity S-wave (km/s) = 2.98078 3.77068 3.39875
# Velocity P-wave (km/s) = 4.77048 6.69670 5.81391
#
# Compressibility (1/GPa) = 0.03895652
#
# Stress axis : x y z
#
# Youngs Moduli (GPa) = 47.19542 35.18418 75.78816
#
# Poissons Ratio (x) = 0.17109 0.45760
# Poissons Ratio (y) = 0.22950 0.07758
# Poissons Ratio (z) = 0.28496 0.03601
#
# Static dielectric constant tensor:
#      x y z
#    x 1.897850 0.002550 0.035890 
#    y 0.002550 2.045360 -0.054330 
#    z 0.035890 -0.054330 1.922820 
# 
# From -- ./inp_files/52233.got.cif
#   From: 2010.05.17/outbox.cif.g08.bks.cpg/sg2_27_cif.got.tgz:52233.got - 2010.06.03 11:33:40.
