data_PCOD9098832
_publ_section_title
;
Structure prediction by ZEFSAII (Michael W. Deem and Ramdas Pophale) SiO2 
 PCOD9098832
Probable space group: P -1
;
_chemical_formula_sum "Si O2"
_cell_formula_units_Z 16
_cell_length_a 23.701922
_cell_length_b 19.792978
_cell_length_c 9.925129
_cell_angle_alpha 40.489745
_cell_angle_beta 139.869778
_cell_angle_gamma 165.513371
_cell_volume 744.778234
_symmetry_space_group_name_H-M "P -1"
_symmetry_group_IT_number 2
_symmetry_cell_setting 'triclinic'
loop_
_space_group_symop_operation_xyz
x,y,z
-x,-y,-z
loop_
_atom_site_type_symbol
_atom_site_label
_atom_site_fract_x
_atom_site_fract_y
_atom_site_fract_z
Si Si1 0.559221 0.121591 0.782881
Si Si2 0.240485 0.926059 0.988893
Si Si3 0.895396 0.116978 0.932445
Si Si4 0.689414 0.275444 0.292179
Si Si5 0.147131 0.187150 0.351712
Si Si6 0.662268 0.801880 0.456249
Si Si7 0.666177 0.926045 0.534869
Si Si8 0.081184 0.536955 0.296515
O O1 0.790132 0.343733 0.790022
O O2 0.372483 0.882156 0.689898
O O3 0.551028 0.236123 0.616549
O O4 0.500000 0.000000 0.000000
O O5 0.219682 0.987329 0.976048
O O6 0.049201 0.626193 0.105588
O O7 0.477946 0.123601 0.135297
O O8 0.240161 0.988322 0.756219
O O9 0.721312 0.945259 0.754084
O O10 0.090506 0.418596 0.816292
O O11 0.016753 0.138911 0.115779
O O12 0.751648 0.303898 0.511926
O O13 0.402712 0.501930 0.384924
O O14 0.187660 0.131617 0.415731
O O15 0.000000 0.000000 0.500000
O O16 0.653820 0.817983 0.573299
O O17 0.867351 0.226881 0.398646
#
# Coordination Sequence:
#
# PCOD9098832 Si02
#       8
#     2   2   2   2   2   2   2   2
#     4  11  22  35  57  89 134 169 204 244 294 355
#     4  11  19  36  64  92 121 170 205 242 295 374
#     4  11  22  38  69  89 122 163 212 253 310 365
#     4  10  20  37  57  90 128 169 206 241 293 367
#     4  11  24  47  68  90 112 163 213 263 316 375
#     4  11  25  42  66  90 124 153 211 262 313 366
#     4  11  24  41  59 100 129 161 202 256 305 366
#     4  10  22  37  59  89 134 169 200 238 297 369
#
# _framework density 21.482904999999999
#
# number of rings (size 3 to 8) (size 9 to 14) (size 15 to 20)
#    0.000    1.250    2.500    5.250    0.000    6.500 
#    0.000    0.625    0.000    0.000    0.000    0.000 
#    0.000    0.000    0.000    0.000    0.000    0.000 
#
# Total GULP energy -89478.603472 kJ/mol
# GULP energy per Si atom -5592.412717 kJ/mol
# Density = 2.143401 g / cm^3
# Si number density = 21.482905 Si / 1000 Ang^3
#
#
#
# Elastic Constant Matrix: (Units=GPa)
#
#
# Indices 1 2 3 4 5 6 
#
# 1 135.5155 4.3535 43.8761 20.5672 12.6567 5.6167
# 2 4.3535 17.7477 -2.9415 0.9486 0.4234 -1.1779
# 3 43.8761 -2.9415 70.4085 4.6682 -7.3682 -1.3109
# 4 20.5672 0.9486 4.6682 21.5086 -0.8039 -3.7481
# 5 12.6567 0.4234 -7.3682 -0.8039 37.1330 -1.7815
# 6 5.6167 -1.1779 -1.3109 -3.7481 -1.7815 30.5117
#
#
#
# Elastic Compliance Matrix: (Units=1/GPa)
#
#
# Indices 1 2 3 4 5 6 
#
# 1 0.012559 -0.003963 -0.007996 -0.011125 -0.006281 -0.004542
# 2 -0.003963 0.058305 0.005114 0.000772 0.001881 0.003405
# 3 -0.007996 0.005114 0.019920 0.003948 0.006869 0.003411
# 4 -0.011125 0.000772 0.003948 0.058176 0.006294 0.009761
# 5 -0.006281 0.001881 0.006869 0.006294 0.030745 0.004092
# 6 -0.004542 0.003405 0.003411 0.009761 0.004092 0.035326
#
#
# Mechanical properties :
#
#
# Convention : Reuss Voigt Hill
#
# Bulk Modulus (GPa) = 12.97107 34.91642 23.94375
# Shear Modulus (GPa) = 19.65266 29.72291 24.68779
#
# Velocity S-wave (km/s) = 3.02785 3.72366 3.39364
# Velocity P-wave (km/s) = 4.27491 5.89711 5.15028
#
# Compressibility (1/GPa) = 0.07709465
#
# Stress axis : x y z
#
# Youngs Moduli (GPa) = 79.62603 17.15123 50.20117
#
# Poissons Ratio (x) = 0.06797 0.40141
# Poissons Ratio (y) = 0.31555 -0.25675
# Poissons Ratio (z) = 0.63669 -0.08772
#
# Static dielectric constant tensor:
#      x y z
#    x 1.772270 0.014960 0.001280 
#    y 0.014960 1.836570 0.004170 
#    z 0.001280 0.004170 1.748570 
# 
# From -- ./inp_files/214231.got.cif
#   From: 2010.05.17/outbox.cif.g08.bks.cpg/sg2_108_cif.got.tgz:214231.got - 2010.06.03 11:33:40.
