data_PCOD9098845
_publ_section_title
;
Structure prediction by ZEFSAII (Michael W. Deem and Ramdas Pophale) SiO2 
 PCOD9098845
Probable space group: P -1
;
_chemical_formula_sum "Si O2"
_cell_formula_units_Z 16
_cell_length_a 8.064370
_cell_length_b 6.488947
_cell_length_c 17.584492
_cell_angle_alpha 65.077713
_cell_angle_beta 73.671140
_cell_angle_gamma 117.147537
_cell_volume 601.350261
_symmetry_space_group_name_H-M "P -1"
_symmetry_group_IT_number 2
_symmetry_cell_setting 'triclinic'
loop_
_space_group_symop_operation_xyz
x,y,z
-x,-y,-z
loop_
_atom_site_type_symbol
_atom_site_label
_atom_site_fract_x
_atom_site_fract_y
_atom_site_fract_z
Si Si1 0.408807 0.903795 0.614404
Si Si2 0.499895 0.567261 0.879219
Si Si3 0.812096 0.487261 0.565234
Si Si4 0.690504 0.328283 0.964364
Si Si5 0.207931 0.984140 0.915318
Si Si6 0.771567 0.807923 0.410532
Si Si7 0.913629 0.772802 0.232121
Si Si8 0.683817 0.161963 0.773789
O O1 0.311958 0.576059 0.701787
O O2 0.500000 0.000000 0.500000
O O3 0.581836 0.172873 0.608799
O O4 0.200987 0.901569 0.643237
O O5 0.410475 0.619215 0.958572
O O6 0.283286 0.254223 0.919100
O O7 0.609495 0.878297 0.776225
O O8 0.695120 0.544457 0.871810
O O9 0.856577 0.774497 0.482669
O O10 0.811901 0.451018 0.659621
O O11 0.000000 0.500000 0.500000
O O12 0.875810 0.306741 0.977289
O O13 0.500000 0.000000 0.000000
O O14 0.083352 0.002189 0.857975
O O15 0.450670 0.090743 0.837860
O O16 0.500000 0.500000 0.500000
O O17 0.873325 0.791775 0.323245
O O18 0.140642 0.808889 0.193940
#
# Coordination Sequence:
#
# PCOD9098845 Si02
#       8
#     2   2   2   2   2   2   2   2
#     4  11  21  36  56  78 105 150 199 247 303 352
#     4   9  18  37  63  91 122 155 193 239 295 357
#     4  11  20  39  57  80 115 154 205 255 298 344
#     4   8  16  35  66  95 118 154 194 233 292 361
#     4  10  21  37  62  89 120 158 194 242 299 355
#     4  10  20  37  58  74 111 153 199 254 298 341
#     4  12  23  40  57  85 120 156 203 249 299 354
#     4  11  23  38  57  88 121 156 203 252 294 355
#
# _framework density 26.606788000000002
#
# number of rings (size 3 to 8) (size 9 to 14) (size 15 to 20)
#    0.000    1.750    3.750    2.250    0.000    2.000 
#    2.250    1.875    0.000   25.500    0.000    0.000 
#    0.000    0.000    0.000    0.000    0.000    0.000 
#
# Total GULP energy -89256.323683 kJ/mol
# GULP energy per Si atom -5578.520230 kJ/mol
# Density = 2.654623 g / cm^3
# Si number density = 26.606788 Si / 1000 Ang^3
#
#
#
# Elastic Constant Matrix: (Units=GPa)
#
#
# Indices 1 2 3 4 5 6 
#
# 1 110.2583 26.0723 44.8905 1.4998 26.3894 -5.5376
# 2 26.0723 102.6193 13.4476 -4.8825 13.1466 0.9679
# 3 44.8905 13.4476 107.4516 -15.3007 33.8328 -10.0284
# 4 1.4998 -4.8825 -15.3007 36.3883 -9.2922 12.5081
# 5 26.3894 13.1466 33.8328 -9.2922 58.1767 -3.7150
# 6 -5.5376 0.9679 -10.0284 12.5081 -3.7150 43.9972
#
#
#
# Elastic Compliance Matrix: (Units=1/GPa)
#
#
# Indices 1 2 3 4 5 6 
#
# 1 0.012222 -0.002354 -0.004266 -0.003900 -0.003060 0.001468
# 2 -0.002354 0.010564 0.000184 0.001641 -0.001232 -0.001057
# 3 -0.004266 0.000184 0.013369 0.004205 -0.005154 0.000876
# 4 -0.003900 0.001641 0.004205 0.033618 0.003760 -0.008808
# 5 -0.003060 -0.001232 -0.005154 0.003760 0.022408 -0.000710
# 6 0.001468 -0.001057 0.000876 -0.008808 -0.000710 0.025581
#
#
# Mechanical properties :
#
#
# Convention : Reuss Voigt Hill
#
# Bulk Modulus (GPa) = 42.94753 54.34998 48.64875
# Shear Modulus (GPa) = 36.12827 43.44037 39.78432
#
# Velocity S-wave (km/s) = 3.68891 4.04503 3.87107
# Velocity P-wave (km/s) = 5.85839 6.50291 6.18904
#
# Compressibility (1/GPa) = 0.02328423
#
# Stress axis : x y z
#
# Youngs Moduli (GPa) = 81.81719 94.65674 74.79974
#
# Poissons Ratio (x) = 0.22278 0.31912
# Poissons Ratio (y) = 0.19256 -0.01377
# Poissons Ratio (z) = 0.34906 -0.01742
#
# Static dielectric constant tensor:
#      x y z
#    x 2.298250 0.054040 -0.279320 
#    y 0.054040 2.126640 -0.080630 
#    z -0.279320 -0.080630 2.839160 
# 
# From -- ./inp_files/553359.got.cif
#   From: 2010.05.17/outbox.cif.g08.bks.cpg/sg2_277_cif.got.tgz:553359.got - 2010.06.03 11:33:40.
