data_PCOD9098916
_publ_section_title
;
Structure prediction by ZEFSAII (Michael W. Deem and Ramdas Pophale) SiO2 
 PCOD9098916
Probable space group: P -1
;
_chemical_formula_sum "Si O2"
_cell_formula_units_Z 14
_cell_length_a 11.952169
_cell_length_b 9.077617
_cell_length_c 12.683196
_cell_angle_alpha 38.529277
_cell_angle_beta 54.454440
_cell_angle_gamma 72.667762
_cell_volume 663.205157
_symmetry_space_group_name_H-M "P -1"
_symmetry_group_IT_number 2
_symmetry_cell_setting 'triclinic'
loop_
_space_group_symop_operation_xyz
x,y,z
-x,-y,-z
loop_
_atom_site_type_symbol
_atom_site_label
_atom_site_fract_x
_atom_site_fract_y
_atom_site_fract_z
Si Si1 0.210354 0.625429 0.735867
Si Si2 0.004773 0.810127 0.248293
Si Si3 0.607386 0.813235 0.628225
Si Si4 0.357991 0.970414 0.735794
Si Si5 0.122031 0.492372 0.078882
Si Si6 0.777458 0.728212 0.236222
Si Si7 0.850491 0.611436 0.645966
O O1 0.280413 0.518090 0.662455
O O2 0.044333 0.573176 0.823129
O O3 0.284266 0.917553 0.547747
O O4 0.207439 0.483446 0.928645
O O5 0.104497 0.631678 0.274235
O O6 0.862997 0.704689 0.310119
O O7 0.951698 0.808607 0.398321
O O8 0.098539 0.080438 0.008482
O O9 0.461231 0.797280 0.779403
O O10 0.687824 0.610117 0.713806
O O11 0.585618 0.848934 0.495860
O O12 0.341507 0.139295 0.745823
O O13 0.197646 0.782069 0.907514
O O14 0.128272 0.345062 0.265000
#
# Coordination Sequence:
#
# PCOD9098916 Si02
#       7
#     2   2   2   2   2   2   2
#     4  10  22  36  57  89 116 154 189 235 293 341
#     4  10  21  33  59  92 110 150 193 246 285 327
#     4  10  23  37  58  88 118 150 194 236 286 344
#     4  10  20  40  61  81 111 165 199 222 274 357
#     4  10  20  37  58  85 115 151 196 230 287 336
#     4  11  18  38  60  80 116 155 194 233 277 360
#     4  11  20  36  56  91 120 142 193 250 285 328
#
# _framework density 21.109604999999998
#
# number of rings (size 3 to 8) (size 9 to 14) (size 15 to 20)
#    0.000    1.714    4.286    0.857    4.000    1.714 
#    0.000    0.000    0.000    0.857    0.000    0.000 
#    0.000    0.000    0.000    0.000    0.000    0.000 
#
# Total GULP energy -78087.501376 kJ/mol
# GULP energy per Si atom -5577.678670 kJ/mol
# Density = 2.106156 g / cm^3
# Si number density = 21.109605 Si / 1000 Ang^3
#
#
#
# Elastic Constant Matrix: (Units=GPa)
#
#
# Indices 1 2 3 4 5 6 
#
# 1 58.1832 20.1872 17.0286 7.9911 10.6975 -18.2139
# 2 20.1872 84.8320 5.9045 14.0798 -1.6398 -8.6074
# 3 17.0286 5.9045 65.5293 19.3024 12.6553 7.1973
# 4 7.9911 14.0798 19.3024 21.8750 8.8766 5.2056
# 5 10.6975 -1.6398 12.6553 8.8766 34.0078 4.2357
# 6 -18.2139 -8.6074 7.1973 5.2056 4.2357 36.1261
#
#
#
# Elastic Compliance Matrix: (Units=1/GPa)
#
#
# Indices 1 2 3 4 5 6 
#
# 1 0.026829 -0.004241 -0.006129 -0.002104 -0.007675 0.014940
# 2 -0.004241 0.015002 0.002356 -0.012404 0.004136 0.002269
# 3 -0.006129 0.002356 0.022550 -0.017656 -0.001201 -0.004336
# 4 -0.002104 -0.012404 -0.017656 0.077476 -0.012316 -0.010219
# 5 -0.007675 0.004136 -0.001201 -0.012316 0.036319 -0.005129
# 6 0.014940 0.002269 -0.004336 -0.010219 -0.005129 0.038692
#
#
# Mechanical properties :
#
#
# Convention : Reuss Voigt Hill
#
# Bulk Modulus (GPa) = 20.68089 32.75390 26.71740
# Shear Modulus (GPa) = 20.07929 29.43005 24.75467
#
# Velocity S-wave (km/s) = 3.08749 3.73789 3.42815
# Velocity P-wave (km/s) = 4.74640 5.84627 5.32481
#
# Compressibility (1/GPa) = 0.04835381
#
# Stress axis : x y z
#
# Youngs Moduli (GPa) = 37.27267 66.65695 44.34646
#
# Poissons Ratio (x) = 0.28270 0.27179
# Poissons Ratio (y) = 0.15808 -0.10449
# Poissons Ratio (z) = 0.22843 -0.15705
#
# Static dielectric constant tensor:
#      x y z
#    x 1.792420 -0.017530 0.020690 
#    y -0.017530 1.779170 0.024850 
#    z 0.020690 0.024850 1.799560 
# 
# From -- ./inp_files/168699.got.cif
#   From: 2010.05.17/outbox.cif.g08.bks.cpg/sg2_85_cif.got.tgz:168699.got - 2010.06.03 11:33:40.
