data_PCOD9098367
_publ_section_title
;
Structure prediction by ZEFSAII (Michael W. Deem and Ramdas Pophale) SiO2 
 PCOD9098367
Probable space group: P -1
;
_chemical_formula_sum "Si O2"
_cell_formula_units_Z 16
_cell_length_a 19.058834
_cell_length_b 13.758001
_cell_length_c 11.596355
_cell_angle_alpha 33.638861
_cell_angle_beta 152.939050
_cell_angle_gamma 145.288797
_cell_volume 726.023581
_symmetry_space_group_name_H-M "P -1"
_symmetry_group_IT_number 2
_symmetry_cell_setting 'triclinic'
loop_
_space_group_symop_operation_xyz
x,y,z
-x,-y,-z
loop_
_atom_site_type_symbol
_atom_site_label
_atom_site_fract_x
_atom_site_fract_y
_atom_site_fract_z
Si Si1 0.733433 0.558454 0.172115
Si Si2 0.980135 0.281294 0.199100
Si Si3 0.069946 0.692688 0.647084
Si Si4 0.759190 0.589028 0.717532
Si Si5 0.621595 0.094257 0.763061
Si Si6 0.412265 0.883570 0.875757
Si Si7 0.415200 0.459819 0.267593
Si Si8 0.476481 0.245014 0.206208
O O1 0.625200 0.345669 0.240045
O O2 0.921005 0.606256 0.428729
O O3 0.689487 0.610492 0.929781
O O4 0.653285 0.651586 0.060873
O O5 0.989865 0.236705 0.391994
O O6 0.122782 0.263808 0.341145
O O7 0.801163 0.173646 0.998106
O O8 0.000000 0.500000 0.000000
O O9 0.219611 0.840244 0.656644
O O10 0.142246 0.535050 0.957172
O O11 0.602239 0.463681 0.539443
O O12 0.677768 0.651211 0.647638
O O13 0.558965 0.236730 0.458091
O O14 0.495208 0.000850 0.770612
O O15 0.617146 0.946061 0.802830
O O16 0.431050 0.678122 0.092917
O O17 0.500000 0.000000 0.000000
#
# Coordination Sequence:
#
# PCOD9098367 Si02
#       8
#     2   2   2   2   2   2   2   2
#     4  11  23  42  67  95 129 162 220 265 311 380
#     4  10  20  36  65  92 121 161 213 258 306 370
#     4  10  22  38  63  96 123 165 210 258 320 370
#     4   9  21  38  62  96 121 156 214 259 313 371
#     4  11  22  43  64  94 129 173 211 261 325 378
#     4  11  22  41  62  90 131 170 207 260 322 385
#     4  10  22  40  65  95 124 167 212 261 319 373
#     4  10  24  40  66  93 129 170 213 262 322 377
#
# _framework density 22.037851
#
# number of rings (size 3 to 8) (size 9 to 14) (size 15 to 20)
#    0.000    1.750    2.500    1.500    7.000    3.000 
#    6.750    1.875    0.000    0.000    0.000    0.000 
#    0.000    0.000    0.000    0.000    0.000    0.000 
#
# Total GULP energy -89330.072352 kJ/mol
# GULP energy per Si atom -5583.129522 kJ/mol
# Density = 2.198769 g / cm^3
# Si number density = 22.037851 Si / 1000 Ang^3
#
#
#
# Elastic Constant Matrix: (Units=GPa)
#
#
# Indices 1 2 3 4 5 6 
#
# 1 118.9750 26.5957 44.0377 21.8212 -11.9872 34.2971
# 2 26.5957 56.6412 30.0392 30.6261 8.9589 3.2378
# 3 44.0377 30.0392 123.0107 47.9516 -5.1838 4.7628
# 4 21.8212 30.6261 47.9516 40.2798 1.4630 0.8605
# 5 -11.9872 8.9589 -5.1838 1.4630 31.4140 9.1312
# 6 34.2971 3.2378 4.7628 0.8605 9.1312 40.0931
#
#
#
# Elastic Compliance Matrix: (Units=1/GPa)
#
#
# Indices 1 2 3 4 5 6 
#
# 1 0.017566 -0.007698 -0.003194 0.000019 0.013330 -0.017062
# 2 -0.007698 0.035593 0.003801 -0.027085 -0.013189 0.006844
# 3 -0.003194 0.003801 0.016504 -0.020865 0.001207 0.000638
# 4 0.000019 -0.027085 -0.020865 0.070178 0.000114 0.003117
# 5 0.013330 -0.013189 0.001207 0.000114 0.047036 -0.021196
# 6 -0.017062 0.006844 0.000638 0.003117 -0.021196 0.043669
#
#
# Mechanical properties :
#
#
# Convention : Reuss Voigt Hill
#
# Bulk Modulus (GPa) = 18.02355 55.55246 36.78800
# Shear Modulus (GPa) = 18.99540 35.55433 27.27486
#
# Velocity S-wave (km/s) = 2.93907 4.02099 3.52182
# Velocity P-wave (km/s) = 4.44002 6.84253 5.76775
#
# Compressibility (1/GPa) = 0.05548298
#
# Stress axis : x y z
#
# Youngs Moduli (GPa) = 56.92796 28.09524 60.59026
#
# Poissons Ratio (x) = 0.21627 0.19353
# Poissons Ratio (y) = 0.43821 -0.23032
# Poissons Ratio (z) = 0.18183 -0.10680
#
# Static dielectric constant tensor:
#      x y z
#    x 1.917130 -0.043590 0.057770 
#    y -0.043590 1.861650 -0.081770 
#    z 0.057770 -0.081770 1.842820 
# 
# From -- ./inp_files/471709.got.cif
#   From: 2010.05.17/outbox.cif.g08.bks.cpg/sg2_236_cif.got.tgz:471709.got - 2010.06.03 11:33:40.
