data_PCOD9098548
_publ_section_title
;
Structure prediction by ZEFSAII (Michael W. Deem and Ramdas Pophale) SiO2 
 PCOD9098548
Probable space group: P -1
;
_chemical_formula_sum "Si O2"
_cell_formula_units_Z 13
_cell_length_a 14.586201
_cell_length_b 9.042697
_cell_length_c 7.147928
_cell_angle_alpha 129.073188
_cell_angle_beta 120.551655
_cell_angle_gamma 42.207120
_cell_volume 490.170096
_symmetry_space_group_name_H-M "P -1"
_symmetry_group_IT_number 2
_symmetry_cell_setting 'triclinic'
loop_
_space_group_symop_operation_xyz
x,y,z
-x,-y,-z
loop_
_atom_site_type_symbol
_atom_site_label
_atom_site_fract_x
_atom_site_fract_y
_atom_site_fract_z
Si Si1 0.456355 0.295279 0.557322
Si Si2 0.500000 0.000000 0.000000
Si Si3 0.198681 0.445977 0.618155
Si Si4 0.993752 0.983651 0.711039
Si Si5 0.747658 0.979023 0.502138
Si Si6 0.357323 0.831381 0.867504
Si Si7 0.933225 0.692017 0.914507
O O1 0.350502 0.298108 0.575607
O O2 0.620036 0.125138 0.627657
O O3 0.408161 0.565838 0.747108
O O4 0.441794 0.223608 0.275748
O O5 0.473478 0.860603 0.015776
O O6 0.127331 0.728889 0.730145
O O7 0.215121 0.288713 0.690812
O O8 0.101059 0.415487 0.370321
O O9 0.872000 0.983908 0.656387
O O10 0.000000 0.000000 0.500000
O O11 0.980270 0.213996 0.953524
O O12 0.685715 0.113888 0.351021
O O13 0.216021 0.056676 0.991669
O O14 0.000000 0.500000 0.000000
#
# Coordination Sequence:
#
# PCOD9098548 Si02
#       7
#     2   1   2   2   2   2   2
#     4  11  23  43  71  95 136 179 225 269 332 401
#     4  10  20  36  68  96 122 164 234 268 308 388
#     4  12  24  44  67  99 139 170 221 283 339 388
#     4  12  23  44  69  94 133 177 226 276 324 402
#     4  11  24  41  67 101 135 175 216 279 344 386
#     4  11  22  42  66  97 127 180 224 268 322 397
#     4  12  24  40  71  96 124 179 229 267 329 398
#
# _framework density 26.521405999999999
#
# number of rings (size 3 to 8) (size 9 to 14) (size 15 to 20)
#    0.000    0.615    6.154    2.769    0.000    1.846 
#    0.000    6.923    0.000    0.000    0.000    0.000 
#    0.000    0.000    0.000    0.000    0.000    0.000 
#
# Total GULP energy -72446.599166 kJ/mol
# GULP energy per Si atom -5572.815320 kJ/mol
# Density = 2.646104 g / cm^3
# Si number density = 26.521406 Si / 1000 Ang^3
#
#
#
# Elastic Constant Matrix: (Units=GPa)
#
#
# Indices 1 2 3 4 5 6 
#
# 1 240.9505 25.4213 32.9429 26.1514 66.1000 -27.5927
# 2 25.4213 185.7994 38.3805 22.6048 -36.0387 32.6343
# 3 32.9429 38.3805 83.3842 29.5833 19.1975 7.6651
# 4 26.1514 22.6048 29.5833 59.8491 23.2142 10.1664
# 5 66.1000 -36.0387 19.1975 23.2142 70.0094 -11.1369
# 6 -27.5927 32.6343 7.6651 10.1664 -11.1369 58.0900
#
#
#
# Elastic Compliance Matrix: (Units=1/GPa)
#
#
# Indices 1 2 3 4 5 6 
#
# 1 0.006972 -0.003155 -0.000033 0.000615 -0.007849 0.003476
# 2 -0.003155 0.009505 -0.003742 -0.003321 0.009368 -0.003967
# 3 -0.000033 -0.003742 0.016587 -0.004853 -0.004864 -0.000185
# 4 0.000615 -0.003321 -0.004853 0.024363 -0.009563 -0.003299
# 5 -0.007849 0.009368 -0.004864 -0.009563 0.030902 -0.000751
# 6 0.003476 -0.003967 -0.000185 -0.003299 -0.000751 0.021552
#
#
# Mechanical properties :
#
#
# Convention : Reuss Voigt Hill
#
# Bulk Modulus (GPa) = 52.07512 78.18038 65.12775
# Shear Modulus (GPa) = 38.41967 65.14899 51.78433
#
# Velocity S-wave (km/s) = 3.81021 4.96165 4.42356
# Velocity P-wave (km/s) = 6.24778 7.89723 7.12043
#
# Compressibility (1/GPa) = 0.01920303
#
# Stress axis : x y z
#
# Youngs Moduli (GPa) = 143.43043 105.21068 60.28897
#
# Poissons Ratio (x) = 0.33192 0.00200
# Poissons Ratio (y) = 0.45250 0.22561
# Poissons Ratio (z) = 0.00476 0.39372
#
# Static dielectric constant tensor:
#      x y z
#    x 2.155860 -0.054940 -0.018860 
#    y -0.054940 2.225450 -0.082430 
#    z -0.018860 -0.082430 2.111770 
# 
# From -- ./inp_files/88804.got.cif
#   From: 2010.05.17/outbox.cif.g08.bks.cpg/sg2_45_cif.got.tgz:88804.got - 2010.06.03 11:33:40.
