data_PCOD9098400
_publ_section_title
;
Structure prediction by ZEFSAII (Michael W. Deem and Ramdas Pophale) SiO2 
 PCOD9098400
Probable space group: P -1
;
_chemical_formula_sum "Si O2"
_cell_formula_units_Z 16
_cell_length_a 28.502760
_cell_length_b 21.885296
_cell_length_c 15.259189
_cell_angle_alpha 161.872454
_cell_angle_beta 162.683692
_cell_angle_gamma 16.358766
_cell_volume 727.951825
_symmetry_space_group_name_H-M "P -1"
_symmetry_group_IT_number 2
_symmetry_cell_setting 'triclinic'
loop_
_space_group_symop_operation_xyz
x,y,z
-x,-y,-z
loop_
_atom_site_type_symbol
_atom_site_label
_atom_site_fract_x
_atom_site_fract_y
_atom_site_fract_z
Si Si1 0.871473 0.901854 0.345400
Si Si2 0.443998 0.510191 0.635469
Si Si3 0.112271 0.322960 0.569965
Si Si4 0.293006 0.037491 0.675448
Si Si5 0.337514 0.954881 0.154192
Si Si6 0.076747 0.156207 0.106315
Si Si7 0.012497 0.758373 0.209270
Si Si8 0.478401 0.311503 0.151349
O O1 0.837042 0.857293 0.324426
O O2 0.655613 0.051357 0.132840
O O3 0.981374 0.739455 0.233142
O O4 0.941633 0.079097 0.723378
O O5 0.621087 0.236490 0.572876
O O6 0.500864 0.632328 0.832488
O O7 0.235080 0.554440 0.303577
O O8 0.398205 0.688874 0.876318
O O9 0.066700 0.184262 0.230396
O O10 0.958796 0.601500 0.665553
O O11 0.162654 0.208685 0.598455
O O12 0.294557 0.318466 0.855543
O O13 0.500000 0.000000 0.000000
O O14 0.500000 0.000000 0.500000
O O15 0.278351 0.970492 0.171124
O O16 0.165355 0.161949 0.065091
O O17 0.000000 0.000000 0.500000
O O18 0.500000 0.500000 0.500000
#
# Coordination Sequence:
#
# PCOD9098400 Si02
#       8
#     2   2   2   2   2   2   2   2
#     4  12  21  39  66  95 124 173 214 271 320 385
#     4  11  21  39  67  97 129 169 214 271 326 390
#     4  11  25  41  62  99 131 167 221 274 320 396
#     4  12  26  40  68  98 139 169 215 268 337 386
#     4  11  22  36  66 100 128 164 224 276 322 369
#     4  11  23  42  68  91 126 171 226 272 323 380
#     4  10  20  36  65  96 125 161 222 268 311 384
#     4  12  18  34  66  93 122 162 223 264 313 374
#
# _framework density 21.979476999999999
#
# number of rings (size 3 to 8) (size 9 to 14) (size 15 to 20)
#    0.000    0.750    8.750    0.750    1.750    1.500 
#    0.000    1.250    5.500    0.000    0.000    0.000 
#    0.000    0.000    0.000    0.000    0.000    0.000 
#
# Total GULP energy -89070.884898 kJ/mol
# GULP energy per Si atom -5566.930306 kJ/mol
# Density = 2.192945 g / cm^3
# Si number density = 21.979477 Si / 1000 Ang^3
#
#
#
# Elastic Constant Matrix: (Units=GPa)
#
#
# Indices 1 2 3 4 5 6 
#
# 1 163.8461 42.7089 2.7647 -3.9597 -21.8324 4.0452
# 2 42.7089 44.5076 -2.8177 -14.2151 -16.9047 4.0562
# 3 2.7647 -2.8177 62.3990 -14.2611 -9.6216 -3.9275
# 4 -3.9597 -14.2151 -14.2611 24.6103 11.2802 7.0400
# 5 -21.8324 -16.9047 -9.6216 11.2802 46.8843 0.8708
# 6 4.0452 4.0562 -3.9275 7.0400 0.8708 38.3953
#
#
#
# Elastic Compliance Matrix: (Units=1/GPa)
#
#
# Indices 1 2 3 4 5 6 
#
# 1 0.008838 -0.010280 -0.002089 -0.006784 0.001591 0.001149
# 2 -0.010280 0.045797 0.009849 0.029815 0.006729 -0.008367
# 3 -0.002089 0.009849 0.020671 0.016527 0.002878 -0.001802
# 4 -0.006784 0.029815 0.016527 0.073284 -0.006388 -0.014037
# 5 0.001591 0.006729 0.002878 -0.006388 0.026624 -0.000017
# 6 0.001149 -0.008367 -0.001802 -0.014037 -0.000017 0.029198
#
#
# Mechanical properties :
#
#
# Convention : Reuss Voigt Hill
#
# Bulk Modulus (GPa) = 14.23178 39.56273 26.89726
# Shear Modulus (GPa) = 21.47086 37.18442 29.32764
#
# Velocity S-wave (km/s) = 3.12887 4.11759 3.65680
# Velocity P-wave (km/s) = 4.42065 6.37534 5.48576
#
# Compressibility (1/GPa) = 0.07026526
#
# Stress axis : x y z
#
# Youngs Moduli (GPa) = 113.14895 21.83545 48.37755
#
# Poissons Ratio (x) = 0.22447 0.10104
# Poissons Ratio (y) = 1.16319 -0.47645
# Poissons Ratio (z) = 0.23633 -0.21505
#
# Static dielectric constant tensor:
#      x y z
#    x 1.891160 -0.062100 -0.032190 
#    y -0.062100 1.864710 0.011330 
#    z -0.032190 0.011330 1.833560 
# 
# From -- ./inp_files/544478.got.cif
#   From: 2010.05.17/outbox.cif.g08.bks.cpg/sg2_273_cif.got.tgz:544478.got - 2010.06.03 11:33:40.
