data_PCOD9098529
_publ_section_title
;
Structure prediction by ZEFSAII (Michael W. Deem and Ramdas Pophale) SiO2 
 PCOD9098529
Probable space group: P -1
;
_chemical_formula_sum "Si O2"
_cell_formula_units_Z 16
_cell_length_a 9.815448
_cell_length_b 16.334016
_cell_length_c 21.373265
_cell_angle_alpha 161.045757
_cell_angle_beta 42.112502
_cell_angle_gamma 138.945030
_cell_volume 724.403312
_symmetry_space_group_name_H-M "P -1"
_symmetry_group_IT_number 2
_symmetry_cell_setting 'triclinic'
loop_
_space_group_symop_operation_xyz
x,y,z
-x,-y,-z
loop_
_atom_site_type_symbol
_atom_site_label
_atom_site_fract_x
_atom_site_fract_y
_atom_site_fract_z
Si Si1 0.481244 0.662191 0.310588
Si Si2 0.820755 0.090372 0.741911
Si Si3 0.047474 0.948850 0.018502
Si Si4 0.408078 0.036048 0.767667
Si Si5 0.608299 0.254361 0.732156
Si Si6 0.828235 0.453722 0.109454
Si Si7 0.094318 0.463503 0.716779
Si Si8 0.783400 0.497259 0.606971
O O1 0.468797 0.611900 0.204799
O O2 0.620645 0.504778 0.185830
O O3 0.255759 0.597917 0.375795
O O4 0.592280 0.962289 0.501234
O O5 0.985476 0.294257 0.789734
O O6 0.588609 0.091156 0.797732
O O7 0.847170 0.799544 0.514899
O O8 0.867199 0.206379 0.879768
O O9 0.820483 0.932985 0.114838
O O10 0.211523 0.199587 0.172070
O O11 0.124968 0.691430 0.820121
O O12 0.000000 0.000000 0.000000
O O13 0.381833 0.731630 0.537212
O O14 0.478901 0.209129 0.807009
O O15 0.846850 0.384543 0.757934
O O16 0.804644 0.432462 0.176157
O O17 0.000000 0.500000 0.500000
#
# Coordination Sequence:
#
# PCOD9098529 Si02
#       8
#     2   2   2   2   2   2   2   2
#     4  10  20  38  69 103 140 177 225 292 346 425
#     4  11  24  43  68 108 144 182 220 285 367 434
#     4  11  26  45  69  99 135 191 240 290 339 405
#     4  10  22  44  72  98 140 176 235 291 351 421
#     4  10  20  36  68 109 135 170 226 292 366 401
#     4  11  24  42  69 103 150 180 223 278 372 439
#     4  12  23  45  69 102 145 179 228 293 349 424
#     4   9  20  42  65  94 131 188 232 279 339 399
#
# _framework density 22.087143999999999
#
# number of rings (size 3 to 8) (size 9 to 14) (size 15 to 20)
#    0.000    1.500    2.500    2.625    3.500    2.500 
#   11.250    3.125    0.000    0.000    0.000    0.000 
#    0.000    0.000    0.000    0.000    0.000    0.000 
#
# Total GULP energy -89377.439114 kJ/mol
# GULP energy per Si atom -5586.089945 kJ/mol
# Density = 2.203687 g / cm^3
# Si number density = 22.087144 Si / 1000 Ang^3
#
#
#
# Elastic Constant Matrix: (Units=GPa)
#
#
# Indices 1 2 3 4 5 6 
#
# 1 114.1040 32.4198 53.7431 10.1261 2.2856 -20.3065
# 2 32.4198 61.3378 30.2352 17.8743 3.7966 -7.3372
# 3 53.7431 30.2352 149.2800 17.6861 9.5832 -21.4334
# 4 10.1261 17.8743 17.6861 24.2620 1.0171 5.4121
# 5 2.2856 3.7966 9.5832 1.0171 28.5666 -1.3843
# 6 -20.3065 -7.3372 -21.4334 5.4121 -1.3843 38.1381
#
#
#
# Elastic Compliance Matrix: (Units=1/GPa)
#
#
# Indices 1 2 3 4 5 6 
#
# 1 0.012131 -0.004340 -0.002854 -0.000745 0.000792 0.004154
# 2 -0.004340 0.024375 -0.000684 -0.016522 -0.001868 0.004271
# 3 -0.002854 -0.000684 0.009357 -0.006001 -0.002394 0.004372
# 4 -0.000745 -0.016522 -0.006001 0.061505 0.001321 -0.015628
# 5 0.000792 -0.001868 -0.002394 0.001321 0.035939 -0.000166
# 6 0.004154 0.004271 0.004372 -0.015628 -0.000166 0.033923
#
#
# Mechanical properties :
#
#
# Convention : Reuss Voigt Hill
#
# Bulk Modulus (GPa) = 33.21418 61.94642 47.58030
# Shear Modulus (GPa) = 24.62777 32.08160 28.35468
#
# Velocity S-wave (km/s) = 3.34282 3.81530 3.58685
# Velocity P-wave (km/s) = 5.47446 6.89318 6.22438
#
# Compressibility (1/GPa) = 0.03010762
#
# Stress axis : x y z
#
# Youngs Moduli (GPa) = 82.43347 41.02508 106.86745
#
# Poissons Ratio (x) = 0.17804 0.30505
# Poissons Ratio (y) = 0.35773 0.07309
# Poissons Ratio (z) = 0.23530 0.02806
#
# Static dielectric constant tensor:
#      x y z
#    x 1.798470 -0.009230 0.022370 
#    y -0.009230 1.837810 -0.019920 
#    z 0.022370 -0.019920 1.892880 
# 
# From -- ./inp_files/590508.got.cif
#   From: 2010.05.17/outbox.cif.g08.bks.cpg/sg2_296_cif.got.tgz:590508.got - 2010.06.03 11:33:40.
