data_PCOD9098410
_publ_section_title
;
Structure prediction by ZEFSAII (Michael W. Deem and Ramdas Pophale) SiO2 
 PCOD9098410
Probable space group: P -1
;
_chemical_formula_sum "Si O2"
_cell_formula_units_Z 16
_cell_length_a 11.925937
_cell_length_b 22.420636
_cell_length_c 9.892955
_cell_angle_alpha 150.657471
_cell_angle_beta 130.680297
_cell_angle_gamma 39.143385
_cell_volume 815.761003
_symmetry_space_group_name_H-M "P -1"
_symmetry_group_IT_number 2
_symmetry_cell_setting 'triclinic'
loop_
_space_group_symop_operation_xyz
x,y,z
-x,-y,-z
loop_
_atom_site_type_symbol
_atom_site_label
_atom_site_fract_x
_atom_site_fract_y
_atom_site_fract_z
Si Si1 0.900765 0.184469 0.401397
Si Si2 0.922086 0.641189 0.124852
Si Si3 0.461645 0.120324 0.598817
Si Si4 0.069018 0.350495 0.177682
Si Si5 0.479969 0.081006 0.006005
Si Si6 0.224558 0.842592 0.015299
Si Si7 0.235645 0.866638 0.560839
Si Si8 0.099591 0.797274 0.083207
O O1 0.818535 0.219078 0.553265
O O2 0.988876 0.269643 0.597204
O O3 0.757203 0.213850 0.233732
O O4 0.057354 0.012096 0.201505
O O5 0.720281 0.740120 0.214051
O O6 0.949156 0.618843 0.938645
O O7 0.000000 0.500000 0.000000
O O8 0.615212 0.151036 0.788253
O O9 0.500000 0.000000 0.500000
O O10 0.461109 0.043112 0.307305
O O11 0.278381 0.219247 0.098580
O O12 0.000000 0.500000 0.500000
O O13 0.963420 0.288804 0.048808
O O14 0.610035 0.135131 0.241106
O O15 0.500000 0.000000 0.000000
O O16 0.174592 0.757251 0.910936
O O17 0.249552 0.801093 0.294807
O O18 0.076207 0.037375 0.748714
#
# Coordination Sequence:
#
# PCOD9098410 Si02
#       8
#     2   2   2   2   2   2   2   2
#     4  10  20  37  63  96 129 168 219 267 335 388
#     4  12  28  46  67  96 139 183 220 271 338 403
#     4  12  23  43  69 100 136 168 229 282 324 384
#     4  12  27  47  66  97 141 180 217 274 339 404
#     4  12  24  40  70 105 132 171 226 277 329 391
#     4  10  21  36  66 100 126 167 218 284 328 381
#     4  10  20  36  65  97 130 165 220 278 322 385
#     4  10  21  40  63  95 136 170 217 271 335 392
#
# _framework density 19.613589000000001
#
# number of rings (size 3 to 8) (size 9 to 14) (size 15 to 20)
#    0.000    1.000    5.000    1.500    8.750    0.000 
#    0.000    2.500    0.000    0.000    0.000    0.000 
#    0.000    0.000    0.000    0.000    0.000    0.000 
#
# Total GULP energy -89114.287580 kJ/mol
# GULP energy per Si atom -5569.642974 kJ/mol
# Density = 1.956895 g / cm^3
# Si number density = 19.613589 Si / 1000 Ang^3
#
#
#
# Elastic Constant Matrix: (Units=GPa)
#
#
# Indices 1 2 3 4 5 6 
#
# 1 117.8633 61.0233 42.7524 -13.5279 2.2397 27.1508
# 2 61.0233 102.7359 47.7545 -8.0951 -4.2243 25.3036
# 3 42.7524 47.7545 74.2836 -24.9686 -14.0090 11.5338
# 4 -13.5279 -8.0951 -24.9686 28.0008 -6.1443 0.9150
# 5 2.2397 -4.2243 -14.0090 -6.1443 31.6595 -7.5439
# 6 27.1508 25.3036 11.5338 0.9150 -7.5439 41.8894
#
#
#
# Elastic Compliance Matrix: (Units=1/GPa)
#
#
# Indices 1 2 3 4 5 6 
#
# 1 0.014367 -0.004832 -0.005368 -0.000254 -0.005491 -0.005899
# 2 -0.004832 0.018977 -0.012833 -0.009419 -0.005984 -0.005670
# 3 -0.005368 -0.012833 0.040644 0.035162 0.024347 0.003657
# 4 -0.000254 -0.009419 0.035162 0.070354 0.027893 -0.000341
# 5 -0.005491 -0.005984 0.024347 0.027893 0.049452 0.008766
# 6 -0.005899 -0.005670 0.003657 -0.000341 0.008766 0.031700
#
#
# Mechanical properties :
#
#
# Convention : Reuss Voigt Hill
#
# Bulk Modulus (GPa) = 35.81249 66.43813 51.12531
# Shear Modulus (GPa) = 17.80210 29.86679 23.83445
#
# Velocity S-wave (km/s) = 3.01598 3.90649 3.48975
# Velocity P-wave (km/s) = 5.51605 7.36849 6.50851
#
# Compressibility (1/GPa) = 0.02792322
#
# Stress axis : x y z
#
# Youngs Moduli (GPa) = 69.60409 52.69522 24.60395
#
# Poissons Ratio (x) = 0.25460 0.13207
# Poissons Ratio (y) = 0.33630 0.31574
# Poissons Ratio (z) = 0.37361 0.67624
#
# Static dielectric constant tensor:
#      x y z
#    x 1.536720 -0.018160 -0.187640 
#    y -0.018160 1.580360 -0.107250 
#    z -0.187640 -0.107250 1.370030 
# 
# From -- ./inp_files/283519.got.cif
#   From: 2010.05.17/outbox.cif.g08.bks.cpg/sg2_142_cif.got.tgz:283519.got - 2010.06.03 11:33:40.
