data_PCOD9098528
_publ_section_title
;
Structure prediction by ZEFSAII (Michael W. Deem and Ramdas Pophale) SiO2 
 PCOD9098528
Probable space group: P -1
;
_chemical_formula_sum "Si O2"
_cell_formula_units_Z 15
_cell_length_a 9.731552
_cell_length_b 9.808759
_cell_length_c 15.051255
_cell_angle_alpha 74.628152
_cell_angle_beta 60.571771
_cell_angle_gamma 32.572033
_cell_volume 638.763833
_symmetry_space_group_name_H-M "P -1"
_symmetry_group_IT_number 2
_symmetry_cell_setting 'triclinic'
loop_
_space_group_symop_operation_xyz
x,y,z
-x,-y,-z
loop_
_atom_site_type_symbol
_atom_site_label
_atom_site_fract_x
_atom_site_fract_y
_atom_site_fract_z
Si Si1 0.539120 0.618697 0.202695
Si Si2 0.829321 0.491343 0.305608
Si Si3 0.034646 0.059172 0.572763
Si Si4 0.500000 0.500000 0.500000
Si Si5 0.376495 0.059339 0.431521
Si Si6 0.426599 0.189412 0.220624
Si Si7 0.336469 0.185932 0.932747
Si Si8 0.338199 0.691386 0.932719
O O1 0.776689 0.471757 0.228445
O O2 0.463223 0.830945 0.154134
O O3 0.666286 0.425625 0.119438
O O4 0.256874 0.756841 0.312218
O O5 0.767627 0.404313 0.401972
O O6 0.569448 0.798769 0.360018
O O7 0.125574 0.352687 0.248576
O O8 0.333769 0.757464 0.564660
O O9 0.079956 0.191550 0.520838
O O10 0.000000 0.000000 0.500000
O O11 0.500000 0.000000 0.500000
O O12 0.393497 0.178219 0.337923
O O13 0.476688 0.314522 0.161213
O O14 0.667938 0.918633 0.131575
O O15 0.000000 0.500000 0.000000
O O16 0.500000 0.000000 0.000000
O O17 0.500000 0.500000 0.000000
O O18 0.000000 0.000000 0.000000
#
# Coordination Sequence:
#
# PCOD9098528 Si02
#       8
#     2   2   2   1   2   2   2   2
#     4  12  25  48  80 112 155 212 263 334 400 484
#     4  11  24  43  74 109 152 203 268 310 391 472
#     4  11  21  44  68 109 149 195 257 309 386 475
#     4  10  20  36  68 106 156 190 248 318 364 458
#     4  11  26  45  71 109 160 204 256 320 393 484
#     4  12  27  49  78 111 161 206 270 330 406 487
#     4  12  25  45  78 112 144 195 265 332 393 456
#     4  12  32  56  81 118 164 211 274 348 420 478
#
# _framework density 23.482858
#
# number of rings (size 3 to 8) (size 9 to 14) (size 15 to 20)
#    0.000    0.533    4.000    4.000    3.733    4.800 
#    0.000    0.000    0.000    0.000    0.000    0.000 
#    0.000    0.000    0.000    0.000    0.000    0.000 
#
# Total GULP energy -83621.210869 kJ/mol
# GULP energy per Si atom -5574.747391 kJ/mol
# Density = 2.342941 g / cm^3
# Si number density = 23.482858 Si / 1000 Ang^3
#
#
#
# Elastic Constant Matrix: (Units=GPa)
#
#
# Indices 1 2 3 4 5 6 
#
# 1 147.2858 37.8023 67.1623 -37.8356 9.3204 0.1930
# 2 37.8023 89.1619 44.9519 -28.9398 1.6352 -8.2656
# 3 67.1623 44.9519 118.0171 -40.0194 -4.3030 -16.7343
# 4 -37.8356 -28.9398 -40.0194 50.0094 13.7803 -8.5096
# 5 9.3204 1.6352 -4.3030 13.7803 63.6451 -2.4676
# 6 0.1930 -8.2656 -16.7343 -8.5096 -2.4676 39.7690
#
#
#
# Elastic Compliance Matrix: (Units=1/GPa)
#
#
# Indices 1 2 3 4 5 6 
#
# 1 0.010279 -0.000818 -0.004335 0.004382 -0.002776 -0.001278
# 2 -0.000818 0.015667 -0.002438 0.007677 -0.001964 0.003755
# 3 -0.004335 -0.002438 0.016451 0.009934 -0.000009 0.008562
# 4 0.004382 0.007677 0.009934 0.040371 -0.008370 0.013873
# 5 -0.002776 -0.001964 -0.000009 -0.008370 0.017939 -0.001077
# 6 -0.001278 0.003755 0.008562 0.013873 -0.001077 0.032436
#
#
# Mechanical properties :
#
#
# Convention : Reuss Voigt Hill
#
# Bulk Modulus (GPa) = 36.74300 72.69974 54.72137
# Shear Modulus (GPa) = 31.76682 44.32124 38.04403
#
# Velocity S-wave (km/s) = 3.68199 4.34912 4.02938
# Velocity P-wave (km/s) = 5.81006 7.49971 6.70829
#
# Compressibility (1/GPa) = 0.02721607
#
# Stress axis : x y z
#
# Youngs Moduli (GPa) = 97.28485 63.82682 60.78663
#
# Poissons Ratio (x) = 0.05221 0.26349
# Poissons Ratio (y) = 0.07958 0.14820
# Poissons Ratio (z) = 0.42170 0.15561
#
# Static dielectric constant tensor:
#      x y z
#    x 2.089690 1.094690 0.217320 
#    y 1.094690 6.621890 1.037080 
#    z 0.217320 1.037080 2.194450 
# 
# From -- ./inp_files/494825.got.cif
#   From: 2010.05.17/outbox.cif.g08.bks.cpg/sg2_248_cif.got.tgz:494825.got - 2010.06.03 11:33:40.
