data_PCOD9098168
_publ_section_title
;
Structure prediction by ZEFSAII (Michael W. Deem and Ramdas Pophale) SiO2 
 PCOD9098168
Probable space group: P -1
;
_chemical_formula_sum "Si O2"
_cell_formula_units_Z 16
_cell_length_a 5.701963
_cell_length_b 8.217948
_cell_length_c 16.666430
_cell_angle_alpha 88.202947
_cell_angle_beta 72.192556
_cell_angle_gamma 102.118712
_cell_volume 723.135607
_symmetry_space_group_name_H-M "P -1"
_symmetry_group_IT_number 2
_symmetry_cell_setting 'triclinic'
loop_
_space_group_symop_operation_xyz
x,y,z
-x,-y,-z
loop_
_atom_site_type_symbol
_atom_site_label
_atom_site_fract_x
_atom_site_fract_y
_atom_site_fract_z
Si Si1 0.669585 0.472955 0.812098
Si Si2 0.451291 0.876734 0.813415
Si Si3 0.261281 0.050359 0.065181
Si Si4 0.044740 0.365166 0.062786
Si Si5 0.108627 0.351194 0.692148
Si Si6 0.786304 0.601361 0.494937
Si Si7 0.453349 0.320492 0.325401
Si Si8 0.224150 0.193807 0.836940
O O1 0.666184 0.608512 0.741044
O O2 0.386672 0.364383 0.853431
O O3 0.837289 0.358125 0.755140
O O4 0.789787 0.537584 0.882863
O O5 0.682624 0.890763 0.849741
O O6 0.489946 0.845070 0.716406
O O7 0.228165 0.726299 0.871159
O O8 0.363425 0.045571 0.834660
O O9 0.172045 0.206910 0.032431
O O10 0.049214 0.879639 0.096430
O O11 0.500000 0.000000 0.000000
O O12 0.000000 0.500000 0.000000
O O13 0.108869 0.306042 0.599677
O O14 0.293237 0.537419 0.681966
O O15 0.209789 0.230889 0.743361
O O16 0.500000 0.500000 0.500000
O O17 0.728279 0.698037 0.578711
O O18 0.000000 0.500000 0.500000
#
# Coordination Sequence:
#
# PCOD9098168 Si02
#       8
#     2   2   2   2   2   2   2   2
#     4  11  20  42  71  97 131 174 233 285 342 410
#     4  11  23  45  66  94 134 184 224 278 356 418
#     4  11  26  50  67  94 137 185 229 288 358 425
#     4  11  26  45  71 103 132 171 238 295 353 414
#     4  10  20  38  67 104 135 176 227 283 345 411
#     4  10  20  36  64 109 148 179 228 297 352 417
#     4  10  20  38  68 100 132 180 229 279 343 419
#     4  10  25  42  70  96 134 182 231 275 355 425
#
# _framework density 22.125862000000001
#
# number of rings (size 3 to 8) (size 9 to 14) (size 15 to 20)
#    0.000    1.500    3.750    0.750    0.000    5.500 
#    2.250    3.125    0.000    3.000    0.000    0.000 
#    0.000    0.000    0.000    0.000    0.000    0.000 
#
# Total GULP energy -89388.618839 kJ/mol
# GULP energy per Si atom -5586.788677 kJ/mol
# Density = 2.207550 g / cm^3
# Si number density = 22.125862 Si / 1000 Ang^3
#
#
#
# Elastic Constant Matrix: (Units=GPa)
#
#
# Indices 1 2 3 4 5 6 
#
# 1 101.9416 26.0375 48.4908 -6.4326 10.0302 11.8302
# 2 26.0375 58.7350 36.0326 -1.0817 -2.5293 9.8564
# 3 48.4908 36.0326 131.1861 9.9501 9.1389 19.7566
# 4 -6.4326 -1.0817 9.9501 34.3502 -7.2688 5.0831
# 5 10.0302 -2.5293 9.1389 -7.2688 35.1925 7.1758
# 6 11.8302 9.8564 19.7566 5.0831 7.1758 27.2791
#
#
#
# Elastic Compliance Matrix: (Units=1/GPa)
#
#
# Indices 1 2 3 4 5 6 
#
# 1 0.013031 -0.003158 -0.003785 0.003318 -0.001887 -0.001891
# 2 -0.003158 0.022645 -0.004899 0.003532 0.005631 -0.005404
# 3 -0.003785 -0.004899 0.011363 -0.004154 -0.002385 -0.003417
# 4 0.003318 0.003532 -0.004154 0.034253 0.009197 -0.008508
# 5 -0.001887 0.005631 -0.002385 0.009197 0.033942 -0.010131
# 6 -0.001891 -0.005404 -0.003417 -0.008508 -0.010131 0.046155
#
#
# Mechanical properties :
#
#
# Convention : Reuss Voigt Hill
#
# Bulk Modulus (GPa) = 42.81493 56.99826 49.90660
# Shear Modulus (GPa) = 25.92578 31.45114 28.68846
#
# Velocity S-wave (km/s) = 3.42678 3.77432 3.60474
# Velocity P-wave (km/s) = 5.92028 6.69409 6.31904
#
# Compressibility (1/GPa) = 0.02335634
#
# Stress axis : x y z
#
# Youngs Moduli (GPa) = 76.74127 44.15922 88.00403
#
# Poissons Ratio (x) = 0.13944 0.33307
# Poissons Ratio (y) = 0.24232 0.43114
# Poissons Ratio (z) = 0.29044 0.21634
#
# Static dielectric constant tensor:
#      x y z
#    x 1.883880 -0.033270 -0.021040 
#    y -0.033270 1.845830 0.046300 
#    z -0.021040 0.046300 1.819870 
# 
# From -- ./inp_files/51565.got.cif
#   From: 2010.05.17/outbox.cif.g08.bks.cpg/sg2_26_cif.got.tgz:51565.got - 2010.06.03 11:33:40.
