data_PCOD9098531
_publ_section_title
;
Structure prediction by ZEFSAII (Michael W. Deem and Ramdas Pophale) SiO2 
 PCOD9098531
Probable space group: P -1
;
_chemical_formula_sum "Si O2"
_cell_formula_units_Z 15
_cell_length_a 9.215381
_cell_length_b 8.129535
_cell_length_c 11.777810
_cell_angle_alpha 107.880633
_cell_angle_beta 94.952639
_cell_angle_gamma 46.753878
_cell_volume 601.808952
_symmetry_space_group_name_H-M "P -1"
_symmetry_group_IT_number 2
_symmetry_cell_setting 'triclinic'
loop_
_space_group_symop_operation_xyz
x,y,z
-x,-y,-z
loop_
_atom_site_type_symbol
_atom_site_label
_atom_site_fract_x
_atom_site_fract_y
_atom_site_fract_z
Si Si1 0.297058 0.801050 0.553488
Si Si2 0.000000 0.000000 0.000000
Si Si3 0.316769 0.603449 0.760275
Si Si4 0.689048 0.657075 0.447356
Si Si5 0.888283 0.333552 0.659241
Si Si6 0.158331 0.245905 0.356334
Si Si7 0.693396 0.092852 0.914405
Si Si8 0.676158 0.469019 0.902819
O O1 0.313121 0.702591 0.659032
O O2 0.509004 0.715268 0.518079
O O3 0.230012 0.720244 0.431714
O O4 0.118194 0.085675 0.611693
O O5 0.884552 0.191497 0.142673
O O6 0.150686 0.062834 0.006748
O O7 0.351532 0.371305 0.688825
O O8 0.503140 0.514848 0.828342
O O9 0.711731 0.828525 0.537006
O O10 0.928353 0.391531 0.408658
O O11 0.848085 0.556875 0.655830
O O12 0.828136 0.397246 0.801048
O O13 0.256968 0.042623 0.226608
O O14 0.768841 0.238640 0.938484
O O15 0.460120 0.289697 0.979702
#
# Coordination Sequence:
#
# PCOD9098531 Si02
#       8
#     2   1   2   2   2   2   2   2
#     4  11  23  40  66  94 133 172 229 250 318 398
#     4  10  20  36  68  88 122 172 214 264 318 382
#     4  11  19  39  65  93 122 168 223 266 301 388
#     4  11  22  40  63  94 133 176 207 265 327 390
#     4  11  23  39  65  98 130 176 212 277 315 385
#     4  11  24  40  64  97 139 161 210 278 341 366
#     4  10  22  42  63  98 125 172 220 272 318 392
#     4  10  22  40  69  91 124 173 228 260 314 390
#
# _framework density 24.924852999999999
#
# number of rings (size 3 to 8) (size 9 to 14) (size 15 to 20)
#    0.000    1.333    4.000    2.000    0.000    2.133 
#    2.400    0.000    0.000    4.800    0.000    0.000 
#    0.000    0.000    0.000    0.000    0.000    0.000 
#
# Total GULP energy -83551.903436 kJ/mol
# GULP energy per Si atom -5570.126896 kJ/mol
# Density = 2.486812 g / cm^3
# Si number density = 24.924853 Si / 1000 Ang^3
#
#
#
# Elastic Constant Matrix: (Units=GPa)
#
#
# Indices 1 2 3 4 5 6 
#
# 1 122.0063 38.9630 63.8242 12.4742 -21.7014 -21.4088
# 2 38.9630 98.7294 55.4613 11.6989 -13.6792 -13.8926
# 3 63.8242 55.4613 239.8161 41.7142 -16.8453 -10.6660
# 4 12.4742 11.6989 41.7142 54.8171 -7.7609 -11.5216
# 5 -21.7014 -13.6792 -16.8453 -7.7609 52.6083 -4.8087
# 6 -21.4088 -13.8926 -10.6660 -11.5216 -4.8087 33.3902
#
#
#
# Elastic Compliance Matrix: (Units=1/GPa)
#
#
# Indices 1 2 3 4 5 6 
#
# 1 0.012004 -0.001915 -0.002396 0.001706 0.004614 0.007388
# 2 -0.001915 0.012957 -0.002242 0.000536 0.002303 0.003964
# 3 -0.002396 -0.002242 0.005891 -0.003947 -0.000451 -0.002014
# 4 0.001706 0.000536 -0.003947 0.023076 0.003766 0.008561
# 5 0.004614 0.002303 -0.000451 0.003766 0.022684 0.008338
# 6 0.007388 0.003964 -0.002014 0.008561 0.008338 0.039846
#
#
# Mechanical properties :
#
#
# Convention : Reuss Voigt Hill
#
# Bulk Modulus (GPa) = 56.34913 86.33874 71.34394
# Shear Modulus (GPa) = 36.90618 48.31667 42.61142
#
# Velocity S-wave (km/s) = 3.85216 4.40761 4.13921
# Velocity P-wave (km/s) = 6.51477 7.78572 7.17843
#
# Compressibility (1/GPa) = 0.01774650
#
# Stress axis : x y z
#
# Youngs Moduli (GPa) = 83.30816 77.17751 169.74325
#
# Poissons Ratio (x) = 0.14777 0.40670
# Poissons Ratio (y) = 0.15950 0.38059
# Poissons Ratio (z) = 0.19960 0.17304
#
# Static dielectric constant tensor:
#      x y z
#    x 2.078900 -0.090540 0.097590 
#    y -0.090540 2.315430 -0.083740 
#    z 0.097590 -0.083740 2.014200 
# 
# From -- ./inp_files/383272.got.cif
#   From: 2010.05.17/outbox.cif.g08.bks.cpg/sg2_192_cif.got.tgz:383272.got - 2010.06.03 11:33:40.
