data_PCOD9098885
_publ_section_title
;
Structure prediction by ZEFSAII (Michael W. Deem and Ramdas Pophale) SiO2 
 PCOD9098885
Probable space group: P -1
;
_chemical_formula_sum "Si O2"
_cell_formula_units_Z 16
_cell_length_a 10.546612
_cell_length_b 8.212486
_cell_length_c 9.047767
_cell_angle_alpha 64.065204
_cell_angle_beta 118.886918
_cell_angle_gamma 85.885478
_cell_volume 575.814241
_symmetry_space_group_name_H-M "P -1"
_symmetry_group_IT_number 2
_symmetry_cell_setting 'triclinic'
loop_
_space_group_symop_operation_xyz
x,y,z
-x,-y,-z
loop_
_atom_site_type_symbol
_atom_site_label
_atom_site_fract_x
_atom_site_fract_y
_atom_site_fract_z
Si Si1 0.998806 0.901805 0.696796
Si Si2 0.100391 0.410807 0.241877
Si Si3 0.260231 0.589794 0.411228
Si Si4 0.829832 0.531099 0.283732
Si Si5 0.362263 0.689991 0.025538
Si Si6 0.057004 0.171298 0.838606
Si Si7 0.464934 0.264658 0.170034
Si Si8 0.382740 0.898905 0.242349
O O1 0.864299 0.818474 0.677310
O O2 0.176080 0.765769 0.897090
O O3 0.968559 0.062860 0.741765
O O4 0.000000 0.000000 0.500000
O O5 0.969444 0.418958 0.295770
O O6 0.275074 0.402026 0.397460
O O7 0.000000 0.500000 0.000000
O O8 0.226040 0.556041 0.573735
O O9 0.361225 0.718263 0.388342
O O10 0.080579 0.679272 0.200909
O O11 0.884319 0.706545 0.293628
O O12 0.684305 0.636399 0.058218
O O13 0.395927 0.748914 0.857150
O O14 0.437628 0.456353 0.180398
O O15 0.427332 0.801424 0.141175
O O16 0.202874 0.039493 0.060588
O O17 0.461349 0.049848 0.283762
#
# Coordination Sequence:
#
# PCOD9098885 Si02
#       8
#     2   2   2   2   2   2   2   2
#     4  11  20  34  58  90 123 150 196 256 308 359
#     4  11  21  35  58  87 124 162 198 248 303 369
#     4  11  21  36  56  87 126 159 194 258 310 365
#     4  10  20  37  58  82 118 160 205 244 315 358
#     4  10  21  39  63  92 118 160 216 254 297 371
#     4   9  19  33  52  82 116 158 198 239 299 374
#     4  10  21  39  67  85 118 168 209 252 304 366
#     4  10  21  37  59  88 119 158 212 250 303 369
#
# _framework density 27.786740999999999
#
# number of rings (size 3 to 8) (size 9 to 14) (size 15 to 20)
#    0.000    1.750    1.250    5.250    0.000    2.000 
#    0.000    0.625    0.000    4.500    0.000    0.000 
#    0.000    0.000    0.000    0.000    0.000    0.000 
#
# Total GULP energy -89203.197006 kJ/mol
# GULP energy per Si atom -5575.199813 kJ/mol
# Density = 2.772350 g / cm^3
# Si number density = 27.786741 Si / 1000 Ang^3
#
#
#
# Elastic Constant Matrix: (Units=GPa)
#
#
# Indices 1 2 3 4 5 6 
#
# 1 84.0109 27.3957 31.4951 -8.9784 -15.9789 13.6316
# 2 27.3957 95.2731 40.6119 -28.7900 -15.8991 34.4306
# 3 31.4951 40.6119 132.5224 4.8909 -26.2535 8.7415
# 4 -8.9784 -28.7900 4.8909 34.8557 11.3040 -18.7582
# 5 -15.9789 -15.8991 -26.2535 11.3040 42.3204 -6.3682
# 6 13.6316 34.4306 8.7415 -18.7582 -6.3682 45.3887
#
#
#
# Elastic Compliance Matrix: (Units=1/GPa)
#
#
# Indices 1 2 3 4 5 6 
#
# 1 0.014219 -0.001904 -0.002107 0.000448 0.002952 -0.001821
# 2 -0.001904 0.020407 -0.006037 0.013131 -0.001591 -0.008542
# 3 -0.002107 -0.006037 0.011532 -0.009223 0.006569 0.000102
# 4 0.000448 0.013131 -0.009223 0.050922 -0.012571 0.010962
# 5 0.002952 -0.001591 0.006569 -0.012571 0.031316 -0.001747
# 6 -0.001821 -0.008542 0.000102 0.010962 -0.001747 0.033324
#
#
# Mechanical properties :
#
#
# Convention : Reuss Voigt Hill
#
# Bulk Modulus (GPa) = 38.37357 56.75688 47.56523
# Shear Modulus (GPa) = 26.24612 38.66654 32.45633
#
# Velocity S-wave (km/s) = 3.07670 3.73439 3.42138
# Velocity P-wave (km/s) = 5.14407 6.25016 5.72389
#
# Compressibility (1/GPa) = 0.02605960
#
# Stress axis : x y z
#
# Youngs Moduli (GPa) = 70.32816 49.00348 86.71570
#
# Poissons Ratio (x) = 0.09332 0.18273
# Poissons Ratio (y) = 0.13393 0.52354
# Poissons Ratio (z) = 0.14820 0.29585
#
# Static dielectric constant tensor:
#      x y z
#    x 2.223060 0.044880 0.099650 
#    y 0.044880 3.225200 0.035660 
#    z 0.099650 0.035660 2.232470 
# 
# From -- ./inp_files/237217.got.cif
#   From: 2010.05.17/outbox.cif.g08.bks.cpg/sg2_119_cif.got.tgz:237217.got - 2010.06.03 11:33:40.
