data_PCOD9098354
_publ_section_title
;
Structure prediction by ZEFSAII (Michael W. Deem and Ramdas Pophale) SiO2 
 PCOD9098354
Probable space group: P -1
;
_chemical_formula_sum "Si O2"
_cell_formula_units_Z 16
_cell_length_a 7.963600
_cell_length_b 10.596310
_cell_length_c 11.127349
_cell_angle_alpha 113.748079
_cell_angle_beta 82.535676
_cell_angle_gamma 60.551028
_cell_volume 682.155715
_symmetry_space_group_name_H-M "P -1"
_symmetry_group_IT_number 2
_symmetry_cell_setting 'triclinic'
loop_
_space_group_symop_operation_xyz
x,y,z
-x,-y,-z
loop_
_atom_site_type_symbol
_atom_site_label
_atom_site_fract_x
_atom_site_fract_y
_atom_site_fract_z
Si Si1 0.697135 0.726194 0.578724
Si Si2 0.353196 0.995667 0.141335
Si Si3 0.841529 0.403040 0.588743
Si Si4 0.716108 0.974953 0.417087
Si Si5 0.508648 0.497488 0.853041
Si Si6 0.915914 0.093951 0.317483
Si Si7 0.455051 0.204416 0.732078
Si Si8 0.751917 0.130992 0.095465
O O1 0.715980 0.566238 0.573025
O O2 0.494792 0.856088 0.563183
O O3 0.918827 0.653251 0.461679
O O4 0.682576 0.835919 0.736893
O O5 0.534529 0.835080 0.142536
O O6 0.356350 0.952400 0.984586
O O7 0.141637 0.019085 0.213731
O O8 0.723378 0.441697 0.742324
O O9 0.844785 0.252512 0.469141
O O10 0.917243 0.954987 0.341634
O O11 0.667150 0.039036 0.583456
O O12 0.716389 0.816994 0.314995
O O13 0.449237 0.369183 0.772332
O O14 0.341814 0.690106 0.892695
O O15 0.500000 0.500000 0.000000
O O16 0.751568 0.149975 0.245289
O O17 0.000000 0.000000 0.000000
#
# Coordination Sequence:
#
# PCOD9098354 Si02
#       8
#     2   2   2   2   2   2   2   2
#     4   9  20  38  61  90 125 155 209 262 308 358
#     4   9  19  40  58  85 124 164 207 246 310 376
#     4  10  21  39  62  94 119 163 207 260 310 363
#     4  10  20  37  58  91 122 157 204 261 304 366
#     4  12  23  40  65  92 127 166 208 252 308 380
#     4  10  20  36  65  90 115 164 213 259 304 360
#     4  10  21  38  56  87 123 164 195 253 309 368
#     4  10  22  39  61  91 121 160 206 260 305 364
#
# _framework density 23.455055999999999
#
# number of rings (size 3 to 8) (size 9 to 14) (size 15 to 20)
#    0.000    2.000    2.500    0.750    1.750    1.500 
#    6.750    1.875    0.000    3.750    0.000    0.000 
#    0.000    0.000    0.000    0.000    0.000    0.000 
#
# Total GULP energy -89319.767551 kJ/mol
# GULP energy per Si atom -5582.485472 kJ/mol
# Density = 2.340167 g / cm^3
# Si number density = 23.455056 Si / 1000 Ang^3
#
#
#
# Elastic Constant Matrix: (Units=GPa)
#
#
# Indices 1 2 3 4 5 6 
#
# 1 58.5842 19.9397 43.6835 0.1231 0.8107 7.5217
# 2 19.9397 94.5776 30.6450 10.3063 4.7596 -0.9666
# 3 43.6835 30.6450 112.6490 -18.4332 -8.0814 5.3376
# 4 0.1231 10.3063 -18.4332 43.5447 4.9232 7.6520
# 5 0.8107 4.7596 -8.0814 4.9232 48.5765 -0.7074
# 6 7.5217 -0.9666 5.3376 7.6520 -0.7074 43.2374
#
#
#
# Elastic Compliance Matrix: (Units=1/GPa)
#
#
# Indices 1 2 3 4 5 6 
#
# 1 0.025415 -0.001754 -0.009887 -0.003185 -0.001614 -0.002703
# 2 -0.001754 0.012771 -0.003763 -0.004790 -0.001335 0.001881
# 3 -0.009887 -0.003763 0.015172 0.007346 0.002292 -0.001500
# 4 -0.003185 -0.004790 0.007346 0.028318 -0.001205 -0.005491
# 5 -0.001614 -0.001335 0.002292 -0.001205 0.021255 0.000529
# 6 -0.002703 0.001881 -0.001500 -0.005491 0.000529 0.024806
#
#
# Mechanical properties :
#
#
# Convention : Reuss Voigt Hill
#
# Bulk Modulus (GPa) = 44.34554 50.48302 47.41428
# Shear Modulus (GPa) = 30.10932 38.50790 34.30861
#
# Velocity S-wave (km/s) = 3.58677 4.05628 3.82873
# Velocity P-wave (km/s) = 6.00840 6.59605 6.30907
#
# Compressibility (1/GPa) = 0.02255018
#
# Stress axis : x y z
#
# Youngs Moduli (GPa) = 39.34712 78.30425 65.90954
#
# Poissons Ratio (x) = 0.13734 0.65166
# Poissons Ratio (y) = 0.06901 0.24800
# Poissons Ratio (z) = 0.38903 0.29464
#
# Static dielectric constant tensor:
#      x y z
#    x 1.961230 0.008050 -0.038830 
#    y 0.008050 1.913650 -0.060940 
#    z -0.038830 -0.060940 1.985660 
# 
# From -- ./inp_files/391035.got.cif
#   From: 2010.05.17/outbox.cif.g08.bks.cpg/sg2_196_cif.got.tgz:391035.got - 2010.06.03 11:33:40.
