data_PCOD9098379
_publ_section_title
;
Structure prediction by ZEFSAII (Michael W. Deem and Ramdas Pophale) SiO2 
 PCOD9098379
Probable space group: P -1
;
_chemical_formula_sum "Si O2"
_cell_formula_units_Z 14
_cell_length_a 16.714108
_cell_length_b 22.060834
_cell_length_c 9.244204
_cell_angle_alpha 153.212522
_cell_angle_beta 22.234426
_cell_angle_gamma 152.862128
_cell_volume 539.347676
_symmetry_space_group_name_H-M "P -1"
_symmetry_group_IT_number 2
_symmetry_cell_setting 'triclinic'
loop_
_space_group_symop_operation_xyz
x,y,z
-x,-y,-z
loop_
_atom_site_type_symbol
_atom_site_label
_atom_site_fract_x
_atom_site_fract_y
_atom_site_fract_z
Si Si1 0.225096 0.464175 0.003296
Si Si2 0.676286 0.256114 0.738032
Si Si3 0.083396 0.670065 0.222587
Si Si4 0.963798 0.144381 0.818719
Si Si5 0.150882 0.878153 0.337038
Si Si6 0.571803 0.610375 0.979581
Si Si7 0.342478 0.113749 0.746707
O O1 0.312870 0.583461 0.982965
O O2 0.000000 0.500000 0.500000
O O3 0.425699 0.506581 0.875545
O O4 0.149231 0.290527 0.746072
O O5 0.474027 0.141759 0.739331
O O6 0.713684 0.259046 0.852768
O O7 0.883163 0.216152 0.240394
O O8 0.846816 0.685614 0.693325
O O9 0.134615 0.720861 0.080586
O O10 0.000000 0.500000 0.000000
O O11 0.788466 0.090178 0.863085
O O12 0.000000 0.000000 0.500000
O O13 0.299114 0.976102 0.425556
O O14 0.906898 0.892454 0.800555
O O15 0.500000 0.500000 0.000000
O O16 0.534249 0.753592 0.287845
#
# Coordination Sequence:
#
# PCOD9098379 Si02
#       7
#     2   2   2   2   2   2   2
#     4   9  19  38  61  87 122 163 206 266 310 367
#     4  10  22  43  67  92 126 168 223 262 318 383
#     4  11  24  42  66  97 129 170 217 265 324 387
#     4  11  24  38  64  98 130 168 212 266 319 383
#     4  10  23  42  63  89 137 166 213 263 323 383
#     4  10  20  36  65  93 123 166 215 263 316 376
#     4   9  22  41  65  90 127 176 208 264 323 380
#
# _framework density 25.957280999999998
#
# number of rings (size 3 to 8) (size 9 to 14) (size 15 to 20)
#    0.000    2.000    0.000    2.571    8.000    4.571 
#    2.571    4.286    0.000    0.000    0.000    0.000 
#    0.000    0.000    0.000    0.000    0.000    0.000 
#
# Total GULP energy -78033.183714 kJ/mol
# GULP energy per Si atom -5573.798837 kJ/mol
# Density = 2.589820 g / cm^3
# Si number density = 25.957281 Si / 1000 Ang^3
#
#
#
# Elastic Constant Matrix: (Units=GPa)
#
#
# Indices 1 2 3 4 5 6 
#
# 1 204.5505 40.4381 33.6470 12.1651 -34.3905 -3.2028
# 2 40.4381 83.0985 26.3388 15.7115 -19.7832 9.1736
# 3 33.6470 26.3388 54.2716 23.1078 -7.9375 -12.3221
# 4 12.1651 15.7115 23.1078 54.6265 -3.6229 -9.1208
# 5 -34.3905 -19.7832 -7.9375 -3.6229 25.8793 -0.7906
# 6 -3.2028 9.1736 -12.3221 -9.1208 -0.7906 46.7110
#
#
#
# Elastic Compliance Matrix: (Units=1/GPa)
#
#
# Indices 1 2 3 4 5 6 
#
# 1 0.006759 -0.000611 -0.002951 0.000431 0.007671 0.000019
# 2 -0.000611 0.018174 -0.007265 -0.002300 0.010353 -0.005801
# 3 -0.002951 -0.007265 0.028706 -0.008310 -0.001616 0.007147
# 4 0.000431 -0.002300 -0.008310 0.022813 -0.000457 0.002736
# 5 0.007671 0.010353 -0.001616 -0.000457 0.056157 -0.001073
# 6 0.000019 -0.005801 0.007147 0.002736 -0.001073 0.024950
#
#
# Mechanical properties :
#
#
# Convention : Reuss Voigt Hill
#
# Bulk Modulus (GPa) = 31.26498 60.30760 45.78629
# Shear Modulus (GPa) = 26.33288 41.54314 33.93801
#
# Velocity S-wave (km/s) = 3.18853 4.00489 3.61980
# Velocity P-wave (km/s) = 5.06227 6.68352 5.92857
#
# Compressibility (1/GPa) = 0.03198467
#
# Stress axis : x y z
#
# Youngs Moduli (GPa) = 147.94143 55.02304 34.83598
#
# Poissons Ratio (x) = 0.03363 0.10281
# Poissons Ratio (y) = 0.09043 0.25308
# Poissons Ratio (z) = 0.43661 0.39974
#
# Static dielectric constant tensor:
#      x y z
#    x 1.954000 -0.000030 0.022670 
#    y -0.000030 2.207810 0.001020 
#    z 0.022670 0.001020 2.067590 
# 
# From -- ./inp_files/319534.got.cif
#   From: 2010.05.17/outbox.cif.g08.bks.cpg/sg2_160_cif.got.tgz:319534.got - 2010.06.03 11:33:40.
