data_PCOD9098995
_publ_section_title
;
Structure prediction by ZEFSAII (Michael W. Deem and Ramdas Pophale) SiO2 
 PCOD9098995
Probable space group: P -1
;
_chemical_formula_sum "Si O2"
_cell_formula_units_Z 14
_cell_length_a 10.664248
_cell_length_b 22.168272
_cell_length_c 9.096383
_cell_angle_alpha 142.431596
_cell_angle_beta 138.639103
_cell_angle_gamma 27.905870
_cell_volume 604.111926
_symmetry_space_group_name_H-M "P -1"
_symmetry_group_IT_number 2
_symmetry_cell_setting 'triclinic'
loop_
_space_group_symop_operation_xyz
x,y,z
-x,-y,-z
loop_
_atom_site_type_symbol
_atom_site_label
_atom_site_fract_x
_atom_site_fract_y
_atom_site_fract_z
Si Si1 0.400813 0.604630 0.908144
Si Si2 0.915049 0.421196 0.224077
Si Si3 0.167121 0.056324 0.216414
Si Si4 0.461247 0.231322 0.201629
Si Si5 0.445998 0.148443 0.580165
Si Si6 0.284784 0.845632 0.421690
Si Si7 0.523631 0.310910 0.129812
O O1 0.673397 0.503708 0.051821
O O2 0.258103 0.761399 0.131050
O O3 0.197577 0.596500 0.769293
O O4 0.483553 0.588086 0.779450
O O5 0.000000 0.500000 0.500000
O O6 0.185843 0.281591 0.110419
O O7 0.221672 0.148895 0.397875
O O8 0.845099 0.162135 0.137410
O O9 0.299914 0.988602 0.363739
O O10 0.337937 0.923143 0.997261
O O11 0.593172 0.227747 0.455980
O O12 0.411690 0.337606 0.246192
O O13 0.529675 0.144773 0.482478
O O14 0.374499 0.279241 0.846337
O O15 0.000000 0.000000 0.500000
#
# Coordination Sequence:
#
# PCOD9098995 Si02
#       7
#     2   2   2   2   2   2   2
#     4  10  24  43  65  85 124 167 200 259 311 354
#     4  11  24  46  64  87 122 165 215 257 297 356
#     4  10  20  37  58  90 130 162 197 246 315 364
#     4  11  22  37  64  89 124 164 206 254 298 366
#     4   9  20  35  55  87 127 167 188 240 309 368
#     4  11  21  36  62  96 125 154 203 253 309 366
#     4  10  21  41  60  91 126 158 198 258 308 366
#
# _framework density 23.174513999999999
#
# number of rings (size 3 to 8) (size 9 to 14) (size 15 to 20)
#    0.000    1.714    1.429    4.286    4.000    1.143 
#    2.571    0.714    0.000    0.000    0.000    0.000 
#    0.000    0.000    0.000    0.000    0.000    0.000 
#
# Total GULP energy -78242.841605 kJ/mol
# GULP energy per Si atom -5588.774400 kJ/mol
# Density = 2.312177 g / cm^3
# Si number density = 23.174514 Si / 1000 Ang^3
#
#
#
# Elastic Constant Matrix: (Units=GPa)
#
#
# Indices 1 2 3 4 5 6 
#
# 1 208.3243 4.4098 62.8456 -11.7338 9.7658 21.1533
# 2 4.4098 31.3334 7.9396 -2.5185 0.3220 -8.8200
# 3 62.8456 7.9396 71.6173 -2.2081 5.8038 -10.1407
# 4 -11.7338 -2.5185 -2.2081 17.4909 1.2605 -1.4653
# 5 9.7658 0.3220 5.8038 1.2605 51.9989 -11.6162
# 6 21.1533 -8.8200 -10.1407 -1.4653 -11.6162 34.0789
#
#
#
# Elastic Compliance Matrix: (Units=1/GPa)
#
#
# Indices 1 2 3 4 5 6 
#
# 1 0.008594 -0.001260 -0.008316 0.003987 -0.002764 -0.008906
# 2 -0.001260 0.035817 -0.001401 0.004854 0.002438 0.010675
# 3 -0.008316 -0.001401 0.022930 -0.001996 0.001772 0.012140
# 4 0.003987 0.004854 -0.001996 0.060447 -0.001998 0.000105
# 5 -0.002764 0.002438 0.001772 -0.001998 0.021874 0.010244
# 6 -0.008906 0.010675 0.012140 0.000105 0.010244 0.044743
#
#
# Mechanical properties :
#
#
# Convention : Reuss Voigt Hill
#
# Bulk Modulus (GPa) = 22.03313 51.29609 36.66461
# Shear Modulus (GPa) = 21.59933 36.45241 29.02587
#
# Velocity S-wave (km/s) = 3.05623 3.97035 3.54289
# Velocity P-wave (km/s) = 4.68851 6.57275 5.70890
#
# Compressibility (1/GPa) = 0.04538621
#
# Stress axis : x y z
#
# Youngs Moduli (GPa) = 116.36077 27.91950 43.61192
#
# Poissons Ratio (x) = 0.03519 0.36266
# Poissons Ratio (y) = 0.14666 0.06111
# Poissons Ratio (z) = 0.96762 0.03912
#
# Static dielectric constant tensor:
#      x y z
#    x 1.931710 0.021890 0.000680 
#    y 0.021890 1.920370 0.021580 
#    z 0.000680 0.021580 1.868020 
# 
# From -- ./inp_files/224136.got.cif
#   From: 2010.05.17/outbox.cif.g08.bks.cpg/sg2_113_cif.got.tgz:224136.got - 2010.06.03 11:33:40.
