data_PCOD9098976
_publ_section_title
;
Structure prediction by ZEFSAII (Michael W. Deem and Ramdas Pophale) SiO2 
 PCOD9098976
Probable space group: P -1
;
_chemical_formula_sum "Si O2"
_cell_formula_units_Z 14
_cell_length_a 9.324242
_cell_length_b 29.903808
_cell_length_c 28.875266
_cell_angle_alpha 170.587645
_cell_angle_beta 150.227876
_cell_angle_gamma 28.828449
_cell_volume 634.185185
_symmetry_space_group_name_H-M "P -1"
_symmetry_group_IT_number 2
_symmetry_cell_setting 'triclinic'
loop_
_space_group_symop_operation_xyz
x,y,z
-x,-y,-z
loop_
_atom_site_type_symbol
_atom_site_label
_atom_site_fract_x
_atom_site_fract_y
_atom_site_fract_z
Si Si1 0.358807 0.456782 0.965812
Si Si2 0.321979 0.511567 0.619122
Si Si3 0.310766 0.329534 0.980155
Si Si4 0.505568 0.228674 0.582589
Si Si5 0.906726 0.458242 0.685063
Si Si6 0.483983 0.993485 0.773425
Si Si7 0.914176 0.027081 0.697470
O O1 0.421103 0.642359 0.216409
O O2 0.005243 0.513361 0.926275
O O3 0.500000 0.500000 0.000000
O O4 0.564077 0.146637 0.717607
O O5 0.566089 0.437441 0.569874
O O6 0.000000 0.500000 0.500000
O O7 0.399956 0.313394 0.484410
O O8 0.366018 0.814260 0.955314
O O9 0.512153 0.122811 0.863133
O O10 0.308236 0.092235 0.698080
O O11 0.428193 0.574281 0.238688
O O12 0.145717 0.275481 0.530414
O O13 0.011393 0.295013 0.595832
O O14 0.965474 0.769925 0.024475
O O15 0.125806 0.048322 0.735629
#
# Coordination Sequence:
#
# PCOD9098976 Si02
#       7
#     2   2   2   2   2   2   2
#     4  11  22  40  61  89 122 164 217 261 288 338
#     4  10  20  37  66  95 117 143 199 260 304 360
#     4  12  24  41  60  87 128 169 204 249 297 366
#     4  11  24  41  58  86 125 170 206 242 305 361
#     4   9  19  36  59  80 117 150 197 240 298 350
#     4  10  20  37  58  89 121 157 193 244 311 356
#     4   9  18  35  54  83 111 154 197 250 284 337
#
# _framework density 22.075571
#
# number of rings (size 3 to 8) (size 9 to 14) (size 15 to 20)
#    0.000    1.714    1.429    3.857    0.000    2.286 
#    0.000    7.143    0.000    5.143    0.000    0.000 
#    0.000    0.000    0.000    0.000    0.000    0.000 
#
# Total GULP energy -78014.613989 kJ/mol
# GULP energy per Si atom -5572.472428 kJ/mol
# Density = 2.202533 g / cm^3
# Si number density = 22.075571 Si / 1000 Ang^3
#
#
#
# Elastic Constant Matrix: (Units=GPa)
#
#
# Indices 1 2 3 4 5 6 
#
# 1 114.0517 43.7624 19.2546 -12.4684 23.0479 -24.9607
# 2 43.7624 81.1880 13.9932 -4.4749 6.7176 -23.2615
# 3 19.2546 13.9932 104.4005 5.9206 11.1896 -8.0843
# 4 -12.4684 -4.4749 5.9206 19.1350 1.1179 5.9957
# 5 23.0479 6.7176 11.1896 1.1179 41.6433 0.8341
# 6 -24.9607 -23.2615 -8.0843 5.9957 0.8341 29.9036
#
#
#
# Elastic Compliance Matrix: (Units=1/GPa)
#
#
# Indices 1 2 3 4 5 6 
#
# 1 0.014504 -0.004627 -0.001122 0.006945 -0.007306 0.007015
# 2 -0.004627 0.017749 -0.000603 -0.001844 -0.000294 0.010159
# 3 -0.001122 -0.000603 0.010547 -0.004788 -0.002036 0.002462
# 4 0.006945 -0.001844 -0.004788 0.060884 -0.003713 -0.009036
# 5 -0.007306 -0.000294 -0.002036 -0.003713 0.028890 -0.006939
# 6 0.007015 0.010159 0.002462 -0.009036 -0.006939 0.049870
#
#
# Mechanical properties :
#
#
# Convention : Reuss Voigt Hill
#
# Bulk Modulus (GPa) = 33.22875 50.40674 41.81774
# Shear Modulus (GPa) = 24.36890 32.97837 28.67363
#
# Velocity S-wave (km/s) = 3.32608 3.86927 3.60791
# Velocity P-wave (km/s) = 5.46218 6.54561 6.02828
#
# Compressibility (1/GPa) = 0.03009442
#
# Stress axis : x y z
#
# Youngs Moduli (GPa) = 68.94687 56.34256 94.81600
#
# Poissons Ratio (x) = 0.26072 0.10641
# Poissons Ratio (y) = 0.31904 0.05715
# Poissons Ratio (z) = 0.07738 0.03396
#
# Static dielectric constant tensor:
#      x y z
#    x 1.902460 -0.010600 -0.039730 
#    y -0.010600 1.867660 -0.001650 
#    z -0.039730 -0.001650 1.842470 
# 
# From -- ./inp_files/117040.got.cif
#   From: 2010.05.17/outbox.cif.g08.bks.cpg/sg2_59_cif.got.tgz:117040.got - 2010.06.03 11:33:40.
