data_PCOD9098108
_publ_section_title
;
Structure prediction by ZEFSAII (Michael W. Deem and Ramdas Pophale) SiO2 
 PCOD9098108
Probable space group: P -1
;
_chemical_formula_sum "Si O2"
_cell_formula_units_Z 16
_cell_length_a 12.306412
_cell_length_b 8.527886
_cell_length_c 12.050075
_cell_angle_alpha 141.351369
_cell_angle_beta 98.185309
_cell_angle_gamma 101.428361
_cell_volume 676.851044
_symmetry_space_group_name_H-M "P -1"
_symmetry_group_IT_number 2
_symmetry_cell_setting 'triclinic'
loop_
_space_group_symop_operation_xyz
x,y,z
-x,-y,-z
loop_
_atom_site_type_symbol
_atom_site_label
_atom_site_fract_x
_atom_site_fract_y
_atom_site_fract_z
Si Si1 0.701022 0.759062 0.941184
Si Si2 0.904540 0.776745 0.277785
Si Si3 0.324910 0.101056 0.503533
Si Si4 0.108118 0.470067 0.102402
Si Si5 0.408750 0.950684 0.225765
Si Si6 0.533783 0.297488 0.234739
Si Si7 0.341216 0.282292 0.842505
Si Si8 0.163637 0.793705 0.971471
O O1 0.645636 0.783238 0.065116
O O2 0.801218 0.051013 0.054862
O O3 0.780766 0.596403 0.880914
O O4 0.580076 0.640321 0.778200
O O5 0.810183 0.881116 0.282058
O O6 0.835494 0.503203 0.197293
O O7 0.926313 0.645320 0.093963
O O8 0.000000 0.000000 0.500000
O O9 0.345148 0.404812 0.623067
O O10 0.376532 0.172806 0.676786
O O11 0.182202 0.820893 0.320823
O O12 0.406011 0.012104 0.387704
O O13 0.977481 0.295064 0.055968
O O14 0.520840 0.196373 0.304456
O O15 0.392056 0.629523 0.033188
O O16 0.281830 0.954492 0.163585
O O17 0.500000 0.000000 0.000000
#
# Coordination Sequence:
#
# PCOD9098108 Si02
#       8
#     2   2   2   2   2   2   2   2
#     4  10  23  44  62  93 142 170 221 277 323 396
#     4  10  20  36  63  94 132 174 222 265 316 391
#     4  12  22  40  72  95 136 168 228 268 337 385
#     4  11  22  40  63 103 134 173 222 267 334 398
#     4  10  21  43  65 100 131 165 227 277 318 399
#     4  11  24  44  71  96 127 177 223 281 334 386
#     4  10  21  40  64  94 136 173 215 276 323 390
#     4  10  20  38  66  92 135 174 214 273 321 388
#
# _framework density 23.638877000000001
#
# number of rings (size 3 to 8) (size 9 to 14) (size 15 to 20)
#    0.000    1.500    5.000    1.875    1.750    1.000 
#    0.000    9.375    0.000    0.000    0.000    0.000 
#    0.000    0.000    0.000    0.000    0.000    0.000 
#
# Total GULP energy -89157.886623 kJ/mol
# GULP energy per Si atom -5572.367914 kJ/mol
# Density = 2.358507 g / cm^3
# Si number density = 23.638877 Si / 1000 Ang^3
#
#
#
# Elastic Constant Matrix: (Units=GPa)
#
#
# Indices 1 2 3 4 5 6 
#
# 1 100.6352 33.1431 33.5378 -7.3485 -3.6367 17.5764
# 2 33.1431 183.4210 65.9408 -5.4489 -5.0291 28.8425
# 3 33.5378 65.9408 137.8083 -7.3774 -5.4938 20.4364
# 4 -7.3485 -5.4489 -7.3774 37.0229 12.0623 -1.2894
# 5 -3.6367 -5.0291 -5.4938 12.0623 32.2113 -6.1369
# 6 17.5764 28.8425 20.4364 -1.2894 -6.1369 36.9358
#
#
#
# Elastic Compliance Matrix: (Units=1/GPa)
#
#
# Indices 1 2 3 4 5 6 
#
# 1 0.011597 -0.000796 -0.001779 0.001880 -0.000573 -0.003942
# 2 -0.000796 0.007146 -0.002661 0.000318 -0.000264 -0.003762
# 3 -0.001779 -0.002661 0.009346 0.000978 0.000196 -0.002180
# 4 0.001880 0.000318 0.000978 0.031384 -0.011810 -0.002551
# 5 -0.000573 -0.000264 0.000196 -0.011810 0.036544 0.006030
# 6 -0.003942 -0.003762 -0.002180 -0.002551 0.006030 0.034006
#
#
# Mechanical properties :
#
#
# Convention : Reuss Voigt Hill
#
# Bulk Modulus (GPa) = 56.76368 76.34533 66.55451
# Shear Modulus (GPa) = 34.16027 40.51685 37.33856
#
# Velocity S-wave (km/s) = 3.80556 4.14453 3.97865
# Velocity P-wave (km/s) = 6.58594 7.43434 7.02297
#
# Compressibility (1/GPa) = 0.01761690
#
# Stress axis : x y z
#
# Youngs Moduli (GPa) = 86.22928 139.93234 106.99429
#
# Poissons Ratio (x) = 0.11137 0.19035
# Poissons Ratio (y) = 0.06863 0.28475
# Poissons Ratio (z) = 0.15341 0.37242
#
# Static dielectric constant tensor:
#      x y z
#    x 2.208420 0.041330 0.094340 
#    y 0.041330 1.909460 0.005280 
#    z 0.094340 0.005280 2.003610 
# 
# From -- ./inp_files/448359.got.cif
#   From: 2010.05.17/outbox.cif.g08.bks.cpg/sg2_225_cif.got.tgz:448359.got - 2010.06.03 11:33:40.
