data_PCOD9098188
_publ_section_title
;
Structure prediction by ZEFSAII (Michael W. Deem and Ramdas Pophale) SiO2 
 PCOD9098188
Probable space group: P -1
;
_chemical_formula_sum "Si O2"
_cell_formula_units_Z 14
_cell_length_a 8.873302
_cell_length_b 10.471716
_cell_length_c 12.423024
_cell_angle_alpha 145.218904
_cell_angle_beta 77.514446
_cell_angle_gamma 90.333303
_cell_volume 611.574678
_symmetry_space_group_name_H-M "P -1"
_symmetry_group_IT_number 2
_symmetry_cell_setting 'triclinic'
loop_
_space_group_symop_operation_xyz
x,y,z
-x,-y,-z
loop_
_atom_site_type_symbol
_atom_site_label
_atom_site_fract_x
_atom_site_fract_y
_atom_site_fract_z
Si Si1 0.465407 0.662675 0.515194
Si Si2 0.773281 0.305566 0.704043
Si Si3 0.345191 0.084045 0.233766
Si Si4 0.347156 0.314305 0.171623
Si Si5 0.194792 0.055936 0.746849
Si Si6 0.159401 0.724118 0.082370
Si Si7 0.428111 0.259184 0.742940
O O1 0.500000 0.500000 0.500000
O O2 0.609830 0.777225 0.576197
O O3 0.452850 0.490016 0.303106
O O4 0.286392 0.852134 0.674470
O O5 0.780147 0.527529 0.783802
O O6 0.863156 0.271604 0.780819
O O7 0.587046 0.336667 0.791212
O O8 0.814930 0.086868 0.461935
O O9 0.283899 0.243296 0.246253
O O10 0.234317 0.929410 0.179099
O O11 0.523379 0.915918 0.054859
O O12 0.323481 0.198070 0.812491
O O13 0.014761 0.219607 0.907385
O O14 0.287802 0.473129 0.859200
O O15 0.500000 0.000000 0.500000
#
# Coordination Sequence:
#
# PCOD9098188 Si02
#       7
#     2   2   2   2   2   2   2
#     4   9  19  38  62  84 113 164 205 237 292 370
#     4  10  20  37  59  85 117 161 206 242 294 374
#     4  10  20  36  64  87 115 161 208 249 295 364
#     4   9  19  37  58  89 117 153 209 251 286 352
#     4  10  22  37  57  90 129 153 193 265 312 346
#     4  12  22  36  59  95 123 154 205 256 309 356
#     4  10  21  37  58  83 116 166 206 245 295 366
#
# _framework density 22.891725999999998
#
# number of rings (size 3 to 8) (size 9 to 14) (size 15 to 20)
#    0.000    2.000    1.429    2.143    2.000    1.143 
#    0.000    6.429    0.000    9.429    0.000    0.000 
#    0.000    0.000    0.000    0.143    0.000    0.000 
#
# Total GULP energy -78055.933932 kJ/mol
# GULP energy per Si atom -5575.423852 kJ/mol
# Density = 2.283962 g / cm^3
# Si number density = 22.891726 Si / 1000 Ang^3
#
#
#
# Elastic Constant Matrix: (Units=GPa)
#
#
# Indices 1 2 3 4 5 6 
#
# 1 92.1089 49.7049 34.2057 16.7516 -17.8719 -22.8032
# 2 49.7049 136.5099 21.2516 27.2641 -2.9326 -23.4859
# 3 34.2057 21.2516 73.7662 13.0537 -3.5492 -8.0238
# 4 16.7516 27.2641 13.0537 32.8184 -10.2263 2.1128
# 5 -17.8719 -2.9326 -3.5492 -10.2263 36.3088 5.4759
# 6 -22.8032 -23.4859 -8.0238 2.1128 5.4759 25.8826
#
#
#
# Elastic Compliance Matrix: (Units=1/GPa)
#
#
# Indices 1 2 3 4 5 6 
#
# 1 0.019505 -0.003376 -0.005904 -0.003657 0.006014 0.011316
# 2 -0.003376 0.012367 0.000886 -0.011246 -0.005338 0.010569
# 3 -0.005904 0.000886 0.017102 -0.005602 -0.003043 0.002005
# 4 -0.003657 -0.011246 -0.005602 0.049732 0.014100 -0.022206
# 5 0.006014 -0.005338 -0.003043 0.014100 0.035112 -0.009068
# 6 0.011316 0.010569 0.002005 -0.022206 -0.009068 0.062549
#
#
# Mechanical properties :
#
#
# Convention : Reuss Voigt Hill
#
# Bulk Modulus (GPa) = 31.07138 56.96770 44.01954
# Shear Modulus (GPa) = 22.33297 32.15015 27.24156
#
# Velocity S-wave (km/s) = 3.12683 3.75166 3.45341
# Velocity P-wave (km/s) = 5.16128 6.61108 5.93064
#
# Compressibility (1/GPa) = 0.03218396
#
# Stress axis : x y z
#
# Youngs Moduli (GPa) = 51.26921 80.86183 58.47286
#
# Poissons Ratio (x) = 0.27301 0.34524
# Poissons Ratio (y) = 0.17310 -0.05179
# Poissons Ratio (z) = 0.30271 -0.07162
#
# Static dielectric constant tensor:
#      x y z
#    x 1.856000 -0.064800 0.049780 
#    y -0.064800 1.920290 0.002510 
#    z 0.049780 0.002510 1.960100 
# 
# From -- ./inp_files/227347.got.cif
#   From: 2010.05.17/outbox.cif.g08.bks.cpg/sg2_114_cif.got.tgz:227347.got - 2010.06.03 11:33:40.
