data_PCOD9098899
_publ_section_title
;
Structure prediction by ZEFSAII (Michael W. Deem and Ramdas Pophale) SiO2 
 PCOD9098899
Probable space group: P -1
;
_chemical_formula_sum "Si O2"
_cell_formula_units_Z 16
_cell_length_a 21.093569
_cell_length_b 22.480770
_cell_length_c 6.896169
_cell_angle_alpha 42.230313
_cell_angle_beta 33.823828
_cell_angle_gamma 20.697706
_cell_volume 632.080145
_symmetry_space_group_name_H-M "P -1"
_symmetry_group_IT_number 2
_symmetry_cell_setting 'triclinic'
loop_
_space_group_symop_operation_xyz
x,y,z
-x,-y,-z
loop_
_atom_site_type_symbol
_atom_site_label
_atom_site_fract_x
_atom_site_fract_y
_atom_site_fract_z
Si Si1 0.384998 0.698172 0.657240
Si Si2 0.748137 0.892376 0.826249
Si Si3 0.974997 0.527942 0.760330
Si Si4 0.550380 0.833082 0.552845
Si Si5 0.215379 0.629252 0.325511
Si Si6 0.477564 0.234877 0.626027
Si Si7 0.626934 0.508545 0.156865
Si Si8 0.117333 0.206222 0.721137
O O1 0.604170 0.502915 0.649564
O O2 0.368021 0.790469 0.624200
O O3 0.459172 0.679500 0.298609
O O4 0.203840 0.741336 0.025313
O O5 0.821658 0.857112 0.503077
O O6 0.978435 0.750193 0.693431
O O7 0.570360 0.084864 0.851696
O O8 0.641235 0.868233 0.167892
O O9 0.894995 0.678239 0.531344
O O10 0.223430 0.350896 0.475831
O O11 0.777116 0.589792 0.081220
O O12 0.000000 0.500000 0.000000
O O13 0.517982 0.789129 0.557121
O O14 0.311561 0.023976 0.779275
O O15 0.314138 0.512320 0.167270
O O16 0.500000 0.500000 0.500000
O O17 0.866227 0.342860 0.046751
#
# Coordination Sequence:
#
# PCOD9098899 Si02
#       8
#     2   2   2   2   2   2   2   2
#     4  10  20  36  54  88 111 142 201 240 277 349
#     4  10  16  31  53  80 113 151 186 234 285 345
#     4  10  17  27  51  84 112 149 189 231 283 344
#     4  10  18  29  52  86 116 146 193 234 282 349
#     4   9  20  35  61  78 108 157 192 230 296 338
#     4  10  18  28  51  81 118 141 184 243 280 334
#     4   9  20  37  59  81 112 155 190 235 289 338
#     4  10  17  32  53  80 112 150 193 227 288 342
#
# _framework density 25.313248000000002
#
# number of rings (size 3 to 8) (size 9 to 14) (size 15 to 20)
#    0.000    2.250    3.750    1.500    5.250    0.500 
#    0.000    0.625    2.750    2.250    0.000    0.000 
#    0.000    0.000    0.000    0.000    0.000    0.000 
#
# Total GULP energy -89271.591600 kJ/mol
# GULP energy per Si atom -5579.474475 kJ/mol
# Density = 2.525563 g / cm^3
# Si number density = 25.313248 Si / 1000 Ang^3
#
#
#
# Elastic Constant Matrix: (Units=GPa)
#
#
# Indices 1 2 3 4 5 6 
#
# 1 71.4705 7.0573 35.8022 -10.4567 5.1042 9.1906
# 2 7.0573 122.3225 28.4092 3.0712 -7.7529 14.2743
# 3 35.8022 28.4092 91.4490 14.7838 -10.9591 17.4327
# 4 -10.4567 3.0712 14.7838 26.4531 6.4961 -9.1313
# 5 5.1042 -7.7529 -10.9591 6.4961 37.7886 -11.0783
# 6 9.1906 14.2743 17.4327 -9.1313 -11.0783 28.5609
#
#
#
# Elastic Compliance Matrix: (Units=1/GPa)
#
#
# Indices 1 2 3 4 5 6 
#
# 1 0.025565 0.000455 -0.016077 0.023264 -0.010654 0.004664
# 2 0.000455 0.009107 -0.002118 -0.001016 0.000309 -0.003610
# 3 -0.016077 -0.002118 0.026654 -0.028748 0.009897 -0.015389
# 4 0.023264 -0.001016 -0.028748 0.077193 -0.016501 0.028848
# 5 -0.010654 0.000309 0.009897 -0.016501 0.035332 0.005662
# 6 0.004664 -0.003610 -0.015389 0.028848 0.005662 0.056129
#
#
# Mechanical properties :
#
#
# Convention : Reuss Voigt Hill
#
# Bulk Modulus (GPa) = 38.68877 47.53104 43.10991
# Shear Modulus (GPa) = 18.24316 32.82540 25.53428
#
# Velocity S-wave (km/s) = 2.68749 3.60497 3.17950
# Velocity P-wave (km/s) = 4.99473 6.01213 5.52689
#
# Compressibility (1/GPa) = 0.02584729
#
# Stress axis : x y z
#
# Youngs Moduli (GPa) = 39.11575 109.80420 37.51752
#
# Poissons Ratio (x) = -0.04999 0.60317
# Poissons Ratio (y) = -0.01781 0.07946
# Poissons Ratio (z) = 0.62886 0.23256
#
# Static dielectric constant tensor:
#      x y z
#    x 2.090050 -0.033970 0.038870 
#    y -0.033970 2.067310 -0.007360 
#    z 0.038870 -0.007360 1.978050 
# 
# From -- ./inp_files/207271.got.cif
#   From: 2010.05.17/outbox.cif.g08.bks.cpg/sg2_104_cif.got.tgz:207271.got - 2010.06.03 11:33:40.
