data_PCOD9098669
_publ_section_title
;
Structure prediction by ZEFSAII (Michael W. Deem and Ramdas Pophale) SiO2 
 PCOD9098669
Probable space group: P -1
;
_chemical_formula_sum "Si O2"
_cell_formula_units_Z 16
_cell_length_a 24.551836
_cell_length_b 7.820738
_cell_length_c 5.914372
_cell_angle_alpha 66.697261
_cell_angle_beta 127.504747
_cell_angle_gamma 130.092053
_cell_volume 689.191198
_symmetry_space_group_name_H-M "P -1"
_symmetry_group_IT_number 2
_symmetry_cell_setting 'triclinic'
loop_
_space_group_symop_operation_xyz
x,y,z
-x,-y,-z
loop_
_atom_site_type_symbol
_atom_site_label
_atom_site_fract_x
_atom_site_fract_y
_atom_site_fract_z
Si Si1 0.578066 0.234875 0.328064
Si Si2 0.571795 0.868445 0.225555
Si Si3 0.164259 0.005495 0.199711
Si Si4 0.293686 0.061979 0.192887
Si Si5 0.043277 0.547140 0.336451
Si Si6 0.679414 0.228378 0.939520
Si Si7 0.256989 0.345196 0.624809
Si Si8 0.851180 0.665445 0.297534
O O1 0.607228 0.253773 0.648424
O O2 0.663548 0.409284 0.328813
O O3 0.548812 0.990325 0.290131
O O4 0.508452 0.276842 0.056875
O O5 0.621998 0.788947 0.529567
O O6 0.641627 0.059023 0.139615
O O7 0.211105 0.925105 0.205947
O O8 0.236410 0.216377 0.406875
O O9 0.108243 0.813999 0.337095
O O10 0.123818 0.107756 0.890862
O O11 0.301689 0.893791 0.144101
O O12 0.279160 0.220757 0.924385
O O13 0.085665 0.408010 0.519105
O O14 0.000000 0.500000 0.500000
O O15 0.000000 0.500000 0.000000
O O16 0.763371 0.459969 0.086275
O O17 0.174870 0.322904 0.518431
#
# Coordination Sequence:
#
# PCOD9098669 Si02
#       8
#     2   2   2   2   2   2   2   2
#     4  10  21  34  61  93 133 177 235 288 350 405
#     4  10  20  37  55  93 136 181 229 296 348 405
#     4  11  26  47  74 102 142 181 241 283 350 432
#     4  10  23  38  65  95 132 184 233 290 344 417
#     4  12  32  52  78 115 150 185 230 289 370 445
#     4  11  20  40  66  94 129 185 237 283 347 414
#     4  11  22  42  67  99 130 181 240 287 341 419
#     4  11  25  44  78 101 139 187 231 291 350 430
#
# _framework density 23.215616000000001
#
# number of rings (size 3 to 8) (size 9 to 14) (size 15 to 20)
#    0.000    1.250    2.500    2.625    8.750    1.500 
#    0.000    2.500    0.000    0.000    0.000    0.000 
#    0.000    0.000    0.000    0.000    0.000    0.000 
#
# Total GULP energy -89353.540751 kJ/mol
# GULP energy per Si atom -5584.596297 kJ/mol
# Density = 2.316278 g / cm^3
# Si number density = 23.215616 Si / 1000 Ang^3
#
#
#
# Elastic Constant Matrix: (Units=GPa)
#
#
# Indices 1 2 3 4 5 6 
#
# 1 99.8264 42.5220 17.8706 -15.5387 -7.9892 12.3077
# 2 42.5220 33.6895 -1.1854 -7.6962 0.1290 4.5136
# 3 17.8706 -1.1854 80.3491 1.6173 1.6277 9.2330
# 4 -15.5387 -7.6962 1.6173 30.8374 -0.1134 -13.1897
# 5 -7.9892 0.1290 1.6277 -0.1134 26.1107 -1.8681
# 6 12.3077 4.5136 9.2330 -13.1897 -1.8681 24.6943
#
#
#
# Elastic Compliance Matrix: (Units=1/GPa)
#
#
# Indices 1 2 3 4 5 6 
#
# 1 0.026805 -0.032733 -0.006539 0.005034 0.008679 -0.001586
# 2 -0.032733 0.071558 0.008594 0.000686 -0.010933 -0.000439
# 3 -0.006539 0.008594 0.014971 -0.004838 -0.003481 -0.006757
# 4 0.005034 0.000686 -0.004838 0.045585 0.003740 0.023806
# 5 0.008679 -0.010933 -0.003481 0.003740 0.041536 0.004114
# 6 -0.001586 -0.000439 -0.006757 0.023806 0.004114 0.056918
#
#
# Mechanical properties :
#
#
# Convention : Reuss Voigt Hill
#
# Bulk Modulus (GPa) = 19.23954 36.91995 28.07974
# Shear Modulus (GPa) = 14.87848 26.63902 20.75875
#
# Velocity S-wave (km/s) = 2.53431 3.39109 2.99351
# Velocity P-wave (km/s) = 4.10718 5.59198 4.90608
#
# Compressibility (1/GPa) = 0.05197629
#
# Stress axis : x y z
#
# Youngs Moduli (GPa) = 37.30669 13.97477 66.79464
#
# Poissons Ratio (x) = 0.45744 0.43680
# Poissons Ratio (y) = 1.22117 -0.57403
# Poissons Ratio (z) = 0.24397 -0.12010
#
# Static dielectric constant tensor:
#      x y z
#    x 1.898890 0.003400 -0.015630 
#    y 0.003400 1.907780 0.020660 
#    z -0.015630 0.020660 1.948880 
# 
# From -- ./inp_files/44868.got.cif
#   From: 2010.05.17/outbox.cif.g08.bks.cpg/sg2_23_cif.got.tgz:44868.got - 2010.06.03 11:33:40.
