data_PCOD9098868
_publ_section_title
;
Structure prediction by ZEFSAII (Michael W. Deem and Ramdas Pophale) SiO2 
 PCOD9098868
Probable space group: P -1
;
_chemical_formula_sum "Si O2"
_cell_formula_units_Z 14
_cell_length_a 5.075473
_cell_length_b 17.324093
_cell_length_c 5.514516
_cell_angle_alpha 87.914315
_cell_angle_beta 84.465157
_cell_angle_gamma 82.864722
_cell_volume 478.735625
_symmetry_space_group_name_H-M "P -1"
_symmetry_group_IT_number 2
_symmetry_cell_setting 'triclinic'
loop_
_space_group_symop_operation_xyz
x,y,z
-x,-y,-z
loop_
_atom_site_type_symbol
_atom_site_label
_atom_site_fract_x
_atom_site_fract_y
_atom_site_fract_z
Si Si1 0.868993 0.657632 0.091991
Si Si2 0.753595 0.094159 0.388880
Si Si3 0.253573 0.510916 0.203280
Si Si4 0.818696 0.237773 0.591576
Si Si5 0.386658 0.193963 0.025073
Si Si6 0.522503 0.382998 0.476707
Si Si7 0.683203 0.950191 0.184178
O O1 0.048960 0.574052 0.068081
O O2 0.003540 0.711823 0.268614
O O3 0.613436 0.633031 0.254681
O O4 0.778085 0.724272 0.895124
O O5 0.939112 0.154250 0.481584
O O6 0.531462 0.071339 0.598286
O O7 0.868621 0.011472 0.269712
O O8 0.577675 0.149140 0.208890
O O9 0.294802 0.422275 0.314152
O O10 0.283501 0.555030 0.456024
O O11 0.500000 0.500000 0.000000
O O12 0.582295 0.214797 0.788868
O O13 0.686492 0.301545 0.399964
O O14 0.203972 0.130267 0.945525
O O15 0.500000 0.000000 0.000000
#
# Coordination Sequence:
#
# PCOD9098868 Si02
#       7
#     2   2   2   2   2   2   2
#     4  10  20  37  58  81 115 150 182 231 283 330
#     4   9  16  31  56  80 108 147 183 223 275 325
#     4  10  21  38  58  81 109 144 187 233 279 329
#     4   9  19  34  53  79 112 147 184 227 274 328
#     4   9  18  34  53  80 113 144 184 230 276 326
#     4   9  20  38  57  80 111 145 185 231 278 329
#     4   8  15  30  56  81 105 144 187 225 270 323
#
# _framework density 29.243697000000001
#
# number of rings (size 3 to 8) (size 9 to 14) (size 15 to 20)
#    0.000    2.857    0.000    0.429    0.000    4.000 
#    0.000   19.286    0.000   29.143    0.000    0.000 
#    0.000    0.000    0.000    0.000    0.000    0.000 
#
# Total GULP energy -78264.139868 kJ/mol
# GULP energy per Si atom -5590.295705 kJ/mol
# Density = 2.917714 g / cm^3
# Si number density = 29.243697 Si / 1000 Ang^3
#
#
#
# Elastic Constant Matrix: (Units=GPa)
#
#
# Indices 1 2 3 4 5 6 
#
# 1 58.3144 22.2379 2.7491 3.7042 3.6822 -12.2394
# 2 22.2379 246.5270 25.7453 -12.2681 -10.0620 21.6023
# 3 2.7491 25.7453 101.9789 -38.4243 16.8867 -13.0820
# 4 3.7042 -12.2681 -38.4243 52.6362 -3.9619 6.3974
# 5 3.6822 -10.0620 16.8867 -3.9619 44.4368 11.3252
# 6 -12.2394 21.6023 -13.0820 6.3974 11.3252 49.2422
#
#
#
# Elastic Compliance Matrix: (Units=1/GPa)
#
#
# Indices 1 2 3 4 5 6 
#
# 1 0.020483 -0.003031 0.001090 -0.002742 -0.005145 0.008250
# 2 -0.003031 0.005105 -0.002078 0.000677 0.003381 -0.004410
# 3 0.001090 -0.002078 0.015945 0.009830 -0.007223 0.005803
# 4 -0.002742 0.000677 0.009830 0.026692 -0.000539 -0.001711
# 5 -0.005145 0.003381 -0.007223 -0.000539 0.029284 -0.011346
# 6 0.008250 -0.004410 0.005803 -0.001711 -0.011346 0.028666
#
#
# Mechanical properties :
#
#
# Convention : Reuss Voigt Hill
#
# Bulk Modulus (GPa) = 29.85361 56.47610 43.16485
# Shear Modulus (GPa) = 34.39285 53.00223 43.69754
#
# Velocity S-wave (km/s) = 3.43312 4.26189 3.86975
# Velocity P-wave (km/s) = 5.09370 6.60094 5.89568
#
# Compressibility (1/GPa) = 0.03349678
#
# Stress axis : x y z
#
# Youngs Moduli (GPa) = 48.81979 195.89149 62.71445
#
# Poissons Ratio (x) = 0.59373 -0.06836
# Poissons Ratio (y) = 0.14797 0.13029
# Poissons Ratio (z) = -0.05322 0.40698
#
# Static dielectric constant tensor:
#      x y z
#    x 2.289340 0.086650 0.132040 
#    y 0.086650 2.392570 0.092910 
#    z 0.132040 0.092910 2.387020 
# 
# From -- ./inp_files/41794.got.cif
#   From: 2010.05.17/outbox.cif.g08.bks.cpg/sg2_21_cif.got.tgz:41794.got - 2010.06.03 11:33:40.
