data_PCOD9098584
_publ_section_title
;
Structure prediction by ZEFSAII (Michael W. Deem and Ramdas Pophale) SiO2 
 PCOD9098584
Probable space group: P -1
;
_chemical_formula_sum "Si O2"
_cell_formula_units_Z 14
_cell_length_a 8.367968
_cell_length_b 14.653222
_cell_length_c 9.166980
_cell_angle_alpha 129.319330
_cell_angle_beta 59.605066
_cell_angle_gamma 143.136513
_cell_volume 521.670405
_symmetry_space_group_name_H-M "P -1"
_symmetry_group_IT_number 2
_symmetry_cell_setting 'triclinic'
loop_
_space_group_symop_operation_xyz
x,y,z
-x,-y,-z
loop_
_atom_site_type_symbol
_atom_site_label
_atom_site_fract_x
_atom_site_fract_y
_atom_site_fract_z
Si Si1 0.776671 0.186857 0.509432
Si Si2 0.000000 0.000000 0.500000
Si Si3 0.999960 0.311684 0.847133
Si Si4 0.608457 0.337461 0.560529
Si Si5 0.855895 0.805297 0.851795
Si Si6 0.606873 0.290523 0.192307
Si Si7 0.500000 0.500000 0.000000
Si Si8 0.917237 0.069045 0.847314
O O1 0.947995 0.294547 0.683537
O O2 0.704756 0.268224 0.532398
O O3 0.952252 0.188494 0.321715
O O4 0.500000 0.000000 0.500000
O O5 0.700277 0.821240 0.495205
O O6 0.933290 0.976893 0.327427
O O7 0.907974 0.135311 0.763849
O O8 0.819582 0.325154 0.026427
O O9 0.291240 0.450780 0.918306
O O10 0.721855 0.387693 0.392321
O O11 0.613780 0.448569 0.779062
O O12 0.575949 0.697331 0.793925
O O13 0.872757 0.773501 0.982712
O O14 0.000000 0.000000 0.000000
O O15 0.378870 0.083654 0.115083
#
# Coordination Sequence:
#
# PCOD9098584 Si02
#       8
#     2   1   2   2   2   2   1   2
#     4  12  25  40  71 108 140 181 236 301 349 411
#     4  10  20  36  70  96 130 178 228 284 336 392
#     4  12  25  42  68  99 140 186 235 283 353 426
#     4  11  25  45  70 101 142 184 235 287 351 417
#     4  10  22  36  61 102 143 174 225 292 361 405
#     4  10  22  40  67  99 134 179 238 296 343 408
#     4  12  28  46  70 100 146 196 226 286 356 434
#     4  10  20  37  64  97 138 174 230 293 344 401
#
# _framework density 26.836870000000001
#
# number of rings (size 3 to 8) (size 9 to 14) (size 15 to 20)
#    0.000    1.143    1.429    5.571   12.000    1.143 
#    0.000    0.000    0.000    4.286    0.000    0.000 
#    0.000    0.000    0.000    0.000    0.000    0.000 
#
# Total GULP energy -78030.843830 kJ/mol
# GULP energy per Si atom -5573.631702 kJ/mol
# Density = 2.677579 g / cm^3
# Si number density = 26.836870 Si / 1000 Ang^3
#
#
#
# Elastic Constant Matrix: (Units=GPa)
#
#
# Indices 1 2 3 4 5 6 
#
# 1 174.8048 36.4787 127.4050 -30.4268 4.1891 12.2481
# 2 36.4787 72.3278 32.7880 10.9411 3.4353 13.6536
# 3 127.4050 32.7880 265.5399 -17.4904 24.6984 14.4281
# 4 -30.4268 10.9411 -17.4904 37.9960 2.2152 -2.0375
# 5 4.1891 3.4353 24.6984 2.2152 64.3284 -8.7244
# 6 12.2481 13.6536 14.4281 -2.0375 -8.7244 35.8023
#
#
#
# Elastic Compliance Matrix: (Units=1/GPa)
#
#
# Indices 1 2 3 4 5 6 
#
# 1 0.011470 -0.005252 -0.004412 0.008640 0.001011 0.000595
# 2 -0.005252 0.019291 -0.000068 -0.010066 -0.001183 -0.006394
# 3 -0.004412 -0.000068 0.006142 -0.000637 -0.002252 -0.001525
# 4 0.008640 -0.010066 -0.000637 0.036041 -0.000609 0.003043
# 5 0.001011 -0.001183 -0.002252 -0.000609 0.017127 0.005152
# 6 0.000595 -0.006394 -0.001525 0.003043 0.005152 0.032209
#
#
# Mechanical properties :
#
#
# Convention : Reuss Voigt Hill
#
# Bulk Modulus (GPa) = 57.34177 100.66844 79.00510
# Shear Modulus (GPa) = 33.88505 48.69206 41.28856
#
# Velocity S-wave (km/s) = 3.55721 4.26417 3.92663
# Velocity P-wave (km/s) = 6.18747 7.86364 7.07537
#
# Compressibility (1/GPa) = 0.01743929
#
# Stress axis : x y z
#
# Youngs Moduli (GPa) = 87.18052 51.83640 162.82497
#
# Poissons Ratio (x) = 0.27226 0.71842
# Poissons Ratio (y) = 0.45789 0.01101
# Poissons Ratio (z) = 0.38466 0.00351
#
# Static dielectric constant tensor:
#      x y z
#    x 2.045730 -0.172160 0.223770 
#    y -0.172160 2.128880 0.065610 
#    z 0.223770 0.065610 1.780590 
# 
# From -- ./inp_files/215778.got.cif
#   From: 2010.05.17/outbox.cif.g08.bks.cpg/sg2_108_cif.got.tgz:215778.got - 2010.06.03 11:33:40.
