data_PCOD9098148
_publ_section_title
;
Structure prediction by ZEFSAII (Michael W. Deem and Ramdas Pophale) SiO2 
 PCOD9098148
Probable space group: P -1
;
_chemical_formula_sum "Si O2"
_cell_formula_units_Z 16
_cell_length_a 24.780871
_cell_length_b 14.776860
_cell_length_c 12.339115
_cell_angle_alpha 145.141207
_cell_angle_beta 151.619774
_cell_angle_gamma 18.364949
_cell_volume 673.513230
_symmetry_space_group_name_H-M "P -1"
_symmetry_group_IT_number 2
_symmetry_cell_setting 'triclinic'
loop_
_space_group_symop_operation_xyz
x,y,z
-x,-y,-z
loop_
_atom_site_type_symbol
_atom_site_label
_atom_site_fract_x
_atom_site_fract_y
_atom_site_fract_z
Si Si1 0.762050 0.604366 0.293505
Si Si2 0.905282 0.544770 0.988903
Si Si3 0.956019 0.114306 0.415628
Si Si4 0.530018 0.761065 0.587471
Si Si5 0.811139 0.941093 0.365491
Si Si6 0.425412 0.271405 0.125961
Si Si7 0.578920 0.745692 0.333660
Si Si8 0.281296 0.906146 0.104709
O O1 0.614794 0.709995 0.233634
O O2 0.992004 0.320189 0.465924
O O3 0.665879 0.892349 0.396571
O O4 0.744101 0.539528 0.082540
O O5 0.720253 0.632233 0.740016
O O6 0.806584 0.439701 0.478345
O O7 0.810674 0.797757 0.138926
O O8 0.000000 0.500000 0.000000
O O9 0.150825 0.945661 0.525750
O O10 0.000000 0.000000 0.500000
O O11 0.826074 0.135905 0.141974
O O12 0.092780 0.251229 0.101736
O O13 0.618544 0.619959 0.723967
O O14 0.428948 0.753615 0.319544
O O15 0.607004 0.167245 0.296870
O O16 0.500000 0.000000 0.000000
O O17 0.424219 0.789027 0.140371
O O18 0.500000 0.000000 0.500000
#
# Coordination Sequence:
#
# PCOD9098148 Si02
#       8
#     2   2   2   2   2   2   2   2
#     4  10  20  36  63  99 132 173 227 289 348 394
#     4  12  24  37  67 101 135 176 234 290 343 412
#     4  11  27  44  65 106 146 190 224 280 360 431
#     4  11  23  40  64 101 136 177 232 290 350 401
#     4  11  22  42  66  97 136 181 235 291 343 411
#     4  10  22  40  64 101 135 175 239 298 341 399
#     4  11  22  43  70 101 139 181 234 290 344 411
#     4  12  25  41  63  98 143 181 221 284 354 424
#
# _framework density 23.756029000000002
#
# number of rings (size 3 to 8) (size 9 to 14) (size 15 to 20)
#    0.000    1.000    5.000    2.625    7.000    3.000 
#    0.000    0.625    0.000    3.750    0.000    0.000 
#    0.000    0.000    0.000    0.000    0.000    0.000 
#
# Total GULP energy -89523.611426 kJ/mol
# GULP energy per Si atom -5595.225714 kJ/mol
# Density = 2.370196 g / cm^3
# Si number density = 23.756029 Si / 1000 Ang^3
#
#
#
# Elastic Constant Matrix: (Units=GPa)
#
#
# Indices 1 2 3 4 5 6 
#
# 1 125.9439 10.0643 73.4678 16.7353 -14.1168 5.5323
# 2 10.0643 53.6465 10.1184 -4.9097 -13.5061 5.1915
# 3 73.4678 10.1184 171.0656 -0.3973 -21.7199 -1.4586
# 4 16.7353 -4.9097 -0.3973 36.3968 6.0091 -6.4653
# 5 -14.1168 -13.5061 -21.7199 6.0091 56.2393 -6.1476
# 6 5.5323 5.1915 -1.4586 -6.4653 -6.1476 18.7074
#
#
#
# Elastic Compliance Matrix: (Units=1/GPa)
#
#
# Indices 1 2 3 4 5 6 
#
# 1 0.012369 -0.001188 -0.005190 -0.007103 0.000931 -0.005882
# 2 -0.001188 0.020405 -0.000221 0.002056 0.003934 -0.003325
# 3 -0.005190 -0.000221 0.008382 0.002806 0.002005 0.003879
# 4 -0.007103 0.002056 0.002806 0.033687 -0.002428 0.012593
# 5 0.000931 0.003934 0.002005 -0.002428 0.020506 0.004689
# 6 -0.005882 -0.003325 0.003879 0.012593 0.004689 0.062312
#
#
# Mechanical properties :
#
#
# Convention : Reuss Voigt Hill
#
# Bulk Modulus (GPa) = 35.76766 59.77298 47.77032
# Shear Modulus (GPa) = 27.75007 39.40241 33.57624
#
# Velocity S-wave (km/s) = 3.42150 4.07704 3.76357
# Velocity P-wave (km/s) = 5.54056 6.88323 6.24806
#
# Compressibility (1/GPa) = 0.02795822
#
# Stress axis : x y z
#
# Youngs Moduli (GPa) = 80.84538 49.00657 119.30144
#
# Poissons Ratio (x) = 0.05822 0.61923
# Poissons Ratio (y) = 0.09605 0.02635
# Poissons Ratio (z) = 0.41962 0.01082
#
# Static dielectric constant tensor:
#      x y z
#    x 1.945110 0.018090 -0.005160 
#    y 0.018090 1.982340 0.004940 
#    z -0.005160 0.004940 1.915550 
# 
# From -- ./inp_files/475076.got.cif
#   From: 2010.05.17/outbox.cif.g08.bks.cpg/sg2_238_cif.got.tgz:475076.got - 2010.06.03 11:33:40.
