data_PCOD9098903
_publ_section_title
;
Structure prediction by ZEFSAII (Michael W. Deem and Ramdas Pophale) SiO2 
 PCOD9098903
Probable space group: P -1
;
_chemical_formula_sum "Si O2"
_cell_formula_units_Z 16
_cell_length_a 8.779812
_cell_length_b 15.663258
_cell_length_c 15.258508
_cell_angle_alpha 54.489372
_cell_angle_beta 48.528813
_cell_angle_gamma 93.227172
_cell_volume 884.212171
_symmetry_space_group_name_H-M "P -1"
_symmetry_group_IT_number 2
_symmetry_cell_setting 'triclinic'
loop_
_space_group_symop_operation_xyz
x,y,z
-x,-y,-z
loop_
_atom_site_type_symbol
_atom_site_label
_atom_site_fract_x
_atom_site_fract_y
_atom_site_fract_z
Si Si1 0.317391 0.018115 0.667108
Si Si2 0.601742 0.265365 0.543030
Si Si3 0.782336 0.814308 0.113640
Si Si4 0.272270 0.344630 0.624978
Si Si5 0.749571 0.537668 0.771252
Si Si6 0.334686 0.056446 0.431640
Si Si7 0.735569 0.750810 0.750979
Si Si8 0.243179 0.501163 0.408587
O O1 0.571046 0.169932 0.535382
O O2 0.299059 0.046248 0.556688
O O3 0.394278 0.923147 0.698364
O O4 0.025551 0.940681 0.877945
O O5 0.392906 0.169951 0.765694
O O6 0.470481 0.325415 0.521113
O O7 0.933503 0.396475 0.370548
O O8 0.920780 0.785950 0.150049
O O9 0.533580 0.659302 0.247135
O O10 0.500000 0.500000 0.500000
O O11 0.132948 0.365142 0.593070
O O12 0.767949 0.663100 0.726338
O O13 0.692351 0.514462 0.703744
O O14 0.501110 0.378553 0.010976
O O15 0.369887 0.184303 0.299329
O O16 0.040979 0.896413 0.595444
O O17 0.000000 0.500000 0.500000
#
# Coordination Sequence:
#
# PCOD9098903 Si02
#       8
#     2   2   2   2   2   2   2   2
#     4  11  21  38  62  82 111 158 196 234 281 345
#     4  10  20  37  58  84 118 147 185 239 282 343
#     4   9  20  36  58  84 116 147 185 228 290 345
#     4   8  18  33  52  83 113 147 180 227 285 335
#     4  11  21  38  63  84 118 152 192 236 294 337
#     4  10  23  41  60  82 116 152 201 240 283 331
#     4  10  23  41  59  85 113 156 193 244 289 333
#     4  11  19  34  57  85 116 147 183 233 290 342
#
# _framework density 18.095203999999999
#
# number of rings (size 3 to 8) (size 9 to 14) (size 15 to 20)
#    0.750    1.250    2.500    1.125    1.750    3.000 
#    0.000    0.625    0.000    2.250    0.000    0.000 
#    0.000    0.000    0.000    0.000    0.000    0.000 
#
# Total GULP energy -89073.649245 kJ/mol
# GULP energy per Si atom -5567.103078 kJ/mol
# Density = 1.805402 g / cm^3
# Si number density = 18.095204 Si / 1000 Ang^3
#
#
#
# Elastic Constant Matrix: (Units=GPa)
#
#
# Indices 1 2 3 4 5 6 
#
# 1 98.6776 39.5321 24.3565 3.8216 20.4345 4.0191
# 2 39.5321 98.8738 30.3787 7.4971 20.1151 11.6612
# 3 24.3565 30.3787 52.7836 2.3138 11.5369 2.7244
# 4 3.8216 7.4971 2.3138 27.1961 2.2698 2.0304
# 5 20.4345 20.1151 11.5369 2.2698 23.9178 2.8101
# 6 4.0191 11.6612 2.7244 2.0304 2.8101 33.2927
#
#
#
# Elastic Compliance Matrix: (Units=1/GPa)
#
#
# Indices 1 2 3 4 5 6 
#
# 1 0.013655 -0.003018 -0.002875 -0.000218 -0.007757 0.000312
# 2 -0.003018 0.014990 -0.005467 -0.002404 -0.006725 -0.003725
# 3 -0.002875 -0.005467 0.024431 0.000186 -0.004826 0.000659
# 4 -0.000218 -0.002404 0.000186 0.037655 -0.001299 -0.001334
# 5 -0.007757 -0.006725 -0.004826 -0.001299 0.056663 -0.001017
# 6 0.000312 -0.003725 0.000659 -0.001334 -0.001017 0.031417
#
#
# Mechanical properties :
#
#
# Convention : Reuss Voigt Hill
#
# Bulk Modulus (GPa) = 32.94299 48.76329 40.85314
# Shear Modulus (GPa) = 23.62385 27.28585 25.45485
#
# Velocity S-wave (km/s) = 3.61713 3.88739 3.75469
# Velocity P-wave (km/s) = 5.97409 6.86700 6.43605
#
# Compressibility (1/GPa) = 0.03035547
#
# Stress axis : x y z
#
# Youngs Moduli (GPa) = 73.23352 66.71030 40.93195
#
# Poissons Ratio (x) = 0.20136 0.11767
# Poissons Ratio (y) = 0.22105 0.22377
# Poissons Ratio (z) = 0.21053 0.36470
#
# Static dielectric constant tensor:
#      x y z
#    x 1.623000 -0.029060 -0.000650 
#    y -0.029060 1.692260 -0.008200 
#    z -0.000650 -0.008200 1.619250 
# 
# From -- ./inp_files/352187.got.cif
#   From: 2010.05.17/outbox.cif.g08.bks.cpg/sg2_177_cif.got.tgz:352187.got - 2010.06.03 11:33:40.
