data_PCOD9098502
_publ_section_title
;
Structure prediction by ZEFSAII (Michael W. Deem and Ramdas Pophale) SiO2 
 PCOD9098502
Probable space group: P -1
;
_chemical_formula_sum "Si O2"
_cell_formula_units_Z 14
_cell_length_a 24.402673
_cell_length_b 10.335146
_cell_length_c 8.279060
_cell_angle_alpha 58.884641
_cell_angle_beta 38.550379
_cell_angle_gamma 32.439960
_cell_volume 630.672455
_symmetry_space_group_name_H-M "P -1"
_symmetry_group_IT_number 2
_symmetry_cell_setting 'triclinic'
loop_
_space_group_symop_operation_xyz
x,y,z
-x,-y,-z
loop_
_atom_site_type_symbol
_atom_site_label
_atom_site_fract_x
_atom_site_fract_y
_atom_site_fract_z
Si Si1 0.329844 0.478977 0.838234
Si Si2 0.434273 0.011700 0.800164
Si Si3 0.324363 0.897579 0.771786
Si Si4 0.667389 0.183499 0.845897
Si Si5 0.836405 0.025161 0.226979
Si Si6 0.353388 0.307134 0.203327
Si Si7 0.116937 0.460105 0.819673
O O1 0.334258 0.292628 0.920552
O O2 0.490946 0.331095 0.509435
O O3 0.191734 0.760127 0.888455
O O4 0.330163 0.481783 0.029803
O O5 0.500000 0.000000 0.500000
O O6 0.587078 0.745663 0.720878
O O7 0.344706 0.981920 0.022568
O O8 0.262958 0.915528 0.730696
O O9 0.249312 0.171223 0.781993
O O10 0.282985 0.862706 0.051112
O O11 0.771316 0.082424 0.517810
O O12 0.500000 0.500000 0.000000
O O13 0.012608 0.719738 0.997926
O O14 0.198314 0.431164 0.503264
O O15 0.500000 0.000000 0.000000
O O16 0.000000 0.500000 0.000000
#
# Coordination Sequence:
#
# PCOD9098502 Si02
#       7
#     2   2   2   2   2   2   2
#     4  11  21  38  64  94 125 166 221 264 320 379
#     4  11  20  36  62  94 128 162 219 277 311 381
#     4  11  21  42  64  97 132 174 220 267 322 397
#     4  12  24  39  68 100 130 172 226 267 328 389
#     4  11  25  40  65  96 138 169 214 279 324 386
#     4  10  20  36  67  91 121 174 219 254 323 390
#     4  10  22  40  63  98 136 171 214 270 332 391
#
# _framework density 22.198526999999999
#
# number of rings (size 3 to 8) (size 9 to 14) (size 15 to 20)
#    0.000    1.143    5.714    1.286    8.000    1.143 
#    0.000    0.000    0.000    4.286    0.000    0.000 
#    0.000    0.000    0.000    0.000    0.000    0.000 
#
# Total GULP energy -78055.442871 kJ/mol
# GULP energy per Si atom -5575.388777 kJ/mol
# Density = 2.214800 g / cm^3
# Si number density = 22.198527 Si / 1000 Ang^3
#
#
#
# Elastic Constant Matrix: (Units=GPa)
#
#
# Indices 1 2 3 4 5 6 
#
# 1 40.9126 7.4180 19.8355 -16.6152 12.7246 6.9595
# 2 7.4180 139.2419 48.7149 -5.4955 27.7657 14.9303
# 3 19.8355 48.7149 145.5257 -6.4156 40.1239 -7.7938
# 4 -16.6152 -5.4955 -6.4156 45.4350 -11.9261 9.5847
# 5 12.7246 27.7657 40.1239 -11.9261 35.2567 -15.1243
# 6 6.9595 14.9303 -7.7938 9.5847 -15.1243 33.0516
#
#
#
# Elastic Compliance Matrix: (Units=1/GPa)
#
#
# Indices 1 2 3 4 5 6 
#
# 1 0.044233 0.007701 -0.001969 0.016057 -0.027424 -0.030463
# 2 0.007701 0.012498 -0.001238 0.003088 -0.017165 -0.016309
# 3 -0.001969 -0.001238 0.010602 -0.002170 -0.011639 -0.001222
# 4 0.016057 0.003088 -0.002170 0.030633 -0.001835 -0.015011
# 5 -0.027424 -0.017165 -0.011639 -0.001835 0.086174 0.050748
# 6 -0.030463 -0.016309 -0.001222 -0.015011 0.050748 0.071324
#
#
# Mechanical properties :
#
#
# Convention : Reuss Voigt Hill
#
# Bulk Modulus (GPa) = 13.10258 53.06857 33.08557
# Shear Modulus (GPa) = 18.38795 39.39612 28.89203
#
# Velocity S-wave (km/s) = 2.88121 4.21731 3.61159
# Velocity P-wave (km/s) = 4.12114 6.90453 5.68579
#
# Compressibility (1/GPa) = 0.07632087
#
# Stress axis : x y z
#
# Youngs Moduli (GPa) = 22.60756 80.01269 94.31859
#
# Poissons Ratio (x) = -0.61619 0.18574
# Poissons Ratio (y) = -0.17410 0.11678
# Poissons Ratio (z) = 0.04452 0.09907
#
# Static dielectric constant tensor:
#      x y z
#    x 2.178220 -0.008450 0.095030 
#    y -0.008450 1.877830 0.057610 
#    z 0.095030 0.057610 1.899420 
# 
# From -- ./inp_files/177507.got.cif
#   From: 2010.05.17/outbox.cif.g08.bks.cpg/sg2_89_cif.got.tgz:177507.got - 2010.06.03 11:33:40.
