data_PCOD9098480
_publ_section_title
;
Structure prediction by ZEFSAII (Michael W. Deem and Ramdas Pophale) SiO2 
 PCOD9098480
Probable space group: P -1
;
_chemical_formula_sum "Si O2"
_cell_formula_units_Z 15
_cell_length_a 19.952897
_cell_length_b 6.785990
_cell_length_c 5.077194
_cell_angle_alpha 100.224575
_cell_angle_beta 89.297727
_cell_angle_gamma 117.942612
_cell_volume 595.671594
_symmetry_space_group_name_H-M "P -1"
_symmetry_group_IT_number 2
_symmetry_cell_setting 'triclinic'
loop_
_space_group_symop_operation_xyz
x,y,z
-x,-y,-z
loop_
_atom_site_type_symbol
_atom_site_label
_atom_site_fract_x
_atom_site_fract_y
_atom_site_fract_z
Si Si1 0.500000 0.500000 0.000000
Si Si2 0.714429 0.070398 0.016404
Si Si3 0.575271 0.860986 0.619325
Si Si4 0.080696 0.008878 0.057508
Si Si5 0.812233 0.456580 0.773818
Si Si6 0.635845 0.646258 0.198199
Si Si7 0.348093 0.699005 0.522754
Si Si8 0.081078 0.723465 0.503104
O O1 0.478024 0.283266 0.179784
O O2 0.583740 0.504703 0.927132
O O3 0.667291 0.165930 0.205945
O O4 0.709658 0.865241 0.145525
O O5 0.791518 0.287491 0.984568
O O6 0.663210 0.946472 0.732955
O O7 0.568406 0.710293 0.319485
O O8 0.582236 0.099396 0.585587
O O9 0.077878 0.870169 0.288374
O O10 0.098559 0.885077 0.789874
O O11 0.139700 0.275683 0.128102
O O12 0.000000 0.000000 0.000000
O O13 0.729440 0.405348 0.665259
O O14 0.858176 0.366776 0.568832
O O15 0.647470 0.503708 0.382630
O O16 0.000000 0.500000 0.500000
#
# Coordination Sequence:
#
# PCOD9098480 Si02
#       8
#     1   2   2   2   2   2   2   2
#     4  10  20  36  66  96 132 180 230 286 358 430
#     4   9  22  42  63  92 138 175 226 292 352 433
#     4   9  20  40  59  94 130 175 225 289 344 426
#     4  12  28  48  79 111 147 196 252 304 381 454
#     4  11  27  45  70 104 145 187 252 294 379 443
#     4  10  21  41  67  93 136 177 232 289 361 418
#     4  10  23  42  65  94 137 181 234 295 352 438
#     4  12  28  49  78 108 154 196 238 324 376 439
#
# _framework density 25.181660000000001
#
# number of rings (size 3 to 8) (size 9 to 14) (size 15 to 20)
#    0.000    1.600    1.333    1.200    3.733    9.067 
#    0.000    6.667    0.000    0.000    0.000    0.000 
#    0.000    0.000    0.000    0.000    0.000    0.000 
#
# Total GULP energy -83738.321993 kJ/mol
# GULP energy per Si atom -5582.554800 kJ/mol
# Density = 2.512435 g / cm^3
# Si number density = 25.181660 Si / 1000 Ang^3
#
#
#
# Elastic Constant Matrix: (Units=GPa)
#
#
# Indices 1 2 3 4 5 6 
#
# 1 90.3568 87.3222 28.6552 -16.5583 18.9922 16.9185
# 2 87.3222 301.7542 106.4224 -35.7299 -0.1203 20.4364
# 3 28.6552 106.4224 144.5829 -24.6648 1.6531 -0.3926
# 4 -16.5583 -35.7299 -24.6648 56.7950 -4.6641 -5.2578
# 5 18.9922 -0.1203 1.6531 -4.6641 33.0379 -2.8571
# 6 16.9185 20.4364 -0.3926 -5.2578 -2.8571 43.2948
#
#
#
# Elastic Compliance Matrix: (Units=1/GPa)
#
#
# Indices 1 2 3 4 5 6 
#
# 1 0.019942 -0.005351 0.000285 0.001049 -0.011861 -0.005920
# 2 -0.005351 0.006218 -0.003365 0.001120 0.003381 -0.000516
# 3 0.000285 -0.003365 0.009746 0.002354 -0.000172 0.001840
# 4 0.001049 0.001120 0.002354 0.019978 0.002247 0.001657
# 5 -0.011861 0.003381 -0.000172 0.002247 0.037928 0.005814
# 6 -0.005920 -0.000516 0.001840 0.001657 0.005814 0.026256
#
#
# Mechanical properties :
#
#
# Convention : Reuss Voigt Hill
#
# Bulk Modulus (GPa) = 52.51301 109.05484 80.78393
# Shear Modulus (GPa) = 34.89714 47.57850 41.23782
#
# Velocity S-wave (km/s) = 3.72669 4.35145 4.05113
# Velocity P-wave (km/s) = 6.27826 8.28541 7.35067
#
# Compressibility (1/GPa) = 0.01904290
#
# Stress axis : x y z
#
# Youngs Moduli (GPa) = 50.14569 160.81743 102.60803
#
# Poissons Ratio (x) = 0.86050 -0.02922
# Poissons Ratio (y) = 0.26832 0.34533
# Poissons Ratio (z) = -0.01428 0.54123
#
# Static dielectric constant tensor:
#      x y z
#    x 2.110210 0.036770 0.159390 
#    y 0.036770 2.215950 0.377280 
#    z 0.159390 0.377280 2.706310 
# 
# From -- ./inp_files/121665.got.cif
#   From: 2010.05.17/outbox.cif.g08.bks.cpg/sg2_61_cif.got.tgz:121665.got - 2010.06.03 11:33:40.
