data_PCOD9098051
_publ_section_title
;
Structure prediction by ZEFSAII (Michael W. Deem and Ramdas Pophale) SiO2 
 PCOD9098051
Probable space group: P -1
;
_chemical_formula_sum "Si O2"
_cell_formula_units_Z 16
_cell_length_a 18.852008
_cell_length_b 18.979068
_cell_length_c 11.278764
_cell_angle_alpha 149.245779
_cell_angle_beta 137.665244
_cell_angle_gamma 21.755651
_cell_volume 726.940411
_symmetry_space_group_name_H-M "P -1"
_symmetry_group_IT_number 2
_symmetry_cell_setting 'triclinic'
loop_
_space_group_symop_operation_xyz
x,y,z
-x,-y,-z
loop_
_atom_site_type_symbol
_atom_site_label
_atom_site_fract_x
_atom_site_fract_y
_atom_site_fract_z
Si Si1 0.141540 0.033447 0.963366
Si Si2 0.874762 0.537500 0.481345
Si Si3 0.796536 0.131674 0.589834
Si Si4 0.858476 0.323805 0.808848
Si Si5 0.020684 0.921147 0.777620
Si Si6 0.534874 0.102967 0.904004
Si Si7 0.175840 0.440364 0.289138
Si Si8 0.606631 0.052752 0.203701
O O1 0.033778 0.151840 0.873265
O O2 0.182176 0.839363 0.790344
O O3 0.962800 0.293462 0.201136
O O4 0.328773 0.927387 0.029541
O O5 0.917369 0.510624 0.633221
O O6 0.000000 0.500000 0.500000
O O7 0.642653 0.840634 0.619730
O O8 0.743930 0.315097 0.701862
O O9 0.667235 0.139792 0.432152
O O10 0.821528 0.157601 0.791528
O O11 0.020700 0.839979 0.398327
O O12 0.694213 0.624382 0.024129
O O13 0.067510 0.705657 0.514104
O O14 0.000000 0.000000 0.000000
O O15 0.554894 0.099825 0.066782
O O16 0.408072 0.231434 0.287618
O O17 0.215965 0.256532 0.996904
#
# Coordination Sequence:
#
# PCOD9098051 Si02
#       8
#     2   2   2   2   2   2   2   2
#     4  10  20  38  61  90 126 160 208 259 305 371
#     4   9  19  37  61  86 120 163 208 255 306 373
#     4  10  22  39  58  92 129 161 206 267 305 367
#     4  10  21  37  59  96 126 154 212 261 309 367
#     4  11  22  39  61  87 123 173 208 246 316 378
#     4  10  20  36  63  91 120 168 206 250 322 366
#     4  10  21  38  62  90 121 166 212 252 315 376
#     4  10  21  39  62  90 126 163 207 265 311 364
#
# _framework density 22.010058000000001
#
# number of rings (size 3 to 8) (size 9 to 14) (size 15 to 20)
#    0.000    2.000    2.500    0.750    1.750    1.500 
#    0.000    1.875    0.000    0.000    0.000    0.000 
#    0.000    0.000    0.000    0.000    0.000    0.000 
#
# Total GULP energy -89140.794062 kJ/mol
# GULP energy per Si atom -5571.299629 kJ/mol
# Density = 2.195996 g / cm^3
# Si number density = 22.010058 Si / 1000 Ang^3
#
#
#
# Elastic Constant Matrix: (Units=GPa)
#
#
# Indices 1 2 3 4 5 6 
#
# 1 97.1397 13.3264 -6.7820 -5.0257 -1.0937 3.4549
# 2 13.3264 35.7539 12.0096 12.7061 -10.7220 7.4268
# 3 -6.7820 12.0096 34.4391 6.1602 -9.4579 1.2773
# 4 -5.0257 12.7061 6.1602 36.8422 4.9802 7.0090
# 5 -1.0937 -10.7220 -9.4579 4.9802 36.6988 -4.7088
# 6 3.4549 7.4268 1.2773 7.0090 -4.7088 20.8454
#
#
#
# Elastic Compliance Matrix: (Units=1/GPa)
#
#
# Indices 1 2 3 4 5 6 
#
# 1 0.011781 -0.007234 0.003784 0.003908 -0.001478 -0.001255
# 2 -0.007234 0.044205 -0.010945 -0.014667 0.011041 -0.006454
# 3 0.003784 -0.010945 0.036037 -0.003432 0.007160 0.003836
# 4 0.003908 -0.014667 -0.003432 0.036770 -0.011344 -0.010138
# 5 -0.001478 0.011041 0.007160 -0.011344 0.034783 0.007544
# 6 -0.001255 -0.006454 0.003836 -0.010138 0.007544 0.055358
#
#
# Mechanical properties :
#
#
# Convention : Reuss Voigt Hill
#
# Bulk Modulus (GPa) = 15.81406 22.71562 19.26484
# Shear Modulus (GPa) = 18.60112 28.79586 23.69849
#
# Velocity S-wave (km/s) = 2.91025 3.62097 3.28489
# Velocity P-wave (km/s) = 4.30038 5.27493 4.81239
#
# Compressibility (1/GPa) = 0.06323489
#
# Stress axis : x y z
#
# Youngs Moduli (GPa) = 84.88127 22.62166 27.74944
#
# Poissons Ratio (x) = 0.16363 -0.10501
# Poissons Ratio (y) = 0.61399 0.30371
# Poissons Ratio (z) = -0.32120 0.24759
#
# Static dielectric constant tensor:
#      x y z
#    x 1.849170 0.045990 0.049130 
#    y 0.045990 1.825600 0.019970 
#    z 0.049130 0.019970 1.900790 
# 
# From -- ./inp_files/472780.got.cif
#   From: 2010.05.17/outbox.cif.g08.bks.cpg/sg2_237_cif.got.tgz:472780.got - 2010.06.03 11:33:40.
