data_PCOD9098349
_publ_section_title
;
Structure prediction by ZEFSAII (Michael W. Deem and Ramdas Pophale) SiO2 
 PCOD9098349
Probable space group: P -1
;
_chemical_formula_sum "Si O2"
_cell_formula_units_Z 16
_cell_length_a 8.320858
_cell_length_b 7.805605
_cell_length_c 13.741579
_cell_angle_alpha 114.621113
_cell_angle_beta 92.483333
_cell_angle_gamma 123.693187
_cell_volume 629.064035
_symmetry_space_group_name_H-M "P -1"
_symmetry_group_IT_number 2
_symmetry_cell_setting 'triclinic'
loop_
_space_group_symop_operation_xyz
x,y,z
-x,-y,-z
loop_
_atom_site_type_symbol
_atom_site_label
_atom_site_fract_x
_atom_site_fract_y
_atom_site_fract_z
Si Si1 0.714625 0.133296 0.705291
Si Si2 0.059180 0.631699 0.700959
Si Si3 0.694627 0.755011 0.483118
Si Si4 0.129522 0.526415 0.912734
Si Si5 0.605592 0.634330 0.133896
Si Si6 0.068558 0.792115 0.528604
Si Si7 0.348723 0.516157 0.284476
Si Si8 0.477843 0.019641 0.860686
O O1 0.600031 0.223170 0.670458
O O2 0.610059 0.019523 0.780259
O O3 0.937293 0.391732 0.799309
O O4 0.702030 0.930197 0.600077
O O5 0.928737 0.352173 0.594742
O O6 0.131005 0.747285 0.620766
O O7 0.897528 0.668115 0.746585
O O8 0.262163 0.745475 0.800794
O O9 0.830927 0.681979 0.502292
O O10 0.469330 0.538189 0.387828
O O11 0.806901 0.927785 0.430307
O O12 0.197524 0.357493 0.857224
O O13 0.354358 0.794875 0.008535
O O14 0.000000 0.500000 0.000000
O O15 0.447296 0.490005 0.186025
O O16 0.622022 0.866621 0.164410
O O17 0.500000 0.500000 0.000000
#
# Coordination Sequence:
#
# PCOD9098349 Si02
#       8
#     2   2   2   2   2   2   2   2
#     4  10  20  36  65  89 121 162 219 259 307 366
#     4  11  23  41  59  93 135 171 198 258 330 373
#     4  11  23  40  62  95 119 171 220 261 300 375
#     4   9  19  37  62  94 114 155 214 268 303 363
#     4   9  19  38  64  90 118 163 218 260 298 375
#     4  10  24  39  62  89 133 168 214 256 313 377
#     4  11  23  37  62  90 130 166 209 257 313 378
#     4   9  20  38  61  87 125 165 208 258 319 368
#
# _framework density 25.434612000000001
#
# number of rings (size 3 to 8) (size 9 to 14) (size 15 to 20)
#    0.000    2.000    1.250    2.625    8.750    0.500 
#    0.000    3.125    0.000    0.000    0.000    0.000 
#    0.000    0.000    0.000    0.000    0.000    0.000 
#
# Total GULP energy -89201.742523 kJ/mol
# GULP energy per Si atom -5575.108908 kJ/mol
# Density = 2.537672 g / cm^3
# Si number density = 25.434612 Si / 1000 Ang^3
#
#
#
# Elastic Constant Matrix: (Units=GPa)
#
#
# Indices 1 2 3 4 5 6 
#
# 1 130.7332 9.2935 54.6386 -2.9218 5.9018 20.3133
# 2 9.2935 51.4291 3.3167 17.6963 2.7264 25.3334
# 3 54.6386 3.3167 165.2292 -2.6694 8.0223 11.3435
# 4 -2.9218 17.6963 -2.6694 14.3625 10.4036 5.9372
# 5 5.9018 2.7264 8.0223 10.4036 60.8098 1.2380
# 6 20.3133 25.3334 11.3435 5.9372 1.2380 47.3161
#
#
#
# Elastic Compliance Matrix: (Units=1/GPa)
#
#
# Indices 1 2 3 4 5 6 
#
# 1 0.009654 -0.002244 -0.002755 0.006602 -0.001540 -0.003071
# 2 -0.002244 0.048517 -0.000389 -0.059202 0.008583 -0.017716
# 3 -0.002755 -0.000389 0.007095 0.002205 -0.001017 -0.000560
# 4 0.006602 -0.059202 0.002205 0.159205 -0.025699 0.009030
# 5 -0.001540 0.008583 -0.001017 -0.025699 0.020761 -0.001009
# 6 -0.003071 -0.017716 -0.000560 0.009030 -0.001009 0.030965
#
#
# Mechanical properties :
#
#
# Convention : Reuss Voigt Hill
#
# Bulk Modulus (GPa) = 18.35218 53.54323 35.94770
# Shear Modulus (GPa) = 16.38608 43.17385 29.77997
#
# Velocity S-wave (km/s) = 2.54095 4.12448 3.42547
# Velocity P-wave (km/s) = 3.97991 6.61655 5.45978
#
# Compressibility (1/GPa) = 0.05448944
#
# Stress axis : x y z
#
# Youngs Moduli (GPa) = 103.57918 20.61126 140.95279
#
# Poissons Ratio (x) = 0.04626 0.38836
# Poissons Ratio (y) = 0.23248 0.05478
# Poissons Ratio (z) = 0.28539 0.00801
#
# Static dielectric constant tensor:
#      x y z
#    x 1.740380 0.129170 -0.160070 
#    y 0.129170 2.323750 0.034780 
#    z -0.160070 0.034780 1.954280 
# 
# From -- ./inp_files/495612.got.cif
#   From: 2010.05.17/outbox.cif.g08.bks.cpg/sg2_248_cif.got.tgz:495612.got - 2010.06.03 11:33:40.
