data_PCOD9098357
_publ_section_title
;
Structure prediction by ZEFSAII (Michael W. Deem and Ramdas Pophale) SiO2 
 PCOD9098357
Probable space group: P -1
;
_chemical_formula_sum "Si O2"
_cell_formula_units_Z 14
_cell_length_a 12.189505
_cell_length_b 10.137153
_cell_length_c 11.053119
_cell_angle_alpha 58.967184
_cell_angle_beta 51.500890
_cell_angle_gamma 38.418249
_cell_volume 663.124779
_symmetry_space_group_name_H-M "P -1"
_symmetry_group_IT_number 2
_symmetry_cell_setting 'triclinic'
loop_
_space_group_symop_operation_xyz
x,y,z
-x,-y,-z
loop_
_atom_site_type_symbol
_atom_site_label
_atom_site_fract_x
_atom_site_fract_y
_atom_site_fract_z
Si Si1 0.264749 0.160720 0.434418
Si Si2 0.180571 0.890177 0.597703
Si Si3 0.248023 0.748231 0.347251
Si Si4 0.433219 0.072660 0.873717
Si Si5 0.837962 0.537042 0.440884
Si Si6 0.338719 0.478528 0.825337
Si Si7 0.046797 0.355455 0.922816
O O1 0.289920 0.258505 0.481136
O O2 0.045736 0.349193 0.448891
O O3 0.271770 0.975236 0.550873
O O4 0.405552 0.083692 0.261904
O O5 0.223226 0.857206 0.439972
O O6 0.271141 0.670497 0.697669
O O7 0.946024 0.070938 0.681337
O O8 0.249355 0.566142 0.466322
O O9 0.454722 0.637546 0.202563
O O10 0.380648 0.294336 0.804012
O O11 0.240074 0.124591 0.946458
O O12 0.500000 0.000000 0.000000
O O13 0.888564 0.593929 0.259676
O O14 0.154034 0.582164 0.988447
O O15 0.000000 0.500000 0.000000
#
# Coordination Sequence:
#
# PCOD9098357 Si02
#       7
#     2   2   2   2   2   2   2
#     4  10  21  40  65  93 126 168 210 262 310 386
#     4  10  21  36  61  95 123 160 217 254 318 368
#     4  10  20  36  65  90 124 163 209 266 304 376
#     4  11  23  38  65  94 125 168 214 259 319 376
#     4  10  22  41  64  93 127 166 216 256 316 377
#     4  11  22  37  62  92 125 161 207 265 311 369
#     4  10  22  38  59  90 128 163 210 260 305 378
#
# _framework density 21.112165999999998
#
# number of rings (size 3 to 8) (size 9 to 14) (size 15 to 20)
#    0.000    1.714    1.429    3.857    4.000    0.571 
#    0.000    0.714    0.000    3.429    0.000    0.000 
#    0.000    0.000    0.000    0.000    0.000    0.000 
#
# Total GULP energy -78135.886024 kJ/mol
# GULP energy per Si atom -5581.134716 kJ/mol
# Density = 2.106411 g / cm^3
# Si number density = 21.112166 Si / 1000 Ang^3
#
#
#
# Elastic Constant Matrix: (Units=GPa)
#
#
# Indices 1 2 3 4 5 6 
#
# 1 57.3245 29.7360 30.6054 16.2669 -25.8476 -3.6982
# 2 29.7360 103.6765 39.1319 8.7370 -4.3680 1.8854
# 3 30.6054 39.1319 89.4074 25.5350 -11.7932 -1.5060
# 4 16.2669 8.7370 25.5350 31.2139 -15.0328 2.9109
# 5 -25.8476 -4.3680 -11.7932 -15.0328 35.4637 13.2548
# 6 -3.6982 1.8854 -1.5060 2.9109 13.2548 32.5977
#
#
#
# Elastic Compliance Matrix: (Units=1/GPa)
#
#
# Indices 1 2 3 4 5 6 
#
# 1 0.034895 -0.006579 -0.006303 0.001839 0.025772 -0.006595
# 2 -0.006579 0.012881 -0.004336 0.001499 -0.003930 -0.000228
# 3 -0.006303 -0.004336 0.018506 -0.014249 -0.006645 0.004365
# 4 0.001839 0.001499 -0.014249 0.056947 0.027154 -0.016663
# 5 0.025772 -0.003930 -0.006645 0.027154 0.065613 -0.026260
# 6 -0.006595 -0.000228 0.004365 -0.016663 -0.026260 0.042309
#
#
# Mechanical properties :
#
#
# Convention : Reuss Voigt Hill
#
# Bulk Modulus (GPa) = 31.39919 49.92833 40.66376
# Shear Modulus (GPa) = 18.10264 29.91740 24.01002
#
# Velocity S-wave (km/s) = 2.93140 3.76848 3.37599
# Velocity P-wave (km/s) = 5.13443 6.52960 5.87359
#
# Compressibility (1/GPa) = 0.03184796
#
# Stress axis : x y z
#
# Youngs Moduli (GPa) = 28.65718 77.63267 54.03517
#
# Poissons Ratio (x) = 0.51074 0.34056
# Poissons Ratio (y) = 0.18853 0.23430
# Poissons Ratio (z) = 0.18061 0.33662
#
# Static dielectric constant tensor:
#      x y z
#    x 1.804750 -0.034450 -0.040340 
#    y -0.034450 1.843080 0.058460 
#    z -0.040340 0.058460 1.857410 
# 
# From -- ./inp_files/419073.got.cif
#   From: 2010.05.17/outbox.cif.g08.bks.cpg/sg2_210_cif.got.tgz:419073.got - 2010.06.03 11:33:40.
