data_PCOD9098690
_publ_section_title
;
Structure prediction by ZEFSAII (Michael W. Deem and Ramdas Pophale) SiO2 
 PCOD9098690
Probable space group: P -1
;
_chemical_formula_sum "Si O2"
_cell_formula_units_Z 16
_cell_length_a 16.693671
_cell_length_b 7.856880
_cell_length_c 6.524441
_cell_angle_alpha 60.778570
_cell_angle_beta 90.662177
_cell_angle_gamma 89.779001
_cell_volume 746.749945
_symmetry_space_group_name_H-M "P -1"
_symmetry_group_IT_number 2
_symmetry_cell_setting 'triclinic'
loop_
_space_group_symop_operation_xyz
x,y,z
-x,-y,-z
loop_
_atom_site_type_symbol
_atom_site_label
_atom_site_fract_x
_atom_site_fract_y
_atom_site_fract_z
Si Si1 0.403401 0.955209 0.257098
Si Si2 0.907106 0.959108 0.483755
Si Si3 0.230090 0.542730 0.746035
Si Si4 0.228499 0.953114 0.266428
Si Si5 0.466290 0.754729 0.993401
Si Si6 0.907036 0.547678 0.505501
Si Si7 0.827632 0.256889 0.992329
Si Si8 0.595467 0.455325 0.266032
O O1 0.315529 0.045212 0.245869
O O2 0.414267 0.893912 0.055382
O O3 0.411319 0.746615 0.491856
O O4 0.473390 0.107341 0.212857
O O5 0.899068 0.755612 0.488900
O O6 0.850300 0.952154 0.688271
O O7 0.877590 0.131894 0.231397
O O8 0.000000 0.000000 0.500000
O O9 0.235299 0.750082 0.509124
O O10 0.151011 0.451196 0.696579
O O11 0.221041 0.590451 0.957505
O O12 0.317076 0.451620 0.755537
O O13 0.218320 0.896503 0.062078
O O14 0.525364 0.612187 0.207834
O O15 0.415100 0.618519 0.924913
O O16 0.000000 0.500000 0.500000
O O17 0.877388 0.381763 0.758287
#
# Coordination Sequence:
#
# PCOD9098690 Si02
#       8
#     2   2   2   2   2   2   2   2
#     4  10  20  37  56  82 116 148 190 239 282 337
#     4  11  24  40  60  88 116 150 195 236 289 351
#     4   9  20  38  60  86 115 152 194 237 288 344
#     4   9  20  38  60  86 115 152 194 237 288 344
#     4  10  21  34  57  84 110 154 194 228 291 346
#     4  11  24  40  60  88 116 150 195 236 289 351
#     4  10  21  40  61  82 118 154 184 240 289 332
#     4  10  20  37  56  82 116 148 190 239 282 337
#
# _framework density 21.426183000000002
#
# number of rings (size 3 to 8) (size 9 to 14) (size 15 to 20)
#    0.000    2.000    0.000    3.750    0.000    7.000 
#    0.000    6.250    0.000    0.000    0.000    0.000 
#    0.000    0.000    0.000    0.000    0.000    0.000 
#
# Total GULP energy -89258.768524 kJ/mol
# GULP energy per Si atom -5578.673033 kJ/mol
# Density = 2.137742 g / cm^3
# Si number density = 21.426183 Si / 1000 Ang^3
#
#
#
# Elastic Constant Matrix: (Units=GPa)
#
#
# Indices 1 2 3 4 5 6 
#
# 1 151.4295 30.1654 35.5014 14.2727 -6.5898 0.9026
# 2 30.1654 71.1696 2.8436 6.3416 -3.8464 1.1916
# 3 35.5014 2.8436 69.7928 2.8078 -1.8231 0.4848
# 4 14.2727 6.3416 2.8078 43.5029 0.0540 -1.7413
# 5 -6.5898 -3.8464 -1.8231 0.0540 1.9974 5.2517
# 6 0.9026 1.1916 0.4848 -1.7413 5.2517 13.5746
#
#
#
# Elastic Compliance Matrix: (Units=1/GPa)
#
#
# Indices 1 2 3 4 5 6 
#
# 1 0.005784 -0.006492 -0.004689 0.000522 -0.068970 0.027103
# 2 -0.006492 0.011354 0.000255 0.001903 -0.087140 0.033382
# 3 -0.004689 0.000255 0.016187 0.000731 -0.016912 0.006348
# 4 0.000522 0.001903 0.000731 0.021457 0.067862 -0.023730
# 5 -0.068970 -0.087140 -0.016912 0.067862 -1.828090 0.728786
# 6 0.027103 0.033382 0.006348 -0.023730 0.728786 -0.216285
#
#
# Mechanical properties :
#
#
# Convention : Reuss Voigt Hill
#
# Bulk Modulus (GPa) = 87.14918 47.71249 67.43084
# Shear Modulus (GPa) = -2.54593 26.74042 12.09725
#
# Velocity S-wave (km/s) = -1.09124 3.53657 2.37871
# Velocity P-wave (km/s) = 6.25897 6.24445 6.25171
#
# Compressibility (1/GPa) = 0.01147458
#
# Stress axis : x y z
#
# Youngs Moduli (GPa) = 172.88986 88.07137 61.77663
#
# Poissons Ratio (x) = 0.57176 0.28964
# Poissons Ratio (y) = 1.12241 -0.01575
# Poissons Ratio (z) = 0.81060 -0.02246
#
# Static dielectric constant tensor:
#      x y z
#    x 1.822980 0.019450 0.010570 
#    y 0.019450 1.482110 -0.083050 
#    z 0.010570 -0.083050 1.759920 
# 
# From -- ./inp_files/89870.got.cif
#   From: 2010.05.17/outbox.cif.g08.bks.cpg/sg2_45_cif.got.tgz:89870.got - 2010.06.03 11:33:40.
