data_PCOD9098895
_publ_section_title
;
Structure prediction by ZEFSAII (Michael W. Deem and Ramdas Pophale) SiO2 
 PCOD9098895
Probable space group: P -1
;
_chemical_formula_sum "Si O2"
_cell_formula_units_Z 12
_cell_length_a 15.224631
_cell_length_b 15.826436
_cell_length_c 6.904367
_cell_angle_alpha 107.304821
_cell_angle_beta 54.142473
_cell_angle_gamma 152.633581
_cell_volume 496.802196
_symmetry_space_group_name_H-M "P -1"
_symmetry_group_IT_number 2
_symmetry_cell_setting 'triclinic'
loop_
_space_group_symop_operation_xyz
x,y,z
-x,-y,-z
loop_
_atom_site_type_symbol
_atom_site_label
_atom_site_fract_x
_atom_site_fract_y
_atom_site_fract_z
Si Si1 0.055589 0.705248 0.434658
Si Si2 0.987237 0.604223 0.865092
Si Si3 0.352356 0.799869 0.813192
Si Si4 0.817192 0.659910 0.185635
Si Si5 0.836619 0.867304 0.322775
Si Si6 0.818828 0.709051 0.761241
O O1 0.911304 0.547901 0.697012
O O2 0.891433 0.668167 0.546237
O O3 0.334767 0.949327 0.351790
O O4 0.160043 0.717122 0.144498
O O5 0.261411 0.756704 0.684010
O O6 0.736238 0.366024 0.137693
O O7 0.014743 0.724458 0.989532
O O8 0.888768 0.806763 0.294629
O O9 0.498408 0.387978 0.450621
O O10 0.829976 0.693793 0.964662
O O11 0.959809 0.044969 0.396209
O O12 0.000000 0.000000 0.000000
O O13 0.500000 0.500000 0.000000
#
# Coordination Sequence:
#
# PCOD9098895 Si02
#       6
#     2   2   2   2   2   2
#     4  10  21  38  56  83 116 146 186 234 278 334
#     4  10  20  37  58  84 111 145 188 232 283 336
#     4  10  21  36  60  83 111 149 186 231 284 334
#     4   9  19  35  56  80 111 148 187 232 279 334
#     4   9  18  34  54  77 108 146 187 228 275 331
#     4  10  21  36  55  81 114 149 185 230 282 333
#
# _framework density 24.154484
#
# number of rings (size 3 to 8) (size 9 to 14) (size 15 to 20)
#    0.000    2.333    0.000    2.000    0.000    4.667 
#    0.000   11.667    0.000    0.000    0.000    0.000 
#    0.000    0.000    0.000    0.000    0.000    0.000 
#
# Total GULP energy -67005.970546 kJ/mol
# GULP energy per Si atom -5583.830879 kJ/mol
# Density = 2.409951 g / cm^3
# Si number density = 24.154484 Si / 1000 Ang^3
#
#
#
# Elastic Constant Matrix: (Units=GPa)
#
#
# Indices 1 2 3 4 5 6 
#
# 1 121.5731 39.2000 24.0168 3.2151 -21.2732 -26.2801
# 2 39.2000 85.6496 24.2750 -9.3766 4.7612 -15.7666
# 3 24.0168 24.2750 77.9459 9.2069 -5.7927 -15.8657
# 4 3.2151 -9.3766 9.2069 39.2207 -6.7522 8.7015
# 5 -21.2732 4.7612 -5.7927 -6.7522 33.9548 5.6427
# 6 -26.2801 -15.7666 -15.8657 8.7015 5.6427 40.2826
#
#
#
# Elastic Compliance Matrix: (Units=1/GPa)
#
#
# Indices 1 2 3 4 5 6 
#
# 1 0.012463 -0.005254 -0.000312 -0.002174 0.007159 0.005418
# 2 -0.005254 0.016218 -0.004074 0.004013 -0.005670 0.001243
# 3 -0.000312 -0.004074 0.016108 -0.005808 0.001029 0.005657
# 4 -0.002174 0.004013 -0.005808 0.030932 0.004813 -0.009491
# 5 0.007159 -0.005670 0.001029 0.004813 0.036409 -0.003283
# 6 0.005418 0.001243 0.005657 -0.009491 -0.003283 0.033584
#
#
# Mechanical properties :
#
#
# Convention : Reuss Voigt Hill
#
# Bulk Modulus (GPa) = 39.20321 51.12802 45.16561
# Shear Modulus (GPa) = 28.81888 35.87007 32.34448
#
# Velocity S-wave (km/s) = 3.45789 3.85779 3.66330
# Velocity P-wave (km/s) = 5.67521 6.40753 6.05246
#
# Compressibility (1/GPa) = 0.02550811
#
# Stress axis : x y z
#
# Youngs Moduli (GPa) = 80.23993 61.65948 62.07982
#
# Poissons Ratio (x) = 0.32396 0.01937
# Poissons Ratio (y) = 0.42158 0.25293
# Poissons Ratio (z) = 0.02504 0.25122
#
# Static dielectric constant tensor:
#      x y z
#    x 1.966200 -0.023410 0.028160 
#    y -0.023410 1.925660 0.044930 
#    z 0.028160 0.044930 1.971090 
# 
# From -- ./inp_files/315526.got.cif
#   From: 2010.05.17/outbox.cif.g08.bks.cpg/sg2_158_cif.got.tgz:315526.got - 2010.06.03 11:33:40.
