data_PCOD9098944
_publ_section_title
;
Structure prediction by ZEFSAII (Michael W. Deem and Ramdas Pophale) SiO2 
 PCOD9098944
Probable space group: P -1
;
_chemical_formula_sum "Si O2"
_cell_formula_units_Z 16
_cell_length_a 8.826383
_cell_length_b 12.688821
_cell_length_c 14.658962
_cell_angle_alpha 141.351352
_cell_angle_beta 57.386318
_cell_angle_gamma 96.975818
_cell_volume 710.059904
_symmetry_space_group_name_H-M "P -1"
_symmetry_group_IT_number 2
_symmetry_cell_setting 'triclinic'
loop_
_space_group_symop_operation_xyz
x,y,z
-x,-y,-z
loop_
_atom_site_type_symbol
_atom_site_label
_atom_site_fract_x
_atom_site_fract_y
_atom_site_fract_z
Si Si1 0.150815 0.086457 0.411025
Si Si2 0.072714 0.733094 0.216167
Si Si3 0.717726 0.848221 0.268659
Si Si4 0.697794 0.204914 0.406848
Si Si5 0.189711 0.026954 0.161061
Si Si6 0.661237 0.740481 0.030910
Si Si7 0.224014 0.991001 0.924263
Si Si8 0.542618 0.415686 0.128716
O O1 0.008732 0.256775 0.648084
O O2 0.044746 0.953813 0.357209
O O3 0.175926 0.141640 0.337017
O O4 0.403229 0.931834 0.255162
O O5 0.910628 0.729887 0.197528
O O6 0.316980 0.581562 0.997290
O O7 0.731889 0.698487 0.084690
O O8 0.500000 0.000000 0.500000
O O9 0.737201 0.008179 0.311944
O O10 0.539453 0.402828 0.651703
O O11 0.626554 0.197887 0.322066
O O12 0.937322 0.159106 0.302005
O O13 0.303665 0.796811 0.008759
O O14 0.304440 0.986338 0.997710
O O15 0.792666 0.817619 0.988563
O O16 0.644323 0.590901 0.867265
O O17 0.000000 0.000000 0.000000
#
# Coordination Sequence:
#
# PCOD9098944 Si02
#       8
#     2   2   2   2   2   2   2   2
#     4   9  16  30  55  81 106 147 188 225 270 337
#     4   9  17  32  54  80 114 151 183 221 285 332
#     4  11  18  33  61  81 113 159 186 225 291 335
#     4  10  20  37  58  87 113 147 195 231 280 346
#     4   9  18  36  59  77 111 153 183 231 295 322
#     4   9  19  33  57  86 113 147 195 236 277 339
#     4   9  19  35  59  86 111 150 190 233 289 343
#     4  10  21  36  60  84 117 148 192 235 278 336
#
# _framework density 22.533308999999999
#
# number of rings (size 3 to 8) (size 9 to 14) (size 15 to 20)
#    0.000    2.750    3.750    0.000    0.000    2.500 
#    0.000    5.625   11.000    0.000    0.000    0.000 
#    0.000    0.000    0.000    0.000    0.000    0.000 
#
# Total GULP energy -89077.501716 kJ/mol
# GULP energy per Si atom -5567.343857 kJ/mol
# Density = 2.248202 g / cm^3
# Si number density = 22.533309 Si / 1000 Ang^3
#
#
#
# Elastic Constant Matrix: (Units=GPa)
#
#
# Indices 1 2 3 4 5 6 
#
# 1 99.6238 36.2041 31.8720 -24.9775 21.4097 -16.9145
# 2 36.2041 86.9356 27.8071 -28.1744 24.1798 -14.5440
# 3 31.8720 27.8071 112.5166 -30.0880 46.9999 -16.9154
# 4 -24.9775 -28.1744 -30.0880 32.6602 -19.1790 12.5294
# 5 21.4097 24.1798 46.9999 -19.1790 39.6275 -16.7955
# 6 -16.9145 -14.5440 -16.9154 12.5294 -16.7955 32.8298
#
#
#
# Elastic Compliance Matrix: (Units=1/GPa)
#
#
# Indices 1 2 3 4 5 6 
#
# 1 0.013341 -0.002874 -0.001005 0.005479 -0.000438 0.002768
# 2 -0.002874 0.017318 0.002030 0.011064 -0.006116 -0.000114
# 3 -0.001005 0.002030 0.018897 0.007384 -0.020992 -0.003439
# 4 0.005479 0.011064 0.007384 0.057673 0.006386 -0.007215
# 5 -0.000438 -0.006116 -0.020992 0.006386 0.064265 0.016689
# 6 0.002768 -0.000114 -0.003439 -0.007215 0.016689 0.041355
#
#
# Mechanical properties :
#
#
# Convention : Reuss Voigt Hill
#
# Bulk Modulus (GPa) = 21.80588 54.53806 38.17197
# Shear Modulus (GPa) = 21.56725 34.56970 28.06847
#
# Velocity S-wave (km/s) = 3.09710 3.92108 3.53320
# Velocity P-wave (km/s) = 4.74211 6.68997 5.79842
#
# Compressibility (1/GPa) = 0.04585919
#
# Stress axis : x y z
#
# Youngs Moduli (GPa) = 74.95457 57.74383 52.91950
#
# Poissons Ratio (x) = 0.16596 0.05317
# Poissons Ratio (y) = 0.21543 -0.10745
# Poissons Ratio (z) = 0.07531 -0.11724
#
# Static dielectric constant tensor:
#      x y z
#    x 1.899500 0.012840 0.023170 
#    y 0.012840 1.889600 -0.028630 
#    z 0.023170 -0.028630 1.915960 
# 
# From -- ./inp_files/348007.got.cif
#   From: 2010.05.17/outbox.cif.g08.bks.cpg/sg2_175_cif.got.tgz:348007.got - 2010.06.03 11:33:40.
