data_PCOD9098014
_publ_section_title
;
Structure prediction by ZEFSAII (Michael W. Deem and Ramdas Pophale) SiO2 
 PCOD9098014
Probable space group: P -1
;
_chemical_formula_sum "Si O2"
_cell_formula_units_Z 16
_cell_length_a 17.514069
_cell_length_b 15.022848
_cell_length_c 9.134202
_cell_angle_alpha 38.047527
_cell_angle_beta 117.481155
_cell_angle_gamma 142.075219
_cell_volume 825.480421
_symmetry_space_group_name_H-M "P -1"
_symmetry_group_IT_number 2
_symmetry_cell_setting 'triclinic'
loop_
_space_group_symop_operation_xyz
x,y,z
-x,-y,-z
loop_
_atom_site_type_symbol
_atom_site_label
_atom_site_fract_x
_atom_site_fract_y
_atom_site_fract_z
Si Si1 0.789990 0.643172 0.709948
Si Si2 0.682340 0.035565 0.776056
Si Si3 0.855546 0.186780 0.483827
Si Si4 0.579538 0.984276 0.183602
Si Si5 0.906077 0.085084 0.369632
Si Si6 0.137855 0.686271 0.149106
Si Si7 0.533539 0.378368 0.655917
Si Si8 0.333293 0.802467 0.713895
O O1 0.691322 0.545471 0.610921
O O2 0.939345 0.768883 0.652795
O O3 0.818278 0.832841 0.566934
O O4 0.706519 0.415589 0.024551
O O5 0.628801 0.093471 0.548777
O O6 0.751896 0.015599 0.747117
O O7 0.803244 0.235197 0.736194
O O8 0.561219 0.823584 0.045106
O O9 0.848566 0.077702 0.478019
O O10 0.805188 0.282406 0.273891
O O11 0.011008 0.412815 0.377897
O O12 0.518361 0.751628 0.376744
O O13 0.574201 0.016972 0.306036
O O14 0.500000 0.000000 0.000000
O O15 0.736344 0.196427 0.994409
O O16 0.900549 0.203365 0.087511
O O17 0.500000 0.500000 0.500000
#
# Coordination Sequence:
#
# PCOD9098014 Si02
#       8
#     2   2   2   2   2   2   2   2
#     4  11  22  36  59  90 120 151 198 242 302 335
#     4   9  22  37  62  86 117 158 194 241 289 366
#     4  10  20  36  63  87 116 154 197 241 294 346
#     4  11  21  36  59  91 119 154 204 242 278 352
#     4  11  21  36  63  90 117 152 197 252 284 354
#     4  11  18  36  62  88 118 157 200 238 297 347
#     4  11  24  41  62  84 120 159 194 242 300 355
#     4  10  20  39  59  88 118 153 198 243 288 346
#
# _framework density 19.382653000000001
#
# number of rings (size 3 to 8) (size 9 to 14) (size 15 to 20)
#    0.750    0.750    3.750    3.000    0.000    0.500 
#    0.000    2.500    0.000    7.500    0.000    0.000 
#    0.000    0.000    0.000    0.000    0.000    0.000 
#
# Total GULP energy -89181.718427 kJ/mol
# GULP energy per Si atom -5573.857402 kJ/mol
# Density = 1.933854 g / cm^3
# Si number density = 19.382653 Si / 1000 Ang^3
#
#
#
# Elastic Constant Matrix: (Units=GPa)
#
#
# Indices 1 2 3 4 5 6 
#
# 1 72.1237 27.2443 21.0300 -0.6927 1.6186 -5.8734
# 2 27.2443 116.3710 33.4017 7.1869 -11.4299 -4.2489
# 3 21.0300 33.4017 51.5412 -0.1587 4.6715 -16.4613
# 4 -0.6927 7.1869 -0.1587 32.5709 -1.9426 -0.1563
# 5 1.6186 -11.4299 4.6715 -1.9426 21.2437 4.4224
# 6 -5.8734 -4.2489 -16.4613 -0.1563 4.4224 40.6854
#
#
#
# Elastic Compliance Matrix: (Units=1/GPa)
#
#
# Indices 1 2 3 4 5 6 
#
# 1 0.016309 -0.002689 -0.004635 0.000820 -0.001675 0.000383
# 2 -0.002689 0.012889 -0.009405 -0.002381 0.009807 -0.003922
# 3 -0.004635 -0.009405 0.032954 0.001330 -0.014595 0.013274
# 4 0.000820 -0.002381 0.001330 0.031322 0.001144 0.000404
# 5 -0.001675 0.009807 -0.014595 0.001144 0.058173 -0.011442
# 6 0.000383 -0.003922 0.013274 0.000404 -0.011442 0.030840
#
#
# Mechanical properties :
#
#
# Convention : Reuss Voigt Hill
#
# Bulk Modulus (GPa) = 34.84921 44.82088 39.83504
# Shear Modulus (GPa) = 22.17200 29.45732 25.81466
#
# Velocity S-wave (km/s) = 3.38584 3.90266 3.65340
# Velocity P-wave (km/s) = 5.77095 6.59410 6.19621
#
# Compressibility (1/GPa) = 0.02869505
#
# Stress axis : x y z
#
# Youngs Moduli (GPa) = 61.31595 77.58433 30.34509
#
# Poissons Ratio (x) = 0.20862 0.14065
# Poissons Ratio (y) = 0.16488 0.28539
# Poissons Ratio (z) = 0.28420 0.72966
#
# Static dielectric constant tensor:
#      x y z
#    x 1.725790 0.022900 0.000280 
#    y 0.022900 1.710580 0.011420 
#    z 0.000280 0.011420 1.673330 
# 
# From -- ./inp_files/260304.got.cif
#   From: 2010.05.17/outbox.cif.g08.bks.cpg/sg2_131_cif.got.tgz:260304.got - 2010.06.03 11:33:40.
