data_PCOD9098578
_publ_section_title
;
Structure prediction by ZEFSAII (Michael W. Deem and Ramdas Pophale) SiO2 
 PCOD9098578
Probable space group: P -1
;
_chemical_formula_sum "Si O2"
_cell_formula_units_Z 14
_cell_length_a 10.928003
_cell_length_b 9.399026
_cell_length_c 9.801199
_cell_angle_alpha 62.042153
_cell_angle_beta 122.848663
_cell_angle_gamma 127.442425
_cell_volume 656.735331
_symmetry_space_group_name_H-M "P -1"
_symmetry_group_IT_number 2
_symmetry_cell_setting 'triclinic'
loop_
_space_group_symop_operation_xyz
x,y,z
-x,-y,-z
loop_
_atom_site_type_symbol
_atom_site_label
_atom_site_fract_x
_atom_site_fract_y
_atom_site_fract_z
Si Si1 0.148918 0.005536 0.258993
Si Si2 0.811046 0.451865 0.255559
Si Si3 0.478294 0.115804 0.310932
Si Si4 0.691069 0.546099 0.597658
Si Si5 0.768146 0.222847 0.794940
Si Si6 0.093588 0.323466 0.057117
Si Si7 0.043162 0.277530 0.525436
O O1 0.145376 0.834748 0.249306
O O2 0.086190 0.922535 0.407319
O O3 0.338733 0.156452 0.274857
O O4 0.051093 0.111339 0.107581
O O5 0.639603 0.286564 0.278384
O O6 0.939490 0.370572 0.356544
O O7 0.607810 0.025511 0.803642
O O8 0.811967 0.547418 0.071367
O O9 0.500000 0.000000 0.500000
O O10 0.294174 0.635616 0.350435
O O11 0.500000 0.500000 0.500000
O O12 0.787985 0.606325 0.772531
O O13 0.810834 0.701658 0.494554
O O14 0.868312 0.600751 0.343232
O O15 0.909721 0.306573 0.957410
#
# Coordination Sequence:
#
# PCOD9098578 Si02
#       7
#     2   2   2   2   2   2   2
#     4  10  23  41  73 103 131 180 232 287 332 404
#     4  11  21  40  74 106 129 185 232 283 340 404
#     4  10  20  36  70 105 137 166 226 291 333 391
#     4  12  28  45  69 101 144 185 228 284 348 414
#     4  10  22  45  69  96 139 180 221 284 345 398
#     4  12  25  44  71 106 141 178 230 286 351 405
#     4  11  21  42  71  98 139 184 232 271 351 416
#
# _framework density 21.317565999999999
#
# number of rings (size 3 to 8) (size 9 to 14) (size 15 to 20)
#    0.857    0.286    4.286    2.571    4.000    1.143 
#    2.571    0.714    0.000    0.000    0.000    0.000 
#    0.000    0.000    0.000    0.000    0.000    0.000 
#
# Total GULP energy -78002.312999 kJ/mol
# GULP energy per Si atom -5571.593786 kJ/mol
# Density = 2.126905 g / cm^3
# Si number density = 21.317566 Si / 1000 Ang^3
#
#
#
# Elastic Constant Matrix: (Units=GPa)
#
#
# Indices 1 2 3 4 5 6 
#
# 1 109.5387 38.9502 43.3170 -8.1946 10.4864 20.6484
# 2 38.9502 96.0028 35.5214 2.4645 -10.8511 15.5391
# 3 43.3170 35.5214 107.4717 -2.8556 -2.6425 9.5690
# 4 -8.1946 2.4645 -2.8556 36.5189 5.4194 7.6910
# 5 10.4864 -10.8511 -2.6425 5.4194 30.2665 -8.5126
# 6 20.6484 15.5391 9.5690 7.6910 -8.5126 38.7410
#
#
#
# Elastic Compliance Matrix: (Units=1/GPa)
#
#
# Indices 1 2 3 4 5 6 
#
# 1 0.015938 -0.004934 -0.004036 0.007328 -0.011636 -0.009531
# 2 -0.004934 0.014324 -0.002636 -0.003287 0.007134 -0.000244
# 3 -0.004036 -0.002636 0.011775 -0.000215 0.001723 0.000721
# 4 0.007328 -0.003287 -0.000215 0.033745 -0.013190 -0.012132
# 5 -0.011636 0.007134 0.001723 -0.013190 0.046576 0.015768
# 6 -0.009531 -0.000244 0.000721 -0.012132 0.015768 0.036685
#
#
# Mechanical properties :
#
#
# Convention : Reuss Voigt Hill
#
# Bulk Modulus (GPa) = 53.11881 60.95449 57.03665
# Shear Modulus (GPa) = 26.52097 34.12024 30.32061
#
# Velocity S-wave (km/s) = 3.53099 4.00505 3.77547
# Velocity P-wave (km/s) = 6.44948 7.07410 6.76900
#
# Compressibility (1/GPa) = 0.01882572
#
# Stress axis : x y z
#
# Youngs Moduli (GPa) = 62.74189 69.81443 84.92423
#
# Poissons Ratio (x) = 0.34445 0.34276
# Poissons Ratio (y) = 0.30955 0.22385
# Poissons Ratio (z) = 0.25323 0.18402
#
# Static dielectric constant tensor:
#      x y z
#    x 1.824490 -0.027140 0.025150 
#    y -0.027140 1.875510 0.060320 
#    z 0.025150 0.060320 1.808950 
# 
# From -- ./inp_files/252285.got.cif
#   From: 2010.05.17/outbox.cif.g08.bks.cpg/sg2_127_cif.got.tgz:252285.got - 2010.06.03 11:33:40.
