data_PCOD9098946
_publ_section_title
;
Structure prediction by ZEFSAII (Michael W. Deem and Ramdas Pophale) SiO2 
 PCOD9098946
Probable space group: P -1
;
_chemical_formula_sum "Si O2"
_cell_formula_units_Z 14
_cell_length_a 7.641304
_cell_length_b 8.967677
_cell_length_c 10.774842
_cell_angle_alpha 70.073111
_cell_angle_beta 79.593337
_cell_angle_gamma 117.819102
_cell_volume 560.343632
_symmetry_space_group_name_H-M "P -1"
_symmetry_group_IT_number 2
_symmetry_cell_setting 'triclinic'
loop_
_space_group_symop_operation_xyz
x,y,z
-x,-y,-z
loop_
_atom_site_type_symbol
_atom_site_label
_atom_site_fract_x
_atom_site_fract_y
_atom_site_fract_z
Si Si1 0.853884 0.173783 0.261655
Si Si2 0.329140 0.206657 0.714379
Si Si3 0.077472 0.433678 0.828679
Si Si4 0.494592 0.398480 0.373735
Si Si5 0.278141 0.306794 0.045486
Si Si6 0.153463 0.914534 0.176965
Si Si7 0.794652 0.997773 0.573834
O O1 0.903061 0.381324 0.173354
O O2 0.768180 0.105600 0.431981
O O3 0.091285 0.214976 0.201504
O O4 0.689325 0.992799 0.243643
O O5 0.367159 0.289875 0.545240
O O6 0.500640 0.408903 0.705504
O O7 0.086628 0.133032 0.804067
O O8 0.253347 0.518192 0.670086
O O9 0.854966 0.250957 0.853662
O O10 0.168769 0.358698 0.939620
O O11 0.401004 0.228924 0.333463
O O12 0.307181 0.137123 0.053459
O O13 0.500000 0.500000 0.000000
O O14 0.177524 0.906562 0.323974
O O15 0.000000 0.000000 0.500000
#
# Coordination Sequence:
#
# PCOD9098946 Si02
#       7
#     2   2   2   2   2   2   2
#     4  10  22  38  60  87 119 156 186 247 306 327
#     4   8  16  32  55  81 112 147 195 234 273 348
#     4  11  23  36  59  89 125 147 192 244 295 350
#     4   9  17  31  56  85 107 151 194 232 279 340
#     4  11  22  40  65  81 109 161 206 237 280 355
#     4  10  20  37  58  87 115 158 195 235 291 341
#     4  11  18  35  63  83 122 150 196 241 278 349
#
# _framework density 24.984670000000001
#
# number of rings (size 3 to 8) (size 9 to 14) (size 15 to 20)
#    0.000    2.000    4.286    1.714    0.000    2.857 
#    0.000    0.714    6.286    0.000    0.000    0.000 
#    0.000    0.000    0.000    0.000    0.000    0.000 
#
# Total GULP energy -78085.533181 kJ/mol
# GULP energy per Si atom -5577.538084 kJ/mol
# Density = 2.492780 g / cm^3
# Si number density = 24.984670 Si / 1000 Ang^3
#
#
#
# Elastic Constant Matrix: (Units=GPa)
#
#
# Indices 1 2 3 4 5 6 
#
# 1 16.5648 21.3553 9.7437 -1.9484 -5.0177 0.5936
# 2 21.3553 249.9272 52.9496 -39.7707 16.7622 3.7699
# 3 9.7437 52.9496 94.4599 -14.8865 10.2341 1.3716
# 4 -1.9484 -39.7707 -14.8865 42.2541 5.1065 1.1421
# 5 -5.0177 16.7622 10.2341 5.1065 24.5810 -5.6976
# 6 0.5936 3.7699 1.3716 1.1421 -5.6976 32.0414
#
#
#
# Elastic Compliance Matrix: (Units=1/GPa)
#
#
# Indices 1 2 3 4 5 6 
#
# 1 0.086005 -0.009626 -0.008936 -0.012245 0.031777 0.006009
# 2 -0.009626 0.006596 -0.000777 0.006519 -0.008008 -0.002221
# 3 -0.008936 -0.000777 0.013629 0.004729 -0.008412 -0.001991
# 4 -0.012245 0.006519 0.004729 0.033082 -0.016929 -0.004932
# 5 0.031777 -0.008008 -0.008412 -0.016929 0.062531 0.012437
# 6 0.006009 -0.002221 -0.001991 -0.004932 0.012437 0.033832
#
#
# Mechanical properties :
#
#
# Convention : Reuss Voigt Hill
#
# Bulk Modulus (GPa) = 14.80331 58.78324 36.79328
# Shear Modulus (GPa) = 16.84226 38.23553 27.53890
#
# Velocity S-wave (km/s) = 2.59917 3.91623 3.32359
# Velocity P-wave (km/s) = 3.86593 6.63535 5.43016
#
# Compressibility (1/GPa) = 0.06755245
#
# Stress axis : x y z
#
# Youngs Moduli (GPa) = 11.62726 151.59981 73.37034
#
# Poissons Ratio (x) = 1.45932 0.65560
# Poissons Ratio (y) = 0.11193 0.05704
# Poissons Ratio (z) = 0.10390 0.11785
#
# Static dielectric constant tensor:
#      x y z
#    x 2.011840 -0.058870 -0.000960 
#    y -0.058870 2.145610 0.026130 
#    z -0.000960 0.026130 2.061780 
# 
# From -- ./inp_files/212816.got.cif
#   From: 2010.05.17/outbox.cif.g08.bks.cpg/sg2_107_cif.got.tgz:212816.got - 2010.06.03 11:33:40.
