data_PCOD9098975
_publ_section_title
;
Structure prediction by ZEFSAII (Michael W. Deem and Ramdas Pophale) SiO2 
 PCOD9098975
Probable space group: P -1
;
_chemical_formula_sum "Si O2"
_cell_formula_units_Z 16
_cell_length_a 16.869364
_cell_length_b 8.296371
_cell_length_c 11.135748
_cell_angle_alpha 133.123744
_cell_angle_beta 50.260160
_cell_angle_gamma 97.621195
_cell_volume 734.881747
_symmetry_space_group_name_H-M "P -1"
_symmetry_group_IT_number 2
_symmetry_cell_setting 'triclinic'
loop_
_space_group_symop_operation_xyz
x,y,z
-x,-y,-z
loop_
_atom_site_type_symbol
_atom_site_label
_atom_site_fract_x
_atom_site_fract_y
_atom_site_fract_z
Si Si1 0.132637 0.330194 0.172090
Si Si2 0.779835 0.365041 0.643106
Si Si3 0.130067 0.386361 0.753386
Si Si4 0.320952 0.637061 0.991984
Si Si5 0.445902 0.567949 0.221274
Si Si6 0.307723 0.164886 0.687598
Si Si7 0.037839 0.959177 0.081125
Si Si8 0.919127 0.876604 0.552744
O O1 0.200186 0.395884 0.241228
O O2 0.010447 0.613317 0.403999
O O3 0.101106 0.118283 0.125310
O O4 0.212311 0.236246 0.925040
O O5 0.680845 0.417601 0.664420
O O6 0.733864 0.348208 0.812497
O O7 0.910250 0.101470 0.351768
O O8 0.237483 0.214634 0.655324
O O9 0.126351 0.229089 0.564427
O O10 0.124934 0.650499 0.861060
O O11 0.000000 0.500000 0.000000
O O12 0.446087 0.624798 0.890150
O O13 0.348456 0.369689 0.768528
O O14 0.209485 0.877451 0.150279
O O15 0.411253 0.859514 0.435524
O O16 0.500000 0.500000 0.000000
O O17 0.000000 0.000000 0.000000
O O18 0.000000 0.000000 0.500000
#
# Coordination Sequence:
#
# PCOD9098975 Si02
#       8
#     2   2   2   2   2   2   2   2
#     4  11  23  38  58  94 125 162 194 247 307 365
#     4  10  21  35  58  83 119 158 197 247 293 349
#     4  12  21  34  57  87 120 155 193 248 298 352
#     4  10  21  36  60  91 119 157 202 254 296 351
#     4  10  20  37  58  89 119 155 205 251 297 348
#     4  11  21  36  61  92 119 155 200 253 300 351
#     4  12  23  39  55  90 127 161 203 239 307 367
#     4  12  20  35  58  86 129 148 195 242 309 344
#
# _framework density 21.772212
#
# number of rings (size 3 to 8) (size 9 to 14) (size 15 to 20)
#    0.000    1.000    5.000    4.500    1.750    0.000 
#    0.000    0.000    0.000    0.750    6.500    7.000 
#    0.000    0.000    0.000    0.000    0.000    0.000 
#
# Total GULP energy -89443.327450 kJ/mol
# GULP energy per Si atom -5590.207966 kJ/mol
# Density = 2.172266 g / cm^3
# Si number density = 21.772212 Si / 1000 Ang^3
#
#
#
# Elastic Constant Matrix: (Units=GPa)
#
#
# Indices 1 2 3 4 5 6 
#
# 1 132.7688 24.0680 40.0846 19.8921 0.9793 16.3578
# 2 24.0680 61.8971 18.5968 28.5619 1.7503 14.4823
# 3 40.0846 18.5968 94.8084 25.5256 13.1046 5.3753
# 4 19.8921 28.5619 25.5256 32.1238 -3.9583 10.6060
# 5 0.9793 1.7503 13.1046 -3.9583 43.5220 6.1373
# 6 16.3578 14.4823 5.3753 10.6060 6.1373 30.8834
#
#
#
# Elastic Compliance Matrix: (Units=1/GPa)
#
#
# Indices 1 2 3 4 5 6 
#
# 1 0.009399 -0.001736 -0.003644 0.000077 0.001506 -0.003856
# 2 -0.001736 0.029054 0.002883 -0.026425 -0.003928 -0.003351
# 3 -0.003644 0.002883 0.016492 -0.015779 -0.007074 0.004532
# 4 0.000077 -0.026425 -0.015779 0.073116 0.014274 -0.012849
# 5 0.001506 -0.003928 -0.007074 0.014274 0.027675 -0.008126
# 6 -0.003856 -0.003351 0.004532 -0.012849 -0.008126 0.041232
#
#
# Mechanical properties :
#
#
# Convention : Reuss Voigt Hill
#
# Bulk Modulus (GPa) = 20.01995 50.55257 35.28626
# Shear Modulus (GPa) = 22.87153 35.08750 28.97951
#
# Velocity S-wave (km/s) = 3.24465 4.01879 3.65229
# Velocity P-wave (km/s) = 4.82204 6.69354 5.83334
#
# Compressibility (1/GPa) = 0.04995017
#
# Stress axis : x y z
#
# Youngs Moduli (GPa) = 106.39346 34.41900 60.63622
#
# Poissons Ratio (x) = 0.05975 0.22094
# Poissons Ratio (y) = 0.18471 -0.17479
# Poissons Ratio (z) = 0.38767 -0.09922
#
# Static dielectric constant tensor:
#      x y z
#    x 1.864530 0.043560 0.079950 
#    y 0.043560 1.909930 0.081630 
#    z 0.079950 0.081630 1.943920 
# 
# From -- ./inp_files/462562.got.cif
#   From: 2010.05.17/outbox.cif.g08.bks.cpg/sg2_232_cif.got.tgz:462562.got - 2010.06.03 11:33:40.
