data_PCOD9098380
_publ_section_title
;
Structure prediction by ZEFSAII (Michael W. Deem and Ramdas Pophale) SiO2 
 PCOD9098380
Probable space group: P -1
;
_chemical_formula_sum "Si O2"
_cell_formula_units_Z 14
_cell_length_a 9.144969
_cell_length_b 8.275685
_cell_length_c 9.085628
_cell_angle_alpha 67.245909
_cell_angle_beta 80.351359
_cell_angle_gamma 68.032944
_cell_volume 587.847018
_symmetry_space_group_name_H-M "P -1"
_symmetry_group_IT_number 2
_symmetry_cell_setting 'triclinic'
loop_
_space_group_symop_operation_xyz
x,y,z
-x,-y,-z
loop_
_atom_site_type_symbol
_atom_site_label
_atom_site_fract_x
_atom_site_fract_y
_atom_site_fract_z
Si Si1 0.550854 0.723537 0.694385
Si Si2 0.372574 0.445482 0.633539
Si Si3 0.790889 0.966016 0.904270
Si Si4 0.862189 0.426799 0.597797
Si Si5 0.871789 0.247445 0.960896
Si Si6 0.343216 0.376072 0.988505
Si Si7 0.398431 0.896060 0.394468
O O1 0.701320 0.565420 0.652792
O O2 0.400428 0.796754 0.586542
O O3 0.610492 0.898675 0.636923
O O4 0.531820 0.675601 0.882249
O O5 0.500000 0.500000 0.500000
O O6 0.209354 0.583191 0.549326
O O7 0.396020 0.438624 0.805025
O O8 0.428754 0.224631 0.658491
O O9 0.765228 0.118977 0.985267
O O10 0.726211 0.081314 0.723784
O O11 0.711852 0.802994 0.975578
O O12 0.977535 0.860926 0.927435
O O13 0.924965 0.282708 0.772419
O O14 0.000000 0.500000 0.500000
O O15 0.792872 0.445289 0.984061
#
# Coordination Sequence:
#
# PCOD9098380 Si02
#       7
#     2   2   2   2   2   2   2
#     4   8  18  36  62  90 119 161 210 256 306 374
#     4  11  23  39  60  88 125 167 208 262 324 378
#     4  10  20  36  65  93 127 165 204 264 317 369
#     4  10  20  38  62  89 126 169 210 258 318 377
#     4  10  21  39  62  95 124 161 218 260 307 380
#     4  10  21  40  64  89 122 166 210 261 318 373
#     4   9  18  37  57  85 124 158 200 253 310 368
#
# _framework density 23.815719999999999
#
# number of rings (size 3 to 8) (size 9 to 14) (size 15 to 20)
#    0.000    2.286    0.000    2.143    0.000    4.571 
#    0.000   21.429    0.000   12.857    0.000    0.000 
#    0.000    0.000    0.000    0.857    0.000    0.000 
#
# Total GULP energy -77934.651483 kJ/mol
# GULP energy per Si atom -5566.760820 kJ/mol
# Density = 2.376151 g / cm^3
# Si number density = 23.815720 Si / 1000 Ang^3
#
#
#
# Elastic Constant Matrix: (Units=GPa)
#
#
# Indices 1 2 3 4 5 6 
#
# 1 107.3825 11.1651 68.9812 -3.5236 25.9129 8.4895
# 2 11.1651 59.9068 34.6923 -10.3209 -8.3556 13.7712
# 3 68.9812 34.6923 219.9380 -20.7815 31.0982 -10.7691
# 4 -3.5236 -10.3209 -20.7815 39.8159 -3.2603 12.4278
# 5 25.9129 -8.3556 31.0982 -3.2603 45.7198 -7.9403
# 6 8.4895 13.7712 -10.7691 12.4278 -7.9403 37.9450
#
#
#
# Elastic Compliance Matrix: (Units=1/GPa)
#
#
# Indices 1 2 3 4 5 6 
#
# 1 0.013569 0.000090 -0.003621 0.000569 -0.006138 -0.005567
# 2 0.000090 0.024097 -0.004482 0.007961 0.005991 -0.011391
# 3 -0.003621 -0.004482 0.007052 0.000853 -0.002885 0.003555
# 4 0.000569 0.007961 0.000853 0.031801 0.000549 -0.013075
# 5 -0.006138 0.005991 -0.002885 0.000549 0.029196 0.004310
# 6 -0.005567 -0.011391 0.003555 -0.013075 0.004310 0.037927
#
#
# Mechanical properties :
#
#
# Convention : Reuss Voigt Hill
#
# Bulk Modulus (GPa) = 34.85287 68.54494 51.69890
# Shear Modulus (GPa) = 29.54534 42.85539 36.20037
#
# Velocity S-wave (km/s) = 3.52601 4.24660 3.90297
# Velocity P-wave (km/s) = 5.58956 7.27246 6.48583
#
# Compressibility (1/GPa) = 0.02869204
#
# Stress axis : x y z
#
# Youngs Moduli (GPa) = 73.69720 41.49888 141.80550
#
# Poissons Ratio (x) = -0.00372 0.51346
# Poissons Ratio (y) = -0.00661 0.63553
# Poissons Ratio (z) = 0.26685 0.18599
#
# Static dielectric constant tensor:
#      x y z
#    x 1.932670 0.065800 0.059710 
#    y 0.065800 2.099080 -0.030760 
#    z 0.059710 -0.030760 1.993170 
# 
# From -- ./inp_files/158072.got.cif
#   From: 2010.05.17/outbox.cif.g08.bks.cpg/sg2_80_cif.got.tgz:158072.got - 2010.06.03 11:33:40.
