data_PCOD9098908
_publ_section_title
;
Structure prediction by ZEFSAII (Michael W. Deem and Ramdas Pophale) SiO2 
 PCOD9098908
Probable space group: P -1
;
_chemical_formula_sum "Si O2"
_cell_formula_units_Z 16
_cell_length_a 14.737081
_cell_length_b 13.949212
_cell_length_c 16.832185
_cell_angle_alpha 40.287743
_cell_angle_beta 26.403418
_cell_angle_gamma 28.042246
_cell_volume 716.993491
_symmetry_space_group_name_H-M "P -1"
_symmetry_group_IT_number 2
_symmetry_cell_setting 'triclinic'
loop_
_space_group_symop_operation_xyz
x,y,z
-x,-y,-z
loop_
_atom_site_type_symbol
_atom_site_label
_atom_site_fract_x
_atom_site_fract_y
_atom_site_fract_z
Si Si1 0.839704 0.519160 0.691988
Si Si2 0.847659 0.697036 0.728515
Si Si3 0.341885 0.896056 0.338784
Si Si4 0.060462 0.477190 0.855253
Si Si5 0.775761 0.306053 0.318982
Si Si6 0.831290 0.190227 0.951463
Si Si7 0.780652 0.101282 0.870259
Si Si8 0.430241 0.677982 0.257565
O O1 0.884578 0.621685 0.658699
O O2 0.926199 0.315436 0.791703
O O3 0.000000 0.500000 0.500000
O O4 0.500624 0.661264 0.857252
O O5 0.047011 0.510148 0.751220
O O6 0.850691 0.870734 0.631764
O O7 0.525809 0.817627 0.929202
O O8 0.297433 0.778586 0.504620
O O9 0.301862 0.867494 0.297108
O O10 0.677023 0.755945 0.177121
O O11 0.100188 0.613500 0.783307
O O12 0.754807 0.566673 0.058825
O O13 0.493940 0.499810 0.370767
O O14 0.990445 0.124161 0.203751
O O15 0.863980 0.118723 0.880014
O O16 0.000000 0.000000 0.000000
O O17 0.723748 0.251403 0.750557
#
# Coordination Sequence:
#
# PCOD9098908 Si02
#       8
#     2   2   2   2   2   2   2   2
#     4  10  24  46  69 101 133 168 221 279 340 393
#     4  10  22  39  62  84 121 161 206 257 309 378
#     4  11  22  35  54  90 127 161 203 249 305 370
#     4  10  20  37  58  84 119 166 205 248 303 364
#     4  11  22  34  55  90 127 159 200 253 304 369
#     4  10  24  47  73  98 133 171 219 280 337 398
#     4  10  22  39  63  88 116 160 211 247 318 377
#     4  10  20  37  60  83 122 166 205 251 301 368
#
# _framework density 22.315404000000001
#
# number of rings (size 3 to 8) (size 9 to 14) (size 15 to 20)
#    0.000    1.750    0.000    5.250    1.750   11.500 
#    2.250    0.000    0.000    0.000    0.000    0.000 
#    0.000    0.000    0.000    0.000    0.000    0.000 
#
# Total GULP energy -89446.546372 kJ/mol
# GULP energy per Si atom -5590.409148 kJ/mol
# Density = 2.226461 g / cm^3
# Si number density = 22.315404 Si / 1000 Ang^3
#
#
#
# Elastic Constant Matrix: (Units=GPa)
#
#
# Indices 1 2 3 4 5 6 
#
# 1 98.6033 51.9439 45.4696 0.3184 25.1980 -14.0446
# 2 51.9439 106.2149 27.9304 -5.8589 17.4302 -13.3127
# 3 45.4696 27.9304 126.8176 0.5285 22.1295 6.1650
# 4 0.3184 -5.8589 0.5285 36.4381 4.3168 14.2945
# 5 25.1980 17.4302 22.1295 4.3168 37.0468 -5.9003
# 6 -14.0446 -13.3127 6.1650 14.2945 -5.9003 26.9059
#
#
#
# Elastic Compliance Matrix: (Units=1/GPa)
#
#
# Indices 1 2 3 4 5 6 
#
# 1 0.017805 -0.005850 -0.004651 -0.003758 -0.004803 0.008409
# 2 -0.005850 0.013089 -0.000641 0.001368 -0.001558 0.002501
# 3 -0.004651 -0.000641 0.010908 0.003552 -0.004768 -0.008177
# 4 -0.003758 0.001368 0.003552 0.038164 -0.008517 -0.024242
# 5 -0.004803 -0.001558 -0.004768 -0.008517 0.036480 0.010339
# 6 0.008409 0.002501 -0.008177 -0.024242 0.010339 0.059813
#
#
# Mechanical properties :
#
#
# Convention : Reuss Voigt Hill
#
# Bulk Modulus (GPa) = 51.22882 64.70261 57.96571
# Shear Modulus (GPa) = 24.38448 33.83094 29.10771
#
# Velocity S-wave (km/s) = 3.30922 3.89785 3.61553
# Velocity P-wave (km/s) = 6.13252 7.02248 6.59253
#
# Compressibility (1/GPa) = 0.01952026
#
# Stress axis : x y z
#
# Youngs Moduli (GPa) = 56.16377 76.40164 91.67169
#
# Poissons Ratio (x) = 0.44693 0.42632
# Poissons Ratio (y) = 0.32855 0.05874
# Poissons Ratio (z) = 0.26119 0.04895
#
# Static dielectric constant tensor:
#      x y z
#    x 1.802920 -0.019210 -0.034190 
#    y -0.019210 1.835430 -0.006780 
#    z -0.034190 -0.006780 1.922640 
# 
# From -- ./inp_files/534236.got.cif
#   From: 2010.05.17/outbox.cif.g08.bks.cpg/sg2_268_cif.got.tgz:534236.got - 2010.06.03 11:33:40.
