data_PCOD9098131
_publ_section_title
;
Structure prediction by ZEFSAII (Michael W. Deem and Ramdas Pophale) SiO2 
 PCOD9098131
Probable space group: P -1
;
_chemical_formula_sum "Si O2"
_cell_formula_units_Z 16
_cell_length_a 25.510594
_cell_length_b 11.713954
_cell_length_c 8.607431
_cell_angle_alpha 131.442507
_cell_angle_beta 147.697755
_cell_angle_gamma 33.919136
_cell_volume 760.244162
_symmetry_space_group_name_H-M "P -1"
_symmetry_group_IT_number 2
_symmetry_cell_setting 'triclinic'
loop_
_space_group_symop_operation_xyz
x,y,z
-x,-y,-z
loop_
_atom_site_type_symbol
_atom_site_label
_atom_site_fract_x
_atom_site_fract_y
_atom_site_fract_z
Si Si1 0.611841 0.325062 0.385360
Si Si2 0.135676 0.451263 0.280602
Si Si3 0.129763 0.789976 0.705248
Si Si4 0.125074 0.764525 0.040223
Si Si5 0.370806 0.772495 0.314012
Si Si6 0.605280 0.915721 0.322434
Si Si7 0.271211 0.330722 0.178748
Si Si8 0.529252 0.147156 0.813671
O O1 0.746783 0.267283 0.632173
O O2 0.500832 0.555598 0.378550
O O3 0.632594 0.203494 0.485131
O O4 0.566040 0.273804 0.080044
O O5 0.139269 0.625293 0.484428
O O6 0.243392 0.275599 0.515515
O O7 0.190976 0.379110 0.179337
O O8 0.000000 0.500000 0.000000
O O9 0.115254 0.766200 0.829884
O O10 0.250123 0.784917 0.984403
O O11 0.000000 0.000000 0.500000
O O12 0.170505 0.548666 0.026146
O O13 0.000000 0.000000 0.000000
O O14 0.380387 0.934732 0.427593
O O15 0.555533 0.845831 0.258136
O O16 0.500000 0.000000 0.000000
O O17 0.413354 0.270078 0.503798
O O18 0.337480 0.097047 0.086478
#
# Coordination Sequence:
#
# PCOD9098131 Si02
#       8
#     2   2   2   2   2   2   2   2
#     4  10  21  36  61  93 125 167 217 264 323 383
#     4  11  25  44  66  94 128 175 222 270 332 397
#     4  11  24  43  68  93 131 175 221 270 324 395
#     4  11  25  42  63  93 131 175 215 270 330 394
#     4  10  20  36  63  96 130 161 216 273 322 379
#     4  11  21  35  66  98 129 166 215 273 323 388
#     4  10  23  43  64  91 134 166 218 272 330 393
#     4  10  21  40  65  95 128 172 212 274 332 385
#
# _framework density 21.045869
#
# number of rings (size 3 to 8) (size 9 to 14) (size 15 to 20)
#    0.000    1.500    1.250    3.750    5.250    2.500 
#    0.000    6.250    0.000    0.000    0.000    0.000 
#    0.000    0.000    0.000    0.000    0.000    0.000 
#
# Total GULP energy -89109.120886 kJ/mol
# GULP energy per Si atom -5569.320055 kJ/mol
# Density = 2.099797 g / cm^3
# Si number density = 21.045869 Si / 1000 Ang^3
#
#
#
# Elastic Constant Matrix: (Units=GPa)
#
#
# Indices 1 2 3 4 5 6 
#
# 1 58.9156 15.0469 18.8524 -20.9503 16.9657 -3.5871
# 2 15.0469 123.4386 42.6137 -21.3652 9.4366 -3.2298
# 3 18.8524 42.6137 97.7809 -7.0480 22.0051 -4.5237
# 4 -20.9503 -21.3652 -7.0480 40.2508 -2.6932 -3.2371
# 5 16.9657 9.4366 22.0051 -2.6932 23.9929 -8.9872
# 6 -3.5871 -3.2298 -4.5237 -3.2371 -8.9872 35.4043
#
#
#
# Elastic Compliance Matrix: (Units=1/GPa)
#
#
# Indices 1 2 3 4 5 6 
#
# 1 0.026471 0.000466 -0.000550 0.012737 -0.017169 -0.000540
# 2 0.000466 0.010414 -0.004324 0.005131 0.000507 0.001043
# 3 -0.000550 -0.004324 0.014831 -0.000947 -0.012278 -0.001758
# 4 0.012737 0.005131 -0.000947 0.033972 -0.005045 0.003463
# 5 -0.017169 0.000507 -0.012278 -0.005045 0.069531 0.013927
# 6 -0.000540 0.001043 -0.001758 0.003463 0.013927 0.031913
#
#
# Mechanical properties :
#
#
# Convention : Reuss Voigt Hill
#
# Bulk Modulus (GPa) = 23.31038 48.12902 35.71970
# Shear Modulus (GPa) = 23.78152 33.50441 28.64296
#
# Velocity S-wave (km/s) = 3.36517 3.99428 3.69315
# Velocity P-wave (km/s) = 5.11852 6.64760 5.93253
#
# Compressibility (1/GPa) = 0.04289934
#
# Stress axis : x y z
#
# Youngs Moduli (GPa) = 37.77744 96.02631 67.42687
#
# Poissons Ratio (x) = -0.04475 0.03707
# Poissons Ratio (y) = -0.01761 0.29158
# Poissons Ratio (z) = 0.02077 0.41525
#
# Static dielectric constant tensor:
#      x y z
#    x 1.789120 -0.083780 -0.105890 
#    y -0.083780 1.548820 -0.042910 
#    z -0.105890 -0.042910 1.784920 
# 
# From -- ./inp_files/357107.got.cif
#   From: 2010.05.17/outbox.cif.g08.bks.cpg/sg2_179_cif.got.tgz:357107.got - 2010.06.03 11:33:40.
