data_PCOD9098912
_publ_section_title
;
Structure prediction by ZEFSAII (Michael W. Deem and Ramdas Pophale) SiO2 
 PCOD9098912
Probable space group: P -1
;
_chemical_formula_sum "Si O2"
_cell_formula_units_Z 14
_cell_length_a 19.111433
_cell_length_b 9.403411
_cell_length_c 9.828619
_cell_angle_alpha 41.772595
_cell_angle_beta 31.766596
_cell_angle_gamma 34.810675
_cell_volume 524.107989
_symmetry_space_group_name_H-M "P -1"
_symmetry_group_IT_number 2
_symmetry_cell_setting 'triclinic'
loop_
_space_group_symop_operation_xyz
x,y,z
-x,-y,-z
loop_
_atom_site_type_symbol
_atom_site_label
_atom_site_fract_x
_atom_site_fract_y
_atom_site_fract_z
Si Si1 0.141420 0.111645 0.668818
Si Si2 0.137992 0.112387 0.997789
Si Si3 0.188759 0.570146 0.579562
Si Si4 0.311568 0.413104 0.196188
Si Si5 0.789831 0.399503 0.044544
Si Si6 0.521780 0.217486 0.373773
Si Si7 0.451962 0.077456 0.864082
O O1 0.235708 0.246971 0.396380
O O2 0.965431 0.280680 0.784363
O O3 0.113562 0.118226 0.872203
O O4 0.211763 0.822692 0.713111
O O5 0.973699 0.179692 0.286484
O O6 0.162993 0.342180 0.824778
O O7 0.310651 0.861356 0.912806
O O8 0.210967 0.558065 0.389470
O O9 0.359998 0.479256 0.422790
O O10 0.314425 0.538148 0.962402
O O11 0.489873 0.198362 0.094863
O O12 0.721813 0.671668 0.031365
O O13 0.532656 0.169079 0.554205
O O14 0.500000 0.000000 0.500000
O O15 0.500000 0.000000 0.000000
#
# Coordination Sequence:
#
# PCOD9098912 Si02
#       7
#     2   2   2   2   2   2   2
#     4  10  19  37  53  80 112 146 193 229 285 350
#     4   9  17  30  53  79 107 140 194 231 275 341
#     4   9  17  30  55  81 105 147 190 231 288 338
#     4  10  19  37  53  84 113 142 192 239 283 339
#     4  10  22  33  57  79 113 152 183 238 290 334
#     4  10  16  31  53  81 109 146 192 231 278 349
#     4  10  19  33  52  83 113 144 187 233 288 333
#
# _framework density 26.712053000000001
#
# number of rings (size 3 to 8) (size 9 to 14) (size 15 to 20)
#    0.000    2.286    4.286    1.286    0.000    1.714 
#    0.000    0.714    0.000    0.857    0.000    0.000 
#    0.000    0.000    0.000    0.000    0.000    0.000 
#
# Total GULP energy -77997.875843 kJ/mol
# GULP energy per Si atom -5571.276846 kJ/mol
# Density = 2.665125 g / cm^3
# Si number density = 26.712053 Si / 1000 Ang^3
#
#
#
# Elastic Constant Matrix: (Units=GPa)
#
#
# Indices 1 2 3 4 5 6 
#
# 1 53.6986 23.8404 27.4812 5.9788 5.8640 -14.5578
# 2 23.8404 133.2320 74.4309 45.9753 -9.7901 -25.0705
# 3 27.4812 74.4309 134.5591 17.4934 8.4348 -5.0132
# 4 5.9788 45.9753 17.4934 59.7612 8.3477 -1.1670
# 5 5.8640 -9.7901 8.4348 8.3477 34.7921 3.1411
# 6 -14.5578 -25.0705 -5.0132 -1.1670 3.1411 33.1632
#
#
#
# Elastic Compliance Matrix: (Units=1/GPa)
#
#
# Indices 1 2 3 4 5 6 
#
# 1 0.024045 -0.000412 -0.004037 -0.000145 -0.004059 0.010013
# 2 -0.000412 0.021721 -0.010188 -0.014976 0.011060 0.013125
# 3 -0.004037 -0.010188 0.013365 0.005041 -0.006031 -0.006705
# 4 -0.000145 -0.014976 0.005041 0.028220 -0.011411 -0.008549
# 5 -0.004059 0.011060 -0.006031 -0.011411 0.036576 0.001801
# 6 0.010013 0.013125 -0.006705 -0.008549 0.001801 0.042987
#
#
# Mechanical properties :
#
#
# Convention : Reuss Voigt Hill
#
# Bulk Modulus (GPa) = 33.49232 63.66609 48.57920
# Shear Modulus (GPa) = 24.25540 38.59245 31.42393
#
# Velocity S-wave (km/s) = 3.01663 3.80512 3.43358
# Velocity P-wave (km/s) = 4.96980 6.57200 5.82624
#
# Compressibility (1/GPa) = 0.02985759
#
# Stress axis : x y z
#
# Youngs Moduli (GPa) = 41.58868 46.03737 74.82430
#
# Poissons Ratio (x) = 0.01895 0.30205
# Poissons Ratio (y) = 0.01712 0.76234
# Poissons Ratio (z) = 0.16788 0.46905
#
# Static dielectric constant tensor:
#      x y z
#    x 2.121160 -0.005100 -0.091480 
#    y -0.005100 2.290060 0.024790 
#    z -0.091480 0.024790 2.099540 
# 
# From -- ./inp_files/474740.got.cif
#   From: 2010.05.17/outbox.cif.g08.bks.cpg/sg2_238_cif.got.tgz:474740.got - 2010.06.03 11:33:40.
