data_PCOD9098526
_publ_section_title
;
Structure prediction by ZEFSAII (Michael W. Deem and Ramdas Pophale) SiO2 
 PCOD9098526
Probable space group: P -1
;
_chemical_formula_sum "Si O2"
_cell_formula_units_Z 16
_cell_length_a 9.203435
_cell_length_b 11.568377
_cell_length_c 18.215345
_cell_angle_alpha 135.454213
_cell_angle_beta 145.943718
_cell_angle_gamma 60.720499
_cell_volume 736.037418
_symmetry_space_group_name_H-M "P -1"
_symmetry_group_IT_number 2
_symmetry_cell_setting 'triclinic'
loop_
_space_group_symop_operation_xyz
x,y,z
-x,-y,-z
loop_
_atom_site_type_symbol
_atom_site_label
_atom_site_fract_x
_atom_site_fract_y
_atom_site_fract_z
Si Si1 0.436744 0.259976 0.072581
Si Si2 0.360533 0.651497 0.012601
Si Si3 0.762226 0.960383 0.251750
Si Si4 0.738997 0.421956 0.903300
Si Si5 0.061440 0.245363 0.209268
Si Si6 0.683672 0.857190 0.872117
Si Si7 0.038367 0.333248 0.395145
Si Si8 0.668441 0.886225 0.478541
O O1 0.435234 0.441223 0.119525
O O2 0.312472 0.236623 0.091345
O O3 0.734371 0.240100 0.201640
O O4 0.282751 0.128313 0.887825
O O5 0.593266 0.826407 0.179192
O O6 0.200588 0.616873 0.005881
O O7 0.500000 0.500000 0.000000
O O8 0.154978 0.657494 0.865046
O O9 0.608566 0.108983 0.249121
O O10 0.080486 0.012581 0.419767
O O11 0.556892 0.245811 0.719490
O O12 0.000000 0.500000 0.000000
O O13 0.249381 0.237774 0.214757
O O14 0.180963 0.337179 0.376455
O O15 0.896157 0.043942 0.055466
O O16 0.000000 0.500000 0.500000
O O17 0.186382 0.222873 0.456808
O O18 0.500000 0.000000 0.500000
#
# Coordination Sequence:
#
# PCOD9098526 Si02
#       8
#     2   2   2   2   2   2   2   2
#     4  12  20  42  72 101 131 194 241 287 356 440
#     4  11  22  42  70 101 136 185 240 288 348 430
#     4  11  22  42  74 104 141 189 239 299 363 428
#     4  12  26  45  71 100 143 192 236 291 366 437
#     4  10  22  40  67 106 138 181 242 298 357 422
#     4  10  20  36  68 102 135 176 238 298 352 420
#     4  12  23  44  73 101 142 188 243 298 358 435
#     4  12  28  44  69 110 147 185 239 305 367 431
#
# _framework density 21.738025
#
# number of rings (size 3 to 8) (size 9 to 14) (size 15 to 20)
#    0.000    0.750    6.250    2.625    0.000    3.500 
#    0.000    0.625    0.000    0.000    0.000    0.000 
#    0.000    0.000    0.000    0.000    0.000    0.000 
#
# Total GULP energy -89321.123306 kJ/mol
# GULP energy per Si atom -5582.570207 kJ/mol
# Density = 2.168855 g / cm^3
# Si number density = 21.738025 Si / 1000 Ang^3
#
#
#
# Elastic Constant Matrix: (Units=GPa)
#
#
# Indices 1 2 3 4 5 6 
#
# 1 139.9036 18.4513 14.3207 4.0328 -14.9348 5.2671
# 2 18.4513 86.8517 -14.9351 -3.7185 -16.3017 -0.9238
# 3 14.3207 -14.9351 42.5105 6.6728 -7.8540 -0.6213
# 4 4.0328 -3.7185 6.6728 20.2534 -2.0815 -10.1788
# 5 -14.9348 -16.3017 -7.8540 -2.0815 43.1270 -1.6795
# 6 5.2671 -0.9238 -0.6213 -10.1788 -1.6795 51.1580
#
#
#
# Elastic Compliance Matrix: (Units=1/GPa)
#
#
# Indices 1 2 3 4 5 6 
#
# 1 0.007939 -0.002010 -0.002927 -0.001413 0.001344 -0.001126
# 2 -0.002010 0.014294 0.006504 0.002084 0.006037 0.001157
# 3 -0.002927 0.006504 0.029129 -0.007413 0.006373 -0.000493
# 4 -0.001413 0.002084 -0.007413 0.058661 0.002240 0.011838
# 5 0.001344 0.006037 0.006373 0.002240 0.027258 0.001389
# 6 -0.001126 0.001157 -0.000493 0.011838 0.001389 0.022079
#
#
# Mechanical properties :
#
#
# Convention : Reuss Voigt Hill
#
# Bulk Modulus (GPa) = 18.34990 33.88218 26.11604
# Shear Modulus (GPa) = 28.67136 39.66959 34.17048
#
# Velocity S-wave (km/s) = 3.63567 4.27651 3.96905
# Velocity P-wave (km/s) = 5.10724 6.32496 5.74844
#
# Compressibility (1/GPa) = 0.05449621
#
# Stress axis : x y z
#
# Youngs Moduli (GPa) = 125.95806 69.95921 34.33063
#
# Poissons Ratio (x) = 0.14063 0.10048
# Poissons Ratio (y) = 0.25319 -0.22330
# Poissons Ratio (z) = 0.36867 -0.45503
#
# Static dielectric constant tensor:
#      x y z
#    x 2.162070 0.103240 -0.161670 
#    y 0.103240 1.846800 -0.042810 
#    z -0.161670 -0.042810 1.917970 
# 
# From -- ./inp_files/500914.got.cif
#   From: 2010.05.17/outbox.cif.g08.bks.cpg/sg2_251_cif.got.tgz:500914.got - 2010.06.03 11:33:40.
