data_PCOD9098755
_publ_section_title
;
Structure prediction by ZEFSAII (Michael W. Deem and Ramdas Pophale) SiO2 
 PCOD9098755
Probable space group: P -1
;
_chemical_formula_sum "Si O2"
_cell_formula_units_Z 12
_cell_length_a 13.344086
_cell_length_b 19.242738
_cell_length_c 16.442435
_cell_angle_alpha 159.521400
_cell_angle_beta 25.709142
_cell_angle_gamma 155.472788
_cell_volume 577.628247
_symmetry_space_group_name_H-M "P -1"
_symmetry_group_IT_number 2
_symmetry_cell_setting 'triclinic'
loop_
_space_group_symop_operation_xyz
x,y,z
-x,-y,-z
loop_
_atom_site_type_symbol
_atom_site_label
_atom_site_fract_x
_atom_site_fract_y
_atom_site_fract_z
Si Si1 0.248037 0.620052 0.828583
Si Si2 0.070380 0.751129 0.750731
Si Si3 0.464202 0.395235 0.545790
Si Si4 0.543219 0.986983 0.780006
Si Si5 0.365279 0.093427 0.765746
Si Si6 0.683729 0.355520 0.959646
O O1 0.294070 0.437743 0.647797
O O2 0.302477 0.601613 0.674447
O O3 0.954251 0.565173 0.996782
O O4 0.442763 0.850955 0.978248
O O5 0.270908 0.833702 0.769812
O O6 0.000000 0.500000 0.500000
O O7 0.212119 0.905585 0.738964
O O8 0.830111 0.805095 0.007387
O O9 0.346428 0.172242 0.437841
O O10 0.524042 0.589906 0.780113
O O11 0.696761 0.155050 0.780337
O O12 0.592505 0.284315 0.858432
O O13 0.500000 0.000000 0.500000
#
# Coordination Sequence:
#
# PCOD9098755 Si02
#       6
#     2   2   2   2   2   2
#     4  10  22  36  57  87 114 148 190 232 288 349
#     4  10  22  41  62  86 119 156 197 244 291 344
#     4  10  20  37  57  81 118 152 185 233 288 342
#     4  10  20  37  59  85 115 150 191 236 288 343
#     4  10  23  41  62  87 117 156 199 243 292 346
#     4  10  22  38  57  85 116 149 191 237 288 345
#
# _framework density 20.774608000000001
#
# number of rings (size 3 to 8) (size 9 to 14) (size 15 to 20)
#    0.000    2.000    0.000    3.500    0.000   12.667 
#    0.000    3.333    0.000    0.000    0.000    0.000 
#    0.000    0.000    0.000    0.000    0.000    0.000 
#
# Total GULP energy -66882.636571 kJ/mol
# GULP energy per Si atom -5573.553048 kJ/mol
# Density = 2.072732 g / cm^3
# Si number density = 20.774608 Si / 1000 Ang^3
#
#
#
# Elastic Constant Matrix: (Units=GPa)
#
#
# Indices 1 2 3 4 5 6 
#
# 1 84.4058 35.8135 66.3345 1.8150 19.9906 7.6485
# 2 35.8135 56.7946 52.1813 5.5425 2.7739 15.6957
# 3 66.3345 52.1813 136.8366 -0.5259 7.1125 6.4537
# 4 1.8150 5.5425 -0.5259 35.6796 -10.2559 3.1713
# 5 19.9906 2.7739 7.1125 -10.2559 39.0041 8.0893
# 6 7.6485 15.6957 6.4537 3.1713 8.0893 17.3721
#
#
#
# Elastic Compliance Matrix: (Units=1/GPa)
#
#
# Indices 1 2 3 4 5 6 
#
# 1 0.024644 -0.008885 -0.008230 -0.004409 -0.013142 0.007159
# 2 -0.008885 0.042309 -0.010722 -0.000022 0.010830 -0.035370
# 3 -0.008230 -0.010722 0.015005 0.002117 0.001413 0.006692
# 4 -0.004409 -0.000022 0.002117 0.032913 0.012765 -0.010778
# 5 -0.013142 0.010830 0.001413 0.012765 0.039986 -0.025473
# 6 0.007159 -0.035370 0.006692 -0.010778 -0.025473 0.097712
#
#
# Mechanical properties :
#
#
# Convention : Reuss Voigt Hill
#
# Bulk Modulus (GPa) = 38.04460 65.18838 51.61649
# Shear Modulus (GPa) = 15.77266 26.65833 21.21550
#
# Velocity S-wave (km/s) = 2.75840 3.58609 3.19912
# Velocity P-wave (km/s) = 5.33833 6.97092 6.20852
#
# Compressibility (1/GPa) = 0.02628494
#
# Stress axis : x y z
#
# Youngs Moduli (GPa) = 40.57784 23.63567 66.64274
#
# Poissons Ratio (x) = 0.21000 0.54847
# Poissons Ratio (y) = 0.36053 0.71453
# Poissons Ratio (z) = 0.33396 0.25342
#
# Static dielectric constant tensor:
#      x y z
#    x 1.738290 0.000840 0.000910 
#    y 0.000840 1.761530 0.005810 
#    z 0.000910 0.005810 1.791030 
# 
# From -- ./inp_files/454056.got.cif
#   From: 2010.05.17/outbox.cif.g08.bks.cpg/sg2_228_cif.got.tgz:454056.got - 2010.06.03 11:33:40.
