data_PCOD9098265
_publ_section_title
;
Structure prediction by ZEFSAII (Michael W. Deem and Ramdas Pophale) SiO2 
 PCOD9098265
Probable space group: P -1
;
_chemical_formula_sum "Si O2"
_cell_formula_units_Z 16
_cell_length_a 11.230827
_cell_length_b 8.556412
_cell_length_c 20.934818
_cell_angle_alpha 154.197532
_cell_angle_beta 50.456471
_cell_angle_gamma 122.261331
_cell_volume 670.580922
_symmetry_space_group_name_H-M "P -1"
_symmetry_group_IT_number 2
_symmetry_cell_setting 'triclinic'
loop_
_space_group_symop_operation_xyz
x,y,z
-x,-y,-z
loop_
_atom_site_type_symbol
_atom_site_label
_atom_site_fract_x
_atom_site_fract_y
_atom_site_fract_z
Si Si1 0.304940 0.550880 0.122699
Si Si2 0.081110 0.054904 0.059801
Si Si3 0.761412 0.092241 0.861615
Si Si4 0.785602 0.192322 0.299983
Si Si5 0.679665 0.543424 0.176262
Si Si6 0.524970 0.105005 0.254915
Si Si7 0.909151 0.232390 0.390004
Si Si8 0.378952 0.617599 0.387571
O O1 0.260077 0.723903 0.132675
O O2 0.406587 0.837786 0.225716
O O3 0.165816 0.419047 0.161796
O O4 0.396375 0.166416 0.926991
O O5 0.937668 0.098493 0.172301
O O6 0.205772 0.719249 0.914458
O O7 0.000000 0.000000 0.000000
O O8 0.695717 0.710682 0.740725
O O9 0.666469 0.304394 0.028785
O O10 0.947856 0.044404 0.787385
O O11 0.757848 0.867582 0.237396
O O12 0.641257 0.228688 0.314126
O O13 0.831588 0.458010 0.438175
O O14 0.520331 0.693995 0.322063
O O15 0.454336 0.451029 0.366406
O O16 0.774087 0.117777 0.441608
O O17 0.000000 0.500000 0.500000
#
# Coordination Sequence:
#
# PCOD9098265 Si02
#       8
#     2   2   2   2   2   2   2   2
#     4  10  20  36  64  93 135 162 202 264 330 367
#     4  12  22  36  60 100 131 164 200 266 327 373
#     4  10  20  39  67  96 128 161 214 264 315 372
#     4  12  24  39  65  93 129 166 215 263 317 377
#     4  12  22  36  64 100 122 160 216 272 312 366
#     4  10  20  39  59  96 127 166 203 266 315 376
#     4  10  24  44  63  88 130 175 210 258 322 378
#     4  10  22  40  64  90 132 174 205 252 319 382
#
# _framework density 23.859909999999999
#
# number of rings (size 3 to 8) (size 9 to 14) (size 15 to 20)
#    0.000    1.250    5.000    0.750    1.750    2.000 
#    0.000    0.000    2.750    2.250    0.000    0.000 
#    0.000    0.000    0.000    0.000    0.000    0.000 
#
# Total GULP energy -89287.193320 kJ/mol
# GULP energy per Si atom -5580.449582 kJ/mol
# Density = 2.380560 g / cm^3
# Si number density = 23.859910 Si / 1000 Ang^3
#
#
#
# Elastic Constant Matrix: (Units=GPa)
#
#
# Indices 1 2 3 4 5 6 
#
# 1 125.3003 36.9805 30.1167 -23.3975 5.3446 14.1681
# 2 36.9805 153.1681 35.0806 -39.9064 -14.3586 33.7481
# 3 30.1167 35.0806 63.5259 -32.4652 3.5549 5.4782
# 4 -23.3975 -39.9064 -32.4652 43.5363 6.7804 -5.5074
# 5 5.3446 -14.3586 3.5549 6.7804 30.0987 -10.0349
# 6 14.1681 33.7481 5.4782 -5.5074 -10.0349 39.2320
#
#
#
# Elastic Compliance Matrix: (Units=1/GPa)
#
#
# Indices 1 2 3 4 5 6 
#
# 1 0.009804 -0.000691 -0.002177 0.003175 -0.003565 -0.003109
# 2 -0.000691 0.010627 -0.001227 0.007330 0.001226 -0.007378
# 3 -0.002177 -0.001227 0.028217 0.019884 -0.008505 -0.001483
# 4 0.003175 0.007330 0.019884 0.047288 -0.012315 -0.006741
# 5 -0.003565 0.001226 -0.008505 -0.012315 0.041672 0.010351
# 6 -0.003109 -0.007378 -0.001483 -0.006741 0.010351 0.034867
#
#
# Mechanical properties :
#
#
# Convention : Reuss Voigt Hill
#
# Bulk Modulus (GPa) = 24.71619 60.70553 42.71086
# Shear Modulus (GPa) = 25.75333 38.56116 32.15725
#
# Velocity S-wave (km/s) = 3.28892 4.02450 3.67516
# Velocity P-wave (km/s) = 4.98036 6.86244 5.99571
#
# Compressibility (1/GPa) = 0.04045930
#
# Stress axis : x y z
#
# Youngs Moduli (GPa) = 101.99655 94.09953 35.44000
#
# Poissons Ratio (x) = 0.06499 0.07714
# Poissons Ratio (y) = 0.07044 0.04349
# Poissons Ratio (z) = 0.22200 0.11548
#
# Static dielectric constant tensor:
#      x y z
#    x 2.669770 0.259570 0.538880 
#    y 0.259570 2.043250 0.375200 
#    z 0.538880 0.375200 2.979970 
# 
# From -- ./inp_files/593872.got.cif
#   From: 2010.05.17/outbox.cif.g08.bks.cpg/sg2_297_cif.got.tgz:593872.got - 2010.06.03 11:33:40.
