data_PCOD9098820
_publ_section_title
;
Structure prediction by ZEFSAII (Michael W. Deem and Ramdas Pophale) SiO2 
 PCOD9098820
Probable space group: P -1
;
_chemical_formula_sum "Si O2"
_cell_formula_units_Z 14
_cell_length_a 12.047379
_cell_length_b 9.095057
_cell_length_c 7.202881
_cell_angle_alpha 52.885037
_cell_angle_beta 112.428407
_cell_angle_gamma 105.320087
_cell_volume 581.128688
_symmetry_space_group_name_H-M "P -1"
_symmetry_group_IT_number 2
_symmetry_cell_setting 'triclinic'
loop_
_space_group_symop_operation_xyz
x,y,z
-x,-y,-z
loop_
_atom_site_type_symbol
_atom_site_label
_atom_site_fract_x
_atom_site_fract_y
_atom_site_fract_z
Si Si1 0.508379 0.787895 0.004601
Si Si2 0.755054 0.308720 0.169793
Si Si3 0.436169 0.155436 0.582186
Si Si4 0.631254 0.441225 0.347109
Si Si5 0.837784 0.915568 0.564950
Si Si6 0.077348 0.352778 0.905384
Si Si7 0.859408 0.605255 0.518376
O O1 0.570316 0.834320 0.204876
O O2 0.580234 0.625375 0.085166
O O3 0.367911 0.727491 0.995598
O O4 0.505443 0.967764 0.739705
O O5 0.702518 0.325436 0.332403
O O6 0.829519 0.500678 0.043520
O O7 0.837585 0.132330 0.351893
O O8 0.517182 0.327614 0.438000
O O9 0.302240 0.134117 0.437687
O O10 0.726554 0.509169 0.510706
O O11 0.868785 0.788120 0.507771
O O12 0.916586 0.842311 0.839984
O O13 0.114816 0.345058 0.719249
O O14 0.952248 0.453140 0.752922
#
# Coordination Sequence:
#
# PCOD9098820 Si02
#       7
#     2   2   2   2   2   2   2
#     4  10  20  37  57  88 124 155 195 250 294 365
#     4  10  24  38  60  95 118 157 216 237 308 366
#     4  10  22  36  60  91 122 155 206 239 307 364
#     4  11  21  38  60  88 123 161 198 249 299 365
#     4  11  22  43  62  92 123 159 204 255 300 365
#     4  10  23  45  64  87 125 160 200 266 296 354
#     4  10  23  42  65  91 120 162 210 242 313 363
#
# _framework density 24.091051
#
# number of rings (size 3 to 8) (size 9 to 14) (size 15 to 20)
#    0.000    1.714    1.429    2.143    2.000    6.286 
#    0.000    7.857    0.000    0.000    0.000    0.000 
#    0.000    0.000    0.000    0.000    0.000    0.000 
#
# Total GULP energy -78373.670718 kJ/mol
# GULP energy per Si atom -5598.119337 kJ/mol
# Density = 2.403622 g / cm^3
# Si number density = 24.091051 Si / 1000 Ang^3
#
#
#
# Elastic Constant Matrix: (Units=GPa)
#
#
# Indices 1 2 3 4 5 6 
#
# 1 55.2951 5.6263 18.1931 -9.1037 8.9993 -1.6894
# 2 5.6263 56.5771 32.8107 -11.5417 6.7769 -16.2982
# 3 18.1931 32.8107 115.1014 -15.9443 24.8399 -11.6600
# 4 -9.1037 -11.5417 -15.9443 35.0738 -7.2288 7.5350
# 5 8.9993 6.7769 24.8399 -7.2288 31.9942 5.6463
# 6 -1.6894 -16.2982 -11.6600 7.5350 5.6463 31.7328
#
#
#
# Elastic Compliance Matrix: (Units=1/GPa)
#
#
# Indices 1 2 3 4 5 6 
#
# 1 0.019852 0.000403 -0.002003 0.003631 -0.003340 0.000260
# 2 0.000403 0.024497 -0.004999 0.003111 -0.002568 0.010484
# 3 -0.002003 -0.004999 0.012783 0.001166 -0.008618 0.003279
# 4 0.003631 0.003111 0.001166 0.033786 0.006269 -0.006918
# 5 -0.003340 -0.002568 -0.008618 0.006269 0.043291 -0.013855
# 6 0.000260 0.010484 0.003279 -0.006918 -0.013855 0.042225
#
#
# Mechanical properties :
#
#
# Convention : Reuss Voigt Hill
#
# Bulk Modulus (GPa) = 22.76162 37.80374 30.28268
# Shear Modulus (GPa) = 24.47660 31.11638 27.79649
#
# Velocity S-wave (km/s) = 3.19094 3.59780 3.40046
# Velocity P-wave (km/s) = 4.80050 5.74326 5.29291
#
# Compressibility (1/GPa) = 0.04393361
#
# Stress axis : x y z
#
# Youngs Moduli (GPa) = 50.37280 40.82163 78.22826
#
# Poissons Ratio (x) = -0.01645 0.15666
# Poissons Ratio (y) = -0.02029 0.39110
# Poissons Ratio (z) = 0.10087 0.20409
#
# Static dielectric constant tensor:
#      x y z
#    x 1.902500 0.001710 0.015660 
#    y 0.001710 1.963330 0.010550 
#    z 0.015660 0.010550 1.895870 
# 
# From -- ./inp_files/179711.got.cif
#   From: 2010.05.17/outbox.cif.g08.bks.cpg/sg2_90_cif.got.tgz:179711.got - 2010.06.03 11:33:40.
