data_PCOD9098926
_publ_section_title
;
Structure prediction by ZEFSAII (Michael W. Deem and Ramdas Pophale) SiO2 
 PCOD9098926
Probable space group: P -1
;
_chemical_formula_sum "Si O2"
_cell_formula_units_Z 16
_cell_length_a 22.916650
_cell_length_b 18.749841
_cell_length_c 11.575640
_cell_angle_alpha 146.555943
_cell_angle_beta 42.538725
_cell_angle_gamma 161.704818
_cell_volume 815.145129
_symmetry_space_group_name_H-M "P -1"
_symmetry_group_IT_number 2
_symmetry_cell_setting 'triclinic'
loop_
_space_group_symop_operation_xyz
x,y,z
-x,-y,-z
loop_
_atom_site_type_symbol
_atom_site_label
_atom_site_fract_x
_atom_site_fract_y
_atom_site_fract_z
Si Si1 0.015979 0.849919 0.378948
Si Si2 0.473037 0.862847 0.531176
Si Si3 0.678713 0.197480 0.923744
Si Si4 0.887750 0.170663 0.165815
Si Si5 0.595935 0.761248 0.247627
Si Si6 0.233839 0.240756 0.363959
Si Si7 0.761087 0.276462 0.459836
Si Si8 0.691760 0.918140 0.575487
O O1 0.890446 0.799961 0.547145
O O2 0.155409 0.097453 0.411350
O O3 0.153744 0.955386 0.406270
O O4 0.856920 0.537331 0.134254
O O5 0.440134 0.669528 0.353285
O O6 0.297245 0.723095 0.568544
O O7 0.603526 0.089026 0.753859
O O8 0.579039 0.999262 0.435533
O O9 0.733313 0.127477 0.793869
O O10 0.500000 0.000000 0.000000
O O11 0.863187 0.276525 0.281170
O O12 0.103661 0.456658 0.291219
O O13 0.755497 0.006319 0.250149
O O14 0.816714 0.951573 0.901710
O O15 0.696836 0.883743 0.388602
O O16 0.500000 0.500000 0.000000
O O17 0.465161 0.585510 0.493744
#
# Coordination Sequence:
#
# PCOD9098926 Si02
#       8
#     2   2   2   2   2   2   2   2
#     4  11  25  42  63  93 120 166 212 251 306 363
#     4   9  20  36  59  85 117 155 198 246 296 358
#     4  11  22  40  63  87 126 161 207 257 298 363
#     4  10  20  37  62  87 121 153 196 251 300 363
#     4  10  20  37  58  85 122 154 192 241 306 363
#     4  11  23  43  63  91 128 156 205 263 302 365
#     4   9  19  38  59  88 115 154 200 243 302 361
#     4  11  23  43  65  88 126 167 201 254 311 364
#
# _framework density 19.628405999999998
#
# number of rings (size 3 to 8) (size 9 to 14) (size 15 to 20)
#    0.000    1.750    2.500    1.500    0.000    4.000 
#    6.750    1.250    0.000    0.000    0.000    0.000 
#    0.000    0.000    0.000    0.000    0.000    0.000 
#
# Total GULP energy -89221.337695 kJ/mol
# GULP energy per Si atom -5576.333606 kJ/mol
# Density = 1.958373 g / cm^3
# Si number density = 19.628406 Si / 1000 Ang^3
#
#
#
# Elastic Constant Matrix: (Units=GPa)
#
#
# Indices 1 2 3 4 5 6 
#
# 1 156.9049 25.9817 47.1112 -10.1121 -6.5348 37.1471
# 2 25.9817 32.8692 10.2257 -2.7646 -3.6369 11.4327
# 3 47.1112 10.2257 109.2381 -3.0599 -12.5692 18.2603
# 4 -10.1121 -2.7646 -3.0599 26.9079 -7.2942 -0.3897
# 5 -6.5348 -3.6369 -12.5692 -7.2942 13.9440 -1.3605
# 6 37.1471 11.4327 18.2603 -0.3897 -1.3605 30.2104
#
#
#
# Elastic Compliance Matrix: (Units=1/GPa)
#
#
# Indices 1 2 3 4 5 6 
#
# 1 0.010278 -0.003330 -0.001953 0.004058 0.003335 -0.009994
# 2 -0.003330 0.038059 0.001066 0.005691 0.011292 -0.010371
# 3 -0.001953 0.001066 0.012177 0.003924 0.011926 -0.004775
# 4 0.004058 0.005691 0.003924 0.048113 0.031361 -0.007482
# 5 0.003335 0.011292 0.011926 0.031361 0.102348 -0.010569
# 6 -0.009994 -0.010371 -0.004775 -0.007482 -0.010569 0.051629
#
#
# Mechanical properties :
#
#
# Convention : Reuss Voigt Hill
#
# Bulk Modulus (GPa) = 19.20110 51.73882 35.46996
# Shear Modulus (GPa) = 17.33719 28.59205 22.96462
#
# Velocity S-wave (km/s) = 2.97521 3.82077 3.42419
# Velocity P-wave (km/s) = 4.64823 6.77353 5.80891
#
# Compressibility (1/GPa) = 0.05208036
#
# Stress axis : x y z
#
# Youngs Moduli (GPa) = 97.29957 26.27468 82.12209
#
# Poissons Ratio (x) = 0.08749 0.16035
# Poissons Ratio (y) = 0.32399 -0.08751
# Poissons Ratio (z) = 0.18998 -0.02800
#
# Static dielectric constant tensor:
#      x y z
#    x 1.700670 0.013610 -0.041220 
#    y 0.013610 1.759010 -0.006030 
#    z -0.041220 -0.006030 1.700110 
# 
# From -- ./inp_files/333241.got.cif
#   From: 2010.05.17/outbox.cif.g08.bks.cpg/sg2_167_cif.got.tgz:333241.got - 2010.06.03 11:33:40.
