data_PCOD9098434
_publ_section_title
;
Structure prediction by ZEFSAII (Michael W. Deem and Ramdas Pophale) SiO2 
 PCOD9098434
Probable space group: P -1
;
_chemical_formula_sum "Si O2"
_cell_formula_units_Z 16
_cell_length_a 8.658363
_cell_length_b 12.667142
_cell_length_c 8.836855
_cell_angle_alpha 110.387278
_cell_angle_beta 62.220073
_cell_angle_gamma 74.966471
_cell_volume 692.081057
_symmetry_space_group_name_H-M "P -1"
_symmetry_group_IT_number 2
_symmetry_cell_setting 'triclinic'
loop_
_space_group_symop_operation_xyz
x,y,z
-x,-y,-z
loop_
_atom_site_type_symbol
_atom_site_label
_atom_site_fract_x
_atom_site_fract_y
_atom_site_fract_z
Si Si1 0.320728 0.094428 0.011976
Si Si2 0.254023 0.878020 0.389163
Si Si3 0.777628 0.081440 0.221226
Si Si4 0.348082 0.640760 0.714490
Si Si5 0.078819 0.352458 0.077390
Si Si6 0.057682 0.354436 0.741000
Si Si7 0.368513 0.635780 0.049419
Si Si8 0.158385 0.116099 0.399486
O O1 0.138907 0.132185 0.237300
O O2 0.248940 0.236015 0.042915
O O3 0.500000 0.000000 0.000000
O O4 0.323578 0.998344 0.835392
O O5 0.231897 0.917203 0.592779
O O6 0.398598 0.732654 0.192644
O O7 0.043879 0.880778 0.447113
O O8 0.311761 0.970132 0.314622
O O9 0.671134 0.232534 0.295055
O O10 0.000000 0.000000 0.000000
O O11 0.500000 0.500000 0.500000
O O12 0.122898 0.659649 0.827846
O O13 0.417144 0.642964 0.856098
O O14 0.002457 0.503924 0.226398
O O15 0.144503 0.338143 0.862915
O O16 0.851992 0.350382 0.848659
O O17 0.188960 0.228835 0.512731
O O18 0.500000 0.500000 0.000000
#
# Coordination Sequence:
#
# PCOD9098434 Si02
#       8
#     2   2   2   2   2   2   2   2
#     4  12  26  41  62  97 134 170 215 275 331 392
#     4  10  20  36  66  89 120 167 221 269 314 386
#     4  12  22  41  68  94 126 172 217 270 326 387
#     4  11  23  39  67  99 130 170 222 273 325 391
#     4  10  21  43  63  90 130 172 220 263 330 396
#     4   9  21  38  65  87 122 177 211 266 332 388
#     4  10  21  37  60  96 132 164 217 274 321 385
#     4  10  20  37  59  92 120 161 218 263 324 380
#
# _framework density 23.118679
#
# number of rings (size 3 to 8) (size 9 to 14) (size 15 to 20)
#    0.000    1.500    2.500    2.250    3.500    4.500 
#    0.000    5.000    0.000    0.000    0.000    0.000 
#    0.000    0.000    0.000    0.000    0.000    0.000 
#
# Total GULP energy -89243.532116 kJ/mol
# GULP energy per Si atom -5577.720757 kJ/mol
# Density = 2.306606 g / cm^3
# Si number density = 23.118679 Si / 1000 Ang^3
#
#
#
# Elastic Constant Matrix: (Units=GPa)
#
#
# Indices 1 2 3 4 5 6 
#
# 1 59.8311 32.0736 11.8000 7.9959 10.2595 -0.6668
# 2 32.0736 209.1039 55.6721 24.4176 24.1696 -4.4974
# 3 11.8000 55.6721 76.2123 23.9287 28.7631 -4.2645
# 4 7.9959 24.4176 23.9287 44.8605 7.9386 7.1020
# 5 10.2595 24.1696 28.7631 7.9386 37.2793 6.9831
# 6 -0.6668 -4.4974 -4.2645 7.1020 6.9831 38.9482
#
#
#
# Elastic Compliance Matrix: (Units=1/GPa)
#
#
# Indices 1 2 3 4 5 6 
#
# 1 0.018823 -0.002440 0.001267 -0.002143 -0.004373 0.001354
# 2 -0.002440 0.006332 -0.003726 -0.001033 -0.000442 0.000549
# 3 0.001267 -0.003726 0.025560 -0.009990 -0.016883 0.007239
# 4 -0.002143 -0.001033 -0.009990 0.028981 0.004160 -0.007280
# 5 -0.004373 -0.000442 -0.016883 0.004160 0.042390 -0.010333
# 6 0.001354 0.000549 0.007239 -0.007280 -0.010333 0.029734
#
#
# Mechanical properties :
#
#
# Convention : Reuss Voigt Hill
#
# Bulk Modulus (GPa) = 24.43894 60.47098 42.45496
# Shear Modulus (GPa) = 28.52953 40.59105 34.56029
#
# Velocity S-wave (km/s) = 3.51671 4.19474 3.87060
# Velocity P-wave (km/s) = 5.20420 7.04802 6.19509
#
# Compressibility (1/GPa) = 0.04091830
#
# Stress axis : x y z
#
# Youngs Moduli (GPa) = 53.12618 157.92751 39.12353
#
# Poissons Ratio (x) = 0.38528 -0.04957
# Poissons Ratio (y) = 0.12961 0.14577
# Poissons Ratio (z) = -0.06731 0.58841
#
# Static dielectric constant tensor:
#      x y z
#    x 1.971840 -0.039540 -0.144250 
#    y -0.039540 1.857820 0.051610 
#    z -0.144250 0.051610 2.007590 
# 
# From -- ./inp_files/189153.got.cif
#   From: 2010.05.17/outbox.cif.g08.bks.cpg/sg2_95_cif.got.tgz:189153.got - 2010.06.03 11:33:40.
