data_PCOD9098011
_publ_section_title
;
Structure prediction by ZEFSAII (Michael W. Deem and Ramdas Pophale) SiO2 
 PCOD9098011
Probable space group: P -1
;
_chemical_formula_sum "Si O2"
_cell_formula_units_Z 16
_cell_length_a 18.409200
_cell_length_b 7.019120
_cell_length_c 8.980636
_cell_angle_alpha 80.107084
_cell_angle_beta 47.939728
_cell_angle_gamma 106.684157
_cell_volume 708.906985
_symmetry_space_group_name_H-M "P -1"
_symmetry_group_IT_number 2
_symmetry_cell_setting 'triclinic'
loop_
_space_group_symop_operation_xyz
x,y,z
-x,-y,-z
loop_
_atom_site_type_symbol
_atom_site_label
_atom_site_fract_x
_atom_site_fract_y
_atom_site_fract_z
Si Si1 0.307452 0.253117 0.290950
Si Si2 0.029021 0.024324 0.285059
Si Si3 0.882873 0.796011 0.268365
Si Si4 0.476322 0.749224 0.061690
Si Si5 0.471180 0.206399 0.678024
Si Si6 0.313201 0.721319 0.822825
Si Si7 0.272984 0.247972 0.000508
Si Si8 0.097625 0.478649 0.955801
O O1 0.211326 0.145526 0.566244
O O2 0.359435 0.527944 0.187149
O O3 0.416831 0.234245 0.175251
O O4 0.267800 0.163539 0.188679
O O5 0.034674 0.247736 0.178080
O O6 0.157913 0.074029 0.088028
O O7 0.000000 0.000000 0.500000
O O8 0.933646 0.794510 0.359748
O O9 0.838734 0.578057 0.253934
O O10 0.000000 0.000000 0.000000
O O11 0.484200 0.701085 0.230219
O O12 0.500000 0.000000 0.000000
O O13 0.580149 0.239618 0.433105
O O14 0.389411 0.305073 0.747508
O O15 0.371280 0.931457 0.831233
O O16 0.269881 0.475691 0.988391
O O17 0.203265 0.681891 0.882134
O O18 0.000000 0.500000 0.000000
#
# Coordination Sequence:
#
# PCOD9098011 Si02
#       8
#     2   2   2   2   2   2   2   2
#     4  10  20  38  62  88 125 165 210 264 323 388
#     4  10  20  40  64  89 120 164 214 257 314 386
#     4  10  21  40  61  88 126 166 217 261 323 384
#     4  10  21  38  60  92 124 161 208 263 326 386
#     4  10  21  37  59  89 121 158 208 256 315 382
#     4  10  21  39  59  88 124 161 206 261 316 381
#     4  10  20  36  63  86 120 161 208 260 317 376
#     4  10  23  41  61  91 130 165 212 269 321 377
#
# _framework density 22.569955
#
# number of rings (size 3 to 8) (size 9 to 14) (size 15 to 20)
#    0.000    2.000    1.250    1.875    1.750    0.000 
#    9.000    5.625    0.000    0.000    0.000    0.000 
#    0.000    0.000    0.000    0.000    0.000    0.000 
#
# Total GULP energy -89146.664289 kJ/mol
# GULP energy per Si atom -5571.666518 kJ/mol
# Density = 2.251858 g / cm^3
# Si number density = 22.569955 Si / 1000 Ang^3
#
#
#
# Elastic Constant Matrix: (Units=GPa)
#
#
# Indices 1 2 3 4 5 6 
#
# 1 77.4795 8.7118 20.7506 -2.0400 -8.8397 3.4717
# 2 8.7118 74.8106 2.9708 5.0072 -3.3735 13.2963
# 3 20.7506 2.9708 96.4100 20.5527 -14.7783 -4.4745
# 4 -2.0400 5.0072 20.5527 29.2881 5.5548 -0.3496
# 5 -8.8397 -3.3735 -14.7783 5.5548 28.0201 2.3132
# 6 3.4717 13.2963 -4.4745 -0.3496 2.3132 35.9123
#
#
#
# Elastic Compliance Matrix: (Units=1/GPa)
#
#
# Indices 1 2 3 4 5 6 
#
# 1 0.014385 -0.001421 -0.003527 0.003331 0.001962 -0.001398
# 2 -0.001421 0.014872 0.000893 -0.003910 0.003042 -0.005492
# 3 -0.003527 0.000893 0.015406 -0.013016 0.009603 0.001185
# 4 0.003331 -0.003910 -0.013016 0.047171 -0.015717 0.000976
# 5 0.001962 0.003042 0.009603 -0.015717 0.045117 -0.003178
# 6 -0.001398 -0.005492 0.001185 0.000976 -0.003178 0.030376
#
#
# Mechanical properties :
#
#
# Convention : Reuss Voigt Hill
#
# Bulk Modulus (GPa) = 27.35785 34.84072 31.09928
# Shear Modulus (GPa) = 26.64959 33.06189 29.85574
#
# Velocity S-wave (km/s) = 3.43994 3.83151 3.64099
# Velocity P-wave (km/s) = 5.28443 5.91981 5.61112
#
# Compressibility (1/GPa) = 0.03655258
#
# Stress axis : x y z
#
# Youngs Moduli (GPa) = 69.51631 67.24011 64.91147
#
# Poissons Ratio (x) = 0.09556 0.22891
# Poissons Ratio (y) = 0.09879 -0.05794
# Poissons Ratio (z) = 0.24515 -0.06002
#
# Static dielectric constant tensor:
#      x y z
#    x 1.932410 -0.011080 -0.024300 
#    y -0.011080 1.915210 0.007680 
#    z -0.024300 0.007680 1.945600 
# 
# From -- ./inp_files/328819.got.cif
#   From: 2010.05.17/outbox.cif.g08.bks.cpg/sg2_165_cif.got.tgz:328819.got - 2010.06.03 11:33:40.
