data_PCOD9098293
_publ_section_title
;
Structure prediction by ZEFSAII (Michael W. Deem and Ramdas Pophale) SiO2 
 PCOD9098293
Probable space group: P -1
;
_chemical_formula_sum "Si O2"
_cell_formula_units_Z 16
_cell_length_a 24.495705
_cell_length_b 19.020919
_cell_length_c 13.993918
_cell_angle_alpha 29.333570
_cell_angle_beta 21.600162
_cell_angle_gamma 18.461903
_cell_volume 757.218864
_symmetry_space_group_name_H-M "P -1"
_symmetry_group_IT_number 2
_symmetry_cell_setting 'triclinic'
loop_
_space_group_symop_operation_xyz
x,y,z
-x,-y,-z
loop_
_atom_site_type_symbol
_atom_site_label
_atom_site_fract_x
_atom_site_fract_y
_atom_site_fract_z
Si Si1 0.797191 0.043120 0.746912
Si Si2 0.532883 0.858872 0.697081
Si Si3 0.072563 0.781732 0.429966
Si Si4 0.568960 0.494494 0.527828
Si Si5 0.808098 0.852685 0.390276
Si Si6 0.109131 0.780286 0.832503
Si Si7 0.539835 0.339183 0.286608
Si Si8 0.120887 0.648010 0.306321
O O1 0.599076 0.301856 0.730033
O O2 0.703157 0.021530 0.013301
O O3 0.000000 0.000000 0.500000
O O4 0.899137 0.881912 0.681759
O O5 0.672695 0.819602 0.606335
O O6 0.679726 0.618550 0.701752
O O7 0.500000 0.000000 0.500000
O O8 0.331735 0.546451 0.313659
O O9 0.011841 0.750069 0.467191
O O10 0.058584 0.964058 0.221999
O O11 0.330198 0.690010 0.629947
O O12 0.781724 0.373197 0.256626
O O13 0.559968 0.584197 0.534739
O O14 0.938569 0.743607 0.407778
O O15 0.633607 0.115380 0.371222
O O16 0.993476 0.759073 0.119141
O O17 0.751214 0.295841 0.992156
#
# Coordination Sequence:
#
# PCOD9098293 Si02
#       8
#     2   2   2   2   2   2   2   2
#     4  11  22  44  70  97 132 178 222 275 335 400
#     4  12  28  44  68 101 135 174 224 277 344 402
#     4  11  23  36  68  95 130 169 231 273 323 378
#     4  10  20  36  64  95 130 166 230 263 317 393
#     4  12  25  41  66  97 141 173 220 283 342 388
#     4  10  21  36  60 100 129 172 211 276 328 384
#     4  12  21  38  66 102 129 173 229 278 320 395
#     4  12  23  44  63  97 136 182 220 272 334 403
#
# _framework density 21.129954000000001
#
# number of rings (size 3 to 8) (size 9 to 14) (size 15 to 20)
#    0.000    0.750    5.000    2.625    5.250    0.000 
#    0.000    4.375    0.000    0.000    0.000    0.000 
#    0.000    0.000    0.000    0.000    0.000    0.000 
#
# Total GULP energy -89504.336904 kJ/mol
# GULP energy per Si atom -5594.021056 kJ/mol
# Density = 2.108186 g / cm^3
# Si number density = 21.129954 Si / 1000 Ang^3
#
#
#
# Elastic Constant Matrix: (Units=GPa)
#
#
# Indices 1 2 3 4 5 6 
#
# 1 123.9778 24.7971 53.5501 11.1674 22.2228 14.5581
# 2 24.7971 71.1833 20.0077 11.8251 9.3967 13.5388
# 3 53.5501 20.0077 80.1324 11.4319 16.7708 12.9036
# 4 11.1674 11.8251 11.4319 20.5380 3.1094 -2.5671
# 5 22.2228 9.3967 16.7708 3.1094 34.3143 6.5476
# 6 14.5581 13.5388 12.9036 -2.5671 6.5476 43.6391
#
#
#
# Elastic Compliance Matrix: (Units=1/GPa)
#
#
# Indices 1 2 3 4 5 6 
#
# 1 0.012158 -0.001361 -0.006516 -0.001759 -0.003924 -0.001222
# 2 -0.001361 0.017484 -0.001010 -0.009137 -0.001638 -0.004963
# 3 -0.006516 -0.001010 0.019276 -0.006413 -0.003766 -0.003025
# 4 -0.001759 -0.009137 -0.006413 0.059634 -0.000322 0.008874
# 5 -0.003924 -0.001638 -0.003766 -0.000322 0.034432 -0.002254
# 6 -0.001222 -0.004963 -0.003025 0.008874 -0.002254 0.026617
#
#
# Mechanical properties :
#
#
# Convention : Reuss Voigt Hill
#
# Bulk Modulus (GPa) = 32.10995 52.44481 42.27738
# Shear Modulus (GPa) = 25.28333 31.49419 28.38876
#
# Velocity S-wave (km/s) = 3.46289 3.86489 3.66940
# Velocity P-wave (km/s) = 5.58733 6.69257 6.16477
#
# Compressibility (1/GPa) = 0.03114300
#
# Stress axis : x y z
#
# Youngs Moduli (GPa) = 82.25074 57.19374 51.87725
#
# Poissons Ratio (x) = 0.07786 0.33804
# Poissons Ratio (y) = 0.11197 0.05242
# Poissons Ratio (z) = 0.53595 0.05779
#
# Static dielectric constant tensor:
#      x y z
#    x 1.802440 -0.032110 0.018340 
#    y -0.032110 1.769410 0.018170 
#    z 0.018340 0.018170 1.750060 
# 
# From -- ./inp_files/350190.got.cif
#   From: 2010.05.17/outbox.cif.g08.bks.cpg/sg2_176_cif.got.tgz:350190.got - 2010.06.03 11:33:40.
