data_PCOD9098296
_publ_section_title
;
Structure prediction by ZEFSAII (Michael W. Deem and Ramdas Pophale) SiO2 
 PCOD9098296
Probable space group: P -1
;
_chemical_formula_sum "Si O2"
_cell_formula_units_Z 16
_cell_length_a 9.146918
_cell_length_b 10.984712
_cell_length_c 14.951669
_cell_angle_alpha 136.726017
_cell_angle_beta 49.452621
_cell_angle_gamma 110.554383
_cell_volume 760.668711
_symmetry_space_group_name_H-M "P -1"
_symmetry_group_IT_number 2
_symmetry_cell_setting 'triclinic'
loop_
_space_group_symop_operation_xyz
x,y,z
-x,-y,-z
loop_
_atom_site_type_symbol
_atom_site_label
_atom_site_fract_x
_atom_site_fract_y
_atom_site_fract_z
Si Si1 0.903279 0.343525 0.993574
Si Si2 0.951393 0.687446 0.887695
Si Si3 0.105029 0.697577 0.477079
Si Si4 0.815714 0.426054 0.431067
Si Si5 0.516109 0.304319 0.197541
Si Si6 0.622823 0.910465 0.011802
Si Si7 0.819297 0.070629 0.736918
Si Si8 0.294289 0.614076 0.185509
O O1 0.670176 0.404517 0.144129
O O2 0.007385 0.266320 0.003205
O O3 0.908411 0.193063 0.835971
O O4 0.000000 0.500000 0.000000
O O5 0.868309 0.503893 0.829945
O O6 0.140648 0.657147 0.729600
O O7 0.779814 0.831982 0.982891
O O8 0.153460 0.712417 0.570557
O O9 0.294978 0.639631 0.305846
O O10 0.982497 0.541884 0.436267
O O11 0.964354 0.873751 0.581806
O O12 0.609746 0.569777 0.609662
O O13 0.641000 0.105970 0.073866
O O14 0.367266 0.239752 0.151436
O O15 0.398202 0.942257 0.151988
O O16 0.777391 0.189158 0.726988
O O17 0.500000 0.500000 0.000000
#
# Coordination Sequence:
#
# PCOD9098296 Si02
#       8
#     2   2   2   2   2   2   2   2
#     4  11  25  41  63  88 129 172 205 240 314 383
#     4  11  23  39  60  92 125 165 208 250 306 378
#     4  10  21  36  61  98 123 154 205 267 314 351
#     4  10  21  37  62  90 127 154 203 263 312 358
#     4  10  21  39  64  91 121 161 201 262 306 360
#     4  10  20  36  64  96 118 151 214 260 304 351
#     4  11  21  39  64  92 127 159 208 260 305 366
#     4  11  21  36  65  95 121 163 209 259 306 367
#
# _framework density 21.034125
#
# number of rings (size 3 to 8) (size 9 to 14) (size 15 to 20)
#    0.000    1.500    3.750    2.625    5.250    1.000 
#    0.000    0.000    0.000    1.500    0.000    0.000 
#    0.000    0.000    0.000    0.000    0.000    0.000 
#
# Total GULP energy -89326.769468 kJ/mol
# GULP energy per Si atom -5582.923092 kJ/mol
# Density = 2.098625 g / cm^3
# Si number density = 21.034125 Si / 1000 Ang^3
#
#
#
# Elastic Constant Matrix: (Units=GPa)
#
#
# Indices 1 2 3 4 5 6 
#
# 1 84.6923 41.6325 21.9916 -0.0786 -0.0949 -19.2541
# 2 41.6325 131.8644 51.1739 -12.5758 -9.8771 -16.5269
# 3 21.9916 51.1739 88.8568 -17.0095 -16.2975 -6.1758
# 4 -0.0786 -12.5758 -17.0095 30.3474 -13.1649 -5.0376
# 5 -0.0949 -9.8771 -16.2975 -13.1649 26.6088 -1.7868
# 6 -19.2541 -16.5269 -6.1758 -5.0376 -1.7868 38.1409
#
#
#
# Elastic Compliance Matrix: (Units=1/GPa)
#
#
# Indices 1 2 3 4 5 6 
#
# 1 0.015684 -0.004005 -0.003259 -0.005109 -0.005639 0.004715
# 2 -0.004005 0.011518 -0.003321 0.005780 0.005318 0.003444
# 3 -0.003259 -0.003321 0.023368 0.023363 0.024960 0.004955
# 4 -0.005109 0.005780 0.023363 0.074751 0.054504 0.016135
# 5 -0.005639 0.005318 0.024960 0.054504 0.082768 0.014576
# 6 0.004715 0.003444 0.004955 0.016135 0.014576 0.033707
#
#
# Mechanical properties :
#
#
# Convention : Reuss Voigt Hill
#
# Bulk Modulus (GPa) = 34.01553 59.44550 46.73052
# Shear Modulus (GPa) = 18.33062 31.72714 25.02888
#
# Velocity S-wave (km/s) = 2.95527 3.88798 3.45326
# Velocity P-wave (km/s) = 5.27746 6.96261 6.17776
#
# Compressibility (1/GPa) = 0.02939833
#
# Stress axis : x y z
#
# Youngs Moduli (GPa) = 63.76076 86.81960 42.79354
#
# Poissons Ratio (x) = 0.34775 0.13948
# Poissons Ratio (y) = 0.25539 0.14211
# Poissons Ratio (z) = 0.20782 0.28832
#
# Static dielectric constant tensor:
#      x y z
#    x 1.777290 -0.040380 0.003200 
#    y -0.040380 1.789200 -0.012030 
#    z 0.003200 -0.012030 1.799500 
# 
# From -- ./inp_files/500933.got.cif
#   From: 2010.05.17/outbox.cif.g08.bks.cpg/sg2_251_cif.got.tgz:500933.got - 2010.06.03 11:33:40.
