data_PCOD9098727
_publ_section_title
;
Structure prediction by ZEFSAII (Michael W. Deem and Ramdas Pophale) SiO2 
 PCOD9098727
Probable space group: P -1
;
_chemical_formula_sum "Si O2"
_cell_formula_units_Z 16
_cell_length_a 10.251704
_cell_length_b 7.681011
_cell_length_c 17.532606
_cell_angle_alpha 31.621372
_cell_angle_beta 83.986581
_cell_angle_gamma 78.031486
_cell_volume 701.129666
_symmetry_space_group_name_H-M "P -1"
_symmetry_group_IT_number 2
_symmetry_cell_setting 'triclinic'
loop_
_space_group_symop_operation_xyz
x,y,z
-x,-y,-z
loop_
_atom_site_type_symbol
_atom_site_label
_atom_site_fract_x
_atom_site_fract_y
_atom_site_fract_z
Si Si1 0.511909 0.275001 0.286546
Si Si2 0.323229 0.429842 0.383301
Si Si3 0.016442 0.729087 0.309350
Si Si4 0.169508 0.775169 0.518603
Si Si5 0.607140 0.158822 0.643401
Si Si6 0.891092 0.139604 0.020420
Si Si7 0.739838 0.598430 0.192318
Si Si8 0.980162 0.761696 0.747203
O O1 0.389886 0.394618 0.309101
O O2 0.603576 0.550648 0.179837
O O3 0.605683 0.919228 0.446933
O O4 0.455788 0.162836 0.252381
O O5 0.162346 0.492298 0.370114
O O6 0.352233 0.755388 0.306181
O O7 0.902295 0.517378 0.395594
O O8 0.025197 0.922747 0.314952
O O9 0.965976 0.006113 0.143570
O O10 0.277775 0.832863 0.428769
O O11 0.238709 0.642845 0.643156
O O12 0.056802 0.123392 0.380809
O O13 0.500000 0.500000 0.500000
O O14 0.764974 0.966319 0.078789
O O15 0.877510 0.541048 0.865630
O O16 0.000000 0.000000 0.000000
O O17 0.866371 0.448125 0.186090
#
# Coordination Sequence:
#
# PCOD9098727 Si02
#       8
#     2   2   2   2   2   2   2   2
#     4  10  21  36  58  83 122 170 188 244 300 348
#     4  10  20  37  56  89 125 153 198 244 303 355
#     4  11  22  37  61  91 121 149 196 251 300 358
#     4  11  21  34  57  94 117 150 195 252 293 351
#     4  10  21  34  54  86 127 155 193 240 298 355
#     4   9  22  40  58  84 118 158 195 244 297 362
#     4  10  21  37  57  88 119 155 204 238 293 356
#     4  11  21  36  61  87 121 154 191 248 307 344
#
# _framework density 22.820316999999999
#
# number of rings (size 3 to 8) (size 9 to 14) (size 15 to 20)
#    0.000    1.750    1.250    4.125    3.500    5.000 
#    0.000    0.000    0.000    7.500    0.000    0.000 
#    0.000    0.000    0.000    0.000    0.000    0.000 
#
# Total GULP energy -89371.369790 kJ/mol
# GULP energy per Si atom -5585.710612 kJ/mol
# Density = 2.276838 g / cm^3
# Si number density = 22.820317 Si / 1000 Ang^3
#
#
#
# Elastic Constant Matrix: (Units=GPa)
#
#
# Indices 1 2 3 4 5 6 
#
# 1 97.5339 42.8042 9.0674 -16.2498 -21.6589 18.2382
# 2 42.8042 103.3683 12.0555 -9.7571 -14.7866 32.1505
# 3 9.0674 12.0555 68.4717 9.3837 -8.2945 12.8594
# 4 -16.2498 -9.7571 9.3837 21.6348 6.2194 -1.1536
# 5 -21.6589 -14.7866 -8.2945 6.2194 13.7943 -9.1123
# 6 18.2382 32.1505 12.8594 -1.1536 -9.1123 46.0658
#
#
#
# Elastic Compliance Matrix: (Units=1/GPa)
#
#
# Indices 1 2 3 4 5 6 
#
# 1 0.017439 -0.003707 0.000188 0.005276 0.021100 -0.000064
# 2 -0.003707 0.014356 -0.000608 0.002719 0.002858 -0.007748
# 3 0.000188 -0.000608 0.018674 -0.012707 0.015160 -0.002183
# 4 0.005276 0.002719 -0.012707 0.064927 -0.028680 -0.004486
# 5 0.021100 0.002858 0.015160 -0.028680 0.138759 0.012149
# 6 -0.000064 -0.007748 -0.002183 -0.004486 0.012149 0.030041
#
#
# Mechanical properties :
#
#
# Convention : Reuss Voigt Hill
#
# Bulk Modulus (GPa) = 23.68809 44.13645 33.91227
# Shear Modulus (GPa) = 16.31208 29.99543 23.15376
#
# Velocity S-wave (km/s) = 2.67648 3.62942 3.18875
# Velocity P-wave (km/s) = 4.46702 6.07836 5.33389
#
# Compressibility (1/GPa) = 0.04221531
#
# Stress axis : x y z
#
# Youngs Moduli (GPa) = 57.34373 69.65962 53.54908
#
# Poissons Ratio (x) = 0.25824 -0.01008
# Poissons Ratio (y) = 0.21258 0.03255
# Poissons Ratio (z) = -0.01080 0.04234
#
# Static dielectric constant tensor:
#      x y z
#    x 2.096220 -0.019390 0.319150 
#    y -0.019390 1.880280 -0.068440 
#    z 0.319150 -0.068440 2.363250 
# 
# From -- ./inp_files/587707.got.cif
#   From: 2010.05.17/outbox.cif.g08.bks.cpg/sg2_294_cif.got.tgz:587707.got - 2010.06.03 11:33:40.
