data_PCOD9098333
_publ_section_title
;
Structure prediction by ZEFSAII (Michael W. Deem and Ramdas Pophale) SiO2 
 PCOD9098333
Probable space group: P -1
;
_chemical_formula_sum "Si O2"
_cell_formula_units_Z 16
_cell_length_a 22.488581
_cell_length_b 8.234805
_cell_length_c 17.347252
_cell_angle_alpha 41.475144
_cell_angle_beta 159.289472
_cell_angle_gamma 134.801900
_cell_volume 752.331263
_symmetry_space_group_name_H-M "P -1"
_symmetry_group_IT_number 2
_symmetry_cell_setting 'triclinic'
loop_
_space_group_symop_operation_xyz
x,y,z
-x,-y,-z
loop_
_atom_site_type_symbol
_atom_site_label
_atom_site_fract_x
_atom_site_fract_y
_atom_site_fract_z
Si Si1 0.567558 0.686060 0.080429
Si Si2 0.271810 0.048444 0.562228
Si Si3 0.044361 0.248119 0.684591
Si Si4 0.474458 0.232188 0.600763
Si Si5 0.255507 0.452684 0.007923
Si Si6 0.359766 0.489817 0.601127
Si Si7 0.651986 0.986136 0.628912
Si Si8 0.799763 0.064837 0.148121
O O1 0.603152 0.542369 0.252586
O O2 0.730547 0.840093 0.196044
O O3 0.500000 0.500000 0.000000
O O4 0.420196 0.884979 0.836600
O O5 0.332227 0.184667 0.509343
O O6 0.247076 0.263861 0.516424
O O7 0.113830 0.871283 0.420560
O O8 0.084411 0.055339 0.733636
O O9 0.000000 0.500000 0.500000
O O10 0.186500 0.324628 0.891900
O O11 0.500000 0.500000 0.500000
O O12 0.429328 0.061405 0.535387
O O13 0.643313 0.158383 0.874450
O O14 0.454155 0.518967 0.210927
O O15 0.243143 0.244723 0.133299
O O16 0.161743 0.699732 0.834036
O O17 0.272552 0.741614 0.381816
O O18 0.500000 0.000000 0.500000
#
# Coordination Sequence:
#
# PCOD9098333 Si02
#       8
#     2   2   2   2   2   2   2   2
#     4  11  21  38  67  97 126 166 230 288 334 389
#     4  11  24  41  62 101 131 173 223 277 335 397
#     4  12  28  46  64  96 146 181 218 277 343 401
#     4  11  19  41  72  99 130 166 227 280 329 397
#     4  11  22  44  68  95 132 179 227 270 337 403
#     4  11  20  39  68  97 130 167 227 287 328 397
#     4  10  20  36  65 100 126 165 217 277 331 389
#     4  11  23  42  69  98 129 183 222 273 339 402
#
# _framework density 21.267226999999998
#
# number of rings (size 3 to 8) (size 9 to 14) (size 15 to 20)
#    0.000    1.000    3.750    6.375    1.750    0.500 
#    4.500    3.125    0.000    0.000    0.000    0.000 
#    0.000    0.000    0.000    0.000    0.000    0.000 
#
# Total GULP energy -89355.630319 kJ/mol
# GULP energy per Si atom -5584.726895 kJ/mol
# Density = 2.121882 g / cm^3
# Si number density = 21.267227 Si / 1000 Ang^3
#
#
#
# Elastic Constant Matrix: (Units=GPa)
#
#
# Indices 1 2 3 4 5 6 
#
# 1 85.7746 38.3057 19.3030 -10.2449 -15.8377 1.4282
# 2 38.3057 146.8772 26.4107 -13.0839 -9.4812 5.3786
# 3 19.3030 26.4107 32.3136 -3.7636 -13.2616 11.9256
# 4 -10.2449 -13.0839 -3.7636 34.6379 6.1411 -10.0038
# 5 -15.8377 -9.4812 -13.2616 6.1411 29.7317 2.3699
# 6 1.4282 5.3786 11.9256 -10.0038 2.3699 37.7995
#
#
#
# Elastic Compliance Matrix: (Units=1/GPa)
#
#
# Indices 1 2 3 4 5 6 
#
# 1 0.015097 -0.002456 -0.005877 0.002828 0.003883 0.002138
# 2 -0.002456 0.008742 -0.007068 0.002804 -0.002410 0.001972
# 3 -0.005877 -0.007068 0.056099 -0.008174 0.022926 -0.020072
# 4 0.002828 0.002804 -0.008174 0.034992 -0.009423 0.011925
# 5 0.003883 -0.002410 0.022926 -0.009423 0.048107 -0.012547
# 6 0.002138 0.001972 -0.020072 0.011925 -0.012547 0.036369
#
#
# Mechanical properties :
#
#
# Convention : Reuss Voigt Hill
#
# Bulk Modulus (GPa) = 20.35194 48.11156 34.23175
# Shear Modulus (GPa) = 20.27680 32.49690 26.38685
#
# Velocity S-wave (km/s) = 3.09111 3.91324 3.52622
# Velocity P-wave (km/s) = 4.72550 6.56425 5.71926
#
# Compressibility (1/GPa) = 0.04913537
#
# Stress axis : x y z
#
# Youngs Moduli (GPa) = 66.23781 114.39082 17.82564
#
# Poissons Ratio (x) = 0.28098 0.10477
# Poissons Ratio (y) = 0.16270 0.12599
# Poissons Ratio (z) = 0.38930 0.80849
#
# Static dielectric constant tensor:
#      x y z
#    x 1.994980 0.307440 0.186040 
#    y 0.307440 2.390170 0.222400 
#    z 0.186040 0.222400 1.833880 
# 
# From -- ./inp_files/336564.got.cif
#   From: 2010.05.17/outbox.cif.g08.bks.cpg/sg2_169_cif.got.tgz:336564.got - 2010.06.03 11:33:40.
