data_PCOD9098187
_publ_section_title
;
Structure prediction by ZEFSAII (Michael W. Deem and Ramdas Pophale) SiO2 
 PCOD9098187
Probable space group: P -1
;
_chemical_formula_sum "Si O2"
_cell_formula_units_Z 16
_cell_length_a 8.941018
_cell_length_b 11.785755
_cell_length_c 18.226882
_cell_angle_alpha 31.189929
_cell_angle_beta 111.489796
_cell_angle_gamma 117.830983
_cell_volume 877.330415
_symmetry_space_group_name_H-M "P -1"
_symmetry_group_IT_number 2
_symmetry_cell_setting 'triclinic'
loop_
_space_group_symop_operation_xyz
x,y,z
-x,-y,-z
loop_
_atom_site_type_symbol
_atom_site_label
_atom_site_fract_x
_atom_site_fract_y
_atom_site_fract_z
Si Si1 0.569011 0.794505 0.141662
Si Si2 0.521067 0.153841 0.174171
Si Si3 0.449701 0.642525 0.698056
Si Si4 0.013862 0.246445 0.635929
Si Si5 0.730104 0.570610 0.071846
Si Si6 0.321691 0.944616 0.401721
Si Si7 0.602748 0.728887 0.347308
Si Si8 0.970118 0.012719 0.074844
O O1 0.503842 0.580183 0.194334
O O2 0.527522 0.703445 0.266403
O O3 0.769924 0.911362 0.104300
O O4 0.500000 0.000000 0.000000
O O5 0.673433 0.380828 0.102240
O O6 0.431138 0.026341 0.302542
O O7 0.579705 0.963981 0.246023
O O8 0.386438 0.259671 0.052072
O O9 0.321666 0.564519 0.786264
O O10 0.360941 0.729232 0.566394
O O11 0.609273 0.849385 0.641279
O O12 0.199324 0.250863 0.639265
O O13 0.971710 0.138595 0.769743
O O14 0.000000 0.500000 0.500000
O O15 0.870564 0.110606 0.627638
O O16 0.924599 0.728275 0.023999
O O17 0.500000 0.500000 0.500000
O O18 0.000000 0.000000 0.000000
#
# Coordination Sequence:
#
# PCOD9098187 Si02
#       8
#     2   2   2   2   2   2   2   2
#     4  11  23  39  56  86 119 154 191 240 302 344
#     4  10  20  39  62  86 117 156 195 240 300 348
#     4  10  20  37  61  86 116 151 197 239 288 349
#     4  11  23  39  60  90 118 155 202 239 293 351
#     4  10  20  36  64  87 114 154 198 240 294 355
#     4  10  20  38  64  85 113 154 198 242 287 346
#     4  11  24  39  60  86 120 154 196 247 291 350
#     4  11  22  38  60  88 117 151 201 245 285 351
#
# _framework density 18.237141999999999
#
# number of rings (size 3 to 8) (size 9 to 14) (size 15 to 20)
#    0.000    1.500    2.500    3.750    0.000    0.000 
#    2.250    1.250    0.000    3.000    0.000    0.000 
#    0.000    0.000    0.000    0.000    0.000    0.000 
#
# Total GULP energy -89211.905136 kJ/mol
# GULP energy per Si atom -5575.744071 kJ/mol
# Density = 1.819563 g / cm^3
# Si number density = 18.237142 Si / 1000 Ang^3
#
#
#
# Elastic Constant Matrix: (Units=GPa)
#
#
# Indices 1 2 3 4 5 6 
#
# 1 43.9802 28.2586 23.9515 -6.0725 4.4112 -10.3712
# 2 28.2586 74.3984 21.4905 -5.3102 3.2390 -2.3133
# 3 23.9515 21.4905 104.0271 7.7418 -7.0049 0.9855
# 4 -6.0725 -5.3102 7.7418 43.1981 -7.2076 7.1278
# 5 4.4112 3.2390 -7.0049 -7.2076 30.9880 -2.2758
# 6 -10.3712 -2.3133 0.9855 7.1278 -2.2758 22.2323
#
#
#
# Elastic Compliance Matrix: (Units=1/GPa)
#
#
# Indices 1 2 3 4 5 6 
#
# 1 0.038640 -0.011827 -0.007031 0.001879 -0.004236 0.016070
# 2 -0.011827 0.018256 -0.001143 0.001379 -0.000460 -0.004056
# 3 -0.007031 -0.001143 0.011870 -0.002269 0.003064 -0.002884
# 4 0.001879 0.001379 -0.002269 0.025862 0.004599 -0.006700
# 5 -0.004236 -0.000460 0.003064 0.004599 0.034678 -0.000084
# 6 0.016070 -0.004056 -0.002884 -0.006700 -0.000084 0.054321
#
#
# Mechanical properties :
#
#
# Convention : Reuss Voigt Hill
#
# Bulk Modulus (GPa) = 34.76633 41.08963 37.92798
# Shear Modulus (GPa) = 21.43915 29.19734 25.31825
#
# Velocity S-wave (km/s) = 3.43239 4.00557 3.73000
# Velocity P-wave (km/s) = 5.90027 6.63117 6.27637
#
# Compressibility (1/GPa) = 0.02876346
#
# Stress axis : x y z
#
# Youngs Moduli (GPa) = 25.88014 54.77603 84.24352
#
# Poissons Ratio (x) = 0.64786 0.59227
# Poissons Ratio (y) = 0.30609 0.09633
# Poissons Ratio (z) = 0.18195 0.06263
#
# Static dielectric constant tensor:
#      x y z
#    x 1.618640 -0.021090 0.028240 
#    y -0.021090 1.719410 -0.032230 
#    z 0.028240 -0.032230 1.679230 
# 
# From -- ./inp_files/257447.got.cif
#   From: 2010.05.17/outbox.cif.g08.bks.cpg/sg2_129_cif.got.tgz:257447.got - 2010.06.03 11:33:40.
