data_PCOD9098684
_publ_section_title
;
Structure prediction by ZEFSAII (Michael W. Deem and Ramdas Pophale) SiO2 
 PCOD9098684
Probable space group: P -1
;
_chemical_formula_sum "Si O2"
_cell_formula_units_Z 16
_cell_length_a 14.753124
_cell_length_b 8.574910
_cell_length_c 12.898363
_cell_angle_alpha 75.519231
_cell_angle_beta 30.187439
_cell_angle_gamma 84.217673
_cell_volume 771.780850
_symmetry_space_group_name_H-M "P -1"
_symmetry_group_IT_number 2
_symmetry_cell_setting 'triclinic'
loop_
_space_group_symop_operation_xyz
x,y,z
-x,-y,-z
loop_
_atom_site_type_symbol
_atom_site_label
_atom_site_fract_x
_atom_site_fract_y
_atom_site_fract_z
Si Si1 0.243344 0.912268 0.546598
Si Si2 0.565444 0.441861 0.836821
Si Si3 0.610018 0.728525 0.579110
Si Si4 0.101268 0.652144 0.565679
Si Si5 0.647669 0.177757 0.329012
Si Si6 0.012075 0.913794 0.330492
Si Si7 0.212006 0.174271 0.237742
Si Si8 0.019178 0.699901 0.173964
O O1 0.241886 0.795241 0.468390
O O2 0.272425 0.809020 0.636382
O O3 0.379303 0.094806 0.402183
O O4 0.044263 0.959268 0.717470
O O5 0.554277 0.578272 0.738921
O O6 0.772433 0.414812 0.631343
O O7 0.500000 0.500000 0.000000
O O8 0.415569 0.272394 0.993490
O O9 0.474633 0.705404 0.618637
O O10 0.820123 0.733952 0.336592
O O11 0.010361 0.497764 0.755586
O O12 0.938768 0.724630 0.666092
O O13 0.500000 0.000000 0.500000
O O14 0.821733 0.205618 0.074857
O O15 0.830830 0.854678 0.593043
O O16 0.060673 0.771261 0.237874
O O17 0.162190 0.005624 0.248894
#
# Coordination Sequence:
#
# PCOD9098684 Si02
#       8
#     2   2   2   2   2   2   2   2
#     4   9  19  38  55  78 113 143 184 232 270 321
#     4  11  22  37  59  85 115 146 180 226 274 327
#     4   9  20  37  56  83 113 145 185 225 273 330
#     4  10  22  37  58  84 112 146 183 225 277 329
#     4  10  21  35  58  82 107 146 189 228 274 326
#     4   9  20  37  58  81 113 148 183 227 274 326
#     4  10  20  38  58  83 114 147 183 223 273 329
#     4  10  20  37  56  81 113 144 182 230 275 323
#
# _framework density 20.731272000000001
#
# number of rings (size 3 to 8) (size 9 to 14) (size 15 to 20)
#    0.000    2.250    0.000    3.000    0.000   10.000 
#    0.000   12.500    0.000    0.000    0.000    0.000 
#    0.000    0.000    0.000    0.000    0.000    0.000 
#
# Total GULP energy -89165.878316 kJ/mol
# GULP energy per Si atom -5572.867395 kJ/mol
# Density = 2.068409 g / cm^3
# Si number density = 20.731272 Si / 1000 Ang^3
#
#
#
# Elastic Constant Matrix: (Units=GPa)
#
#
# Indices 1 2 3 4 5 6 
#
# 1 80.7757 -3.9723 15.6124 5.9637 6.3199 -13.7229
# 2 -3.9723 48.4958 6.1787 -4.6466 1.3471 -0.4744
# 3 15.6124 6.1787 112.6055 -15.6906 -5.7862 -5.8848
# 4 5.9637 -4.6466 -15.6906 20.3150 3.2066 -1.0011
# 5 6.3199 1.3471 -5.7862 3.2066 10.1430 -2.5838
# 6 -13.7229 -0.4744 -5.8848 -1.0011 -2.5838 21.2724
#
#
#
# Elastic Compliance Matrix: (Units=1/GPa)
#
#
# Indices 1 2 3 4 5 6 
#
# 1 0.015316 0.001460 -0.002851 -0.004735 -0.007842 0.007949
# 2 0.001460 0.021473 -0.000987 0.004641 -0.005617 0.000684
# 3 -0.002851 -0.000987 0.010904 0.008179 0.006124 0.002284
# 4 -0.004735 0.004641 0.008179 0.059883 -0.011753 0.000702
# 5 -0.007842 -0.005617 0.006124 -0.011753 0.113926 0.009795
# 6 0.007949 0.000684 0.002284 0.000702 0.009795 0.054007
#
#
# Mechanical properties :
#
#
# Convention : Reuss Voigt Hill
#
# Bulk Modulus (GPa) = 23.28997 30.83496 27.06247
# Shear Modulus (GPa) = 16.97346 25.28330 21.12838
#
# Velocity S-wave (km/s) = 2.86446 3.49603 3.19588
# Velocity P-wave (km/s) = 4.71156 5.58589 5.16725
#
# Compressibility (1/GPa) = 0.04293693
#
# Stress axis : x y z
#
# Youngs Moduli (GPa) = 65.28962 46.56999 91.71247
#
# Poissons Ratio (x) = -0.06798 0.26147
# Poissons Ratio (y) = -0.09531 0.09051
# Poissons Ratio (z) = 0.18614 0.04596
#
# Static dielectric constant tensor:
#      x y z
#    x 1.782830 0.007850 -0.010490 
#    y 0.007850 1.814760 -0.020300 
#    z -0.010490 -0.020300 1.729950 
# 
# From -- ./inp_files/216596.got.cif
#   From: 2010.05.17/outbox.cif.g08.bks.cpg/sg2_109_cif.got.tgz:216596.got - 2010.06.03 11:33:40.
