data_PCOD9098262
_publ_section_title
;
Structure prediction by ZEFSAII (Michael W. Deem and Ramdas Pophale) SiO2 
 PCOD9098262
Probable space group: P -1
;
_chemical_formula_sum "Si O2"
_cell_formula_units_Z 14
_cell_length_a 8.806570
_cell_length_b 17.919027
_cell_length_c 7.695977
_cell_angle_alpha 131.370825
_cell_angle_beta 91.172463
_cell_angle_gamma 53.890391
_cell_volume 584.183077
_symmetry_space_group_name_H-M "P -1"
_symmetry_group_IT_number 2
_symmetry_cell_setting 'triclinic'
loop_
_space_group_symop_operation_xyz
x,y,z
-x,-y,-z
loop_
_atom_site_type_symbol
_atom_site_label
_atom_site_fract_x
_atom_site_fract_y
_atom_site_fract_z
Si Si1 0.258654 0.684857 0.929019
Si Si2 0.407633 0.659105 0.229955
Si Si3 0.327036 0.071184 0.271731
Si Si4 0.735512 0.674543 0.287708
Si Si5 0.776265 0.483328 0.511165
Si Si6 0.923772 0.150136 0.189801
Si Si7 0.700689 0.737293 0.777405
O O1 0.543476 0.558212 0.716455
O O2 0.213473 0.589564 0.773623
O O3 0.121586 0.800112 0.936784
O O4 0.205317 0.756898 0.225992
O O5 0.572648 0.669363 0.198167
O O6 0.320029 0.719744 0.514785
O O7 0.500000 0.500000 0.000000
O O8 0.282089 0.198474 0.564065
O O9 0.099856 0.133856 0.275759
O O10 0.500000 0.000000 0.000000
O O11 0.493014 0.906914 0.118481
O O12 0.651818 0.723160 0.560926
O O13 0.000000 0.500000 0.000000
O O14 0.739123 0.618779 0.705116
O O15 0.045086 0.336879 0.357932
O O16 0.000000 0.000000 0.000000
#
# Coordination Sequence:
#
# PCOD9098262 Si02
#       7
#     2   2   2   2   2   2   2
#     4  11  22  40  64  97 131 166 216 268 327 391
#     4  12  25  41  66  98 130 170 220 270 324 390
#     4  10  21  39  64  91 125 173 218 263 326 388
#     4  11  21  37  61  91 129 170 214 265 322 387
#     4  10  20  36  64  93 126 165 211 272 326 387
#     4  12  25  44  68  95 134 175 215 271 330 389
#     4  10  20  38  62  90 122 167 217 262 324 388
#
# _framework density 23.965087
#
# number of rings (size 3 to 8) (size 9 to 14) (size 15 to 20)
#    0.000    1.143    0.000    9.429    0.000    0.571 
#    0.000    0.000    0.000   12.000    0.000    0.000 
#    0.000    0.000    0.000    0.000    0.000    0.000 
#
# Total GULP energy -78070.916994 kJ/mol
# GULP energy per Si atom -5576.494071 kJ/mol
# Density = 2.391054 g / cm^3
# Si number density = 23.965087 Si / 1000 Ang^3
#
#
#
# Elastic Constant Matrix: (Units=GPa)
#
#
# Indices 1 2 3 4 5 6 
#
# 1 141.5378 39.0220 39.9145 26.4896 37.2975 -15.2951
# 2 39.0220 106.2221 38.2872 18.6095 23.6366 -0.6422
# 3 39.9145 38.2872 113.3557 30.5946 44.3887 10.7234
# 4 26.4896 18.6095 30.5946 40.3654 8.8455 5.9718
# 5 37.2975 23.6366 44.3887 8.8455 43.1059 -0.3983
# 6 -15.2951 -0.6422 10.7234 5.9718 -0.3983 36.6844
#
#
#
# Elastic Compliance Matrix: (Units=1/GPa)
#
#
# Indices 1 2 3 4 5 6 
#
# 1 0.011215 -0.001439 0.001242 -0.006482 -0.008815 0.005247
# 2 -0.001439 0.011640 -0.001611 -0.002628 -0.002936 0.000471
# 3 0.001242 -0.001611 0.018845 -0.009972 -0.017584 -0.003587
# 4 -0.006482 -0.002628 -0.009972 0.036493 0.009778 -0.005668
# 5 -0.008815 -0.002936 -0.017584 0.009778 0.048540 0.000349
# 6 0.005247 0.000471 -0.003587 -0.005668 0.000349 0.031430
#
#
# Mechanical properties :
#
#
# Convention : Reuss Voigt Hill
#
# Bulk Modulus (GPa) = 26.25707 66.17366 46.21536
# Shear Modulus (GPa) = 28.65784 40.29061 34.47422
#
# Velocity S-wave (km/s) = 3.46181 4.10472 3.79690
# Velocity P-wave (km/s) = 5.19221 7.08078 6.20872
#
# Compressibility (1/GPa) = 0.03808499
#
# Stress axis : x y z
#
# Youngs Moduli (GPa) = 89.16809 85.91275 53.06484
#
# Poissons Ratio (x) = 0.12360 -0.06591
# Poissons Ratio (y) = 0.12828 0.08547
# Poissons Ratio (z) = -0.11076 0.13838
#
# Static dielectric constant tensor:
#      x y z
#    x 0.444850 -0.859260 -0.555600 
#    y -0.859260 1.570450 -0.241630 
#    z -0.555600 -0.241630 1.779160 
# 
# From -- ./inp_files/224245.got.cif
#   From: 2010.05.17/outbox.cif.g08.bks.cpg/sg2_113_cif.got.tgz:224245.got - 2010.06.03 11:33:40.
