data_PCOD9098948
_publ_section_title
;
Structure prediction by ZEFSAII (Michael W. Deem and Ramdas Pophale) SiO2 
 PCOD9098948
Probable space group: P -1
;
_chemical_formula_sum "Si O2"
_cell_formula_units_Z 16
_cell_length_a 9.520083
_cell_length_b 19.537569
_cell_length_c 9.712742
_cell_angle_alpha 139.015111
_cell_angle_beta 56.717886
_cell_angle_gamma 136.774696
_cell_volume 811.465239
_symmetry_space_group_name_H-M "P -1"
_symmetry_group_IT_number 2
_symmetry_cell_setting 'triclinic'
loop_
_space_group_symop_operation_xyz
x,y,z
-x,-y,-z
loop_
_atom_site_type_symbol
_atom_site_label
_atom_site_fract_x
_atom_site_fract_y
_atom_site_fract_z
Si Si1 0.477224 0.214663 0.194467
Si Si2 0.217531 0.100491 0.610442
Si Si3 0.916949 0.281222 0.135868
Si Si4 0.371491 0.413636 0.608622
Si Si5 0.326845 0.009711 0.178985
Si Si6 0.819905 0.897504 0.043267
Si Si7 0.804185 0.644443 0.666108
Si Si8 0.712274 0.636024 0.116333
O O1 0.709557 0.265960 0.182895
O O2 0.450602 0.328167 0.390675
O O3 0.327245 0.108509 0.227320
O O4 0.392110 0.149855 0.993675
O O5 0.361180 0.068721 0.402150
O O6 0.192417 0.073758 0.746688
O O7 0.289276 0.244557 0.756068
O O8 0.000000 0.000000 0.500000
O O9 0.013672 0.342774 0.325698
O O10 0.103087 0.358552 0.048178
O O11 0.860755 0.137489 0.944175
O O12 0.582653 0.552840 0.719687
O O13 0.233687 0.406544 0.546699
O O14 0.255647 0.356713 0.726267
O O15 0.500000 0.000000 0.000000
O O16 0.846057 0.782085 0.852007
O O17 0.000000 0.000000 0.000000
O O18 0.500000 0.500000 0.000000
#
# Coordination Sequence:
#
# PCOD9098948 Si02
#       8
#     2   2   2   2   2   2   2   2
#     4  10  22  38  60  89 125 162 203 259 317 373
#     4  12  21  37  65  93 118 168 217 256 309 376
#     4  11  21  38  58  88 127 157 199 264 317 361
#     4  10  21  37  61  86 116 162 213 248 300 376
#     4  10  21  38  57  87 125 160 204 261 314 369
#     4  11  22  37  63  93 125 161 212 261 312 372
#     4  10  20  37  58  87 119 156 208 255 299 367
#     4  12  22  38  63  92 124 162 213 256 308 380
#
# _framework density 19.717419
#
# number of rings (size 3 to 8) (size 9 to 14) (size 15 to 20)
#    0.000    1.250    5.000    1.500    1.750    0.500 
#    0.000    5.000    0.000    7.500    0.000    0.000 
#    0.000    0.000    0.000    0.000    0.000    0.000 
#
# Total GULP energy -89192.767904 kJ/mol
# GULP energy per Si atom -5574.547994 kJ/mol
# Density = 1.967254 g / cm^3
# Si number density = 19.717419 Si / 1000 Ang^3
#
#
#
# Elastic Constant Matrix: (Units=GPa)
#
#
# Indices 1 2 3 4 5 6 
#
# 1 119.0365 32.9189 42.3511 -17.1452 38.0254 9.5587
# 2 32.9189 125.4749 45.2622 -9.9218 15.1811 -4.5117
# 3 42.3511 45.2622 84.4662 -19.0405 26.1010 -2.6159
# 4 -17.1452 -9.9218 -19.0405 40.8535 -10.1130 4.7772
# 5 38.0254 15.1811 26.1010 -10.1130 35.8577 -2.4977
# 6 9.5587 -4.5117 -2.6159 4.7772 -2.4977 26.4153
#
#
#
# Elastic Compliance Matrix: (Units=1/GPa)
#
#
# Indices 1 2 3 4 5 6 
#
# 1 0.014809 -0.001577 -0.002156 0.002413 -0.013312 -0.007537
# 2 -0.001577 0.010089 -0.004987 -0.000515 0.001024 0.001990
# 3 -0.002156 -0.004987 0.019219 0.004782 -0.008230 0.000189
# 4 0.002413 -0.000515 0.004782 0.028705 0.001891 -0.005500
# 5 -0.013312 0.001024 -0.008230 0.001891 0.048683 0.008438
# 6 -0.007537 0.001990 0.000189 -0.005500 0.008438 0.042735
#
#
# Mechanical properties :
#
#
# Convention : Reuss Voigt Hill
#
# Bulk Modulus (GPa) = 37.48386 63.33801 50.41094
# Shear Modulus (GPa) = 26.23661 34.52166 30.37913
#
# Velocity S-wave (km/s) = 3.65174 4.18882 3.92947
# Velocity P-wave (km/s) = 6.06894 7.45571 6.79778
#
# Compressibility (1/GPa) = 0.02667815
#
# Stress axis : x y z
#
# Youngs Moduli (GPa) = 67.52575 99.11580 52.03093
#
# Poissons Ratio (x) = 0.15631 0.11219
# Poissons Ratio (y) = 0.10649 0.25946
# Poissons Ratio (z) = 0.14559 0.49425
#
# Static dielectric constant tensor:
#      x y z
#    x 1.741950 0.003330 0.020630 
#    y 0.003330 1.751020 -0.005410 
#    z 0.020630 -0.005410 1.737710 
# 
# From -- ./inp_files/215815.got.cif
#   From: 2010.05.17/outbox.cif.g08.bks.cpg/sg2_108_cif.got.tgz:215815.got - 2010.06.03 11:33:40.
