data_PCOD9098965
_publ_section_title
;
Structure prediction by ZEFSAII (Michael W. Deem and Ramdas Pophale) SiO2 
 PCOD9098965
Probable space group: P -1
;
_chemical_formula_sum "Si O2"
_cell_formula_units_Z 12
_cell_length_a 13.004872
_cell_length_b 7.938141
_cell_length_c 17.496676
_cell_angle_alpha 64.947898
_cell_angle_beta 23.928781
_cell_angle_gamma 81.808359
_cell_volume 495.335169
_symmetry_space_group_name_H-M "P -1"
_symmetry_group_IT_number 2
_symmetry_cell_setting 'triclinic'
loop_
_space_group_symop_operation_xyz
x,y,z
-x,-y,-z
loop_
_atom_site_type_symbol
_atom_site_label
_atom_site_fract_x
_atom_site_fract_y
_atom_site_fract_z
Si Si1 0.705224 0.469365 0.660556
Si Si2 0.231742 0.729647 0.697447
Si Si3 0.800221 0.654875 0.136360
Si Si4 0.471908 0.081734 0.694954
Si Si5 0.207824 0.962240 0.158501
Si Si6 0.214656 0.105819 0.410707
O O1 0.621029 0.610592 0.742195
O O2 0.000000 0.500000 0.500000
O O3 0.391928 0.172434 0.928286
O O4 0.903511 0.661164 0.416305
O O5 0.369297 0.593772 0.653485
O O6 0.236153 0.750453 0.599904
O O7 0.500000 0.000000 0.500000
O O8 0.891943 0.613038 0.998830
O O9 0.617502 0.761663 0.241096
O O10 0.147855 0.857541 0.908695
O O11 0.552951 0.960542 0.723829
O O12 0.042717 0.025744 0.317603
O O13 0.500000 0.000000 0.000000
O O14 0.000000 0.000000 0.500000
#
# Coordination Sequence:
#
# PCOD9098965 Si02
#       6
#     2   2   2   2   2   2
#     4   8  16  34  56  77 107 155 202 247 296 351
#     4   9  18  36  61  88 117 148 198 249 311 371
#     4   9  19  37  62  88 117 151 195 257 309 373
#     4  10  20  37  58  88 119 158 198 247 314 362
#     4   8  16  34  57  74 104 153 201 245 291 345
#     4  10  22  36  53  85 122 157 204 249 296 361
#
# _framework density 24.226019000000001
#
# number of rings (size 3 to 8) (size 9 to 14) (size 15 to 20)
#    1.000    2.000    0.000    0.500    0.000    2.000 
#    3.000    5.000    0.000    0.000    0.000    0.000 
#    0.000    0.000    0.000    0.000    0.000    0.000 
#
# Total GULP energy -66902.787185 kJ/mol
# GULP energy per Si atom -5575.232265 kJ/mol
# Density = 2.417088 g / cm^3
# Si number density = 24.226019 Si / 1000 Ang^3
#
#
#
# Elastic Constant Matrix: (Units=GPa)
#
#
# Indices 1 2 3 4 5 6 
#
# 1 111.8039 62.5605 25.3298 0.2789 -0.6801 -17.2952
# 2 62.5605 208.2681 50.8057 2.0995 0.8847 -37.6571
# 3 25.3298 50.8057 86.4562 -29.3823 7.5201 -5.2816
# 4 0.2789 2.0995 -29.3823 59.2958 -9.4070 -0.8863
# 5 -0.6801 0.8847 7.5201 -9.4070 24.0816 -4.4770
# 6 -17.2952 -37.6571 -5.2816 -0.8863 -4.4770 34.6669
#
#
#
# Elastic Compliance Matrix: (Units=1/GPa)
#
#
# Indices 1 2 3 4 5 6 
#
# 1 0.011175 -0.002319 -0.002108 -0.000767 0.001296 0.002883
# 2 -0.002319 0.007792 -0.004315 -0.002072 0.001447 0.006784
# 3 -0.002108 -0.004315 0.017622 0.008417 -0.002709 -0.003189
# 4 -0.000767 -0.002072 0.008417 0.022072 0.006047 -0.000006
# 5 0.001296 0.001447 -0.002709 0.006047 0.046190 0.007926
# 6 0.002883 0.006784 -0.003189 -0.000006 0.007926 0.038191
#
#
# Mechanical properties :
#
#
# Convention : Reuss Voigt Hill
#
# Bulk Modulus (GPa) = 52.34718 75.99116 64.16917
# Shear Modulus (GPa) = 29.95896 41.46432 35.71164
#
# Velocity S-wave (km/s) = 3.52041 4.14159 3.84357
# Velocity P-wave (km/s) = 6.17893 7.36926 6.80019
#
# Compressibility (1/GPa) = 0.01910323
#
# Stress axis : x y z
#
# Youngs Moduli (GPa) = 89.48310 128.33444 56.74879
#
# Poissons Ratio (x) = 0.29762 0.11965
# Poissons Ratio (y) = 0.20752 0.24489
# Poissons Ratio (z) = 0.18867 0.55381
#
# Static dielectric constant tensor:
#      x y z
#    x 1.883780 -0.031050 -0.007130 
#    y -0.031050 1.907870 0.001070 
#    z -0.007130 0.001070 2.018310 
# 
# From -- ./inp_files/131663.got.cif
#   From: 2010.05.17/outbox.cif.g08.bks.cpg/sg2_66_cif.got.tgz:131663.got - 2010.06.03 11:33:40.
