data_PCOD9098818
_publ_section_title
;
Structure prediction by ZEFSAII (Michael W. Deem and Ramdas Pophale) SiO2 
 PCOD9098818
Probable space group: P -1
;
_chemical_formula_sum "Si O2"
_cell_formula_units_Z 14
_cell_length_a 8.501434
_cell_length_b 7.885427
_cell_length_c 16.021837
_cell_angle_alpha 61.096903
_cell_angle_beta 46.783994
_cell_angle_gamma 85.414706
_cell_volume 629.985207
_symmetry_space_group_name_H-M "P -1"
_symmetry_group_IT_number 2
_symmetry_cell_setting 'triclinic'
loop_
_space_group_symop_operation_xyz
x,y,z
-x,-y,-z
loop_
_atom_site_type_symbol
_atom_site_label
_atom_site_fract_x
_atom_site_fract_y
_atom_site_fract_z
Si Si1 0.462350 0.387735 0.265993
Si Si2 0.732171 0.412737 0.506175
Si Si3 0.993519 0.193693 0.576611
Si Si4 0.537062 0.778365 0.048108
Si Si5 0.458157 0.186627 0.142035
Si Si6 0.852286 0.058399 0.973554
Si Si7 0.734810 0.524341 0.299167
O O1 0.523643 0.308799 0.175595
O O2 0.659343 0.434131 0.255044
O O3 0.222132 0.222329 0.432247
O O4 0.417691 0.597421 0.203361
O O5 0.832763 0.273775 0.557151
O O6 0.730933 0.381265 0.414500
O O7 0.467458 0.386017 0.630390
O O8 0.899112 0.650396 0.420492
O O9 0.817539 0.962941 0.721461
O O10 0.495500 0.689698 0.991939
O O11 0.800718 0.886610 0.960197
O O12 0.500000 0.000000 0.000000
O O13 0.616371 0.050066 0.105944
O O14 0.007330 0.294270 0.834328
O O15 0.000000 0.000000 0.000000
#
# Coordination Sequence:
#
# PCOD9098818 Si02
#       7
#     2   2   2   2   2   2   2
#     4  11  23  41  59  88 126 158 196 248 304 362
#     4   9  20  35  63  89 114 153 206 254 287 344
#     4  10  21  37  64  86 118 155 209 244 294 346
#     4  10  23  39  62  89 115 155 208 249 292 351
#     4  11  24  39  60  89 125 160 194 247 307 353
#     4  11  21  37  61  85 121 151 204 246 290 352
#     4  10  20  37  57  88 122 153 196 245 304 349
#
# _framework density 22.222745
#
# number of rings (size 3 to 8) (size 9 to 14) (size 15 to 20)
#    0.000    1.714    1.429    2.571   14.000    0.571 
#    0.000    0.714    0.000    0.000    0.000    0.000 
#    0.000    0.000    0.000    0.000    0.000    0.000 
#
# Total GULP energy -77998.560218 kJ/mol
# GULP energy per Si atom -5571.325730 kJ/mol
# Density = 2.217216 g / cm^3
# Si number density = 22.222745 Si / 1000 Ang^3
#
#
#
# Elastic Constant Matrix: (Units=GPa)
#
#
# Indices 1 2 3 4 5 6 
#
# 1 89.1351 12.4775 29.4318 22.4736 23.1074 21.4589
# 2 12.4775 52.4246 5.6425 22.7091 10.4931 16.6801
# 3 29.4318 5.6425 78.6365 6.7163 -0.9029 15.3429
# 4 22.4736 22.7091 6.7163 21.9399 12.9658 13.8925
# 5 23.1074 10.4931 -0.9029 12.9658 41.8690 6.1785
# 6 21.4589 16.6801 15.3429 13.8925 6.1785 26.5132
#
#
#
# Elastic Compliance Matrix: (Units=1/GPa)
#
#
# Indices 1 2 3 4 5 6 
#
# 1 0.019625 0.006974 -0.005123 -0.018058 -0.006151 -0.006411
# 2 0.006974 0.037840 -0.000273 -0.041920 0.000751 -0.007502
# 3 -0.005123 -0.000273 0.015844 0.003448 0.003264 -0.007418
# 4 -0.018058 -0.041920 0.003448 0.133438 -0.016790 -0.027014
# 5 -0.006151 0.000751 0.003264 -0.016790 0.031769 0.004012
# 6 -0.006411 -0.007502 -0.007418 -0.027014 0.004012 0.065139
#
#
# Mechanical properties :
#
#
# Convention : Reuss Voigt Hill
#
# Bulk Modulus (GPa) = 13.07771 35.03330 24.05550
# Shear Modulus (GPa) = 15.33801 29.57403 22.45602
#
# Velocity S-wave (km/s) = 2.63001 3.65197 3.18228
# Velocity P-wave (km/s) = 3.88847 5.79494 4.93465
#
# Compressibility (1/GPa) = 0.07646601
#
# Stress axis : x y z
#
# Youngs Moduli (GPa) = 50.95420 26.42700 63.11484
#
# Poissons Ratio (x) = -0.18430 0.32334
# Poissons Ratio (y) = -0.35535 0.01720
# Poissons Ratio (z) = 0.26104 0.00720
#
# Static dielectric constant tensor:
#      x y z
#    x 1.558880 -0.082290 0.058140 
#    y -0.082290 1.881180 -0.035960 
#    z 0.058140 -0.035960 1.980280 
# 
# From -- ./inp_files/154589.got.cif
#   From: 2010.05.17/outbox.cif.g08.bks.cpg/sg2_78_cif.got.tgz:154589.got - 2010.06.03 11:33:40.
