data_PCOD9098115
_publ_section_title
;
Structure prediction by ZEFSAII (Michael W. Deem and Ramdas Pophale) SiO2 
 PCOD9098115
Probable space group: P -1
;
_chemical_formula_sum "Si O2"
_cell_formula_units_Z 16
_cell_length_a 7.903157
_cell_length_b 17.278309
_cell_length_c 10.994273
_cell_angle_alpha 149.121661
_cell_angle_beta 122.541345
_cell_angle_gamma 55.459890
_cell_volume 629.990223
_symmetry_space_group_name_H-M "P -1"
_symmetry_group_IT_number 2
_symmetry_cell_setting 'triclinic'
loop_
_space_group_symop_operation_xyz
x,y,z
-x,-y,-z
loop_
_atom_site_type_symbol
_atom_site_label
_atom_site_fract_x
_atom_site_fract_y
_atom_site_fract_z
Si Si1 0.762566 0.598773 0.186867
Si Si2 0.018000 0.339347 0.080373
Si Si3 0.154556 0.661124 0.330201
Si Si4 0.453455 0.890587 0.728216
Si Si5 0.527120 0.572091 0.738346
Si Si6 0.638075 0.203281 0.826671
Si Si7 0.791349 0.942678 0.367305
Si Si8 0.224145 0.383794 0.448837
O O1 0.530571 0.697717 0.202103
O O2 0.872272 0.514617 0.238763
O O3 0.914346 0.697537 0.321700
O O4 0.784552 0.438030 0.902577
O O5 0.214475 0.314781 0.213909
O O6 0.120867 0.239380 0.868375
O O7 0.854852 0.251653 0.957995
O O8 0.275807 0.797234 0.567959
O O9 0.241957 0.520395 0.268611
O O10 0.672975 0.763806 0.627509
O O11 0.370423 0.983826 0.701229
O O12 0.500000 0.000000 0.000000
O O13 0.500000 0.500000 0.500000
O O14 0.389375 0.486324 0.652653
O O15 0.453301 0.743819 0.001823
O O16 0.696288 0.023829 0.564780
O O17 0.000000 0.000000 0.500000
O O18 0.000000 0.500000 0.500000
#
# Coordination Sequence:
#
# PCOD9098115 Si02
#       8
#     2   2   2   2   2   2   2   2
#     4  10  20  36  63  95 131 169 222 279 335 389
#     4  11  20  36  61  98 131 169 218 278 335 392
#     4   9  20  37  60  92 126 174 218 269 340 400
#     4  11  22  41  66  96 132 177 222 276 335 397
#     4  10  20  37  59  90 134 166 212 280 344 392
#     4  10  21  36  61  95 130 168 234 274 326 402
#     4  10  22  39  63  97 133 175 218 278 335 397
#     4  11  22  36  61  98 129 161 227 273 330 391
#
# _framework density 25.397219
#
# number of rings (size 3 to 8) (size 9 to 14) (size 15 to 20)
#    0.000    1.750    2.500    2.625    1.750    0.000 
#    0.000    0.000    0.000   32.250    0.000    2.625 
#    0.000    0.000    0.000    0.000    0.000    0.000 
#
# Total GULP energy -89119.553251 kJ/mol
# GULP energy per Si atom -5569.972078 kJ/mol
# Density = 2.533941 g / cm^3
# Si number density = 25.397219 Si / 1000 Ang^3
#
#
#
# Elastic Constant Matrix: (Units=GPa)
#
#
# Indices 1 2 3 4 5 6 
#
# 1 92.9417 -6.2008 26.4544 12.0040 14.8184 -18.4668
# 2 -6.2008 158.9810 41.2044 0.0918 -9.8737 -17.8778
# 3 26.4544 41.2044 108.5649 30.2238 -5.3682 -28.6413
# 4 12.0040 0.0918 30.2238 43.0937 -14.1936 0.7388
# 5 14.8184 -9.8737 -5.3682 -14.1936 57.3142 2.6019
# 6 -18.4668 -17.8778 -28.6413 0.7388 2.6019 28.4816
#
#
#
# Elastic Compliance Matrix: (Units=1/GPa)
#
#
# Indices 1 2 3 4 5 6 
#
# 1 0.014777 0.001415 0.000458 -0.006508 -0.005673 0.011617
# 2 0.001415 0.007471 -0.003074 0.002045 0.001032 0.002369
# 3 0.000458 -0.003074 0.019061 -0.014917 -0.003385 0.018232
# 4 -0.006508 0.002045 -0.014917 0.039554 0.011341 -0.019999
# 5 -0.005673 0.001032 -0.003385 0.011341 0.021980 -0.008736
# 6 0.011617 0.002369 0.018232 -0.019999 -0.008736 0.063781
#
#
# Mechanical properties :
#
#
# Convention : Reuss Voigt Hill
#
# Bulk Modulus (GPa) = 25.70098 53.71152 39.70625
# Shear Modulus (GPa) = 27.47335 45.71322 36.59329
#
# Velocity S-wave (km/s) = 3.29256 4.24716 3.79996
# Velocity P-wave (km/s) = 4.95945 6.72649 5.90939
#
# Compressibility (1/GPa) = 0.03890902
#
# Stress axis : x y z
#
# Youngs Moduli (GPa) = 67.67428 133.84653 52.46186
#
# Poissons Ratio (x) = -0.18944 -0.02404
# Poissons Ratio (y) = -0.09579 0.16126
# Poissons Ratio (z) = -0.03101 0.41142
#
# Static dielectric constant tensor:
#      x y z
#    x 2.199310 0.190640 -0.313570 
#    y 0.190640 2.574770 -0.575690 
#    z -0.313570 -0.575690 2.771090 
# 
# From -- ./inp_files/405158.got.cif
#   From: 2010.05.17/outbox.cif.g08.bks.cpg/sg2_203_cif.got.tgz:405158.got - 2010.06.03 11:33:40.
