data_PCOD9098547
_publ_section_title
;
Structure prediction by ZEFSAII (Michael W. Deem and Ramdas Pophale) SiO2 
 PCOD9098547
Probable space group: P -1
;
_chemical_formula_sum "Si O2"
_cell_formula_units_Z 15
_cell_length_a 8.859409
_cell_length_b 12.634434
_cell_length_c 16.124263
_cell_angle_alpha 50.507831
_cell_angle_beta 127.269809
_cell_angle_gamma 87.067480
_cell_volume 780.064562
_symmetry_space_group_name_H-M "P -1"
_symmetry_group_IT_number 2
_symmetry_cell_setting 'triclinic'
loop_
_space_group_symop_operation_xyz
x,y,z
-x,-y,-z
loop_
_atom_site_type_symbol
_atom_site_label
_atom_site_fract_x
_atom_site_fract_y
_atom_site_fract_z
Si Si1 0.285033 0.621655 0.996276
Si Si2 0.496284 0.987320 0.905994
Si Si3 0.929576 0.439838 0.728783
Si Si4 0.149974 0.605332 0.784597
Si Si5 0.283685 0.389057 0.605734
Si Si6 0.999015 0.041940 0.676072
Si Si7 0.534863 0.526824 0.690301
Si Si8 0.000000 0.000000 0.500000
O O1 0.185559 0.575840 0.910907
O O2 0.077429 0.851190 0.829721
O O3 0.555024 0.551407 0.081959
O O4 0.358939 0.511706 0.161335
O O5 0.444286 0.164662 0.763508
O O6 0.247287 0.016940 0.786500
O O7 0.776330 0.778701 0.073755
O O8 0.500000 0.000000 0.000000
O O9 0.782476 0.513898 0.554209
O O10 0.757098 0.452131 0.734588
O O11 0.973750 0.574471 0.704199
O O12 0.039937 0.812979 0.626184
O O13 0.440723 0.418692 0.698744
O O14 0.000000 0.500000 0.500000
O O15 0.728942 0.243802 0.523456
O O16 0.963489 0.047847 0.562963
#
# Coordination Sequence:
#
# PCOD9098547 Si02
#       8
#     2   2   2   2   2   2   2   1
#     4  10  21  39  66  90 123 165 213 251 300 375
#     4  12  23  39  67  93 118 164 217 256 300 370
#     4  12  26  42  62  97 131 160 201 266 322 365
#     4  10  20  40  65  96 120 163 215 257 297 369
#     4  12  23  41  67  92 121 168 217 256 299 373
#     4  11  21  38  65  92 120 166 212 252 304 367
#     4  12  25  41  62  94 135 161 200 264 324 362
#     4  10  20  36  68  96 116 162 218 258 288 366
#
# _framework density 19.229177
#
# number of rings (size 3 to 8) (size 9 to 14) (size 15 to 20)
#    0.000    0.800    5.333    2.800    0.000    2.133 
#    0.000    2.667    0.000    0.000    0.000    0.000 
#    0.000    0.000    0.000    0.000    0.000    0.000 
#
# Total GULP energy -83586.339771 kJ/mol
# GULP energy per Si atom -5572.422651 kJ/mol
# Density = 1.918541 g / cm^3
# Si number density = 19.229177 Si / 1000 Ang^3
#
#
#
# Elastic Constant Matrix: (Units=GPa)
#
#
# Indices 1 2 3 4 5 6 
#
# 1 66.2915 29.5266 34.5274 -11.6941 2.0435 -20.4155
# 2 29.5266 88.6495 29.2561 -15.2571 5.7351 -6.0672
# 3 34.5274 29.2561 77.0460 -19.5616 -6.7249 -18.1771
# 4 -11.6941 -15.2571 -19.5616 26.9197 -2.6868 -0.2983
# 5 2.0435 5.7351 -6.7249 -2.6868 26.4563 0.4991
# 6 -20.4155 -6.0672 -18.1771 -0.2983 0.4991 20.5518
#
#
#
# Elastic Compliance Matrix: (Units=1/GPa)
#
#
# Indices 1 2 3 4 5 6 
#
# 1 0.027414 -0.005213 -0.003388 0.006584 -0.001611 0.022831
# 2 -0.005213 0.014703 -0.003730 0.002979 -0.003354 -0.004012
# 3 -0.003388 -0.003730 0.024665 0.015386 0.008575 0.017363
# 4 0.006584 0.002979 0.015386 0.053897 0.007822 0.021621
# 5 -0.001611 -0.003354 0.008575 0.007822 0.041546 0.004098
# 6 0.022831 -0.004012 0.017363 0.021621 0.004098 0.085724
#
#
# Mechanical properties :
#
#
# Convention : Reuss Voigt Hill
#
# Bulk Modulus (GPa) = 23.74162 46.51193 35.12678
# Shear Modulus (GPa) = 17.44286 24.03070 20.73678
#
# Velocity S-wave (km/s) = 3.01508 3.53894 3.28747
# Velocity P-wave (km/s) = 4.94919 6.39840 5.71988
#
# Compressibility (1/GPa) = 0.04212012
#
# Stress axis : x y z
#
# Youngs Moduli (GPa) = 36.47819 68.01517 40.54277
#
# Poissons Ratio (x) = 0.35453 0.13737
# Poissons Ratio (y) = 0.19014 0.15122
# Poissons Ratio (z) = 0.12360 0.25369
#
# Static dielectric constant tensor:
#      x y z
#    x 1.620640 0.006790 -0.012720 
#    y 0.006790 1.653030 -0.004030 
#    z -0.012720 -0.004030 1.693470 
# 
# From -- ./inp_files/179639.got.cif
#   From: 2010.05.17/outbox.cif.g08.bks.cpg/sg2_90_cif.got.tgz:179639.got - 2010.06.03 11:33:40.
