data_PCOD9098161
_publ_section_title
;
Structure prediction by ZEFSAII (Michael W. Deem and Ramdas Pophale) SiO2 
 PCOD9098161
Probable space group: P -1
;
_chemical_formula_sum "Si O2"
_cell_formula_units_Z 13
_cell_length_a 13.977445
_cell_length_b 8.998932
_cell_length_c 9.445081
_cell_angle_alpha 134.126325
_cell_angle_beta 129.646751
_cell_angle_gamma 44.627902
_cell_volume 574.635694
_symmetry_space_group_name_H-M "P -1"
_symmetry_group_IT_number 2
_symmetry_cell_setting 'triclinic'
loop_
_space_group_symop_operation_xyz
x,y,z
-x,-y,-z
loop_
_atom_site_type_symbol
_atom_site_label
_atom_site_fract_x
_atom_site_fract_y
_atom_site_fract_z
Si Si1 0.349414 0.800728 0.970037
Si Si2 0.064353 0.319296 0.608364
Si Si3 0.221373 0.447166 0.645217
Si Si4 0.577846 0.331177 0.744933
Si Si5 0.500000 0.000000 0.500000
Si Si6 0.082132 0.218844 0.874082
Si Si7 0.098636 0.917492 0.177961
O O1 0.265592 0.652502 0.818712
O O2 0.483939 0.606869 0.879761
O O3 0.241062 0.052155 0.971714
O O4 0.400945 0.829015 0.194169
O O5 0.154922 0.447279 0.736981
O O6 0.093648 0.185443 0.694140
O O7 0.897845 0.492104 0.547013
O O8 0.100056 0.144484 0.394861
O O9 0.353085 0.199556 0.569716
O O10 0.734328 0.265281 0.802096
O O11 0.492046 0.217378 0.515279
O O12 0.982542 0.148023 0.823232
O O13 0.000000 0.500000 0.000000
O O14 0.000000 0.000000 0.000000
#
# Coordination Sequence:
#
# PCOD9098161 Si02
#       7
#     2   2   2   2   1   2   2
#     4  10  22  42  65  93 135 168 220 271 334 388
#     4  11  24  41  65  99 136 171 219 280 328 390
#     4  10  21  38  68  94 128 173 220 265 328 400
#     4  10  21  40  70  97 127 170 221 273 322 403
#     4  10  20  36  64 104 118 166 224 268 320 394
#     4  12  28  41  64  99 137 177 223 277 330 386
#     4  12  23  44  72  99 129 174 227 270 333 398
#
# _framework density 22.623027
#
# number of rings (size 3 to 8) (size 9 to 14) (size 15 to 20)
#    0.000    1.231    4.615    0.462    8.615    0.000 
#    0.000    3.077    0.000    0.000    0.000    0.000 
#    0.000    0.000    0.000    0.000    0.000    0.000 
#
# Total GULP energy -72374.808358 kJ/mol
# GULP energy per Si atom -5567.292951 kJ/mol
# Density = 2.257154 g / cm^3
# Si number density = 22.623027 Si / 1000 Ang^3
#
#
#
# Elastic Constant Matrix: (Units=GPa)
#
#
# Indices 1 2 3 4 5 6 
#
# 1 119.2270 38.0335 22.3407 -26.4894 4.5076 -21.0197
# 2 38.0335 129.4055 21.4599 -3.2091 -10.6489 -20.6577
# 3 22.3407 21.4599 53.0897 -1.3950 -4.2239 1.5550
# 4 -26.4894 -3.2091 -1.3950 39.2788 3.6072 -4.2480
# 5 4.5076 -10.6489 -4.2239 3.6072 25.1157 2.4693
# 6 -21.0197 -20.6577 1.5550 -4.2480 2.4693 43.2275
#
#
#
# Elastic Compliance Matrix: (Units=1/GPa)
#
#
# Indices 1 2 3 4 5 6 
#
# 1 0.014012 -0.002342 -0.005417 0.010465 -0.006639 0.007297
# 2 -0.002342 0.009692 -0.002743 -0.000886 0.003873 0.003283
# 3 -0.005417 -0.002743 0.022653 -0.004096 0.004741 -0.005433
# 4 0.010465 -0.000886 -0.004096 0.034031 -0.008681 0.008653
# 5 -0.006639 0.003873 0.004741 -0.008681 0.045183 -0.004982
# 6 0.007297 0.003283 -0.005433 0.008653 -0.004982 0.029581
#
#
# Mechanical properties :
#
#
# Convention : Reuss Voigt Hill
#
# Bulk Modulus (GPa) = 39.44355 51.71006 45.57680
# Shear Modulus (GPa) = 27.08457 36.18359 31.63408
#
# Velocity S-wave (km/s) = 3.46383 4.00361 3.74346
# Velocity P-wave (km/s) = 5.78537 6.65422 6.23495
#
# Compressibility (1/GPa) = 0.02535269
#
# Stress axis : x y z
#
# Youngs Moduli (GPa) = 71.36851 103.18057 44.14409
#
# Poissons Ratio (x) = 0.24165 0.23911
# Poissons Ratio (y) = 0.16714 0.12110
# Poissons Ratio (z) = 0.38657 0.28306
#
# Static dielectric constant tensor:
#      x y z
#    x 1.855840 0.050170 -0.384100 
#    y 0.050170 1.888440 -0.010810 
#    z -0.384100 -0.010810 0.684160 
# 
# From -- ./inp_files/236011.got.cif
#   From: 2010.05.17/outbox.cif.g08.bks.cpg/sg2_119_cif.got.tgz:236011.got - 2010.06.03 11:33:40.
