data_PCOD9098236
_publ_section_title
;
Structure prediction by ZEFSAII (Michael W. Deem and Ramdas Pophale) SiO2 
 PCOD9098236
Probable space group: P -1
;
_chemical_formula_sum "Si O2"
_cell_formula_units_Z 16
_cell_length_a 13.585551
_cell_length_b 11.545415
_cell_length_c 8.017374
_cell_angle_alpha 83.067277
_cell_angle_beta 133.620584
_cell_angle_gamma 128.090871
_cell_volume 605.263128
_symmetry_space_group_name_H-M "P -1"
_symmetry_group_IT_number 2
_symmetry_cell_setting 'triclinic'
loop_
_space_group_symop_operation_xyz
x,y,z
-x,-y,-z
loop_
_atom_site_type_symbol
_atom_site_label
_atom_site_fract_x
_atom_site_fract_y
_atom_site_fract_z
Si Si1 0.294558 0.291282 0.249575
Si Si2 0.213088 0.384529 0.582367
Si Si3 0.371906 0.879129 0.530471
Si Si4 0.123773 0.755767 0.568989
Si Si5 0.767551 0.375277 0.048397
Si Si6 0.411849 0.215806 0.076883
Si Si7 0.072390 0.374416 0.063940
Si Si8 0.666030 0.791942 0.351574
O O1 0.500000 0.500000 0.500000
O O2 0.323972 0.236105 0.124382
O O3 0.130397 0.290657 0.050971
O O4 0.243588 0.167998 0.362301
O O5 0.391406 0.587937 0.791171
O O6 0.107873 0.368745 0.297660
O O7 0.318543 0.332381 0.666453
O O8 0.044922 0.266145 0.547908
O O9 0.296432 0.898097 0.610694
O O10 0.494148 0.845382 0.743713
O O11 0.500000 0.000000 0.500000
O O12 0.152798 0.732067 0.215855
O O13 0.222404 0.747262 0.840972
O O14 0.967607 0.565482 0.327249
O O15 0.786901 0.431347 0.870865
O O16 0.552933 0.293641 0.856028
O O17 0.269077 0.107939 0.766626
#
# Coordination Sequence:
#
# PCOD9098236 Si02
#       8
#     2   2   2   2   2   2   2   2
#     4  11  21  35  57 101 132 154 184 243 325 383
#     4  11  20  32  59 100 120 152 181 241 342 364
#     4  11  26  45  59  79 116 172 223 251 282 348
#     4  10  20  32  54  82 113 149 205 241 292 356
#     4  10  16  31  50  84 120 149 180 242 302 355
#     4  12  21  37  65  92 127 163 195 244 317 369
#     4  10  21  37  59  88 134 149 191 259 298 372
#     4  11  20  32  56  96 136 148 183 239 311 400
#
# _framework density 26.434782999999999
#
# number of rings (size 3 to 8) (size 9 to 14) (size 15 to 20)
#    0.000    1.250    6.250    1.875    3.500    3.000 
#    0.000    1.250    0.000    1.500    0.000    0.000 
#    0.000    0.000    0.000    0.000    0.000    0.000 
#
# Total GULP energy -89339.810924 kJ/mol
# GULP energy per Si atom -5583.738183 kJ/mol
# Density = 2.637462 g / cm^3
# Si number density = 26.434783 Si / 1000 Ang^3
#
#
#
# Elastic Constant Matrix: (Units=GPa)
#
#
# Indices 1 2 3 4 5 6 
#
# 1 172.6949 81.0945 55.3988 -7.8651 15.6838 46.2375
# 2 81.0945 68.2633 49.8009 17.0081 -5.8785 41.1894
# 3 55.3988 49.8009 88.5604 -63.9597 -4.4949 -3.3846
# 4 -7.8651 17.0081 -63.9597 17.5717 5.3581 -19.6938
# 5 15.6838 -5.8785 -4.4949 5.3581 35.3704 -6.5249
# 6 46.2375 41.1894 -3.3846 -19.6938 -6.5249 21.6026
#
#
#
# Elastic Compliance Matrix: (Units=1/GPa)
#
#
# Indices 1 2 3 4 5 6 
#
# 1 0.017752 -0.013795 -0.002049 0.003418 -0.013326 -0.012924
# 2 -0.013795 0.017957 0.007406 0.011068 0.010136 0.009599
# 3 -0.002049 0.007406 0.004992 -0.004153 0.001115 -0.012401
# 4 0.003418 0.011068 -0.004153 0.007502 -0.005762 -0.023971
# 5 -0.013326 0.010136 0.001115 -0.005762 0.039861 0.016158
# 6 -0.012924 0.009599 -0.012401 -0.023971 0.016158 0.036735
#
#
# Mechanical properties :
#
#
# Convention : Reuss Voigt Hill
#
# Bulk Modulus (GPa) = 41.97161 78.01189 59.99175
# Shear Modulus (GPa) = 33.41860 24.45723 28.93791
#
# Velocity S-wave (km/s) = 3.55940 3.04500 3.31220
# Velocity P-wave (km/s) = 5.72751 6.47594 6.11319
#
# Compressibility (1/GPa) = 0.02382563
#
# Stress axis : x y z
#
# Youngs Moduli (GPa) = 56.33233 55.68739 200.30388
#
# Poissons Ratio (x) = 0.76819 0.41048
# Poissons Ratio (y) = 0.77708 -1.48344
# Poissons Ratio (z) = 0.11544 -0.41242
#
# Static dielectric constant tensor:
#      x y z
#    x 2.212610 -0.007850 -0.084850 
#    y -0.007850 2.140050 -0.029240 
#    z -0.084850 -0.029240 2.115890 
# 
# From -- ./inp_files/312898.got.cif
#   From: 2010.05.17/outbox.cif.g08.bks.cpg/sg2_157_cif.got.tgz:312898.got - 2010.06.03 11:33:40.
