data_PCOD9098430
_publ_section_title
;
Structure prediction by ZEFSAII (Michael W. Deem and Ramdas Pophale) SiO2 
 PCOD9098430
Probable space group: P -1
;
_chemical_formula_sum "Si O2"
_cell_formula_units_Z 16
_cell_length_a 16.750421
_cell_length_b 9.147886
_cell_length_c 11.767187
_cell_angle_alpha 148.207350
_cell_angle_beta 47.658548
_cell_angle_gamma 119.942257
_cell_volume 689.581770
_symmetry_space_group_name_H-M "P -1"
_symmetry_group_IT_number 2
_symmetry_cell_setting 'triclinic'
loop_
_space_group_symop_operation_xyz
x,y,z
-x,-y,-z
loop_
_atom_site_type_symbol
_atom_site_label
_atom_site_fract_x
_atom_site_fract_y
_atom_site_fract_z
Si Si1 0.303278 0.667151 0.607990
Si Si2 0.173434 0.394624 0.730040
Si Si3 0.491688 0.215037 0.385552
Si Si4 0.522238 0.572504 0.895960
Si Si5 0.044208 0.527085 0.160898
Si Si6 0.341124 0.302771 0.783473
Si Si7 0.840732 0.234515 0.614668
Si Si8 0.171747 0.932652 0.724053
O O1 0.268398 0.486126 0.625071
O O2 0.392745 0.841040 0.688850
O O3 0.364674 0.487031 0.324293
O O4 0.189114 0.828754 0.767466
O O5 0.068967 0.440430 0.774898
O O6 0.189807 0.067732 0.533283
O O7 0.132432 0.554379 0.993303
O O8 0.500000 0.500000 0.500000
O O9 0.377391 0.313116 0.626602
O O10 0.483525 0.910904 0.139795
O O11 0.452787 0.355572 0.765416
O O12 0.500000 0.500000 0.000000
O O13 0.051693 0.740479 0.398184
O O14 0.082086 0.215281 0.973780
O O15 0.291448 0.021963 0.652771
O O16 0.251549 0.532001 0.084637
O O17 0.845931 0.270277 0.497414
#
# Coordination Sequence:
#
# PCOD9098430 Si02
#       8
#     2   2   2   2   2   2   2   2
#     4  11  25  38  62  93 127 159 209 261 311 364
#     4  10  22  39  62  93 124 157 206 260 315 370
#     4  11  26  38  59  91 133 161 206 263 317 362
#     4  11  23  41  61  86 126 171 209 248 309 378
#     4   9  21  41  64  88 121 165 204 254 317 373
#     4  10  21  36  62  83 118 165 207 244 302 370
#     4  10  20  36  66  86 120 163 212 247 310 376
#     4  10  21  40  61  92 120 164 208 254 307 379
#
# _framework density 23.202468
#
# number of rings (size 3 to 8) (size 9 to 14) (size 15 to 20)
#    0.000    1.750    0.000    3.375    8.750    4.500 
#    0.000    0.625    0.000    0.000    0.000    0.000 
#    0.000    0.000    0.000    0.000    0.000    0.000 
#
# Total GULP energy -89121.614298 kJ/mol
# GULP energy per Si atom -5570.100894 kJ/mol
# Density = 2.314966 g / cm^3
# Si number density = 23.202468 Si / 1000 Ang^3
#
#
#
# Elastic Constant Matrix: (Units=GPa)
#
#
# Indices 1 2 3 4 5 6 
#
# 1 114.3482 -1.3873 10.2983 2.2908 19.7750 -12.9752
# 2 -1.3873 71.2902 11.5598 3.6725 7.6091 -11.1961
# 3 10.2983 11.5598 50.7755 4.0492 12.1439 0.3655
# 4 2.2908 3.6725 4.0492 16.0685 3.6333 -8.2023
# 5 19.7750 7.6091 12.1439 3.6333 35.0310 -0.3094
# 6 -12.9752 -11.1961 0.3655 -8.2023 -0.3094 34.9620
#
#
#
# Elastic Compliance Matrix: (Units=1/GPa)
#
#
# Indices 1 2 3 4 5 6 
#
# 1 0.010434 0.001707 -0.001287 0.002319 -0.006011 0.004923
# 2 0.001707 0.015826 -0.003260 0.000703 -0.003292 0.005871
# 3 -0.001287 -0.003260 0.022520 -0.004929 -0.005887 -0.002966
# 4 0.002319 0.000703 -0.004929 0.074043 -0.007270 0.018444
# 5 -0.006011 -0.003292 -0.005887 -0.007270 0.035409 -0.004616
# 6 0.004923 0.005871 -0.002966 0.018444 -0.004616 0.036627
#
#
# Mechanical properties :
#
#
# Convention : Reuss Voigt Hill
#
# Bulk Modulus (GPa) = 23.20234 30.81728 27.00981
# Shear Modulus (GPa) = 23.26593 31.60852 27.43723
#
# Velocity S-wave (km/s) = 3.17003 3.69493 3.44250
# Velocity P-wave (km/s) = 4.83947 5.61374 5.24092
#
# Compressibility (1/GPa) = 0.04309909
#
# Stress axis : x y z
#
# Youngs Moduli (GPa) = 95.84400 63.18574 44.40437
#
# Poissons Ratio (x) = -0.10787 0.05717
# Poissons Ratio (y) = -0.16362 0.14477
# Poissons Ratio (z) = 0.12339 0.20600
#
# Static dielectric constant tensor:
#      x y z
#    x 2.016570 -0.109000 -0.100670 
#    y -0.109000 1.876570 -0.083550 
#    z -0.100670 -0.083550 1.757680 
# 
# From -- ./inp_files/109526.got.cif
#   From: 2010.05.17/outbox.cif.g08.bks.cpg/sg2_55_cif.got.tgz:109526.got - 2010.06.03 11:33:40.
