data_PCOD9098491
_publ_section_title
;
Structure prediction by ZEFSAII (Michael W. Deem and Ramdas Pophale) SiO2 
 PCOD9098491
Probable space group: P -1
;
_chemical_formula_sum "Si O2"
_cell_formula_units_Z 15
_cell_length_a 9.321291
_cell_length_b 16.214681
_cell_length_c 9.321287
_cell_angle_alpha 85.734553
_cell_angle_beta 119.777740
_cell_angle_gamma 141.812323
_cell_volume 611.029506
_symmetry_space_group_name_H-M "P -1"
_symmetry_group_IT_number 2
_symmetry_cell_setting 'triclinic'
loop_
_space_group_symop_operation_xyz
x,y,z
-x,-y,-z
loop_
_atom_site_type_symbol
_atom_site_label
_atom_site_fract_x
_atom_site_fract_y
_atom_site_fract_z
Si Si1 0.704969 0.477620 0.420264
Si Si2 0.939149 0.758584 0.484905
Si Si3 0.160607 0.157200 0.813895
Si Si4 0.500000 0.000000 0.500000
Si Si5 0.243490 0.758584 0.180566
Si Si6 0.198909 1.000000 0.801089
Si Si7 0.102116 0.522380 0.772651
Si Si8 0.971094 0.157200 0.003407
O O1 0.735297 0.588694 0.437213
O O2 0.896841 0.532980 0.363861
O O3 0.328856 0.289285 0.226150
O O4 0.870470 0.500000 0.629529
O O5 0.775775 0.754846 0.297805
O O6 0.260664 0.872972 0.537663
O O7 0.028501 0.849129 0.657642
O O8 0.000876 0.000101 0.718648
O O9 0.515436 0.289285 0.039572
O O10 0.952078 0.120800 0.831278
O O11 0.410634 0.872972 0.387692
O O12 0.025907 0.588694 0.146603
O O13 0.506775 0.849130 0.179375
O O14 0.052654 0.754847 0.020929
O O15 0.281251 0.999899 0.999224
#
# Coordination Sequence:
#
# PCOD9098491 Si02
#       8
#     2   2   2   1   2   2   2   2
#     4  10  22  41  68 101 134 174 225 280 332 393
#     4  11  22  43  69  98 134 175 225 270 335 397
#     4  11  23  44  70  98 133 181 224 272 329 409
#     4  10  20  36  66  98 128 166 212 266 322 394
#     4  11  22  43  69  98 134 175 225 270 335 397
#     4  11  27  41  63 106 140 172 217 289 335 387
#     4  10  22  41  68 101 134 174 225 280 332 393
#     4  11  23  44  70  98 133 181 224 272 329 409
#
# _framework density 24.548734
#
# number of rings (size 3 to 8) (size 9 to 14) (size 15 to 20)
#    0.000    1.333    2.667    2.000    0.000    9.600 
#    4.800    0.000    0.000    0.000    0.000    0.000 
#    0.000    0.000    0.000    0.000    0.000    0.000 
#
# Total GULP energy -83737.655261 kJ/mol
# GULP energy per Si atom -5582.510351 kJ/mol
# Density = 2.449286 g / cm^3
# Si number density = 24.548734 Si / 1000 Ang^3
#
#
#
# Elastic Constant Matrix: (Units=GPa)
#
#
# Indices 1 2 3 4 5 6 
#
# 1 92.4394 32.3378 10.6570 -18.8883 -18.1543 -21.6369
# 2 32.3378 118.5535 14.1342 -23.8520 -11.6435 -14.8793
# 3 10.6570 14.1342 45.0358 -22.6350 10.9342 -4.8114
# 4 -18.8883 -23.8520 -22.6350 42.3627 -2.2184 2.3163
# 5 -18.1543 -11.6435 10.9342 -2.2184 36.4863 -9.8096
# 6 -21.6369 -14.8793 -4.8114 2.3163 -9.8096 36.5324
#
#
#
# Elastic Compliance Matrix: (Units=1/GPa)
#
#
# Indices 1 2 3 4 5 6 
#
# 1 0.018663 -0.000261 -0.003014 0.006547 0.014258 0.013964
# 2 -0.000261 0.010948 -0.001531 0.005233 0.005555 0.005262
# 3 -0.003014 -0.001531 0.033716 0.015310 -0.011722 -0.002086
# 4 0.006547 0.005233 0.015310 0.037511 0.004460 0.006845
# 5 0.014258 0.005555 -0.011722 0.004460 0.045749 0.021165
# 6 0.013964 0.005262 -0.002086 0.006845 0.021165 0.042761
#
#
# Mechanical properties :
#
#
# Convention : Reuss Voigt Hill
#
# Bulk Modulus (GPa) = 18.61667 41.14299 29.87983
# Shear Modulus (GPa) = 23.05600 36.33625 29.69613
#
# Velocity S-wave (km/s) = 3.06795 3.85147 3.48182
# Velocity P-wave (km/s) = 4.48885 6.04769 5.32561
#
# Compressibility (1/GPa) = 0.05371531
#
# Stress axis : x y z
#
# Youngs Moduli (GPa) = 53.58175 91.34375 29.65976
#
# Poissons Ratio (x) = 0.02387 0.08939
# Poissons Ratio (y) = 0.01400 0.04540
# Poissons Ratio (z) = 0.16148 0.13980
#
# Static dielectric constant tensor:
#      x y z
#    x 1.911360 0.055330 -0.067790 
#    y 0.055330 1.899920 0.078150 
#    z -0.067790 0.078150 1.866360 
# 
# From -- ./inp_files/207144.got.cif
#   From: 2010.05.17/outbox.cif.g08.bks.cpg/sg2_104_cif.got.tgz:207144.got - 2010.06.03 11:33:40.
