data_PCOD9098643
_publ_section_title
;
Structure prediction by ZEFSAII (Michael W. Deem and Ramdas Pophale) SiO2 
 PCOD9098643
Probable space group: P -1
;
_chemical_formula_sum "Si O2"
_cell_formula_units_Z 16
_cell_length_a 8.349242
_cell_length_b 28.033321
_cell_length_c 6.765551
_cell_angle_alpha 57.982415
_cell_angle_beta 97.739946
_cell_angle_gamma 136.611792
_cell_volume 832.570964
_symmetry_space_group_name_H-M "P -1"
_symmetry_group_IT_number 2
_symmetry_cell_setting 'triclinic'
loop_
_space_group_symop_operation_xyz
x,y,z
-x,-y,-z
loop_
_atom_site_type_symbol
_atom_site_label
_atom_site_fract_x
_atom_site_fract_y
_atom_site_fract_z
Si Si1 0.878881 0.289361 0.459519
Si Si2 0.933134 0.800003 0.724103
Si Si3 0.384109 0.694604 0.879630
Si Si4 0.688327 0.053248 0.226506
Si Si5 0.840953 0.484084 0.828696
Si Si6 0.949564 0.358153 0.727486
Si Si7 0.709730 0.618418 0.992562
Si Si8 0.385859 0.895338 0.286206
O O1 0.769187 0.318252 0.296427
O O2 0.910804 0.303023 0.667497
O O3 0.683824 0.188281 0.574616
O O4 0.149912 0.351036 0.261279
O O5 0.682621 0.769987 0.709131
O O6 0.832213 0.708335 0.911459
O O7 0.050613 0.854228 0.830916
O O8 0.149238 0.857750 0.459591
O O9 0.278572 0.603344 0.102552
O O10 0.299656 0.707212 0.028925
O O11 0.500000 0.000000 0.500000
O O12 0.642578 0.981520 0.262703
O O13 0.609156 0.075173 0.993391
O O14 0.999170 0.567865 0.528095
O O15 0.593941 0.454324 0.920019
O O16 0.000000 0.500000 0.000000
O O17 0.191903 0.405613 0.799920
#
# Coordination Sequence:
#
# PCOD9098643 Si02
#       8
#     2   2   2   2   2   2   2   2
#     4  10  20  37  55  81 110 145 182 225 274 327
#     4   9  18  35  56  81 109 142 182 227 268 322
#     4  10  22  38  54  80 112 142 186 230 272 330
#     4   9  17  32  56  85 109 137 178 222 269 321
#     4  11  21  40  56  79 111 147 184 236 280 320
#     4  11  21  37  57  78 109 152 185 227 280 322
#     4   9  21  37  56  81 109 142 193 230 265 330
#     4   9  18  33  58  82 108 140 179 225 267 323
#
# _framework density 19.217580000000002
#
# number of rings (size 3 to 8) (size 9 to 14) (size 15 to 20)
#    0.000    2.250    1.250    1.500    0.000    2.500 
#    9.000    0.625    0.000    7.500    0.000    0.000 
#    0.000    0.000    0.000    0.000    0.000    0.000 
#
# Total GULP energy -89120.095735 kJ/mol
# GULP energy per Si atom -5570.005983 kJ/mol
# Density = 1.917384 g / cm^3
# Si number density = 19.217580 Si / 1000 Ang^3
#
#
#
# Elastic Constant Matrix: (Units=GPa)
#
#
# Indices 1 2 3 4 5 6 
#
# 1 76.3160 18.8194 19.5342 10.1524 -1.7053 5.7507
# 2 18.8194 62.9871 14.3089 10.6828 -12.2988 -8.4826
# 3 19.5342 14.3089 73.8122 11.5187 6.9163 0.2058
# 4 10.1524 10.6828 11.5187 28.2458 -7.7364 -0.2904
# 5 -1.7053 -12.2988 6.9163 -7.7364 19.5962 0.8730
# 6 5.7507 -8.4826 0.2058 -0.2904 0.8730 25.6617
#
#
#
# Elastic Compliance Matrix: (Units=1/GPa)
#
#
# Indices 1 2 3 4 5 6 
#
# 1 0.015662 -0.004519 -0.002570 -0.003384 -0.001681 -0.004964
# 2 -0.004519 0.022245 -0.004324 -0.001017 0.014341 0.007901
# 3 -0.002570 -0.004324 0.017442 -0.007897 -0.012181 -0.000668
# 4 -0.003384 -0.001017 -0.007897 0.045671 0.019870 0.000326
# 5 -0.001681 0.014341 -0.012181 0.019870 0.071895 0.002994
# 6 -0.004964 0.007901 -0.000668 0.000326 0.002994 0.042600
#
#
# Mechanical properties :
#
#
# Convention : Reuss Voigt Hill
#
# Bulk Modulus (GPa) = 30.74505 35.38225 33.06365
# Shear Modulus (GPa) = 20.06582 25.39758 22.73170
#
# Velocity S-wave (km/s) = 3.23482 3.63930 3.44300
# Velocity P-wave (km/s) = 5.47587 6.00922 5.74873
#
# Compressibility (1/GPa) = 0.03252556
#
# Stress axis : x y z
#
# Youngs Moduli (GPa) = 63.84844 44.95345 57.33386
#
# Poissons Ratio (x) = 0.20313 0.14732
# Poissons Ratio (y) = 0.28851 0.24789
# Poissons Ratio (z) = 0.16406 0.19436
#
# Static dielectric constant tensor:
#      x y z
#    x 1.673700 -0.028700 -0.002800 
#    y -0.028700 1.732470 -0.026290 
#    z -0.002800 -0.026290 1.662420 
# 
# From -- ./inp_files/44332.got.cif
#   From: 2010.05.17/outbox.cif.g08.bks.cpg/sg2_23_cif.got.tgz:44332.got - 2010.06.03 11:33:40.
