data_PCOD9098561
_publ_section_title
;
Structure prediction by ZEFSAII (Michael W. Deem and Ramdas Pophale) SiO2 
 PCOD9098561
Probable space group: P -1
;
_chemical_formula_sum "Si O2"
_cell_formula_units_Z 16
_cell_length_a 13.909523
_cell_length_b 11.611957
_cell_length_c 9.568819
_cell_angle_alpha 50.761724
_cell_angle_beta 77.298024
_cell_angle_gamma 41.793019
_cell_volume 696.468437
_symmetry_space_group_name_H-M "P -1"
_symmetry_group_IT_number 2
_symmetry_cell_setting 'triclinic'
loop_
_space_group_symop_operation_xyz
x,y,z
-x,-y,-z
loop_
_atom_site_type_symbol
_atom_site_label
_atom_site_fract_x
_atom_site_fract_y
_atom_site_fract_z
Si Si1 0.577849 0.292425 0.748806
Si Si2 0.844087 0.209125 0.789203
Si Si3 0.259138 0.439710 0.226685
Si Si4 0.932178 0.608604 0.592953
Si Si5 0.943755 0.933336 0.415673
Si Si6 0.056877 0.665353 0.860532
Si Si7 0.787971 0.786444 0.963315
Si Si8 0.406383 0.486458 0.952667
O O1 0.500000 0.500000 0.500000
O O2 0.742381 0.181480 0.828193
O O3 0.476976 0.388151 0.849485
O O4 0.627498 0.073929 0.833585
O O5 0.740214 0.461400 0.710258
O O6 0.909214 0.188244 0.636943
O O7 0.000000 0.000000 0.000000
O O8 0.220928 0.315598 0.377682
O O9 0.099134 0.660809 0.007063
O O10 0.399781 0.342333 0.157245
O O11 0.894764 0.826615 0.461245
O O12 0.000000 0.500000 0.500000
O O13 0.089920 0.382069 0.815030
O O14 0.013094 0.832259 0.626933
O O15 0.779703 0.227908 0.225131
O O16 0.211339 0.375849 0.983675
O O17 0.893585 0.761403 0.844226
O O18 0.500000 0.500000 0.000000
#
# Coordination Sequence:
#
# PCOD9098561 Si02
#       8
#     2   2   2   2   2   2   2   2
#     4  12  27  44  69  99 146 185 219 275 352 417
#     4  12  22  41  68 104 132 176 231 289 329 396
#     4  11  22  40  66  97 135 169 217 283 341 392
#     4  10  20  36  69 101 125 170 233 285 331 384
#     4  11  23  39  70 100 130 173 236 280 329 411
#     4   9  20  39  70  98 123 165 229 286 327 381
#     4   9  20  41  65  95 133 172 220 278 335 398
#     4  12  26  43  62  96 144 180 215 275 352 406
#
# _framework density 22.973044000000002
#
# number of rings (size 3 to 8) (size 9 to 14) (size 15 to 20)
#    0.000    1.250    3.750    3.000    3.500    0.500 
#    0.000    1.250    8.250    0.000    0.000    0.000 
#    0.000    0.000    0.000    0.000    0.000    0.000 
#
# Total GULP energy -89373.104473 kJ/mol
# GULP energy per Si atom -5585.819030 kJ/mol
# Density = 2.292076 g / cm^3
# Si number density = 22.973044 Si / 1000 Ang^3
#
#
#
# Elastic Constant Matrix: (Units=GPa)
#
#
# Indices 1 2 3 4 5 6 
#
# 1 85.8798 14.4739 5.4104 4.1599 -17.9243 -3.7908
# 2 14.4739 139.6833 47.9726 14.9456 -17.4033 4.2071
# 3 5.4104 47.9726 77.7380 20.6077 -16.2446 -5.2470
# 4 4.1599 14.9456 20.6077 46.7681 0.3533 -11.4965
# 5 -17.9243 -17.4033 -16.2446 0.3533 49.0811 9.1727
# 6 -3.7908 4.2071 -5.2470 -11.4965 9.1727 32.4777
#
#
#
# Elastic Compliance Matrix: (Units=1/GPa)
#
#
# Indices 1 2 3 4 5 6 
#
# 1 0.012781 -0.000952 0.001026 -0.001322 0.004681 -0.000009
# 2 -0.000952 0.009560 -0.005263 -0.001468 0.001920 -0.003262
# 3 0.001026 -0.005263 0.018822 -0.006709 0.004764 0.000122
# 4 -0.001322 -0.001468 -0.006709 0.027467 -0.005324 0.010178
# 5 0.004681 0.001920 0.004764 -0.005324 0.025900 -0.008132
# 6 -0.000009 -0.003262 0.000122 0.010178 -0.008132 0.037131
#
#
# Mechanical properties :
#
#
# Convention : Reuss Voigt Hill
#
# Bulk Modulus (GPa) = 32.48336 48.77945 40.63140
# Shear Modulus (GPa) = 32.83000 41.36167 37.09583
#
# Velocity S-wave (km/s) = 3.78440 4.24777 4.02276
# Velocity P-wave (km/s) = 5.76767 6.73331 6.26911
#
# Compressibility (1/GPa) = 0.03078500
#
# Stress axis : x y z
#
# Youngs Moduli (GPa) = 78.24407 104.60621 53.12829
#
# Poissons Ratio (x) = 0.09955 -0.05450
# Poissons Ratio (y) = 0.07446 0.27961
# Poissons Ratio (z) = -0.08026 0.55053
#
# Static dielectric constant tensor:
#      x y z
#    x 4.125160 0.764030 -0.001040 
#    y 0.764030 2.159520 0.006130 
#    z -0.001040 0.006130 1.849540 
# 
# From -- ./inp_files/306493.got.cif
#   From: 2010.05.17/outbox.cif.g08.bks.cpg/sg2_154_cif.got.tgz:306493.got - 2010.06.03 11:33:40.
