data_PCOD9098316
_publ_section_title
;
Structure prediction by ZEFSAII (Michael W. Deem and Ramdas Pophale) SiO2 
 PCOD9098316
Probable space group: P -1
;
_chemical_formula_sum "Si O2"
_cell_formula_units_Z 16
_cell_length_a 11.618039
_cell_length_b 9.493037
_cell_length_c 8.894041
_cell_angle_alpha 130.294910
_cell_angle_beta 93.759829
_cell_angle_gamma 80.364897
_cell_volume 736.436547
_symmetry_space_group_name_H-M "P -1"
_symmetry_group_IT_number 2
_symmetry_cell_setting 'triclinic'
loop_
_space_group_symop_operation_xyz
x,y,z
-x,-y,-z
loop_
_atom_site_type_symbol
_atom_site_label
_atom_site_fract_x
_atom_site_fract_y
_atom_site_fract_z
Si Si1 0.380721 0.570576 0.332661
Si Si2 0.952579 0.731026 0.286072
Si Si3 0.263703 0.868703 0.775000
Si Si4 0.995846 0.945554 0.711490
Si Si5 0.458206 0.836305 0.287571
Si Si6 0.765362 0.172122 0.926605
Si Si7 0.419173 0.168435 0.023125
Si Si8 0.179728 0.497795 0.041765
O O1 0.332439 0.731203 0.559958
O O2 0.459036 0.662209 0.281830
O O3 0.275137 0.516350 0.185702
O O4 0.425538 0.359801 0.248793
O O5 0.951876 0.789577 0.497597
O O6 0.056975 0.556735 0.158007
O O7 0.989340 0.890184 0.292320
O O8 0.832535 0.686972 0.178419
O O9 0.124937 0.881688 0.742266
O O10 0.301766 0.075061 0.926801
O O11 0.290933 0.787809 0.888320
O O12 0.885057 0.025894 0.858895
O O13 0.326377 0.889775 0.243879
O O14 0.535392 0.797061 0.116984
O O15 0.500000 0.000000 0.500000
O O16 0.802317 0.354295 0.982421
O O17 0.500000 0.000000 0.000000
#
# Coordination Sequence:
#
# PCOD9098316 Si02
#       8
#     2   2   2   2   2   2   2   2
#     4  11  24  42  72  99 130 178 227 275 338 402
#     4   9  17  32  62  91 124 171 221 269 316 388
#     4  12  23  44  67  97 139 178 220 275 343 400
#     4  10  20  36  64  97 132 176 217 268 338 395
#     4  11  23  46  72 102 132 176 231 280 332 401
#     4  10  23  40  62  96 140 172 218 277 334 396
#     4  12  26  47  68 101 135 174 225 283 343 399
#     4   9  18  37  58  92 128 165 223 274 315 394
#
# _framework density 21.726243
#
# number of rings (size 3 to 8) (size 9 to 14) (size 15 to 20)
#    0.000    1.500    3.750    1.500    1.750    1.500 
#    2.250    0.625    0.000    0.000    0.000    0.000 
#    0.000    0.000    0.000    0.000    0.000    0.000 
#
# Total GULP energy -89200.937403 kJ/mol
# GULP energy per Si atom -5575.058588 kJ/mol
# Density = 2.167679 g / cm^3
# Si number density = 21.726243 Si / 1000 Ang^3
#
#
#
# Elastic Constant Matrix: (Units=GPa)
#
#
# Indices 1 2 3 4 5 6 
#
# 1 60.4799 18.5896 28.9627 -1.0351 15.5132 3.1227
# 2 18.5896 56.0180 19.6571 -3.3138 -1.9638 -1.7261
# 3 28.9627 19.6571 93.2014 -4.1557 13.0853 16.7300
# 4 -1.0351 -3.3138 -4.1557 30.5041 7.3686 -0.7409
# 5 15.5132 -1.9638 13.0853 7.3686 37.1393 -2.0015
# 6 3.1227 -1.7261 16.7300 -0.7409 -2.0015 26.9756
#
#
#
# Elastic Compliance Matrix: (Units=1/GPa)
#
#
# Indices 1 2 3 4 5 6 
#
# 1 0.022852 -0.006320 -0.004293 0.001590 -0.008736 -0.000992
# 2 -0.006320 0.021852 -0.004349 0.000356 0.005539 0.005248
# 3 -0.004293 -0.004349 0.015522 0.002448 -0.004914 -0.009705
# 4 0.001590 0.000356 0.002448 0.035247 -0.008574 -0.001347
# 5 -0.008736 0.005539 -0.004914 -0.008574 0.034664 0.006750
# 6 -0.000992 0.005248 -0.009705 -0.001347 0.006750 0.044004
#
#
# Mechanical properties :
#
#
# Convention : Reuss Voigt Hill
#
# Bulk Modulus (GPa) = 33.00039 38.23533 35.61786
# Shear Modulus (GPa) = 23.34661 28.42312 25.88487
#
# Velocity S-wave (km/s) = 3.28164 3.62088 3.45543
# Velocity P-wave (km/s) = 5.43884 5.92604 5.68766
#
# Compressibility (1/GPa) = 0.03030267
#
# Stress axis : x y z
#
# Youngs Moduli (GPa) = 43.75994 45.76332 64.42502
#
# Poissons Ratio (x) = 0.28921 0.27658
# Poissons Ratio (y) = 0.27655 0.28016
# Poissons Ratio (z) = 0.18786 0.19901
#
# Static dielectric constant tensor:
#      x y z
#    x 1.868330 -0.075980 -0.012680 
#    y -0.075980 1.830130 0.047000 
#    z -0.012680 0.047000 1.823550 
# 
# From -- ./inp_files/245940.got.cif
#   From: 2010.05.17/outbox.cif.g08.bks.cpg/sg2_123_cif.got.tgz:245940.got - 2010.06.03 11:33:40.
