data_PCOD9098036
_publ_section_title
;
Structure prediction by ZEFSAII (Michael W. Deem and Ramdas Pophale) SiO2 
 PCOD9098036
Probable space group: P -1
;
_chemical_formula_sum "Si O2"
_cell_formula_units_Z 14
_cell_length_a 14.791556
_cell_length_b 8.637983
_cell_length_c 12.237657
_cell_angle_alpha 82.744851
_cell_angle_beta 124.392547
_cell_angle_gamma 51.677405
_cell_volume 685.145931
_symmetry_space_group_name_H-M "P -1"
_symmetry_group_IT_number 2
_symmetry_cell_setting 'triclinic'
loop_
_space_group_symop_operation_xyz
x,y,z
-x,-y,-z
loop_
_atom_site_type_symbol
_atom_site_label
_atom_site_fract_x
_atom_site_fract_y
_atom_site_fract_z
Si Si1 0.836341 0.185767 0.087438
Si Si2 0.564930 0.751952 0.207619
Si Si3 0.959757 0.653594 0.617948
Si Si4 0.759531 0.087122 0.621147
Si Si5 0.639601 0.229294 0.768927
Si Si6 0.024471 0.232647 0.614055
Si Si7 0.402201 0.274554 0.010963
O O1 0.650842 0.524975 0.960379
O O2 0.798330 0.142496 0.952836
O O3 0.044348 0.034598 0.237965
O O4 0.852953 0.041238 0.209553
O O5 0.423733 0.836817 0.190534
O O6 0.800203 0.429598 0.420541
O O7 0.514773 0.769717 0.046036
O O8 0.540336 0.968738 0.177283
O O9 0.989127 0.434679 0.639284
O O10 0.892039 0.814474 0.442802
O O11 0.183741 0.455437 0.816312
O O12 0.810196 0.885537 0.591557
O O13 0.722575 0.079735 0.721116
O O14 0.561669 0.422840 0.419217
#
# Coordination Sequence:
#
# PCOD9098036 Si02
#       7
#     2   2   2   2   2   2   2
#     4  11  22  39  63  89 115 156 199 248 293 348
#     4  10  20  38  57  89 125 154 192 248 290 360
#     4   9  20  38  60  84 122 157 194 244 295 352
#     4  10  23  42  58  88 120 159 200 244 282 354
#     4  11  23  39  62  85 123 159 198 240 293 346
#     4  10  20  36  63  89 120 152 195 246 305 341
#     4   9  21  36  59  89 122 151 196 245 302 343
#
# _framework density 20.433603000000002
#
# number of rings (size 3 to 8) (size 9 to 14) (size 15 to 20)
#    0.000    2.000    1.429    1.286    4.000    3.429 
#    0.000    8.571    0.000    0.000    0.000    0.000 
#    0.000    0.000    0.000    0.000    0.000    0.000 
#
# Total GULP energy -78272.115749 kJ/mol
# GULP energy per Si atom -5590.865411 kJ/mol
# Density = 2.038710 g / cm^3
# Si number density = 20.433603 Si / 1000 Ang^3
#
#
#
# Elastic Constant Matrix: (Units=GPa)
#
#
# Indices 1 2 3 4 5 6 
#
# 1 46.6066 -6.4205 -13.0473 7.5529 -4.3056 -0.0430
# 2 -6.4205 87.1890 -3.5490 10.3803 -6.2624 -16.9703
# 3 -13.0473 -3.5490 45.8179 1.5104 -4.5337 2.3193
# 4 7.5529 10.3803 1.5104 24.7418 -1.2358 3.9757
# 5 -4.3056 -6.2624 -4.5337 -1.2358 24.4436 4.3430
# 6 -0.0430 -16.9703 2.3193 3.9757 4.3430 14.9249
#
#
#
# Elastic Compliance Matrix: (Units=1/GPa)
#
#
# Indices 1 2 3 4 5 6 
#
# 1 0.027155 0.005414 0.008830 -0.011796 0.006105 0.006228
# 2 0.005414 0.018182 0.002314 -0.013135 0.001206 0.023478
# 3 0.008830 0.002314 0.025472 -0.004527 0.007024 -0.002140
# 4 -0.011796 -0.013135 -0.004527 0.054597 0.001684 -0.029299
# 5 0.006105 0.001206 0.007024 0.001684 0.046093 -0.013564
# 6 0.006228 0.023478 -0.002140 -0.029299 -0.013564 0.105800
#
#
# Mechanical properties :
#
#
# Convention : Reuss Voigt Hill
#
# Bulk Modulus (GPa) = 9.62225 14.84220 12.23223
# Shear Modulus (GPa) = 17.93238 26.33074 22.13156
#
# Velocity S-wave (km/s) = 2.96563 3.59360 3.29461
# Velocity P-wave (km/s) = 4.05535 4.94955 4.52460
#
# Compressibility (1/GPa) = 0.10392576
#
# Stress axis : x y z
#
# Youngs Moduli (GPa) = 36.82515 54.99839 39.25912
#
# Poissons Ratio (x) = -0.29777 -0.34666
# Poissons Ratio (y) = -0.19938 -0.09084
# Poissons Ratio (z) = -0.32516 -0.12726
#
# Static dielectric constant tensor:
#      x y z
#    x 1.707030 0.000910 0.029910 
#    y 0.000910 1.703620 0.006240 
#    z 0.029910 0.006240 1.749640 
# 
# From -- ./inp_files/165357.got.cif
#   From: 2010.05.17/outbox.cif.g08.bks.cpg/sg2_83_cif.got.tgz:165357.got - 2010.06.03 11:33:40.
