data_PCOD9098618
_publ_section_title
;
Structure prediction by ZEFSAII (Michael W. Deem and Ramdas Pophale) SiO2 
 PCOD9098618
Probable space group: P -1
;
_chemical_formula_sum "Si O2"
_cell_formula_units_Z 14
_cell_length_a 11.710540
_cell_length_b 9.589661
_cell_length_c 9.073165
_cell_angle_alpha 110.721445
_cell_angle_beta 122.222195
_cell_angle_gamma 39.391500
_cell_volume 543.803585
_symmetry_space_group_name_H-M "P -1"
_symmetry_group_IT_number 2
_symmetry_cell_setting 'triclinic'
loop_
_space_group_symop_operation_xyz
x,y,z
-x,-y,-z
loop_
_atom_site_type_symbol
_atom_site_label
_atom_site_fract_x
_atom_site_fract_y
_atom_site_fract_z
Si Si1 0.577871 0.704659 0.371423
Si Si2 0.729592 0.829883 0.047005
Si Si3 0.576913 0.235116 0.019819
Si Si4 0.844009 0.026953 0.694486
Si Si5 0.204471 0.689773 0.987859
Si Si6 0.279896 0.645516 0.468669
Si Si7 0.856505 0.571014 0.737084
O O1 0.523328 0.768774 0.189761
O O2 0.370228 0.871436 0.381441
O O3 0.675309 0.459227 0.376623
O O4 0.730777 0.693452 0.547422
O O5 0.779442 0.731963 0.879889
O O6 0.740692 0.999889 0.120211
O O7 0.905224 0.614966 0.183475
O O8 0.500000 0.000000 0.000000
O O9 0.384475 0.433313 0.057911
O O10 0.688059 0.279714 0.034655
O O11 0.841419 0.104944 0.560559
O O12 0.856129 0.165607 0.858139
O O13 0.018043 0.785949 0.797986
O O14 0.500000 0.500000 0.500000
O O15 0.192149 0.563698 0.309091
#
# Coordination Sequence:
#
# PCOD9098618 Si02
#       7
#     2   2   2   2   2   2   2
#     4   8  18  35  55  84 112 146 188 237 299 342
#     4  11  24  41  61  85 112 164 205 238 286 350
#     4  10  20  37  54  83 122 146 195 246 287 343
#     4   9  15  31  56  88 111 150 187 228 296 357
#     4   9  19  31  56  86 118 150 185 240 298 343
#     4   8  15  31  60  84 112 146 187 236 292 352
#     4   9  21  42  60  84 119 151 201 241 293 343
#
# _framework density 25.744589999999999
#
# number of rings (size 3 to 8) (size 9 to 14) (size 15 to 20)
#    0.857    2.000    0.000    0.857    2.000    0.571 
#    7.714    1.429    0.000    0.000    0.000    0.000 
#    0.000    0.000    0.000    0.000    0.000    0.000 
#
# Total GULP energy -78089.404338 kJ/mol
# GULP energy per Si atom -5577.814596 kJ/mol
# Density = 2.568599 g / cm^3
# Si number density = 25.744590 Si / 1000 Ang^3
#
#
#
# Elastic Constant Matrix: (Units=GPa)
#
#
# Indices 1 2 3 4 5 6 
#
# 1 49.3795 21.4726 4.5910 -0.0139 0.0540 -8.6460
# 2 21.4726 126.7195 38.9494 -29.8991 -1.2078 -7.9833
# 3 4.5910 38.9494 92.3780 -23.3704 9.0404 -14.1885
# 4 -0.0139 -29.8991 -23.3704 27.2988 -4.9153 6.3961
# 5 0.0540 -1.2078 9.0404 -4.9153 29.9718 -11.9869
# 6 -8.6460 -7.9833 -14.1885 6.3961 -11.9869 37.8937
#
#
#
# Elastic Compliance Matrix: (Units=1/GPa)
#
#
# Indices 1 2 3 4 5 6 
#
# 1 0.023533 -0.005268 0.000115 -0.006845 0.000883 0.005737
# 2 -0.005268 0.012361 -0.002214 0.012308 0.002968 -0.000565
# 3 0.000115 -0.002214 0.014696 0.009136 -0.001850 0.002935
# 4 -0.006845 0.012308 0.009136 0.059899 0.006082 -0.003735
# 5 0.000883 0.002968 -0.001850 0.006082 0.039704 0.011667
# 6 0.005737 -0.000565 0.002935 -0.003735 0.011667 0.033000
#
#
# Mechanical properties :
#
#
# Convention : Reuss Voigt Hill
#
# Bulk Modulus (GPa) = 27.88929 44.27812 36.08371
# Shear Modulus (GPa) = 23.82322 32.59712 28.21017
#
# Velocity S-wave (km/s) = 3.04529 3.56219 3.31383
# Velocity P-wave (km/s) = 4.81888 5.84425 5.35616
#
# Compressibility (1/GPa) = 0.03585606
#
# Stress axis : x y z
#
# Youngs Moduli (GPa) = 42.49326 80.89870 68.04667
#
# Poissons Ratio (x) = 0.42619 -0.00781
# Poissons Ratio (y) = 0.22386 0.15063
# Poissons Ratio (z) = -0.00488 0.17908
#
# Static dielectric constant tensor:
#      x y z
#    x 2.031770 0.064750 0.036610 
#    y 0.064750 2.096760 -0.024430 
#    z 0.036610 -0.024430 2.083340 
# 
# From -- ./inp_files/450530.got.cif
#   From: 2010.05.17/outbox.cif.g08.bks.cpg/sg2_226_cif.got.tgz:450530.got - 2010.06.03 11:33:40.
