data_PCOD9098087
_publ_section_title
;
Structure prediction by ZEFSAII (Michael W. Deem and Ramdas Pophale) SiO2 
 PCOD9098087
Probable space group: P -1
;
_chemical_formula_sum "Si O2"
_cell_formula_units_Z 14
_cell_length_a 9.538326
_cell_length_b 8.640920
_cell_length_c 11.278923
_cell_angle_alpha 71.122003
_cell_angle_beta 126.288547
_cell_angle_gamma 94.392589
_cell_volume 700.909058
_symmetry_space_group_name_H-M "P -1"
_symmetry_group_IT_number 2
_symmetry_cell_setting 'triclinic'
loop_
_space_group_symop_operation_xyz
x,y,z
-x,-y,-z
loop_
_atom_site_type_symbol
_atom_site_label
_atom_site_fract_x
_atom_site_fract_y
_atom_site_fract_z
Si Si1 0.985117 0.435953 0.642253
Si Si2 0.155310 0.928256 0.684373
Si Si3 0.286205 0.382354 0.144871
Si Si4 0.514160 0.302244 0.076127
Si Si5 0.401321 0.521217 0.570661
Si Si6 0.020108 0.672121 0.825759
Si Si7 0.671661 0.768227 0.219021
O O1 0.794510 0.378042 0.570234
O O2 0.989120 0.572317 0.713549
O O3 0.000000 0.500000 0.500000
O O4 0.162315 0.306309 0.762587
O O5 0.298593 0.771920 0.755247
O O6 0.066715 0.849432 0.770531
O O7 0.270987 0.069440 0.737296
O O8 0.000000 0.000000 0.500000
O O9 0.359055 0.275733 0.094644
O O10 0.463221 0.405411 0.295580
O O11 0.150965 0.313620 0.181305
O O12 0.178723 0.556490 0.001129
O O13 0.500000 0.500000 0.000000
O O14 0.489056 0.220791 0.956262
O O15 0.500000 0.500000 0.500000
O O16 0.364287 0.354404 0.661556
#
# Coordination Sequence:
#
# PCOD9098087 Si02
#       7
#     2   2   2   2   2   2   2
#     4  10  20  36  63  93 124 162 220 258 312 381
#     4  12  26  41  64  98 140 165 209 274 337 377
#     4  11  23  38  70  91 125 167 232 264 306 380
#     4  12  22  44  69  96 122 177 230 257 310 401
#     4  11  21  36  62  97 128 165 216 271 321 378
#     4  11  22  44  63  95 128 174 215 266 319 389
#     4  11  23  40  64  95 127 171 212 271 322 388
#
# _framework density 19.974060000000001
#
# number of rings (size 3 to 8) (size 9 to 14) (size 15 to 20)
#    0.000    0.857    5.714    2.143    4.000    0.000 
#    0.000    2.857    0.000    0.000    0.000    0.000 
#    0.000    0.000    0.000    0.000    0.000    0.000 
#
# Total GULP energy -78084.799760 kJ/mol
# GULP energy per Si atom -5577.485697 kJ/mol
# Density = 1.992860 g / cm^3
# Si number density = 19.974060 Si / 1000 Ang^3
#
#
#
# Elastic Constant Matrix: (Units=GPa)
#
#
# Indices 1 2 3 4 5 6 
#
# 1 161.5275 21.3274 37.6083 -10.1803 -0.0187 12.7148
# 2 21.3274 50.2360 19.1562 1.0681 -5.2499 13.4236
# 3 37.6083 19.1562 104.7802 3.9145 9.8230 -0.8948
# 4 -10.1803 1.0681 3.9145 28.7193 -1.3827 -1.4387
# 5 -0.0187 -5.2499 9.8230 -1.3827 39.2985 2.9444
# 6 12.7148 13.4236 -0.8948 -1.4387 2.9444 28.1795
#
#
#
# Elastic Compliance Matrix: (Units=1/GPa)
#
#
# Indices 1 2 3 4 5 6 
#
# 1 0.007375 -0.001411 -0.002593 0.002924 0.000766 -0.002669
# 2 -0.001411 0.026405 -0.004917 -0.001178 0.005670 -0.012750
# 3 -0.002593 -0.004917 0.011874 -0.002338 -0.004022 0.004190
# 4 0.002924 -0.001178 -0.002338 0.036340 0.001643 0.000851
# 5 0.000766 0.005670 -0.004022 0.001643 0.027716 -0.005986
# 6 -0.002669 -0.012750 0.004190 0.000851 -0.005986 0.043567
#
#
# Mechanical properties :
#
#
# Convention : Reuss Voigt Hill
#
# Bulk Modulus (GPa) = 35.95746 52.52526 44.24136
# Shear Modulus (GPa) = 27.71769 35.13623 31.42696
#
# Velocity S-wave (km/s) = 3.72920 4.19870 3.97090
# Velocity P-wave (km/s) = 6.04845 7.06111 6.57431
#
# Compressibility (1/GPa) = 0.02781064
#
# Stress axis : x y z
#
# Youngs Moduli (GPa) = 135.58614 37.87183 84.21984
#
# Poissons Ratio (x) = 0.05345 0.21838
# Poissons Ratio (y) = 0.19137 0.41413
# Poissons Ratio (z) = 0.35157 0.18622
#
# Static dielectric constant tensor:
#      x y z
#    x 1.734870 -0.021650 0.024150 
#    y -0.021650 1.723460 0.008870 
#    z 0.024150 0.008870 1.817350 
# 
# From -- ./inp_files/238328.got.cif
#   From: 2010.05.17/outbox.cif.g08.bks.cpg/sg2_120_cif.got.tgz:238328.got - 2010.06.03 11:33:40.
