data_PCOD9098524
_publ_section_title
;
Structure prediction by ZEFSAII (Michael W. Deem and Ramdas Pophale) SiO2 
 PCOD9098524
Probable space group: P -1
;
_chemical_formula_sum "Si O2"
_cell_formula_units_Z 16
_cell_length_a 5.197048
_cell_length_b 9.135721
_cell_length_c 23.779844
_cell_angle_alpha 38.259454
_cell_angle_beta 83.122075
_cell_angle_gamma 69.103723
_cell_volume 627.563110
_symmetry_space_group_name_H-M "P -1"
_symmetry_group_IT_number 2
_symmetry_cell_setting 'triclinic'
loop_
_space_group_symop_operation_xyz
x,y,z
-x,-y,-z
loop_
_atom_site_type_symbol
_atom_site_label
_atom_site_fract_x
_atom_site_fract_y
_atom_site_fract_z
Si Si1 0.191976 0.236062 0.419509
Si Si2 0.600402 0.768574 0.022460
Si Si3 0.651278 0.918420 0.364907
Si Si4 0.622398 0.483483 0.816808
Si Si5 0.623683 0.998120 0.209594
Si Si6 0.842649 0.146124 0.550687
Si Si7 0.808240 0.402346 0.952069
Si Si8 0.254691 0.758218 0.231075
O O1 0.253452 0.486767 0.334271
O O2 0.949027 0.287785 0.457635
O O3 0.500000 0.000000 0.500000
O O4 0.081543 0.131770 0.399415
O O5 0.629656 0.521345 0.135273
O O6 0.350330 0.784673 0.982225
O O7 0.880493 0.706319 0.998460
O O8 0.500000 0.000000 0.000000
O O9 0.641781 0.907005 0.301661
O O10 0.482142 0.771782 0.444660
O O11 0.960794 0.857463 0.400646
O O12 0.466955 0.227007 0.288948
O O13 0.867695 0.390436 0.885911
O O14 0.696483 0.288016 0.822711
O O15 0.501638 0.825866 0.229452
O O16 0.938456 0.963905 0.194824
O O17 0.396936 0.300499 0.119896
#
# Coordination Sequence:
#
# PCOD9098524 Si02
#       8
#     2   2   2   2   2   2   2   2
#     4  11  24  40  62  94 117 163 203 276 321 356
#     4  10  20  36  68 101 122 154 212 259 291 353
#     4  11  22  41  63  89 112 174 200 257 304 379
#     4   9  23  34  68  89 124 155 217 252 300 343
#     4  11  26  41  61  93 132 163 205 253 322 369
#     4  11  22  37  66  80 121 147 218 250 320 353
#     4   9  21  40  63  90 127 165 201 244 313 361
#     4  12  25  40  63  94 124 159 214 264 305 375
#
# _framework density 25.495443000000002
#
# number of rings (size 3 to 8) (size 9 to 14) (size 15 to 20)
#    0.750    0.750    2.500    1.875   10.500    0.000 
#    0.000    3.750    0.000    4.500    0.000    0.000 
#    0.000    0.000    0.000    0.000    0.000    0.000 
#
# Total GULP energy -89469.465152 kJ/mol
# GULP energy per Si atom -5591.841572 kJ/mol
# Density = 2.543741 g / cm^3
# Si number density = 25.495443 Si / 1000 Ang^3
#
#
#
# Elastic Constant Matrix: (Units=GPa)
#
#
# Indices 1 2 3 4 5 6 
#
# 1 147.7555 14.8352 20.3085 8.8819 -13.9839 -5.2311
# 2 14.8352 105.6018 18.6742 12.3579 2.1941 1.4781
# 3 20.3085 18.6742 69.8311 -10.5711 -15.5382 -1.4750
# 4 8.8819 12.3579 -10.5711 41.0837 -4.4835 -3.5307
# 5 -13.9839 2.1941 -15.5382 -4.4835 34.5237 -1.7217
# 6 -5.2311 1.4781 -1.4750 -3.5307 -1.7217 36.9179
#
#
#
# Elastic Compliance Matrix: (Units=1/GPa)
#
#
# Indices 1 2 3 4 5 6 
#
# 1 0.007393 -0.000607 -0.001736 -0.001552 0.002098 0.000952
# 2 -0.000607 0.010967 -0.004300 -0.004776 -0.003564 -0.001320
# 3 -0.001736 -0.004300 0.019279 0.007812 0.009355 0.001880
# 4 -0.001552 -0.004776 0.007812 0.029196 0.007153 0.003409
# 5 0.002098 -0.003564 0.009355 0.007153 0.035338 0.003146
# 6 0.000952 -0.001320 0.001880 0.003409 0.003146 0.027823
#
#
# Mechanical properties :
#
#
# Convention : Reuss Voigt Hill
#
# Bulk Modulus (GPa) = 41.06301 47.86936 44.46618
# Shear Modulus (GPa) = 33.02522 40.46310 36.74416
#
# Velocity S-wave (km/s) = 3.60299 3.98813 3.80044
# Velocity P-wave (km/s) = 5.78357 6.32640 6.06106
#
# Compressibility (1/GPa) = 0.02435282
#
# Stress axis : x y z
#
# Youngs Moduli (GPa) = 135.26374 91.18491 51.86998
#
# Poissons Ratio (x) = 0.05535 0.09003
# Poissons Ratio (y) = 0.08210 0.22305
# Poissons Ratio (z) = 0.23478 0.39212
#
# Static dielectric constant tensor:
#      x y z
#    x 2.088460 0.008120 -0.034730 
#    y 0.008120 2.002950 0.018480 
#    z -0.034730 0.018480 2.048710 
# 
# From -- ./inp_files/615229.got.cif
#   From: 2010.05.17/outbox.cif.g08.bks.cpg/sg2_308_cif.got.tgz:615229.got - 2010.06.03 11:33:40.
