data_PCOD9098973
_publ_section_title
;
Structure prediction by ZEFSAII (Michael W. Deem and Ramdas Pophale) SiO2 
 PCOD9098973
Probable space group: P -1
;
_chemical_formula_sum "Si O2"
_cell_formula_units_Z 12
_cell_length_a 12.256313
_cell_length_b 8.289911
_cell_length_c 20.712308
_cell_angle_alpha 56.316097
_cell_angle_beta 18.601836
_cell_angle_gamma 53.556067
_cell_volume 539.728507
_symmetry_space_group_name_H-M "P -1"
_symmetry_group_IT_number 2
_symmetry_cell_setting 'triclinic'
loop_
_space_group_symop_operation_xyz
x,y,z
-x,-y,-z
loop_
_atom_site_type_symbol
_atom_site_label
_atom_site_fract_x
_atom_site_fract_y
_atom_site_fract_z
Si Si1 0.925749 0.095532 0.842489
Si Si2 0.410560 0.869954 0.348060
Si Si3 0.543425 0.354130 0.893067
Si Si4 0.211175 0.292476 0.958521
Si Si5 0.727306 0.748957 0.727527
Si Si6 0.798269 0.617996 0.300218
O O1 0.759486 0.155350 0.852379
O O2 0.196960 0.227365 0.678530
O O3 0.610643 0.186629 0.050342
O O4 0.022718 0.859132 0.854507
O O5 0.539709 0.808826 0.216929
O O6 0.702072 0.760938 0.259504
O O7 0.058303 0.793604 0.569483
O O8 0.332536 0.109937 0.334038
O O9 0.436175 0.320672 0.888156
O O10 0.764995 0.520529 0.737995
O O11 0.173156 0.456483 0.114919
O O12 0.000000 0.500000 0.000000
O O13 0.500000 0.500000 0.500000
#
# Coordination Sequence:
#
# PCOD9098973 Si02
#       6
#     2   2   2   2   2   2
#     4  10  22  38  61  86 115 150 192 235 284 335
#     4  10  20  37  58  89 114 147 194 237 280 341
#     4  11  21  38  60  84 118 150 191 232 290 339
#     4  11  23  38  58  84 120 156 185 230 286 344
#     4   9  20  36  62  87 111 148 194 239 286 324
#     4  11  21  36  63  85 114 146 197 241 282 330
#
# _framework density 22.233401000000001
#
# number of rings (size 3 to 8) (size 9 to 14) (size 15 to 20)
#    0.000    1.667    1.667    4.500    2.333    2.667 
#    0.000    0.833    3.667    0.000    0.000    0.000 
#    0.000    0.000    0.000    0.000    0.000    0.000 
#
# Total GULP energy -67036.315786 kJ/mol
# GULP energy per Si atom -5586.359649 kJ/mol
# Density = 2.218280 g / cm^3
# Si number density = 22.233401 Si / 1000 Ang^3
#
#
#
# Elastic Constant Matrix: (Units=GPa)
#
#
# Indices 1 2 3 4 5 6 
#
# 1 115.7281 47.8074 -2.8816 -21.2096 -9.8257 -22.8167
# 2 47.8074 122.1538 19.4561 -26.4320 -8.8630 -28.3693
# 3 -2.8816 19.4561 52.5175 -22.5192 -12.7795 -5.1165
# 4 -21.2096 -26.4320 -22.5192 24.6323 2.8619 -0.5081
# 5 -9.8257 -8.8630 -12.7795 2.8619 18.8454 0.6024
# 6 -22.8167 -28.3693 -5.1165 -0.5081 0.6024 31.6526
#
#
#
# Elastic Compliance Matrix: (Units=1/GPa)
#
#
# Indices 1 2 3 4 5 6 
#
# 1 0.025375 0.005547 0.032719 0.054969 0.028756 0.028887
# 2 0.005547 0.017974 0.015455 0.036865 0.015495 0.022903
# 3 0.032719 0.015455 0.085533 0.116710 0.062945 0.051939
# 4 0.054969 0.036865 0.116710 0.225906 0.087846 0.093485
# 5 0.028756 0.015495 0.062945 0.087846 0.103273 0.044235
# 6 0.028887 0.022903 0.051939 0.093485 0.044235 0.081998
#
#
# Mechanical properties :
#
#
# Convention : Reuss Voigt Hill
#
# Bulk Modulus (GPa) = 4.23147 46.57369 25.40258
# Shear Modulus (GPa) = 9.77725 30.09390 19.93558
#
# Velocity S-wave (km/s) = 2.09931 3.68305 2.99766
# Velocity P-wave (km/s) = 2.78989 6.25136 4.84061
#
# Compressibility (1/GPa) = 0.23632421
#
# Stress axis : x y z
#
# Youngs Moduli (GPa) = 39.40874 55.63548 11.69142
#
# Poissons Ratio (x) = -0.30861 -0.38253
# Poissons Ratio (y) = -0.21860 -0.18069
# Poissons Ratio (z) = -1.28942 -0.85984
#
# Static dielectric constant tensor:
#      x y z
#    x 1.809120 -0.005570 -0.020570 
#    y -0.005570 1.923110 0.002250 
#    z -0.020570 0.002250 1.850860 
# 
# From -- ./inp_files/144519.got.cif
#   From: 2010.05.17/outbox.cif.g08.bks.cpg/sg2_73_cif.got.tgz:144519.got - 2010.06.03 11:33:40.
