data_PCOD9098953
_publ_section_title
;
Structure prediction by ZEFSAII (Michael W. Deem and Ramdas Pophale) SiO2 
 PCOD9098953
Probable space group: P -1
;
_chemical_formula_sum "Si O2"
_cell_formula_units_Z 16
_cell_length_a 10.130368
_cell_length_b 8.635759
_cell_length_c 12.137103
_cell_angle_alpha 60.431532
_cell_angle_beta 102.149620
_cell_angle_gamma 126.653084
_cell_volume 735.499689
_symmetry_space_group_name_H-M "P -1"
_symmetry_group_IT_number 2
_symmetry_cell_setting 'triclinic'
loop_
_space_group_symop_operation_xyz
x,y,z
-x,-y,-z
loop_
_atom_site_type_symbol
_atom_site_label
_atom_site_fract_x
_atom_site_fract_y
_atom_site_fract_z
Si Si1 0.633046 0.374362 0.979267
Si Si2 0.871095 0.550457 0.502229
Si Si3 0.284504 0.467329 0.741526
Si Si4 0.949145 0.537864 0.122401
Si Si5 0.396823 0.223343 0.170385
Si Si6 0.788712 0.523695 0.736211
Si Si7 0.101084 0.996281 0.915259
Si Si8 0.103655 0.029679 0.320383
O O1 0.646921 0.600935 0.920748
O O2 0.649699 0.358595 0.857800
O O3 0.794992 0.419128 0.052914
O O4 0.468899 0.196118 0.080531
O O5 0.742847 0.503129 0.399723
O O6 0.778469 0.448085 0.636765
O O7 0.000000 0.500000 0.500000
O O8 0.988977 0.813375 0.446047
O O9 0.132015 0.443147 0.787992
O O10 0.452152 0.661385 0.757652
O O11 0.264404 0.241263 0.843502
O O12 0.038271 0.423869 0.206318
O O13 0.088963 0.779875 0.016080
O O14 0.237983 0.023260 0.273381
O O15 0.803147 0.748196 0.671541
O O16 0.006245 0.961972 0.796717
O O17 0.000000 0.000000 0.000000
#
# Coordination Sequence:
#
# PCOD9098953 Si02
#       8
#     2   2   2   2   2   2   2   2
#     4   9  18  29  53  84 112 140 176 227 278 327
#     4  11  22  40  57  83 111 147 197 235 275 323
#     4   9  19  33  56  82 107 152 186 229 278 326
#     4  10  16  31  53  85 113 137 180 239 275 323
#     4   9  17  35  57  82 113 146 187 223 281 344
#     4  11  20  33  58  87 117 143 188 237 276 321
#     4   9  17  29  51  86 111 137 186 223 284 318
#     4  10  21  37  58  86 107 151 190 231 273 335
#
# _framework density 21.753917999999999
#
# number of rings (size 3 to 8) (size 9 to 14) (size 15 to 20)
#    0.000    2.250    3.750    0.750    1.750    0.000 
#    0.000    3.125    0.000    6.750    0.000    0.000 
#    0.000    0.000    0.000    0.000    0.000    0.000 
#
# Total GULP energy -89261.164475 kJ/mol
# GULP energy per Si atom -5578.822780 kJ/mol
# Density = 2.170440 g / cm^3
# Si number density = 21.753918 Si / 1000 Ang^3
#
#
#
# Elastic Constant Matrix: (Units=GPa)
#
#
# Indices 1 2 3 4 5 6 
#
# 1 73.7596 13.6400 40.9315 8.5459 -11.6521 -8.6442
# 2 13.6400 30.8799 18.5307 13.4559 -5.7516 -8.5351
# 3 40.9315 18.5307 109.6965 32.8942 -22.0964 -6.0864
# 4 8.5459 13.4559 32.8942 28.1001 -7.0376 -2.7486
# 5 -11.6521 -5.7516 -22.0964 -7.0376 37.7116 4.9631
# 6 -8.6442 -8.5351 -6.0864 -2.7486 4.9631 26.2089
#
#
#
# Elastic Compliance Matrix: (Units=1/GPa)
#
#
# Indices 1 2 3 4 5 6 
#
# 1 0.018523 -0.005363 -0.007461 0.006293 0.001308 0.003043
# 2 -0.005363 0.046292 0.001121 -0.020561 0.000740 0.011271
# 3 -0.007461 0.001121 0.018229 -0.018376 0.005220 -0.000778
# 4 0.006293 -0.020561 -0.018376 0.064929 0.000443 -0.002162
# 5 0.001308 0.000740 0.005220 0.000443 0.030686 -0.003880
# 6 0.003043 0.011271 -0.000778 -0.002162 -0.003880 0.043156
#
#
# Mechanical properties :
#
#
# Convention : Reuss Voigt Hill
#
# Bulk Modulus (GPa) = 16.76740 40.06005 28.41373
# Shear Modulus (GPa) = 18.86079 27.81969 23.34024
#
# Velocity S-wave (km/s) = 2.94769 3.57996 3.27910
# Velocity P-wave (km/s) = 4.39428 5.96181 5.23703
#
# Compressibility (1/GPa) = 0.05963952
#
# Stress axis : x y z
#
# Youngs Moduli (GPa) = 53.98558 21.60203 54.85740
#
# Poissons Ratio (x) = 0.11584 0.40927
# Poissons Ratio (y) = 0.28950 -0.06148
# Poissons Ratio (z) = 0.40277 -0.02421
#
# Static dielectric constant tensor:
#      x y z
#    x 1.807250 -0.020570 -0.021570 
#    y -0.020570 1.830270 0.007150 
#    z -0.021570 0.007150 1.805910 
# 
# From -- ./inp_files/416575.got.cif
#   From: 2010.05.17/outbox.cif.g08.bks.cpg/sg2_209_cif.got.tgz:416575.got - 2010.06.03 11:33:40.
