data_PCOD9098083
_publ_section_title
;
Structure prediction by ZEFSAII (Michael W. Deem and Ramdas Pophale) SiO2 
 PCOD9098083
Probable space group: P -1
;
_chemical_formula_sum "Si O2"
_cell_formula_units_Z 14
_cell_length_a 22.375565
_cell_length_b 24.305381
_cell_length_c 11.832131
_cell_angle_alpha 149.498494
_cell_angle_beta 23.294292
_cell_angle_gamma 161.334633
_cell_volume 812.539091
_symmetry_space_group_name_H-M "P -1"
_symmetry_group_IT_number 2
_symmetry_cell_setting 'triclinic'
loop_
_space_group_symop_operation_xyz
x,y,z
-x,-y,-z
loop_
_atom_site_type_symbol
_atom_site_label
_atom_site_fract_x
_atom_site_fract_y
_atom_site_fract_z
Si Si1 0.456069 0.117800 0.402417
Si Si2 0.071711 0.222293 0.239101
Si Si3 0.200464 0.236837 0.282996
Si Si4 0.416769 0.387807 0.719125
Si Si5 0.191742 0.520392 0.654028
Si Si6 0.114353 0.060673 0.531233
Si Si7 0.708046 0.038432 0.841242
O O1 0.634299 0.318398 0.449775
O O2 0.402660 0.067823 0.272245
O O3 0.587455 0.083708 0.158283
O O4 0.194896 0.973714 0.657140
O O5 0.187999 0.223609 0.145954
O O6 0.067735 0.347004 0.503825
O O7 0.236965 0.302801 0.986047
O O8 0.454295 0.428495 0.213063
O O9 0.991442 0.208898 0.625687
O O10 0.095305 0.078403 0.256632
O O11 0.627314 0.427303 0.472848
O O12 0.268350 0.249929 0.633429
O O13 0.000000 0.500000 0.000000
O O14 0.290098 0.054955 0.234540
O O15 0.000000 0.000000 0.500000
#
# Coordination Sequence:
#
# PCOD9098083 Si02
#       7
#     2   2   2   2   2   2   2
#     4  10  16  31  50  74 112 134 160 215 267 305
#     4  10  21  30  50  83 114 134 161 207 277 327
#     4   8  17  32  49  75 106 127 168 215 256 307
#     4  11  20  34  51  79 113 137 164 220 263 309
#     4  11  19  29  53  79 106 141 166 200 272 324
#     4  10  21  35  53  75 100 145 186 210 251 298
#     4   8  16  32  48  77 103 130 175 219 248 303
#
# _framework density 17.229939999999999
#
# number of rings (size 3 to 8) (size 9 to 14) (size 15 to 20)
#    0.857    1.429    1.429    5.143    0.000    4.000 
#    0.000    0.000    0.000    0.857    0.000    2.000 
#    0.000    0.000    0.000    0.000    0.000    0.000 
#
# Total GULP energy -77935.134074 kJ/mol
# GULP energy per Si atom -5566.795291 kJ/mol
# Density = 1.719072 g / cm^3
# Si number density = 17.229940 Si / 1000 Ang^3
#
#
#
# Elastic Constant Matrix: (Units=GPa)
#
#
# Indices 1 2 3 4 5 6 
#
# 1 38.0976 -1.0727 9.0715 2.1359 -4.8774 9.4542
# 2 -1.0727 89.8691 26.0720 -18.7063 7.0161 -9.5709
# 3 9.0715 26.0720 68.3773 -2.2055 -1.8137 5.0767
# 4 2.1359 -18.7063 -2.2055 21.4456 -4.2973 1.0442
# 5 -4.8774 7.0161 -1.8137 -4.2973 12.7820 0.1801
# 6 9.4542 -9.5709 5.0767 1.0442 0.1801 19.5778
#
#
#
# Elastic Compliance Matrix: (Units=1/GPa)
#
#
# Indices 1 2 3 4 5 6 
#
# 1 0.032445 -0.002177 -0.001992 -0.001968 0.012860 -0.016229
# 2 -0.002177 0.017502 -0.006967 0.012781 -0.007281 0.010799
# 3 -0.001992 -0.006967 0.018109 -0.002707 0.004823 -0.007040
# 4 -0.001968 0.012781 -0.002707 0.059858 0.011909 0.004599
# 5 0.012860 -0.007281 0.004823 0.011909 0.092003 -0.012502
# 6 -0.016229 0.010799 -0.007040 0.004599 -0.012502 0.065890
#
#
# Mechanical properties :
#
#
# Convention : Reuss Voigt Hill
#
# Bulk Modulus (GPa) = 21.84163 29.38727 25.61445
# Shear Modulus (GPa) = 15.46359 21.57930 18.52144
#
# Velocity S-wave (km/s) = 2.99905 3.54281 3.28221
# Velocity P-wave (km/s) = 4.96956 5.81621 5.40947
#
# Compressibility (1/GPa) = 0.04578412
#
# Stress axis : x y z
#
# Youngs Moduli (GPa) = 30.82096 57.13789 55.22174
#
# Poissons Ratio (x) = 0.12438 0.10999
# Poissons Ratio (y) = 0.06709 0.38474
# Poissons Ratio (z) = 0.06139 0.39809
#
# Static dielectric constant tensor:
#      x y z
#    x 1.557630 -0.025230 -0.001940 
#    y -0.025230 1.643070 0.002600 
#    z -0.001940 0.002600 1.611510 
# 
# From -- ./inp_files/472824.got.cif
#   From: 2010.05.17/outbox.cif.g08.bks.cpg/sg2_237_cif.got.tgz:472824.got - 2010.06.03 11:33:40.
