data_PCOD9098562
_publ_section_title
;
Structure prediction by ZEFSAII (Michael W. Deem and Ramdas Pophale) SiO2 
 PCOD9098562
Probable space group: P -1
;
_chemical_formula_sum "Si O2"
_cell_formula_units_Z 16
_cell_length_a 8.690273
_cell_length_b 24.254012
_cell_length_c 9.654071
_cell_angle_alpha 138.454471
_cell_angle_beta 86.830347
_cell_angle_gamma 127.622224
_cell_volume 689.049395
_symmetry_space_group_name_H-M "P -1"
_symmetry_group_IT_number 2
_symmetry_cell_setting 'triclinic'
loop_
_space_group_symop_operation_xyz
x,y,z
-x,-y,-z
loop_
_atom_site_type_symbol
_atom_site_label
_atom_site_fract_x
_atom_site_fract_y
_atom_site_fract_z
Si Si1 0.358401 0.360151 0.445870
Si Si2 0.316506 0.943318 0.036177
Si Si3 0.838369 0.687163 0.933290
Si Si4 0.330269 0.811010 0.992909
Si Si5 0.258131 0.109957 0.311244
Si Si6 0.758532 0.363452 0.133682
Si Si7 0.857087 0.863728 0.346778
Si Si8 0.309223 0.645354 0.474787
O O1 0.626277 0.550388 0.804381
O O2 0.314050 0.342371 0.249653
O O3 0.462790 0.317030 0.401134
O O4 0.043541 0.241562 0.305297
O O5 0.432553 0.943969 0.163613
O O6 0.500000 0.000000 0.000000
O O7 0.316338 0.042895 0.233762
O O8 0.023958 0.700691 0.875797
O O9 0.009257 0.844583 0.284875
O O10 0.427954 0.798929 0.094743
O O11 0.319838 0.739177 0.731640
O O12 0.138781 0.106457 0.439457
O O13 0.567056 0.284074 0.552318
O O14 0.000000 0.000000 0.000000
O O15 0.000000 0.500000 0.500000
O O16 0.978771 0.454788 0.163472
O O17 0.500060 0.306930 0.994445
O O18 0.000000 0.000000 0.500000
#
# Coordination Sequence:
#
# PCOD9098562 Si02
#       8
#     2   2   2   2   2   2   2   2
#     4  10  20  36  69 101 136 185 233 289 352 423
#     4  11  22  38  64 106 135 186 237 287 352 426
#     4  10  21  38  66 105 138 175 240 298 346 406
#     4  10  20  36  70 103 134 179 235 297 341 419
#     4  12  27  47  71 100 147 201 230 289 369 430
#     4  10  23  41  73 106 134 187 232 296 355 418
#     4  12  28  46  71 108 146 187 246 290 357 434
#     4  11  21  40  70 100 138 188 239 278 361 428
#
# _framework density 23.220397999999999
#
# number of rings (size 3 to 8) (size 9 to 14) (size 15 to 20)
#    0.000    1.250    3.750    3.000   12.250    0.500 
#    0.000    4.375    0.000    0.000    0.000    0.000 
#    0.000    0.000    0.000    0.000    0.000    0.000 
#
# Total GULP energy -89191.208887 kJ/mol
# GULP energy per Si atom -5574.450555 kJ/mol
# Density = 2.316755 g / cm^3
# Si number density = 23.220398 Si / 1000 Ang^3
#
#
#
# Elastic Constant Matrix: (Units=GPa)
#
#
# Indices 1 2 3 4 5 6 
#
# 1 127.2693 29.9304 39.0347 0.9809 -8.4417 -10.9503
# 2 29.9304 160.0688 36.7050 20.2288 -9.5859 5.0149
# 3 39.0347 36.7050 53.5242 3.2743 -8.4128 5.8135
# 4 0.9809 20.2288 3.2743 31.8489 0.7771 -3.7612
# 5 -8.4417 -9.5859 -8.4128 0.7771 42.4427 7.1722
# 6 -10.9503 5.0149 5.8135 -3.7612 7.1722 48.3195
#
#
#
# Elastic Compliance Matrix: (Units=1/GPa)
#
#
# Indices 1 2 3 4 5 6 
#
# 1 0.010694 -0.000442 -0.007982 0.001196 -0.000177 0.003549
# 2 -0.000442 0.008098 -0.004674 -0.004782 0.001055 -0.000907
# 3 -0.007982 -0.004674 0.028965 -0.000505 0.004028 -0.005446
# 4 0.001196 -0.004782 -0.000505 0.034964 -0.002238 0.003882
# 5 -0.000177 0.001055 0.004028 -0.002238 0.025377 -0.004575
# 6 0.003549 -0.000907 -0.005446 0.003882 -0.004575 0.023231
#
#
# Mechanical properties :
#
#
# Convention : Reuss Voigt Hill
#
# Bulk Modulus (GPa) = 46.38095 61.35586 53.86840
# Shear Modulus (GPa) = 30.35623 40.20167 35.27895
#
# Velocity S-wave (km/s) = 3.61960 4.16541 3.90206
# Velocity P-wave (km/s) = 6.12260 7.04378 6.59928
#
# Compressibility (1/GPa) = 0.02156058
#
# Stress axis : x y z
#
# Youngs Moduli (GPa) = 93.51056 123.49250 34.52436
#
# Poissons Ratio (x) = 0.05459 0.27558
# Poissons Ratio (y) = 0.04134 0.16136
# Poissons Ratio (z) = 0.74642 0.57717
#
# Static dielectric constant tensor:
#      x y z
#    x 1.933360 0.000640 0.006530 
#    y 0.000640 1.865660 0.060080 
#    z 0.006530 0.060080 2.137340 
# 
# From -- ./inp_files/226655.got.cif
#   From: 2010.05.17/outbox.cif.g08.bks.cpg/sg2_114_cif.got.tgz:226655.got - 2010.06.03 11:33:40.
