data_PCOD9098740
_publ_section_title
;
Structure prediction by ZEFSAII (Michael W. Deem and Ramdas Pophale) SiO2 
 PCOD9098740
Probable space group: P -1
;
_chemical_formula_sum "Si O2"
_cell_formula_units_Z 16
_cell_length_a 10.705414
_cell_length_b 13.019011
_cell_length_c 5.004279
_cell_angle_alpha 112.463971
_cell_angle_beta 92.405904
_cell_angle_gamma 71.929838
_cell_volume 610.421640
_symmetry_space_group_name_H-M "P -1"
_symmetry_group_IT_number 2
_symmetry_cell_setting 'triclinic'
loop_
_space_group_symop_operation_xyz
x,y,z
-x,-y,-z
loop_
_atom_site_type_symbol
_atom_site_label
_atom_site_fract_x
_atom_site_fract_y
_atom_site_fract_z
Si Si1 0.904958 0.044520 0.781481
Si Si2 0.952592 0.341922 0.805633
Si Si3 0.211359 0.761633 0.688968
Si Si4 0.536453 0.338184 0.164921
Si Si5 0.386253 0.217617 0.444162
Si Si6 0.277009 0.434736 0.046910
Si Si7 0.351528 0.883668 0.433512
Si Si8 0.868411 0.678234 0.696744
O O1 0.764145 0.027046 0.665615
O O2 0.856149 0.181697 0.988135
O O3 0.000000 0.000000 0.500000
O O4 0.000000 0.000000 0.000000
O O5 0.045922 0.367873 0.605795
O O6 0.890648 0.260144 0.546169
O O7 0.826508 0.452760 0.980525
O O8 0.043581 0.301760 0.032182
O O9 0.334891 0.649985 0.668388
O O10 0.273515 0.854401 0.650608
O O11 0.460475 0.281358 0.313883
O O12 0.420815 0.443822 0.134725
O O13 0.595000 0.237970 0.848978
O O14 0.507384 0.106955 0.447625
O O15 0.257143 0.207588 0.272250
O O16 0.318571 0.313279 0.761852
O O17 0.199599 0.412877 0.279842
#
# Coordination Sequence:
#
# PCOD9098740 Si02
#       8
#     2   2   2   2   2   2   2   2
#     4  11  21  37  64  91 116 143 178 228 291 360
#     4  12  26  34  57  81 121 160 191 244 289 329
#     4  10  22  39  56  87 125 146 188 227 295 357
#     4   8  18  33  58  78 114 151 195 241 278 333
#     4   9  18  36  57  81 112 149 203 252 263 323
#     4  10  20  37  57  79 113 156 213 245 277 314
#     4   9  18  37  59  88 116 144 184 241 282 342
#     4  11  23  38  54  82 110 162 209 241 276 320
#
# _framework density 26.211390999999999
#
# number of rings (size 3 to 8) (size 9 to 14) (size 15 to 20)
#    0.000    2.000    2.500    0.750    7.000    0.500 
#    0.000    5.625    0.000    0.000    0.000    5.250 
#    0.000    0.000    0.000    0.000    0.000    0.000 
#
# Total GULP energy -89253.416420 kJ/mol
# GULP energy per Si atom -5578.338526 kJ/mol
# Density = 2.615173 g / cm^3
# Si number density = 26.211391 Si / 1000 Ang^3
#
#
#
# Elastic Constant Matrix: (Units=GPa)
#
#
# Indices 1 2 3 4 5 6 
#
# 1 1547.0755 -943.5013 -32.3101 -545.3104 154.9324 -279.1506
# 2 -943.5013 881.2965 89.8131 365.7068 -101.8417 76.6509
# 3 -32.3101 89.8131 143.0813 3.0882 -31.3654 -8.8909
# 4 -545.3104 365.7068 3.0882 232.4582 -74.5079 92.0786
# 5 154.9324 -101.8417 -31.3654 -74.5079 56.3033 -38.1866
# 6 -279.1506 76.6509 -8.8909 92.0786 -38.1866 109.0052
#
#
#
# Elastic Compliance Matrix: (Units=1/GPa)
#
#
# Indices 1 2 3 4 5 6 
#
# 1 0.009384 0.004876 0.001578 0.011548 0.008661 0.014011
# 2 0.004876 0.008155 -0.003413 -0.006165 -0.001053 0.011312
# 3 0.001578 -0.003413 0.012557 0.012981 0.014800 0.001686
# 4 0.011548 -0.006165 0.012981 0.049766 0.033269 0.004584
# 5 0.008661 -0.001053 0.014800 0.033269 0.054561 0.015138
# 6 0.014011 0.011312 0.001686 0.004584 0.015138 0.038669
#
#
# Mechanical properties :
#
#
# Convention : Reuss Voigt Hill
#
# Bulk Modulus (GPa) = 27.64042 88.82851 58.23447
# Shear Modulus (GPa) = 27.92223 310.05011 168.98617
#
# Velocity S-wave (km/s) = 3.26739 10.88784 8.03806
# Velocity P-wave (km/s) = 4.98021 13.85724 10.41214
#
# Compressibility (1/GPa) = 0.03617890
#
# Stress axis : x y z
#
# Youngs Moduli (GPa) = 106.56115 122.62239 79.63898
#
# Poissons Ratio (x) = -0.59789 -0.12571
# Poissons Ratio (y) = -0.51958 0.27180
# Poissons Ratio (z) = -0.16820 0.41849
#
# Static dielectric constant tensor:
#      x y z
#    x 2.166810 -0.013520 0.060050 
#    y -0.013520 2.225370 -0.059100 
#    z 0.060050 -0.059100 2.096630 
# 
# From -- ./inp_files/82858.got.cif
#   From: 2010.05.17/outbox.cif.g08.bks.cpg/sg2_42_cif.got.tgz:82858.got - 2010.06.03 11:33:40.
