data_PCOD9098343
_publ_section_title
;
Structure prediction by ZEFSAII (Michael W. Deem and Ramdas Pophale) SiO2 
 PCOD9098343
Probable space group: P -1
;
_chemical_formula_sum "Si O2"
_cell_formula_units_Z 14
_cell_length_a 7.089787
_cell_length_b 12.706165
_cell_length_c 13.495763
_cell_angle_alpha 143.158576
_cell_angle_beta 124.925654
_cell_angle_gamma 76.650009
_cell_volume 529.968277
_symmetry_space_group_name_H-M "P -1"
_symmetry_group_IT_number 2
_symmetry_cell_setting 'triclinic'
loop_
_space_group_symop_operation_xyz
x,y,z
-x,-y,-z
loop_
_atom_site_type_symbol
_atom_site_label
_atom_site_fract_x
_atom_site_fract_y
_atom_site_fract_z
Si Si1 0.428214 0.419470 0.527645
Si Si2 0.954563 0.300090 0.423957
Si Si3 0.716487 0.592556 0.938456
Si Si4 0.767562 0.341676 0.097668
Si Si5 0.007178 0.040316 0.393765
Si Si6 0.506439 0.066112 0.225180
Si Si7 0.435092 0.790688 0.273099
O O1 0.500000 0.500000 0.500000
O O2 0.159668 0.407884 0.479993
O O3 0.407700 0.202737 0.352017
O O4 0.651007 0.551282 0.771689
O O5 0.057931 0.148244 0.383522
O O6 0.645348 0.164680 0.236980
O O7 0.997245 0.457795 0.643717
O O8 0.466880 0.605603 0.916617
O O9 0.702949 0.397841 0.838143
O O10 0.941880 0.811954 0.193987
O O11 0.738060 0.267102 0.920865
O O12 0.716675 0.157426 0.014271
O O13 0.267103 0.170236 0.630918
O O14 0.741239 0.052859 0.347526
O O15 0.500000 0.000000 0.500000
#
# Coordination Sequence:
#
# PCOD9098343 Si02
#       7
#     2   2   2   2   2   2   2
#     4  11  22  42  69  93 120 158 208 262 313 371
#     4   9  21  42  63  86 131 161 200 259 305 358
#     4  10  21  40  58  86 128 159 204 257 305 363
#     4  10  20  36  65  87 124 172 203 244 306 363
#     4   9  21  40  59  81 128 165 195 250 305 356
#     4   9  21  40  63  88 123 161 201 253 308 367
#     4  12  23  35  61  94 128 164 209 252 296 361
#
# _framework density 26.416677
#
# number of rings (size 3 to 8) (size 9 to 14) (size 15 to 20)
#    0.857    1.143    2.857    1.286    0.000    5.714 
#    0.000    7.143    0.000    0.857    0.000    0.000 
#    0.000    0.000    0.000    0.000    0.000    0.000 
#
# Total GULP energy -78239.563268 kJ/mol
# GULP energy per Si atom -5588.540233 kJ/mol
# Density = 2.635655 g / cm^3
# Si number density = 26.416677 Si / 1000 Ang^3
#
#
#
# Elastic Constant Matrix: (Units=GPa)
#
#
# Indices 1 2 3 4 5 6 
#
# 1 103.2196 26.2433 46.5634 -4.9895 -19.1353 -2.6074
# 2 26.2433 90.2226 59.5623 7.2343 -10.6891 32.3988
# 3 46.5634 59.5623 197.0020 18.9647 4.1747 8.5722
# 4 -4.9895 7.2343 18.9647 42.3482 -5.7130 -9.7312
# 5 -19.1353 -10.6891 4.1747 -5.7130 46.2282 -0.0636
# 6 -2.6074 32.3988 8.5722 -9.7312 -0.0636 39.4323
#
#
#
# Elastic Compliance Matrix: (Units=1/GPa)
#
#
# Indices 1 2 3 4 5 6 
#
# 1 0.013529 -0.004073 -0.002920 0.005812 0.005649 0.006320
# 2 -0.004073 0.023578 -0.004722 -0.006591 0.003350 -0.020237
# 3 -0.002920 -0.004722 0.007502 -0.003052 -0.003353 0.001297
# 4 0.005812 -0.006591 -0.003052 0.030689 0.004969 0.014045
# 5 0.005649 0.003350 -0.003353 0.004969 0.025661 -0.000382
# 6 0.006320 -0.020237 0.001297 0.014045 -0.000382 0.045588
#
#
# Mechanical properties :
#
#
# Convention : Reuss Voigt Hill
#
# Bulk Modulus (GPa) = 47.21830 72.79801 60.00815
# Shear Modulus (GPa) = 28.24258 42.80677 35.52468
#
# Velocity S-wave (km/s) = 3.27329 4.02984 3.67111
# Velocity P-wave (km/s) = 5.67443 7.01928 6.38237
#
# Compressibility (1/GPa) = 0.02117823
#
# Stress axis : x y z
#
# Youngs Moduli (GPa) = 73.91582 42.41241 133.29232
#
# Poissons Ratio (x) = 0.17276 0.38925
# Poissons Ratio (y) = 0.30109 0.62937
# Poissons Ratio (z) = 0.21586 0.20026
#
# Static dielectric constant tensor:
#      x y z
#    x 2.151710 0.007290 0.031430 
#    y 0.007290 2.159840 0.010080 
#    z 0.031430 0.010080 1.983830 
# 
# From -- ./inp_files/226724.got.cif
#   From: 2010.05.17/outbox.cif.g08.bks.cpg/sg2_114_cif.got.tgz:226724.got - 2010.06.03 11:33:40.
