data_PCOD9098570
_publ_section_title
;
Structure prediction by ZEFSAII (Michael W. Deem and Ramdas Pophale) SiO2 
 PCOD9098570
Probable space group: P -1
;
_chemical_formula_sum "Si O2"
_cell_formula_units_Z 16
_cell_length_a 8.251357
_cell_length_b 17.503319
_cell_length_c 14.129800
_cell_angle_alpha 24.952573
_cell_angle_beta 122.255702
_cell_angle_gamma 108.750817
_cell_volume 648.216896
_symmetry_space_group_name_H-M "P -1"
_symmetry_group_IT_number 2
_symmetry_cell_setting 'triclinic'
loop_
_space_group_symop_operation_xyz
x,y,z
-x,-y,-z
loop_
_atom_site_type_symbol
_atom_site_label
_atom_site_fract_x
_atom_site_fract_y
_atom_site_fract_z
Si Si1 0.103233 0.272851 0.742650
Si Si2 0.498549 0.262454 0.814749
Si Si3 0.957064 0.319641 0.431856
Si Si4 0.817381 0.568177 0.944205
Si Si5 0.300805 0.003346 0.556830
Si Si6 0.685368 0.309501 0.644115
Si Si7 0.508104 0.537278 0.136689
Si Si8 0.933893 0.023863 0.300675
O O1 0.365441 0.166835 0.941304
O O2 0.000000 0.500000 0.500000
O O3 0.068415 0.289114 0.600884
O O4 0.941627 0.191262 0.830175
O O5 0.569568 0.208249 0.787652
O O6 0.343545 0.500979 0.511649
O O7 0.719576 0.221195 0.982456
O O8 0.709918 0.403031 0.286994
O O9 0.036638 0.125148 0.609209
O O10 0.949885 0.495684 0.164162
O O11 0.649702 0.805781 0.635604
O O12 0.691135 0.447569 0.003030
O O13 0.000000 0.500000 0.000000
O O14 0.144112 0.042896 0.553709
O O15 0.149603 0.035477 0.382003
O O16 0.475941 0.767769 0.880030
O O17 0.558807 0.412861 0.391425
#
# Coordination Sequence:
#
# PCOD9098570 Si02
#       8
#     2   2   2   2   2   2   2   2
#     4   9  21  41  62  98 133 175 236 288 338 415
#     4  10  20  36  69  93 130 182 234 272 356 417
#     4  11  24  43  68  95 143 179 220 298 349 397
#     4  12  24  39  70 103 133 181 235 273 344 428
#     4  11  23  41  69  98 141 179 229 280 346 414
#     4   9  20  38  68  95 129 184 224 286 349 405
#     4  11  23  46  67  95 147 177 221 294 348 403
#     4  11  22  42  63 101 137 179 223 289 344 410
#
# _framework density 24.683097
#
# number of rings (size 3 to 8) (size 9 to 14) (size 15 to 20)
#    0.000    1.500    3.750    1.125    1.750    3.000 
#    0.000    3.750    0.000    0.000    0.000    0.000 
#    0.000    0.000    0.000    0.000    0.000    0.000 
#
# Total GULP energy -89181.706078 kJ/mol
# GULP energy per Si atom -5573.856630 kJ/mol
# Density = 2.462692 g / cm^3
# Si number density = 24.683097 Si / 1000 Ang^3
#
#
#
# Elastic Constant Matrix: (Units=GPa)
#
#
# Indices 1 2 3 4 5 6 
#
# 1 69.5374 19.2843 21.0358 4.2208 7.4782 -17.1557
# 2 19.2843 98.3184 7.2074 0.2760 -9.9558 -19.1823
# 3 21.0358 7.2074 53.7314 -3.0503 -0.4243 2.2622
# 4 4.2208 0.2760 -3.0503 43.7681 2.5446 -3.6833
# 5 7.4782 -9.9558 -0.4243 2.5446 21.7038 5.4179
# 6 -17.1557 -19.1823 2.2622 -3.6833 5.4179 26.1364
#
#
#
# Elastic Compliance Matrix: (Units=1/GPa)
#
#
# Indices 1 2 3 4 5 6 
#
# 1 0.023830 -0.001830 -0.009984 -0.000684 -0.013632 0.017893
# 2 -0.001830 0.012472 -0.001203 0.000356 0.004495 0.007175
# 3 -0.009984 -0.001203 0.023245 0.001374 0.005791 -0.010455
# 4 -0.000684 0.000356 0.001374 0.023506 -0.003248 0.003680
# 5 -0.013632 0.004495 0.005791 -0.003248 0.057977 -0.018626
# 6 0.017893 0.007175 -0.010455 0.003680 -0.018626 0.060556
#
#
# Mechanical properties :
#
#
# Convention : Reuss Voigt Hill
#
# Bulk Modulus (GPa) = 29.83803 35.18245 32.51024
# Shear Modulus (GPa) = 20.93879 29.92564 25.43221
#
# Velocity S-wave (km/s) = 2.91573 3.48572 3.21339
# Velocity P-wave (km/s) = 4.84252 5.52132 5.19302
#
# Compressibility (1/GPa) = 0.03351428
#
# Stress axis : x y z
#
# Youngs Moduli (GPa) = 41.96356 80.17815 43.01996
#
# Poissons Ratio (x) = 0.14670 0.42950
# Poissons Ratio (y) = 0.07678 0.05175
# Poissons Ratio (z) = 0.41896 0.09645
#
# Static dielectric constant tensor:
#      x y z
#    x 0.677670 0.386470 -0.362810 
#    y 0.386470 1.872800 0.129350 
#    z -0.362810 0.129350 1.972350 
# 
# From -- ./inp_files/507258.got.cif
#   From: 2010.05.17/outbox.cif.g08.bks.cpg/sg2_254_cif.got.tgz:507258.got - 2010.06.03 11:33:40.
