data_PCOD9098893
_publ_section_title
;
Structure prediction by ZEFSAII (Michael W. Deem and Ramdas Pophale) SiO2 
 PCOD9098893
Probable space group: P -1
;
_chemical_formula_sum "Si O2"
_cell_formula_units_Z 16
_cell_length_a 10.899714
_cell_length_b 21.265321
_cell_length_c 11.179480
_cell_angle_alpha 25.382201
_cell_angle_beta 57.752947
_cell_angle_gamma 43.351740
_cell_volume 692.229121
_symmetry_space_group_name_H-M "P -1"
_symmetry_group_IT_number 2
_symmetry_cell_setting 'triclinic'
loop_
_space_group_symop_operation_xyz
x,y,z
-x,-y,-z
loop_
_atom_site_type_symbol
_atom_site_label
_atom_site_fract_x
_atom_site_fract_y
_atom_site_fract_z
Si Si1 0.481809 0.789791 0.775455
Si Si2 0.871524 0.535657 0.889560
Si Si3 0.171253 0.002555 0.911744
Si Si4 0.333676 0.689614 0.842015
Si Si5 0.923556 0.891357 0.487887
Si Si6 0.561310 0.624507 0.281236
Si Si7 0.051456 0.108214 0.167714
Si Si8 0.988826 0.652309 0.417421
O O1 0.432983 0.664087 0.960193
O O2 0.272744 0.015805 0.495444
O O3 0.652639 0.733445 0.699650
O O4 0.555403 0.714383 0.002233
O O5 0.065044 0.451256 0.296661
O O6 0.896214 0.343097 0.197620
O O7 0.000000 0.500000 0.000000
O O8 0.154357 0.074997 0.663046
O O9 0.392141 0.795928 0.163187
O O10 0.113731 0.154889 0.779107
O O11 0.000000 0.000000 0.000000
O O12 0.121368 0.763462 0.862302
O O13 0.255089 0.896936 0.469476
O O14 0.500000 0.500000 0.000000
O O15 0.975874 0.024646 0.263277
O O16 0.500000 0.500000 0.500000
O O17 0.776922 0.488678 0.455654
O O18 0.072290 0.251655 0.847656
#
# Coordination Sequence:
#
# PCOD9098893 Si02
#       8
#     2   2   2   2   2   2   2   2
#     4  10  22  38  57  84 117 159 201 241 297 353
#     4  12  23  36  58  86 126 169 197 228 286 370
#     4  11  19  31  54  84 120 158 186 239 295 348
#     4  10  21  40  67  89 111 150 206 257 302 348
#     4  10  20  37  58  83 122 159 194 240 292 352
#     4  11  20  32  56  85 121 152 193 242 296 353
#     4  10  22  40  63  90 118 151 198 256 303 344
#     4  12  23  37  54  92 125 155 196 242 295 354
#
# _framework density 23.113733
#
# number of rings (size 3 to 8) (size 9 to 14) (size 15 to 20)
#    0.000    1.250    5.000    2.250    0.000    3.500 
#    0.000    0.625    0.000   10.500    0.000    0.000 
#    0.000    0.000    0.000    0.000    0.000    0.000 
#
# Total GULP energy -89233.339092 kJ/mol
# GULP energy per Si atom -5577.083693 kJ/mol
# Density = 2.306113 g / cm^3
# Si number density = 23.113733 Si / 1000 Ang^3
#
#
#
# Elastic Constant Matrix: (Units=GPa)
#
#
# Indices 1 2 3 4 5 6 
#
# 1 25.2690 12.6902 5.0005 -9.1412 9.4156 -10.9239
# 2 12.6902 113.5691 39.4858 -26.3272 13.2702 -17.7303
# 3 5.0005 39.4858 82.9443 -9.1764 14.7804 -16.4871
# 4 -9.1412 -26.3272 -9.1764 50.2047 -5.9887 5.8021
# 5 9.4156 13.2702 14.7804 -5.9887 27.7386 -3.9235
# 6 -10.9239 -17.7303 -16.4871 5.8021 -3.9235 38.7018
#
#
#
# Elastic Compliance Matrix: (Units=1/GPa)
#
#
# Indices 1 2 3 4 5 6 
#
# 1 0.053799 -0.002004 0.003924 0.005980 -0.016207 0.013399
# 2 -0.002004 0.012210 -0.004456 0.004791 -0.001432 0.002266
# 3 0.003924 -0.004456 0.016250 -0.000114 -0.007136 0.005282
# 4 0.005980 0.004791 -0.000114 0.023559 0.000880 0.000392
# 5 -0.016207 -0.001432 -0.007136 0.000880 0.045697 -0.003770
# 6 0.013399 0.002266 0.005282 0.000392 -0.003770 0.032468
#
#
# Mechanical properties :
#
#
# Convention : Reuss Voigt Hill
#
# Bulk Modulus (GPa) = 12.95560 37.34838 25.15199
# Shear Modulus (GPa) = 23.27915 34.30273 28.79094
#
# Velocity S-wave (km/s) = 3.17702 3.85656 3.53316
# Velocity P-wave (km/s) = 4.36752 6.00203 5.24879
#
# Compressibility (1/GPa) = 0.07718670
#
# Stress axis : x y z
#
# Youngs Moduli (GPa) = 18.58771 81.89868 61.53789
#
# Poissons Ratio (x) = 0.16410 -0.24145
# Poissons Ratio (y) = 0.03724 0.27422
# Poissons Ratio (z) = -0.07293 0.36496
#
# Static dielectric constant tensor:
#      x y z
#    x 1.918380 -0.056520 -0.035590 
#    y -0.056520 2.113490 0.116420 
#    z -0.035590 0.116420 1.926010 
# 
# From -- ./inp_files/438338.got.cif
#   From: 2010.05.17/outbox.cif.g08.bks.cpg/sg2_220_cif.got.tgz:438338.got - 2010.06.03 11:33:40.
