data_PCOD9098633
_publ_section_title
;
Structure prediction by ZEFSAII (Michael W. Deem and Ramdas Pophale) SiO2 
 PCOD9098633
Probable space group: P -1
;
_chemical_formula_sum "Si O2"
_cell_formula_units_Z 12
_cell_length_a 9.607861
_cell_length_b 6.248685
_cell_length_c 17.867207
_cell_angle_alpha 135.198085
_cell_angle_beta 144.490086
_cell_angle_gamma 49.078901
_cell_volume 431.116275
_symmetry_space_group_name_H-M "P -1"
_symmetry_group_IT_number 2
_symmetry_cell_setting 'triclinic'
loop_
_space_group_symop_operation_xyz
x,y,z
-x,-y,-z
loop_
_atom_site_type_symbol
_atom_site_label
_atom_site_fract_x
_atom_site_fract_y
_atom_site_fract_z
Si Si1 0.186126 0.266380 0.944845
Si Si2 0.112377 0.933032 0.114841
Si Si3 0.235680 0.561190 0.307160
Si Si4 0.259169 0.092939 0.770690
Si Si5 0.690895 0.600068 0.435398
Si Si6 0.161844 0.263901 0.620456
O O1 0.117434 0.040221 0.922117
O O2 0.911149 0.396593 0.824824
O O3 0.330396 0.144244 0.901173
O O4 0.251426 0.576908 0.085145
O O5 0.256599 0.212765 0.258862
O O6 0.000000 0.000000 0.000000
O O7 0.031485 0.774869 0.319261
O O8 0.485011 0.668075 0.424919
O O9 0.317691 0.274852 0.767016
O O10 0.332872 0.739148 0.691361
O O11 0.953287 0.563073 0.582604
O O12 0.691352 0.787441 0.405601
O O13 0.000000 0.000000 0.500000
#
# Coordination Sequence:
#
# PCOD9098633 Si02
#       6
#     2   2   2   2   2   2
#     4   8  18  32  54  82 107 140 178 216 258 319
#     4   9  16  33  57  78 110 142 171 217 272 305
#     4   9  20  33  56  83 104 143 178 218 260 315
#     4   9  20  34  55  83 104 143 181 212 263 318
#     4  10  20  37  55  77 112 139 176 225 264 306
#     4   9  20  38  54  76 110 144 173 222 270 310
#
# _framework density 27.834719
#
# number of rings (size 3 to 8) (size 9 to 14) (size 15 to 20)
#    1.000    2.000    0.000    0.000    2.333    3.333 
#    0.000    8.333    0.000    6.000    0.000    0.000 
#    0.000    0.000    0.000    0.000    0.000    0.000 
#
# Total GULP energy -66940.488447 kJ/mol
# GULP energy per Si atom -5578.374037 kJ/mol
# Density = 2.777137 g / cm^3
# Si number density = 27.834719 Si / 1000 Ang^3
#
#
#
# Elastic Constant Matrix: (Units=GPa)
#
#
# Indices 1 2 3 4 5 6 
#
# 1 238.9706 43.3033 49.0365 3.6712 -12.1325 29.0105
# 2 43.3033 69.2055 23.4223 0.0477 -5.1430 26.7498
# 3 49.0365 23.4223 64.3169 8.2974 -11.0048 11.6798
# 4 3.6712 0.0477 8.2974 44.0240 4.2479 -5.7600
# 5 -12.1325 -5.1430 -11.0048 4.2479 56.6465 -7.2712
# 6 29.0105 26.7498 11.6798 -5.7600 -7.2712 55.4540
#
#
#
# Elastic Compliance Matrix: (Units=1/GPa)
#
#
# Indices 1 2 3 4 5 6 
#
# 1 0.005311 -0.001765 -0.003141 -0.000032 0.000210 -0.001241
# 2 -0.001765 0.020131 -0.004638 0.000014 -0.000462 -0.007870
# 3 -0.003141 -0.004638 0.020786 -0.004023 0.003182 -0.000498
# 4 -0.000032 0.000014 -0.004023 0.024090 -0.002199 0.003071
# 5 0.000210 -0.000462 0.003182 -0.002199 0.018653 0.001660
# 6 -0.001241 -0.007870 -0.000498 0.003071 0.001660 0.023120
#
#
# Mechanical properties :
#
#
# Convention : Reuss Voigt Hill
#
# Bulk Modulus (GPa) = 36.84459 67.11305 51.97882
# Shear Modulus (GPa) = 35.65752 48.34031 41.99891
#
# Velocity S-wave (km/s) = 3.58305 4.17188 3.88863
# Velocity P-wave (km/s) = 5.51211 6.88257 6.23511
#
# Compressibility (1/GPa) = 0.02714103
#
# Stress axis : x y z
#
# Youngs Moduli (GPa) = 188.29796 49.67468 48.11043
#
# Poissons Ratio (x) = 0.08765 0.15111
# Poissons Ratio (y) = 0.33226 0.22312
# Poissons Ratio (z) = 0.59144 0.23037
#
# Static dielectric constant tensor:
#      x y z
#    x 2.159030 0.046820 0.017470 
#    y 0.046820 2.244460 -0.048790 
#    z 0.017470 -0.048790 2.269560 
# 
# From -- ./inp_files/31950.got.cif
#   From: 2010.05.17/outbox.cif.g08.bks.cpg/sg2_16_cif.got.tgz:31950.got - 2010.06.03 11:33:40.
