data_PCOD9098456
_publ_section_title
;
Structure prediction by ZEFSAII (Michael W. Deem and Ramdas Pophale) SiO2 
 PCOD9098456
Probable space group: P -1
;
_chemical_formula_sum "Si O2"
_cell_formula_units_Z 16
_cell_length_a 9.425648
_cell_length_b 23.673914
_cell_length_c 13.800082
_cell_angle_alpha 155.646804
_cell_angle_beta 41.211868
_cell_angle_gamma 128.848101
_cell_volume 817.267351
_symmetry_space_group_name_H-M "P -1"
_symmetry_group_IT_number 2
_symmetry_cell_setting 'triclinic'
loop_
_space_group_symop_operation_xyz
x,y,z
-x,-y,-z
loop_
_atom_site_type_symbol
_atom_site_label
_atom_site_fract_x
_atom_site_fract_y
_atom_site_fract_z
Si Si1 0.749031 0.060460 0.683814
Si Si2 0.318392 0.998461 0.171698
Si Si3 0.952285 0.279766 0.824355
Si Si4 0.790050 0.232763 0.638283
Si Si5 0.699468 0.812441 0.180315
Si Si6 0.019760 0.909803 0.039855
Si Si7 0.712745 0.307012 0.578021
Si Si8 0.206086 0.399939 0.034363
O O1 0.769162 0.205593 0.851549
O O2 0.604000 0.061580 0.856551
O O3 0.685103 0.954679 0.473033
O O4 0.000000 0.000000 0.500000
O O5 0.170368 0.154103 0.505526
O O6 0.500000 0.000000 0.000000
O O7 0.159203 0.906981 0.062741
O O8 0.872481 0.317487 0.815486
O O9 0.023372 0.388821 0.030861
O O10 0.539833 0.218140 0.761866
O O11 0.796074 0.298220 0.632000
O O12 0.931156 0.073216 0.317549
O O13 0.824573 0.688401 0.992603
O O14 0.822095 0.835833 0.055259
O O15 0.173020 0.830037 0.752966
O O16 0.448504 0.328541 0.755022
O O17 0.774792 0.442107 0.707771
#
# Coordination Sequence:
#
# PCOD9098456 Si02
#       8
#     2   2   2   2   2   2   2   2
#     4  10  16  31  51  81 106 134 176 217 270 311
#     4  10  18  28  50  83 107 133 168 224 271 309
#     4  10  18  34  55  78 103 139 182 219 260 319
#     4  10  22  35  54  82 108 143 178 217 276 315
#     4  11  19  35  58  81 107 141 179 222 265 323
#     4  11  20  34  54  81 113 134 178 224 272 315
#     4  10  23  37  53  80 110 147 177 218 267 319
#     4  10  20  38  59  75 106 147 183 216 262 323
#
# _framework density 19.577437
#
# number of rings (size 3 to 8) (size 9 to 14) (size 15 to 20)
#    0.000    1.750    6.250    1.500    1.750    1.000 
#    0.000    0.000    0.000    0.750    0.000    0.000 
#    0.000    0.000    0.000    0.000    0.000    0.000 
#
# Total GULP energy -89263.377717 kJ/mol
# GULP energy per Si atom -5578.961107 kJ/mol
# Density = 1.953288 g / cm^3
# Si number density = 19.577437 Si / 1000 Ang^3
#
#
#
# Elastic Constant Matrix: (Units=GPa)
#
#
# Indices 1 2 3 4 5 6 
#
# 1 70.6741 -10.6232 -0.0066 7.9119 11.2971 -9.8356
# 2 -10.6232 60.4058 0.3287 -1.1933 -3.4709 -5.5372
# 3 -0.0066 0.3287 13.4962 -7.7457 -6.1902 -1.4374
# 4 7.9119 -1.1933 -7.7457 23.7404 0.7393 5.3423
# 5 11.2971 -3.4709 -6.1902 0.7393 10.3827 -2.9369
# 6 -9.8356 -5.5372 -1.4374 5.3423 -2.9369 21.1649
#
#
#
# Elastic Compliance Matrix: (Units=1/GPa)
#
#
# Indices 1 2 3 4 5 6 
#
# 1 0.023439 0.002710 -0.025161 -0.016833 -0.035804 0.009173
# 2 0.002710 0.018085 0.003114 -0.000867 0.007110 0.007408
# 3 -0.025161 0.003114 0.163488 0.057450 0.122571 0.002732
# 4 -0.016833 -0.000867 0.057450 0.068579 0.043014 -0.015489
# 5 -0.035804 0.007110 0.122571 0.043014 0.211049 0.011974
# 6 0.009173 0.007408 0.002732 -0.015489 0.011974 0.059206
#
#
# Mechanical properties :
#
#
# Convention : Reuss Voigt Hill
#
# Bulk Modulus (GPa) = 6.01188 13.77489 9.89339
# Shear Modulus (GPa) = 7.83743 21.38276 14.61010
#
# Velocity S-wave (km/s) = 2.00300 3.30845 2.73476
# Velocity P-wave (km/s) = 2.90290 4.65251 3.87767
#
# Compressibility (1/GPa) = 0.16633723
#
# Stress axis : x y z
#
# Youngs Moduli (GPa) = 42.66434 55.29504 6.11667
#
# Poissons Ratio (x) = -0.14985 0.15390
# Poissons Ratio (y) = -0.11562 -0.01904
# Poissons Ratio (z) = 1.07346 -0.17216
#
# Static dielectric constant tensor:
#      x y z
#    x 1.727590 -0.002560 -0.015180 
#    y -0.002560 1.738260 -0.022410 
#    z -0.015180 -0.022410 1.663810 
# 
# From -- ./inp_files/185864.got.cif
#   From: 2010.05.17/outbox.cif.g08.bks.cpg/sg2_93_cif.got.tgz:185864.got - 2010.06.03 11:33:40.
