data_PCOD9098541
_publ_section_title
;
Structure prediction by ZEFSAII (Michael W. Deem and Ramdas Pophale) SiO2 
 PCOD9098541
Probable space group: P -1
;
_chemical_formula_sum "Si O2"
_cell_formula_units_Z 14
_cell_length_a 9.081628
_cell_length_b 23.477622
_cell_length_c 16.748966
_cell_angle_alpha 156.268293
_cell_angle_beta 144.639202
_cell_angle_gamma 25.473065
_cell_volume 616.896007
_symmetry_space_group_name_H-M "P -1"
_symmetry_group_IT_number 2
_symmetry_cell_setting 'triclinic'
loop_
_space_group_symop_operation_xyz
x,y,z
-x,-y,-z
loop_
_atom_site_type_symbol
_atom_site_label
_atom_site_fract_x
_atom_site_fract_y
_atom_site_fract_z
Si Si1 0.852413 0.494935 0.664133
Si Si2 0.683587 0.728497 0.655817
Si Si3 0.248496 0.618441 0.968116
Si Si4 0.364096 0.879273 0.050042
Si Si5 0.252544 0.990696 0.659087
Si Si6 0.643042 0.370430 0.523176
Si Si7 0.294091 0.693039 0.912119
O O1 0.947814 0.331891 0.558499
O O2 0.661002 0.500558 0.510763
O O3 0.616522 0.685112 0.859688
O O4 0.103812 0.514461 0.760719
O O5 0.401720 0.774133 0.652692
O O6 0.000000 0.500000 0.500000
O O7 0.895851 0.790299 0.851587
O O8 0.495763 0.810371 0.593419
O O9 0.969203 0.832887 0.151190
O O10 0.500000 0.500000 0.000000
O O11 0.394147 0.630209 0.966896
O O12 0.512893 0.981263 0.245751
O O13 0.333979 0.827973 0.059795
O O14 0.000000 0.000000 0.000000
O O15 0.000000 0.000000 0.500000
O O16 0.542288 0.499419 0.720918
#
# Coordination Sequence:
#
# PCOD9098541 Si02
#       7
#     2   2   2   2   2   2   2
#     4   9  19  36  58  96 124 160 209 264 322 379
#     4  10  20  36  68  94 122 165 217 264 313 389
#     4  11  25  42  63  89 134 177 215 266 332 391
#     4  10  20  40  64  93 129 169 216 272 320 388
#     4  11  26  44  64  95 136 173 212 272 336 388
#     4   9  18  34  61  93 123 152 207 272 310 376
#     4  10  20  37  65  93 121 167 221 265 318 379
#
# _framework density 22.694262999999999
#
# number of rings (size 3 to 8) (size 9 to 14) (size 15 to 20)
#    0.000    2.000    2.857    0.000    4.000    1.714 
#    5.143    2.857    0.000    0.000    0.000    0.000 
#    0.000    0.000    0.000    0.000    0.000    0.000 
#
# Total GULP energy -78094.938324 kJ/mol
# GULP energy per Si atom -5578.209880 kJ/mol
# Density = 2.264261 g / cm^3
# Si number density = 22.694263 Si / 1000 Ang^3
#
#
#
# Elastic Constant Matrix: (Units=GPa)
#
#
# Indices 1 2 3 4 5 6 
#
# 1 167.0784 45.6845 52.6670 10.3636 9.5691 55.8894
# 2 45.6845 107.1693 31.2014 -4.8584 0.5325 31.5927
# 3 52.6670 31.2014 73.4940 -8.7591 9.9579 7.5482
# 4 10.3636 -4.8584 -8.7591 25.6715 -0.1988 -7.1876
# 5 9.5691 0.5325 9.9579 -0.1988 47.5607 6.2597
# 6 55.8894 31.5927 7.5482 -7.1876 6.2597 39.3990
#
#
#
# Elastic Compliance Matrix: (Units=1/GPa)
#
#
# Indices 1 2 3 4 5 6 
#
# 1 0.031783 0.008276 -0.025714 -0.035151 0.005875 -0.054141
# 2 0.008276 0.016200 -0.012124 -0.011413 0.003950 -0.025117
# 3 -0.025714 -0.012124 0.037597 0.033877 -0.008545 0.046533
# 4 -0.035151 -0.011413 0.033877 0.081740 -0.008607 0.068804
# 5 0.005875 0.003950 -0.008545 -0.008607 0.023550 -0.015177
# 6 -0.054141 -0.025117 0.046533 0.068804 -0.015177 0.128371
#
#
# Mechanical properties :
#
#
# Convention : Reuss Voigt Hill
#
# Bulk Modulus (GPa) = 37.80039 67.42750 52.61394
# Shear Modulus (GPa) = 12.91377 37.07217 24.99297
#
# Velocity S-wave (km/s) = 2.38803 4.04610 3.32217
# Velocity P-wave (km/s) = 4.92911 7.18357 6.16035
#
# Compressibility (1/GPa) = 0.02645475
#
# Stress axis : x y z
#
# Youngs Moduli (GPa) = 31.46384 61.72757 26.59800
#
# Poissons Ratio (x) = -0.51083 0.68394
# Poissons Ratio (y) = -0.26038 0.32247
# Poissons Ratio (z) = 0.80906 0.74838
#
# Static dielectric constant tensor:
#      x y z
#    x 1.998380 -0.149910 0.136230 
#    y -0.149910 2.020350 -0.172420 
#    z 0.136230 -0.172420 2.053600 
# 
# From -- ./inp_files/507968.got.cif
#   From: 2010.05.17/outbox.cif.g08.bks.cpg/sg2_254_cif.got.tgz:507968.got - 2010.06.03 11:33:40.
