data_PCOD9098233
_publ_section_title
;
Structure prediction by ZEFSAII (Michael W. Deem and Ramdas Pophale) SiO2 
 PCOD9098233
Probable space group: P -1
;
_chemical_formula_sum "Si O2"
_cell_formula_units_Z 16
_cell_length_a 12.464988
_cell_length_b 9.071423
_cell_length_c 15.871010
_cell_angle_alpha 37.885600
_cell_angle_beta 100.901558
_cell_angle_gamma 128.906148
_cell_volume 657.869995
_symmetry_space_group_name_H-M "P -1"
_symmetry_group_IT_number 2
_symmetry_cell_setting 'triclinic'
loop_
_space_group_symop_operation_xyz
x,y,z
-x,-y,-z
loop_
_atom_site_type_symbol
_atom_site_label
_atom_site_fract_x
_atom_site_fract_y
_atom_site_fract_z
Si Si1 0.602137 0.576916 0.234260
Si Si2 0.476511 0.024082 0.331971
Si Si3 0.383329 0.236880 0.518158
Si Si4 0.984729 0.514130 0.591854
Si Si5 0.290963 0.334163 0.062895
Si Si6 0.573072 0.967775 0.950510
Si Si7 0.193321 0.358070 0.460170
Si Si8 0.062519 0.172754 0.835637
O O1 0.463687 0.164555 0.348784
O O2 0.502563 0.508566 0.331430
O O3 0.667796 0.904393 0.035710
O O4 0.770309 0.698745 0.223057
O O5 0.616860 0.051216 0.355584
O O6 0.299817 0.605052 0.452055
O O7 0.573954 0.361081 0.127226
O O8 0.500000 0.500000 0.500000
O O9 0.208001 0.098456 0.564681
O O10 0.987266 0.798008 0.488634
O O11 0.000000 0.500000 0.500000
O O12 0.782003 0.060932 0.781380
O O13 0.091914 0.508909 0.667053
O O14 0.394903 0.559681 0.061532
O O15 0.110409 0.174496 0.094000
O O16 0.500000 0.000000 0.000000
O O17 0.692296 0.328209 0.741057
O O18 0.000000 0.000000 0.000000
#
# Coordination Sequence:
#
# PCOD9098233 Si02
#       8
#     2   2   2   2   2   2   2   2
#     4  12  21  38  65  97 122 169 221 264 316 390
#     4  10  20  36  64  91 123 162 217 268 309 374
#     4  10  23  36  58  93 132 164 209 273 329 366
#     4  10  22  39  67  94 125 172 213 265 320 388
#     4   9  21  40  62  96 124 166 216 266 316 379
#     4  11  21  39  66  95 129 166 216 265 323 381
#     4  10  20  40  62  90 130 164 206 271 324 375
#     4  10  21  40  62  95 130 162 215 265 318 381
#
# _framework density 24.320916
#
# number of rings (size 3 to 8) (size 9 to 14) (size 15 to 20)
#    0.750    1.000    2.500    2.625    3.500    2.000 
#    2.250    0.625    2.750    1.500    0.000    0.000 
#    0.000    0.000    0.000    0.000    0.000    0.000 
#
# Total GULP energy -89373.601878 kJ/mol
# GULP energy per Si atom -5585.850117 kJ/mol
# Density = 2.426556 g / cm^3
# Si number density = 24.320916 Si / 1000 Ang^3
#
#
#
# Elastic Constant Matrix: (Units=GPa)
#
#
# Indices 1 2 3 4 5 6 
#
# 1 162.9329 34.2819 28.7440 23.0427 28.9767 -1.7536
# 2 34.2819 82.1191 9.2350 25.4948 1.3408 -2.9048
# 3 28.7440 9.2350 73.0350 23.3939 14.7794 -2.6590
# 4 23.0427 25.4948 23.3939 33.1408 3.4809 -3.4430
# 5 28.9767 1.3408 14.7794 3.4809 39.7062 3.7405
# 6 -1.7536 -2.9048 -2.6590 -3.4430 3.7405 42.9665
#
#
#
# Elastic Compliance Matrix: (Units=1/GPa)
#
#
# Indices 1 2 3 4 5 6 
#
# 1 0.008117 -0.002403 -0.001011 -0.002488 -0.005282 0.000367
# 2 -0.002403 0.017068 0.002895 -0.013636 0.001292 0.000030
# 3 -0.001011 0.002895 0.019547 -0.014685 -0.005410 0.000658
# 4 -0.002488 -0.013636 -0.014685 0.052663 0.002934 0.002032
# 5 -0.005282 0.001292 -0.005410 0.002934 0.031029 -0.002929
# 6 0.000367 0.000030 0.000658 0.002032 -0.002929 0.023750
#
#
# Mechanical properties :
#
#
# Convention : Reuss Voigt Hill
#
# Bulk Modulus (GPa) = 22.88731 51.40097 37.14414
# Shear Modulus (GPa) = 29.80155 39.55109 34.67632
#
# Velocity S-wave (km/s) = 3.50429 4.03701 3.78005
# Velocity P-wave (km/s) = 5.07980 6.55060 5.86152
#
# Compressibility (1/GPa) = 0.04369234
#
# Stress axis : x y z
#
# Youngs Moduli (GPa) = 123.20137 58.58772 51.15991
#
# Poissons Ratio (x) = 0.14079 0.05174
# Poissons Ratio (y) = 0.29606 -0.14810
# Poissons Ratio (z) = 0.12461 -0.16960
#
# Static dielectric constant tensor:
#      x y z
#    x 2.003230 0.028860 0.044470 
#    y 0.028860 1.974990 -0.000120 
#    z 0.044470 -0.000120 1.951550 
# 
# From -- ./inp_files/513954.got.cif
#   From: 2010.05.17/outbox.cif.g08.bks.cpg/sg2_257_cif.got.tgz:513954.got - 2010.06.03 11:33:40.
