data_PCOD9098605
_publ_section_title
;
Structure prediction by ZEFSAII (Michael W. Deem and Ramdas Pophale) SiO2 
 PCOD9098605
Probable space group: P -1
;
_chemical_formula_sum "Si O2"
_cell_formula_units_Z 16
_cell_length_a 11.699932
_cell_length_b 5.570933
_cell_length_c 17.840830
_cell_angle_alpha 48.715842
_cell_angle_beta 59.819821
_cell_angle_gamma 80.319813
_cell_volume 731.044887
_symmetry_space_group_name_H-M "P -1"
_symmetry_group_IT_number 2
_symmetry_cell_setting 'triclinic'
loop_
_space_group_symop_operation_xyz
x,y,z
-x,-y,-z
loop_
_atom_site_type_symbol
_atom_site_label
_atom_site_fract_x
_atom_site_fract_y
_atom_site_fract_z
Si Si1 0.336296 0.029424 0.122866
Si Si2 0.849993 0.221829 0.371530
Si Si3 0.072801 0.945488 0.309642
Si Si4 0.456883 0.443705 0.146511
Si Si5 0.380667 0.853730 0.735950
Si Si6 0.309624 0.380511 0.730195
Si Si7 0.829213 0.280386 0.525861
Si Si8 0.601923 0.659497 0.505595
O O1 0.404923 0.191019 0.146297
O O2 0.176302 0.978991 0.200487
O O3 0.364931 0.684187 0.157127
O O4 0.406834 0.299313 0.982871
O O5 0.801442 0.553519 0.306064
O O6 0.859032 0.104047 0.477436
O O7 0.718379 0.962550 0.437012
O O8 0.991558 0.226476 0.284596
O O9 0.156754 0.913748 0.364016
O O10 0.950110 0.615802 0.416321
O O11 0.496841 0.263240 0.242730
O O12 0.290889 0.547406 0.781176
O O13 0.309456 0.001095 0.797503
O O14 0.424310 0.174343 0.599520
O O15 0.466581 0.577991 0.617472
O O16 0.687072 0.381119 0.539677
#
# Coordination Sequence:
#
# PCOD9098605 Si02
#       8
#     2   2   2   2   2   2   2   2
#     4  10  23  44  62  91 116 157 198 252 304 340
#     4  10  20  37  53  79 124 162 197 241 281 356
#     4  10  23  36  58  83 117 166 198 241 291 358
#     4  10  23  41  66  90 120 146 203 256 298 356
#     4  11  21  36  57  88 116 153 186 248 302 347
#     4  11  23  35  57  88 121 159 197 240 298 346
#     4  10  21  37  53  83 123 156 206 231 290 358
#     4  10  22  34  52  86 120 157 196 244 290 351
#
# _framework density 21.886482000000001
#
# number of rings (size 3 to 8) (size 9 to 14) (size 15 to 20)
#    0.000    1.750    1.250    3.000    7.000    0.000 
#    2.250    0.000    0.000    7.500    0.000    0.000 
#    0.000    0.000    0.000    0.000    0.000    0.000 
#
# Total GULP energy -89216.356859 kJ/mol
# GULP energy per Si atom -5576.022304 kJ/mol
# Density = 2.183667 g / cm^3
# Si number density = 21.886482 Si / 1000 Ang^3
#
#
#
# Elastic Constant Matrix: (Units=GPa)
#
#
# Indices 1 2 3 4 5 6 
#
# 1 96.7739 23.7416 33.5665 12.0881 3.0429 -19.1875
# 2 23.7416 109.7037 19.1771 11.4187 -2.4725 -14.9996
# 3 33.5665 19.1771 52.0243 11.4786 -7.4298 -12.1660
# 4 12.0881 11.4187 11.4786 21.8517 -9.3945 -7.6388
# 5 3.0429 -2.4725 -7.4298 -9.3945 21.8695 16.1207
# 6 -19.1875 -14.9996 -12.1660 -7.6388 16.1207 37.6407
#
#
#
# Elastic Compliance Matrix: (Units=1/GPa)
#
#
# Indices 1 2 3 4 5 6 
#
# 1 0.017516 -0.000088 -0.009202 -0.008361 -0.017942 0.011907
# 2 -0.000088 0.010567 -0.002439 -0.004759 -0.005033 0.004567
# 3 -0.009202 -0.002439 0.028108 -0.004807 0.009770 -0.001738
# 4 -0.008361 -0.004759 -0.004807 0.067066 0.034275 -0.008781
# 5 -0.017942 -0.005033 0.009770 0.034275 0.097122 -0.042633
# 6 0.011907 0.004567 -0.001738 -0.008781 -0.042633 0.050372
#
#
# Mechanical properties :
#
#
# Convention : Reuss Voigt Hill
#
# Bulk Modulus (GPa) = 30.55088 45.71913 38.13500
# Shear Modulus (GPa) = 16.38696 28.40684 22.39690
#
# Velocity S-wave (km/s) = 2.73925 3.60657 3.20241
# Velocity P-wave (km/s) = 4.89834 6.18690 5.57994
#
# Compressibility (1/GPa) = 0.03273228
#
# Stress axis : x y z
#
# Youngs Moduli (GPa) = 57.09016 94.63129 35.57745
#
# Poissons Ratio (x) = 0.00835 0.32739
# Poissons Ratio (y) = 0.00504 0.08677
# Poissons Ratio (z) = 0.52535 0.23081
#
# Static dielectric constant tensor:
#      x y z
#    x 1.851400 0.048270 0.005900 
#    y 0.048270 1.949620 0.002770 
#    z 0.005900 0.002770 1.764860 
# 
# From -- ./inp_files/563973.got.cif
#   From: 2010.05.17/outbox.cif.g08.bks.cpg/sg2_282_cif.got.tgz:563973.got - 2010.06.03 11:33:40.
