data_PCOD9098492
_publ_section_title
;
Structure prediction by ZEFSAII (Michael W. Deem and Ramdas Pophale) SiO2 
 PCOD9098492
Probable space group: P -1
;
_chemical_formula_sum "Si O2"
_cell_formula_units_Z 16
_cell_length_a 9.776980
_cell_length_b 19.890553
_cell_length_c 7.566670
_cell_angle_alpha 37.196073
_cell_angle_beta 60.261414
_cell_angle_gamma 49.672487
_cell_volume 677.572634
_symmetry_space_group_name_H-M "P -1"
_symmetry_group_IT_number 2
_symmetry_cell_setting 'triclinic'
loop_
_space_group_symop_operation_xyz
x,y,z
-x,-y,-z
loop_
_atom_site_type_symbol
_atom_site_label
_atom_site_fract_x
_atom_site_fract_y
_atom_site_fract_z
Si Si1 0.561844 0.254134 0.297199
Si Si2 0.765246 0.385531 0.046363
Si Si3 0.196210 0.389016 0.574174
Si Si4 0.353663 0.390822 0.825279
Si Si5 0.593355 0.869154 0.107560
Si Si6 0.257042 0.652957 0.449521
Si Si7 0.884109 0.871515 0.722357
Si Si8 0.903851 0.096967 0.164566
O O1 0.631829 0.353135 0.089838
O O2 0.539175 0.188219 0.628094
O O3 0.723048 0.154055 0.281119
O O4 0.390353 0.318637 0.140280
O O5 0.743335 0.369268 0.298534
O O6 0.967863 0.274312 0.102999
O O7 0.720469 0.528405 0.737618
O O8 0.284777 0.341750 0.809191
O O9 0.226484 0.268688 0.690746
O O10 0.000000 0.500000 0.500000
O O11 0.228241 0.542440 0.607955
O O12 0.547895 0.370689 0.685946
O O13 0.677206 0.902405 0.810338
O O14 0.500000 0.000000 0.000000
O O15 0.125583 0.797207 0.180472
O O16 0.941021 0.908868 0.795013
O O17 0.922595 0.962600 0.375525
#
# Coordination Sequence:
#
# PCOD9098492 Si02
#       8
#     2   2   2   2   2   2   2   2
#     4  10  21  40  71  95 127 169 222 274 321 386
#     4  11  22  41  69 101 126 171 219 272 332 386
#     4  12  25  43  67  95 138 172 211 269 334 388
#     4  10  21  40  63  97 128 168 216 278 323 378
#     4  12  24  42  67  98 129 177 218 266 328 391
#     4  10  20  36  66  98 129 162 224 275 319 383
#     4  10  20  39  63  91 136 172 218 263 330 386
#     4   9  19  37  63  91 127 179 212 268 320 390
#
# _framework density 23.613707000000002
#
# number of rings (size 3 to 8) (size 9 to 14) (size 15 to 20)
#    0.000    1.500    2.500    4.500    0.000    2.000 
#    2.250    1.875    2.750    0.000    0.000    0.000 
#    0.000    0.000    0.000    0.000    0.000    0.000 
#
# Total GULP energy -89101.554206 kJ/mol
# GULP energy per Si atom -5568.847138 kJ/mol
# Density = 2.355996 g / cm^3
# Si number density = 23.613707 Si / 1000 Ang^3
#
#
#
# Elastic Constant Matrix: (Units=GPa)
#
#
# Indices 1 2 3 4 5 6 
#
# 1 46.1291 10.7626 40.6439 0.3784 5.9831 3.8645
# 2 10.7626 105.0930 30.6010 -21.2330 -5.7071 3.1417
# 3 40.6439 30.6010 131.1925 -30.7388 -7.4314 24.7035
# 4 0.3784 -21.2330 -30.7388 54.8144 5.8895 -2.9070
# 5 5.9831 -5.7071 -7.4314 5.8895 33.0074 -1.1579
# 6 3.8645 3.1417 24.7035 -2.9070 -1.1579 19.9837
#
#
#
# Elastic Compliance Matrix: (Units=1/GPa)
#
#
# Indices 1 2 3 4 5 6 
#
# 1 0.035337 -0.001638 -0.014732 -0.007718 -0.008276 0.010033
# 2 -0.001638 0.010787 -0.001294 0.003366 0.001298 0.000786
# 3 -0.014732 -0.001294 0.018027 0.008294 0.004402 -0.017771
# 4 -0.007718 0.003366 0.008294 0.024011 -0.000640 -0.005834
# 5 -0.008276 0.001298 0.004402 -0.000640 0.033048 -0.002223
# 6 0.010033 0.000786 -0.017771 -0.005834 -0.002223 0.068968
#
#
# Mechanical properties :
#
#
# Convention : Reuss Voigt Hill
#
# Bulk Modulus (GPa) = 34.69501 49.60328 42.14914
# Shear Modulus (GPa) = 21.26624 34.92158 28.09391
#
# Velocity S-wave (km/s) = 3.00424 3.84978 3.45299
# Velocity P-wave (km/s) = 5.17287 6.38849 5.81254
#
# Compressibility (1/GPa) = 0.02882259
#
# Stress axis : x y z
#
# Youngs Moduli (GPa) = 28.29910 92.70313 55.47147
#
# Poissons Ratio (x) = 0.15185 0.81720
# Poissons Ratio (y) = 0.04635 0.07180
# Poissons Ratio (z) = 0.41690 0.12000
#
# Static dielectric constant tensor:
#      x y z
#    x 1.931120 -0.026060 -0.032880 
#    y -0.026060 1.982030 0.017650 
#    z -0.032880 0.017650 2.026170 
# 
# From -- ./inp_files/284559.got.cif
#   From: 2010.05.17/outbox.cif.g08.bks.cpg/sg2_143_cif.got.tgz:284559.got - 2010.06.03 11:33:40.
