data_PCOD9098731
_publ_section_title
;
Structure prediction by ZEFSAII (Michael W. Deem and Ramdas Pophale) SiO2 
 PCOD9098731
Probable space group: P -1
;
_chemical_formula_sum "Si O2"
_cell_formula_units_Z 16
_cell_length_a 22.627957
_cell_length_b 17.461330
_cell_length_c 10.659303
_cell_angle_alpha 138.290579
_cell_angle_beta 150.536965
_cell_angle_gamma 22.761257
_cell_volume 765.533246
_symmetry_space_group_name_H-M "P -1"
_symmetry_group_IT_number 2
_symmetry_cell_setting 'triclinic'
loop_
_space_group_symop_operation_xyz
x,y,z
-x,-y,-z
loop_
_atom_site_type_symbol
_atom_site_label
_atom_site_fract_x
_atom_site_fract_y
_atom_site_fract_z
Si Si1 0.460799 0.856581 0.292704
Si Si2 0.975490 0.881624 0.321226
Si Si3 0.678963 0.432298 0.627339
Si Si4 0.168096 0.487231 0.827125
Si Si5 0.237700 0.815790 0.327407
Si Si6 0.682736 0.448872 0.244357
Si Si7 0.262097 0.231791 0.504494
Si Si8 0.042417 0.773938 0.762809
O O1 0.569251 0.661031 0.318935
O O2 0.644814 0.772713 0.447361
O O3 0.364566 0.024330 0.419691
O O4 0.265765 0.968821 0.976948
O O5 0.129894 0.707167 0.285844
O O6 0.099938 0.745530 0.510992
O O7 0.000000 0.000000 0.500000
O O8 0.437990 0.642714 0.391024
O O9 0.694236 0.293334 0.547262
O O10 0.698274 0.516932 0.869764
O O11 0.308226 0.274763 0.763901
O O12 0.034238 0.659657 0.679388
O O13 0.995192 0.579452 0.721205
O O14 0.069764 0.851892 0.014535
O O15 0.155006 0.011078 0.414514
O O16 0.760236 0.388000 0.168454
O O17 0.500000 0.500000 0.000000
#
# Coordination Sequence:
#
# PCOD9098731 Si02
#       8
#     2   2   2   2   2   2   2   2
#     4  11  24  44  68  96 134 173 220 264 326 387
#     4  12  24  39  66  99 135 169 213 263 330 400
#     4  10  20  37  56  96 122 167 214 257 327 387
#     4  10  20  39  70  84 122 171 223 263 318 377
#     4   9  20  33  60  84 134 157 197 278 320 388
#     4  12  24  39  66  99 135 169 213 263 330 400
#     4  10  22  42  68  90 123 182 220 267 321 375
#     4  10  20  37  56  96 122 167 214 257 327 387
#
# _framework density 20.900463999999999
#
# number of rings (size 3 to 8) (size 9 to 14) (size 15 to 20)
#    0.000    1.500    3.750    1.500    0.000    4.000 
#    0.000    2.500    5.500    3.000    0.000    0.000 
#    0.000    0.000    0.000    0.000    0.000    0.000 
#
# Total GULP energy -89124.227966 kJ/mol
# GULP energy per Si atom -5570.264248 kJ/mol
# Density = 2.085289 g / cm^3
# Si number density = 20.900464 Si / 1000 Ang^3
#
#
#
# Elastic Constant Matrix: (Units=GPa)
#
#
# Indices 1 2 3 4 5 6 
#
# 1 65.8698 33.2155 25.1528 0.2218 15.6168 -6.8365
# 2 33.2155 133.6418 33.8283 17.9430 -3.4181 9.2447
# 3 25.1528 33.8283 59.6329 7.3619 3.8011 12.6684
# 4 0.2218 17.9430 7.3619 34.2421 -4.0304 0.5619
# 5 15.6168 -3.4181 3.8011 -4.0304 26.0507 3.0907
# 6 -6.8365 9.2447 12.6684 0.5619 3.0907 34.2418
#
#
#
# Elastic Compliance Matrix: (Units=1/GPa)
#
#
# Indices 1 2 3 4 5 6 
#
# 1 0.027140 -0.005867 -0.010002 0.002899 -0.016574 0.012152
# 2 -0.005867 0.010530 -0.002557 -0.004283 0.005019 -0.003451
# 3 -0.010002 -0.002557 0.024972 -0.003464 0.002755 -0.010737
# 4 0.002899 -0.004283 -0.003464 0.032487 0.002969 0.002216
# 5 -0.016574 0.005019 0.002755 0.002969 0.050256 -0.010268
# 6 0.012152 -0.003451 -0.010737 0.002216 -0.010268 0.037425
#
#
# Mechanical properties :
#
#
# Convention : Reuss Voigt Hill
#
# Bulk Modulus (GPa) = 38.77542 49.28197 44.02869
# Shear Modulus (GPa) = 21.90490 30.03678 25.97084
#
# Velocity S-wave (km/s) = 3.24088 3.79507 3.52887
# Velocity P-wave (km/s) = 5.70939 6.54476 6.14130
#
# Compressibility (1/GPa) = 0.02578954
#
# Stress axis : x y z
#
# Youngs Moduli (GPa) = 36.84554 94.96416 40.04559
#
# Poissons Ratio (x) = 0.55719 0.40054
# Poissons Ratio (y) = 0.21619 0.10239
# Poissons Ratio (z) = 0.36854 0.24280
#
# Static dielectric constant tensor:
#      x y z
#    x 1.800080 0.008130 -0.055490 
#    y 0.008130 1.798230 -0.018570 
#    z -0.055490 -0.018570 1.828890 
# 
# From -- ./inp_files/455739.got.cif
#   From: 2010.05.17/outbox.cif.g08.bks.cpg/sg2_228_cif.got.tgz:455739.got - 2010.06.03 11:33:40.
