data_PCOD9098215
_publ_section_title
;
Structure prediction by ZEFSAII (Michael W. Deem and Ramdas Pophale) SiO2 
 PCOD9098215
Probable space group: P -1
;
_chemical_formula_sum "Si O2"
_cell_formula_units_Z 14
_cell_length_a 9.840654
_cell_length_b 7.241822
_cell_length_c 12.069796
_cell_angle_alpha 39.988827
_cell_angle_beta 113.871250
_cell_angle_gamma 109.898689
_cell_volume 504.804838
_symmetry_space_group_name_H-M "P -1"
_symmetry_group_IT_number 2
_symmetry_cell_setting 'triclinic'
loop_
_space_group_symop_operation_xyz
x,y,z
-x,-y,-z
loop_
_atom_site_type_symbol
_atom_site_label
_atom_site_fract_x
_atom_site_fract_y
_atom_site_fract_z
Si Si1 0.685618 0.466312 0.448677
Si Si2 0.082540 0.085842 0.744552
Si Si3 0.549331 0.108704 0.847128
Si Si4 0.218014 0.171521 0.217380
Si Si5 0.815690 0.463172 0.734849
Si Si6 0.919736 0.279983 0.392481
Si Si7 0.306545 0.701615 0.861806
O O1 0.790196 0.660805 0.308052
O O2 0.521938 0.580458 0.331402
O O3 0.742994 0.556092 0.550439
O O4 0.697349 0.124547 0.604836
O O5 0.971883 0.240172 0.552512
O O6 0.181587 0.856192 0.822477
O O7 0.950483 0.909151 0.846707
O O8 0.725228 0.164726 0.869300
O O9 0.459134 0.887944 0.839777
O O10 0.500000 0.000000 0.000000
O O11 0.201603 0.331765 0.258077
O O12 0.302202 0.392756 0.060225
O O13 0.986316 0.459369 0.755388
O O14 0.754635 0.281519 0.290407
O O15 0.000000 0.000000 0.500000
#
# Coordination Sequence:
#
# PCOD9098215 Si02
#       7
#     2   2   2   2   2   2   2
#     4  10  25  40  61  95 124 157 207 252 305 367
#     4   9  19  37  63  91 127 159 201 251 309 359
#     4  11  23  42  63  89 123 166 203 252 307 362
#     4  12  21  37  66  93 122 160 207 251 304 358
#     4  11  22  41  65  86 127 165 197 249 313 358
#     4   9  17  34  62  92 112 159 210 234 299 372
#     4  10  20  36  64  90 122 164 206 247 304 365
#
# _framework density 27.733487
#
# number of rings (size 3 to 8) (size 9 to 14) (size 15 to 20)
#    0.000    1.714    4.286    2.143    0.000    0.571 
#    0.000    5.000    0.000    0.000    0.000    0.000 
#    0.000    0.000    0.000    0.000    0.000    0.000 
#
# Total GULP energy -78283.351375 kJ/mol
# GULP energy per Si atom -5591.667955 kJ/mol
# Density = 2.767036 g / cm^3
# Si number density = 27.733487 Si / 1000 Ang^3
#
#
#
# Elastic Constant Matrix: (Units=GPa)
#
#
# Indices 1 2 3 4 5 6 
#
# 1 92.6502 12.0983 25.6529 -25.0028 -2.4155 27.2604
# 2 12.0983 143.4764 26.0419 -16.3474 4.4348 15.9657
# 3 25.6529 26.0419 130.6746 -21.3363 -7.4615 0.0126
# 4 -25.0028 -16.3474 -21.3363 50.7113 1.1010 -7.2148
# 5 -2.4155 4.4348 -7.4615 1.1010 33.7993 -21.6546
# 6 27.2604 15.9657 0.0126 -7.2148 -21.6546 43.2845
#
#
#
# Elastic Compliance Matrix: (Units=1/GPa)
#
#
# Indices 1 2 3 4 5 6 
#
# 1 0.017397 0.001860 -0.003421 0.005723 -0.009993 -0.015687
# 2 0.001860 0.008349 -0.002055 0.001893 -0.005886 -0.006880
# 3 -0.003421 -0.002055 0.009477 0.002412 0.006123 0.006375
# 4 0.005723 0.001893 0.002412 0.024106 -0.000405 -0.000488
# 5 -0.009993 -0.005886 0.006123 -0.000405 0.053553 0.035187
# 6 -0.015687 -0.006880 0.006375 -0.000488 0.035187 0.053040
#
#
# Mechanical properties :
#
#
# Convention : Reuss Voigt Hill
#
# Bulk Modulus (GPa) = 35.72513 54.93192 45.32852
# Shear Modulus (GPa) = 27.39976 45.75957 36.57966
#
# Velocity S-wave (km/s) = 3.14660 4.06640 3.63570
# Velocity P-wave (km/s) = 5.10990 6.47283 5.83132
#
# Compressibility (1/GPa) = 0.02799150
#
# Stress axis : x y z
#
# Youngs Moduli (GPa) = 57.48145 119.77279 105.52331
#
# Poissons Ratio (x) = -0.22283 0.36095
# Poissons Ratio (y) = -0.10694 0.21690
# Poissons Ratio (z) = 0.19662 0.24619
#
# Static dielectric constant tensor:
#      x y z
#    x 2.390270 -0.172480 -0.084760 
#    y -0.172480 2.321270 -0.048520 
#    z -0.084760 -0.048520 2.205870 
# 
# From -- ./inp_files/513909.got.cif
#   From: 2010.05.17/outbox.cif.g08.bks.cpg/sg2_257_cif.got.tgz:513909.got - 2010.06.03 11:33:40.
