data_PCOD9098251
_publ_section_title
;
Structure prediction by ZEFSAII (Michael W. Deem and Ramdas Pophale) SiO2 
 PCOD9098251
Probable space group: P -1
;
_chemical_formula_sum "Si O2"
_cell_formula_units_Z 16
_cell_length_a 13.715658
_cell_length_b 6.827097
_cell_length_c 15.310427
_cell_angle_alpha 77.455745
_cell_angle_beta 38.668267
_cell_angle_gamma 104.827674
_cell_volume 626.433872
_symmetry_space_group_name_H-M "P -1"
_symmetry_group_IT_number 2
_symmetry_cell_setting 'triclinic'
loop_
_space_group_symop_operation_xyz
x,y,z
-x,-y,-z
loop_
_atom_site_type_symbol
_atom_site_label
_atom_site_fract_x
_atom_site_fract_y
_atom_site_fract_z
Si Si1 0.180833 0.016414 0.413452
Si Si2 0.371872 0.343508 0.962917
Si Si3 0.485259 0.628933 0.580721
Si Si4 0.917219 0.048476 0.308968
Si Si5 0.577171 0.808348 0.227555
Si Si6 0.723316 0.088926 0.812067
Si Si7 0.022530 0.412537 0.900120
Si Si8 0.896604 0.538078 0.358329
O O1 0.408847 0.337738 0.222076
O O2 0.120935 0.929692 0.565326
O O3 0.214343 0.862570 0.337996
O O4 0.000000 0.000000 0.500000
O O5 0.397860 0.179404 0.894585
O O6 0.313971 0.178827 0.109042
O O7 0.168500 0.301694 0.083274
O O8 0.500000 0.500000 0.500000
O O9 0.714740 0.945713 0.403220
O O10 0.454848 0.454044 0.700585
O O11 0.265351 0.546844 0.727747
O O12 0.902263 0.789952 0.329171
O O13 0.359924 0.730284 0.416606
O O14 0.803876 0.079846 0.083872
O O15 0.924010 0.349550 0.704538
O O16 0.500000 0.000000 0.000000
O O17 0.031186 0.483462 0.783988
O O18 0.000000 0.500000 0.000000
#
# Coordination Sequence:
#
# PCOD9098251 Si02
#       8
#     2   2   2   2   2   2   2   2
#     4  12  21  39  67  95 121 166 218 254 304 371
#     4  11  20  40  68  92 123 172 208 260 317 359
#     4  11  20  41  66  92 120 164 215 255 304 375
#     4  10  20  36  64  92 126 154 217 263 296 361
#     4  11  20  41  70  87 124 172 209 258 316 366
#     4  11  24  41  66  93 134 166 205 260 319 380
#     4  12  25  40  65  94 129 166 204 261 321 380
#     4  10  20  43  60  87 131 164 203 256 325 359
#
# _framework density 25.541402999999999
#
# number of rings (size 3 to 8) (size 9 to 14) (size 15 to 20)
#    0.000    1.000   10.000    0.750    0.000    1.500 
#    0.000    3.750    0.000    0.000    0.000    0.000 
#    0.000    0.000    0.000    0.000    0.000    0.000 
#
# Total GULP energy -89476.548179 kJ/mol
# GULP energy per Si atom -5592.284261 kJ/mol
# Density = 2.548327 g / cm^3
# Si number density = 25.541403 Si / 1000 Ang^3
#
#
#
# Elastic Constant Matrix: (Units=GPa)
#
#
# Indices 1 2 3 4 5 6 
#
# 1 91.4776 37.4254 62.2279 3.6345 -22.5947 29.7206
# 2 37.4254 140.3826 74.7930 15.7369 -14.6644 44.8810
# 3 62.2279 74.7930 216.0037 7.2851 -43.3043 29.4999
# 4 3.6345 15.7369 7.2851 69.4412 13.2971 -0.3034
# 5 -22.5947 -14.6644 -43.3043 13.2971 66.6872 -1.5652
# 6 29.7206 44.8810 29.4999 -0.3034 -1.5652 43.0517
#
#
#
# Elastic Compliance Matrix: (Units=1/GPa)
#
#
# Indices 1 2 3 4 5 6 
#
# 1 0.017087 0.001074 -0.002922 -0.001685 0.004211 -0.010772
# 2 0.001074 0.012584 -0.002557 -0.003036 0.001793 -0.012064
# 3 -0.002922 -0.002557 0.007002 -0.000598 0.003114 -0.000006
# 4 -0.001685 -0.003036 -0.000598 0.016168 -0.004741 0.004679
# 5 0.004211 0.001793 0.003114 -0.004741 0.019637 -0.006229
# 6 -0.010772 -0.012064 -0.000006 0.004679 -0.006229 0.043052
#
#
# Mechanical properties :
#
#
# Convention : Reuss Voigt Hill
#
# Bulk Modulus (GPa) = 35.89087 88.52848 62.20968
# Shear Modulus (GPa) = 37.41729 54.06386 45.74058
#
# Velocity S-wave (km/s) = 3.83164 4.60577 4.23642
# Velocity P-wave (km/s) = 5.80154 7.93852 6.95262
#
# Compressibility (1/GPa) = 0.02786224
#
# Stress axis : x y z
#
# Youngs Moduli (GPa) = 58.52441 79.46534 142.81434
#
# Poissons Ratio (x) = -0.08537 0.41734
# Poissons Ratio (y) = -0.06287 0.36524
# Poissons Ratio (z) = 0.17103 0.20323
#
# Static dielectric constant tensor:
#      x y z
#    x 2.321050 -0.068290 0.175630 
#    y -0.068290 2.091300 -0.028730 
#    z 0.175630 -0.028730 2.067040 
# 
# From -- ./inp_files/528590.got.cif
#   From: 2010.05.17/outbox.cif.g08.bks.cpg/sg2_265_cif.got.tgz:528590.got - 2010.06.03 11:33:40.
