data_PCOD9098585
_publ_section_title
;
Structure prediction by ZEFSAII (Michael W. Deem and Ramdas Pophale) SiO2 
 PCOD9098585
Probable space group: P -1
;
_chemical_formula_sum "Si O2"
_cell_formula_units_Z 11
_cell_length_a 9.692746
_cell_length_b 9.505243
_cell_length_c 7.832746
_cell_angle_alpha 105.460212
_cell_angle_beta 107.892169
_cell_angle_gamma 126.120839
_cell_volume 450.955865
_symmetry_space_group_name_H-M "P -1"
_symmetry_group_IT_number 2
_symmetry_cell_setting 'triclinic'
loop_
_space_group_symop_operation_xyz
x,y,z
-x,-y,-z
loop_
_atom_site_type_symbol
_atom_site_label
_atom_site_fract_x
_atom_site_fract_y
_atom_site_fract_z
Si Si1 0.575383 0.486071 0.200193
Si Si2 0.655741 0.988583 0.989696
Si Si3 0.062084 0.377766 0.458631
Si Si4 0.500000 0.000000 0.500000
Si Si5 0.335176 0.554958 0.279700
Si Si6 0.084169 0.725247 0.144138
O O1 0.818978 0.612151 0.337368
O O2 0.517339 0.568860 0.339065
O O3 0.500000 0.500000 0.000000
O O4 0.448169 0.244606 0.113158
O O5 0.862673 0.145891 0.234925
O O6 0.500000 0.000000 0.000000
O O7 0.726579 0.084724 0.855207
O O8 0.234917 0.498048 0.409991
O O9 0.000000 0.500000 0.500000
O O10 0.564571 0.214681 0.653550
O O11 0.761190 0.164734 0.599143
O O12 0.133361 0.354639 0.019199
O O13 0.000000 0.500000 0.000000
#
# Coordination Sequence:
#
# PCOD9098585 Si02
#       6
#     2   2   2   1   2   2
#     4  12  28  44  69 109 150 181 238 305 354 419
#     4  11  24  44  72  96 142 192 234 287 360 421
#     4  11  24  45  74 100 137 194 242 286 356 431
#     4  10  20  36  70  96 138 180 226 284 362 410
#     4  10  24  42  66 102 143 179 242 291 355 420
#     4   9  21  39  66 103 133 182 234 289 343 429
#
# _framework density 24.39263
#
# number of rings (size 3 to 8) (size 9 to 14) (size 15 to 20)
#    0.000    1.455    1.818    1.636    5.091    6.545 
#    0.000    0.000    0.000    0.000    0.000    0.000 
#    0.000    0.000    0.000    0.000    0.000    0.000 
#
# Total GULP energy -61256.112921 kJ/mol
# GULP energy per Si atom -5568.737538 kJ/mol
# Density = 2.433711 g / cm^3
# Si number density = 24.392630 Si / 1000 Ang^3
#
#
#
# Elastic Constant Matrix: (Units=GPa)
#
#
# Indices 1 2 3 4 5 6 
#
# 1 152.7146 35.7891 27.4005 5.3725 15.0285 -29.6584
# 2 35.7891 111.2622 23.2365 13.3007 -3.4201 -20.5270
# 3 27.4005 23.2365 72.1414 22.7117 18.1289 -5.0145
# 4 5.3725 13.3007 22.7117 60.1981 6.5409 -2.5747
# 5 15.0285 -3.4201 18.1289 6.5409 46.7856 -1.7960
# 6 -29.6584 -20.5270 -5.0145 -2.5747 -1.7960 35.6629
#
#
#
# Elastic Compliance Matrix: (Units=1/GPa)
#
#
# Indices 1 2 3 4 5 6 
#
# 1 0.008583 -0.001350 -0.002191 0.000821 -0.001891 0.006017
# 2 -0.001350 0.011214 -0.003052 -0.001299 0.002808 0.004951
# 3 -0.002191 -0.003052 0.018879 -0.005660 -0.006107 -0.001640
# 4 0.000821 -0.001299 -0.005660 0.019070 -0.000814 0.000475
# 5 -0.001891 0.002808 -0.006107 -0.000814 0.024681 0.000369
# 6 0.006017 0.004951 -0.001640 0.000475 0.000369 0.035717
#
#
# Mechanical properties :
#
#
# Convention : Reuss Voigt Hill
#
# Bulk Modulus (GPa) = 39.22720 56.55226 47.88973
# Shear Modulus (GPa) = 35.75898 45.17545 40.46721
#
# Velocity S-wave (km/s) = 3.83296 4.30817 4.07749
# Velocity P-wave (km/s) = 5.97539 6.92687 6.46865
#
# Compressibility (1/GPa) = 0.02549252
#
# Stress axis : x y z
#
# Youngs Moduli (GPa) = 116.50548 89.17217 52.96898
#
# Poissons Ratio (x) = 0.12035 0.11603
# Poissons Ratio (y) = 0.15724 0.16165
# Poissons Ratio (z) = 0.25521 0.27214
#
# Static dielectric constant tensor:
#      x y z
#    x 2.069950 0.135340 -0.043680 
#    y 0.135340 1.710100 0.505120 
#    z -0.043680 0.505120 1.153940 
# 
# From -- ./inp_files/153516.got.cif
#   From: 2010.05.17/outbox.cif.g08.bks.cpg/sg2_77_cif.got.tgz:153516.got - 2010.06.03 11:33:40.
