data_PCOD9098863
_publ_section_title
;
Structure prediction by ZEFSAII (Michael W. Deem and Ramdas Pophale) SiO2 
 PCOD9098863
Probable space group: P -1
;
_chemical_formula_sum "Si O2"
_cell_formula_units_Z 16
_cell_length_a 8.058506
_cell_length_b 16.324286
_cell_length_c 19.418852
_cell_angle_alpha 149.975664
_cell_angle_beta 43.668071
_cell_angle_gamma 116.642428
_cell_volume 756.632224
_symmetry_space_group_name_H-M "P -1"
_symmetry_group_IT_number 2
_symmetry_cell_setting 'triclinic'
loop_
_space_group_symop_operation_xyz
x,y,z
-x,-y,-z
loop_
_atom_site_type_symbol
_atom_site_label
_atom_site_fract_x
_atom_site_fract_y
_atom_site_fract_z
Si Si1 0.848596 0.534095 0.916409
Si Si2 0.139423 0.601432 0.490569
Si Si3 0.228807 0.796249 0.254934
Si Si4 0.232936 0.690480 0.915977
Si Si5 0.952504 0.989795 0.897287
Si Si6 0.423126 0.871603 0.107704
Si Si7 0.030494 0.485285 0.295953
Si Si8 0.527697 0.190468 0.287226
O O1 0.878538 0.351253 0.812301
O O2 0.050554 0.603856 0.935072
O O3 0.917398 0.488886 0.780800
O O4 0.522801 0.699708 0.137801
O O5 0.468708 0.485845 0.326464
O O6 0.977092 0.822176 0.720307
O O7 0.000000 0.500000 0.500000
O O8 0.123315 0.577505 0.395800
O O9 0.304966 0.822213 0.173885
O O10 0.000000 0.000000 0.500000
O O11 0.311947 0.807837 0.030218
O O12 0.047279 0.843452 0.024803
O O13 0.215502 0.878585 0.788226
O O14 0.665931 0.102945 0.108693
O O15 0.360190 0.084933 0.282120
O O16 0.763587 0.737752 0.910927
O O17 0.699091 0.585682 0.480001
#
# Coordination Sequence:
#
# PCOD9098863 Si02
#       8
#     2   2   2   2   2   2   2   2
#     4  10  22  39  61  89 116 152 199 243 294 355
#     4  11  23  38  59  87 122 163 201 241 291 343
#     4  10  21  40  64  86 114 152 194 244 302 356
#     4  11  23  39  60  88 123 157 197 245 290 349
#     4  11  23  36  56  87 119 158 201 243 289 346
#     4  10  22  39  60  86 116 153 193 242 299 352
#     4  10  20  37  58  80 114 153 192 237 288 344
#     4  11  22  37  58  84 118 157 201 243 289 348
#
# _framework density 21.146339000000001
#
# number of rings (size 3 to 8) (size 9 to 14) (size 15 to 20)
#    0.000    1.500    0.000    6.000    0.000    4.000 
#    0.000    5.000    0.000    0.000    0.000    0.000 
#    0.000    0.000    0.000    0.000    0.000    0.000 
#
# Total GULP energy -89405.939329 kJ/mol
# GULP energy per Si atom -5587.871208 kJ/mol
# Density = 2.109821 g / cm^3
# Si number density = 21.146339 Si / 1000 Ang^3
#
#
#
# Elastic Constant Matrix: (Units=GPa)
#
#
# Indices 1 2 3 4 5 6 
#
# 1 61.0575 -0.2307 19.0437 4.1774 -3.3872 8.0766
# 2 -0.2307 80.4899 9.8743 11.3123 -6.1453 22.4079
# 3 19.0437 9.8743 124.8074 7.3659 -20.4743 -3.4259
# 4 4.1774 11.3123 7.3659 14.3449 -5.0720 -4.4258
# 5 -3.3872 -6.1453 -20.4743 -5.0720 32.8116 -7.3364
# 6 8.0766 22.4079 -3.4259 -4.4258 -7.3364 26.3722
#
#
#
# Elastic Compliance Matrix: (Units=1/GPa)
#
#
# Indices 1 2 3 4 5 6 
#
# 1 0.020977 0.007605 -0.004207 -0.017531 -0.005765 -0.017978
# 2 0.007605 0.026537 -0.003686 -0.035084 -0.009548 -0.033900
# 3 -0.004207 -0.003686 0.010217 0.004336 0.007857 0.008661
# 4 -0.017531 -0.035084 0.004336 0.130934 0.029291 0.065864
# 5 -0.005765 -0.009548 0.007857 0.029291 0.043784 0.027994
# 6 -0.017978 -0.033900 0.008661 0.065864 0.027994 0.092194
#
#
# Mechanical properties :
#
#
# Convention : Reuss Voigt Hill
#
# Bulk Modulus (GPa) = 17.49658 35.96993 26.73326
# Shear Modulus (GPa) = 14.52347 30.55026 22.53686
#
# Velocity S-wave (km/s) = 2.62354 3.80505 3.26814
# Velocity P-wave (km/s) = 4.17963 6.02922 5.18752
#
# Compressibility (1/GPa) = 0.05715401
#
# Stress axis : x y z
#
# Youngs Moduli (GPa) = 47.67221 37.68293 97.87902
#
# Poissons Ratio (x) = -0.28657 0.41177
# Poissons Ratio (y) = -0.36254 0.36080
# Poissons Ratio (z) = 0.20056 0.13890
#
# Static dielectric constant tensor:
#      x y z
#    x 1.794390 -0.014300 -0.003740 
#    y -0.014300 1.739210 -0.009830 
#    z -0.003740 -0.009830 1.764940 
# 
# From -- ./inp_files/590741.got.cif
#   From: 2010.05.17/outbox.cif.g08.bks.cpg/sg2_296_cif.got.tgz:590741.got - 2010.06.03 11:33:40.
