data_PCOD9098957
_publ_section_title
;
Structure prediction by ZEFSAII (Michael W. Deem and Ramdas Pophale) SiO2 
 PCOD9098957
Probable space group: P -1
;
_chemical_formula_sum "Si O2"
_cell_formula_units_Z 16
_cell_length_a 7.082552
_cell_length_b 18.310799
_cell_length_c 9.159172
_cell_angle_alpha 143.196469
_cell_angle_beta 114.425615
_cell_angle_gamma 57.211197
_cell_volume 597.741834
_symmetry_space_group_name_H-M "P -1"
_symmetry_group_IT_number 2
_symmetry_cell_setting 'triclinic'
loop_
_space_group_symop_operation_xyz
x,y,z
-x,-y,-z
loop_
_atom_site_type_symbol
_atom_site_label
_atom_site_fract_x
_atom_site_fract_y
_atom_site_fract_z
Si Si1 0.703477 0.287600 0.001179
Si Si2 0.659693 0.664728 0.257921
Si Si3 0.471847 0.301630 0.395239
Si Si4 0.274049 0.521788 0.264592
Si Si5 0.860902 0.866980 0.628103
Si Si6 0.099421 0.368851 0.156736
Si Si7 0.581418 0.908128 0.145961
Si Si8 0.075531 0.048530 0.889691
O O1 0.506672 0.404218 0.208790
O O2 0.872031 0.350668 0.091581
O O3 0.567398 0.253012 0.773858
O O4 0.844894 0.163283 0.943768
O O5 0.588218 0.679812 0.425592
O O6 0.847661 0.724946 0.383397
O O7 0.725062 0.522612 0.974271
O O8 0.671841 0.349569 0.500893
O O9 0.235822 0.380626 0.362604
O O10 0.525343 0.157414 0.116621
O O11 0.090843 0.487793 0.241145
O O12 0.621513 0.971697 0.660845
O O13 0.872003 0.897875 0.853668
O O14 0.040852 0.912338 0.680203
O O15 0.266195 0.220293 0.916753
O O16 0.745309 0.957511 0.185462
#
# Coordination Sequence:
#
# PCOD9098957 Si02
#       8
#     2   2   2   2   2   2   2   2
#     4   9  21  38  57  85 125 145 192 240 296 339
#     4  10  22  38  60  85 124 154 185 237 305 339
#     4  10  20  39  65  84 113 160 198 233 289 342
#     4  10  21  38  64  84 121 153 188 244 293 339
#     4  11  20  38  61  83 118 153 195 237 284 346
#     4   9  19  40  60  86 114 151 206 231 278 350
#     4   9  20  36  63  81 118 144 199 237 281 330
#     4  10  20  37  58  88 112 151 202 233 281 350
#
# _framework density 26.767409000000001
#
# number of rings (size 3 to 8) (size 9 to 14) (size 15 to 20)
#    1.500    0.750    1.250    1.875    0.000    1.000 
#    2.250    1.875    2.750    0.000    0.000    0.000 
#    0.000    0.000    0.000    0.000    0.000    0.000 
#
# Total GULP energy -89608.286100 kJ/mol
# GULP energy per Si atom -5600.517881 kJ/mol
# Density = 2.670649 g / cm^3
# Si number density = 26.767409 Si / 1000 Ang^3
#
#
#
# Elastic Constant Matrix: (Units=GPa)
#
#
# Indices 1 2 3 4 5 6 
#
# 1 104.3070 23.8725 32.0480 3.9316 35.1018 12.5947
# 2 23.8725 104.4963 33.9207 -1.0613 13.3556 4.6169
# 3 32.0480 33.9207 121.1431 6.0706 23.8671 13.3447
# 4 3.9316 -1.0613 6.0706 47.2244 0.4911 7.6589
# 5 35.1018 13.3556 23.8671 0.4911 53.0432 5.8400
# 6 12.5947 4.6169 13.3447 7.6589 5.8400 43.9115
#
#
#
# Elastic Compliance Matrix: (Units=1/GPa)
#
#
# Indices 1 2 3 4 5 6 
#
# 1 0.013133 -0.001530 -0.001312 -0.000538 -0.007477 -0.002119
# 2 -0.001530 0.010827 -0.002552 0.000700 -0.000575 0.000031
# 3 -0.001312 -0.002552 0.010129 -0.000913 -0.002829 -0.001898
# 4 -0.000538 0.000700 -0.000913 0.021924 0.000780 -0.003570
# 5 -0.007477 -0.000575 -0.002829 0.000780 0.025258 -0.000431
# 6 -0.002119 0.000031 -0.001898 -0.003570 -0.000431 0.024634
#
#
# Mechanical properties :
#
#
# Convention : Reuss Voigt Hill
#
# Bulk Modulus (GPa) = 42.92050 56.62542 49.77296
# Shear Modulus (GPa) = 40.17338 44.84284 42.50811
#
# Velocity S-wave (km/s) = 3.87826 4.09746 3.98936
# Velocity P-wave (km/s) = 6.01032 6.60197 6.31308
#
# Compressibility (1/GPa) = 0.02329889
#
# Stress axis : x y z
#
# Youngs Moduli (GPa) = 76.14564 92.36196 98.73039
#
# Poissons Ratio (x) = 0.14136 0.12957
# Poissons Ratio (y) = 0.11654 0.25195
# Poissons Ratio (z) = 0.09993 0.23570
#
# Static dielectric constant tensor:
#      x y z
#    x 2.060310 -0.078560 -0.018810 
#    y -0.078560 2.147330 0.045020 
#    z -0.018810 0.045020 2.032060 
# 
# From -- ./inp_files/404378.got.cif
#   From: 2010.05.17/outbox.cif.g08.bks.cpg/sg2_203_cif.got.tgz:404378.got - 2010.06.03 11:33:40.
