data_PCOD9098656
_publ_section_title
;
Structure prediction by ZEFSAII (Michael W. Deem and Ramdas Pophale) SiO2 
 PCOD9098656
Probable space group: P -1
;
_chemical_formula_sum "Si O2"
_cell_formula_units_Z 16
_cell_length_a 24.787811
_cell_length_b 8.837732
_cell_length_c 14.626914
_cell_angle_alpha 144.974063
_cell_angle_beta 150.664907
_cell_angle_gamma 51.824253
_cell_volume 847.085903
_symmetry_space_group_name_H-M "P -1"
_symmetry_group_IT_number 2
_symmetry_cell_setting 'triclinic'
loop_
_space_group_symop_operation_xyz
x,y,z
-x,-y,-z
loop_
_atom_site_type_symbol
_atom_site_label
_atom_site_fract_x
_atom_site_fract_y
_atom_site_fract_z
Si Si1 0.845508 0.567753 0.865271
Si Si2 0.247350 0.937075 0.983601
Si Si3 0.154443 0.341978 0.458239
Si Si4 0.390556 0.217738 0.700480
Si Si5 0.515169 0.637799 0.493699
Si Si6 0.619340 0.083202 0.654802
Si Si7 0.592593 0.169559 0.295942
Si Si8 0.992355 0.748478 0.987793
O O1 0.728798 0.305857 0.537769
O O2 0.918110 0.685434 0.939526
O O3 0.923041 0.437780 0.978013
O O4 0.810713 0.819861 0.984159
O O5 0.178385 0.641668 0.689704
O O6 0.276559 0.889673 0.108901
O O7 0.377552 0.067775 0.195842
O O8 0.276032 0.285961 0.595069
O O9 0.092378 0.331228 0.263761
O O10 0.070092 0.076173 0.258018
O O11 0.378805 0.107317 0.523805
O O12 0.411781 0.004288 0.702199
O O13 0.500000 0.500000 0.000000
O O14 0.500000 0.500000 0.500000
O O15 0.393140 0.648038 0.280923
O O16 0.558458 0.444836 0.396621
O O17 0.500000 0.000000 0.500000
O O18 0.500000 0.000000 0.000000
#
# Coordination Sequence:
#
# PCOD9098656 Si02
#       8
#     2   2   2   2   2   2   2   2
#     4  10  22  46  63  92 126 170 209 263 321 366
#     4  10  23  38  63  88 129 159 214 265 311 377
#     4  11  24  42  64 100 119 167 218 260 320 375
#     4  12  24  38  64  94 131 167 210 259 318 384
#     4  10  20  37  55  86 128 170 204 249 313 375
#     4  10  21  38  58  86 126 173 199 255 310 382
#     4  11  25  37  63  97 129 166 209 259 315 388
#     4  10  23  43  71  85 128 167 216 267 307 380
#
# _framework density 18.888283999999999
#
# number of rings (size 3 to 8) (size 9 to 14) (size 15 to 20)
#    0.000    1.500    2.500    2.250    8.750    1.000 
#    0.000    1.250    0.000    0.000    0.000    0.000 
#    0.000    0.000    0.000    0.000    0.000    0.000 
#
# Total GULP energy -89199.001578 kJ/mol
# GULP energy per Si atom -5574.937599 kJ/mol
# Density = 1.884529 g / cm^3
# Si number density = 18.888284 Si / 1000 Ang^3
#
#
#
# Elastic Constant Matrix: (Units=GPa)
#
#
# Indices 1 2 3 4 5 6 
#
# 1 52.7208 1.7143 36.6760 6.6354 -0.9807 8.2457
# 2 1.7143 92.0177 37.1057 3.9861 -2.4851 4.5650
# 3 36.6760 37.1057 129.1059 10.9365 -4.6304 5.4589
# 4 6.6354 3.9861 10.9365 25.2794 -1.1876 1.1534
# 5 -0.9807 -2.4851 -4.6304 -1.1876 26.4897 3.2169
# 6 8.2457 4.5650 5.4589 1.1534 3.2169 33.9624
#
#
#
# Elastic Compliance Matrix: (Units=1/GPa)
#
#
# Indices 1 2 3 4 5 6 
#
# 1 0.025397 0.002993 -0.007531 -0.003621 0.000382 -0.005271
# 2 0.002993 0.012701 -0.004331 -0.000799 0.000725 -0.001779
# 3 -0.007531 -0.004331 0.011335 -0.002216 0.001129 0.000557
# 4 -0.003621 -0.000799 -0.002216 0.041663 0.001295 -0.000195
# 5 0.000382 0.000725 0.001129 0.001295 0.038582 -0.004070
# 6 -0.005271 -0.001779 0.000557 -0.000195 -0.004070 0.031266
#
#
# Mechanical properties :
#
#
# Convention : Reuss Voigt Hill
#
# Bulk Modulus (GPa) = 31.55375 47.20404 39.37889
# Shear Modulus (GPa) = 26.42025 30.36952 28.39488
#
# Velocity S-wave (km/s) = 3.74406 4.01415 3.88146
# Velocity P-wave (km/s) = 5.95251 6.82129 6.40165
#
# Compressibility (1/GPa) = 0.03169196
#
# Stress axis : x y z
#
# Youngs Moduli (GPa) = 39.37435 78.73496 88.22495
#
# Poissons Ratio (x) = -0.23562 0.66447
# Poissons Ratio (y) = -0.11783 0.38215
# Poissons Ratio (z) = 0.29655 0.34104
#
# Static dielectric constant tensor:
#      x y z
#    x 1.622970 -0.189190 0.135080 
#    y -0.189190 1.284840 0.346970 
#    z 0.135080 0.346970 1.415890 
# 
# From -- ./inp_files/178714.got.cif
#   From: 2010.05.17/outbox.cif.g08.bks.cpg/sg2_90_cif.got.tgz:178714.got - 2010.06.03 11:33:40.
