data_PCOD9098767
_publ_section_title
;
Structure prediction by ZEFSAII (Michael W. Deem and Ramdas Pophale) SiO2 
 PCOD9098767
Probable space group: P -1
;
_chemical_formula_sum "Si O2"
_cell_formula_units_Z 16
_cell_length_a 20.184659
_cell_length_b 12.163109
_cell_length_c 20.336163
_cell_angle_alpha 28.921399
_cell_angle_beta 164.767386
_cell_angle_gamma 151.495021
_cell_volume 610.914235
_symmetry_space_group_name_H-M "P -1"
_symmetry_group_IT_number 2
_symmetry_cell_setting 'triclinic'
loop_
_space_group_symop_operation_xyz
x,y,z
-x,-y,-z
loop_
_atom_site_type_symbol
_atom_site_label
_atom_site_fract_x
_atom_site_fract_y
_atom_site_fract_z
Si Si1 0.862893 0.209952 0.264488
Si Si2 0.090903 0.713901 0.586177
Si Si3 0.868608 0.489551 0.809236
Si Si4 0.033008 0.317216 0.930217
Si Si5 0.518441 0.062181 0.741318
Si Si6 0.623988 0.843170 0.748432
Si Si7 0.784232 0.061281 0.131446
Si Si8 0.662702 0.674617 0.009238
O O1 0.762566 0.223251 0.235255
O O2 0.060273 0.471332 0.304554
O O3 0.692320 0.150734 0.065154
O O4 0.000000 0.000000 0.500000
O O5 0.108446 0.448503 0.726936
O O6 0.238569 0.874684 0.582440
O O7 0.833500 0.803012 0.307105
O O8 0.578072 0.310632 0.630145
O O9 0.033118 0.376594 0.974954
O O10 0.923248 0.755480 0.696013
O O11 0.000000 0.500000 0.000000
O O12 0.294213 0.333033 0.131361
O O13 0.867107 0.049393 0.902070
O O14 0.622768 0.108699 0.890553
O O15 0.703816 0.922644 0.955497
O O16 0.500000 0.000000 0.500000
O O17 0.516294 0.708318 0.783172
O O18 0.500000 0.500000 0.000000
#
# Coordination Sequence:
#
# PCOD9098767 Si02
#       8
#     2   2   2   2   2   2   2   2
#     4   9  18  37  60  85 119 154 202 248 297 363
#     4  10  20  37  57  82 120 156 192 249 301 352
#     4   9  18  37  60  85 119 154 202 248 297 363
#     4  10  20  41  64  85 126 160 196 262 308 346
#     4  10  20  37  57  82 120 156 192 249 301 352
#     4  11  23  42  66  94 119 161 210 250 306 369
#     4   9  20  36  58  88 110 155 202 240 296 371
#     4  10  21  41  61  88 127 154 196 258 298 354
#
# _framework density 26.190256000000002
#
# number of rings (size 3 to 8) (size 9 to 14) (size 15 to 20)
#    0.000    2.250    2.500    0.000    0.000    1.500 
#   18.000   11.250    0.000    0.000    0.000    0.000 
#    0.000    0.000    0.000    0.000    0.000    0.000 
#
# Total GULP energy -89119.973464 kJ/mol
# GULP energy per Si atom -5569.998342 kJ/mol
# Density = 2.613065 g / cm^3
# Si number density = 26.190256 Si / 1000 Ang^3
#
#
#
# Elastic Constant Matrix: (Units=GPa)
#
#
# Indices 1 2 3 4 5 6 
#
# 1 201.2387 39.6752 31.6973 -9.3123 -13.9864 -7.4853
# 2 39.6752 95.4913 9.5219 -32.7865 13.0201 7.4252
# 3 31.6973 9.5219 57.6157 -17.7783 2.6157 -3.0573
# 4 -9.3123 -32.7865 -17.7783 33.3660 -6.9780 -0.7286
# 5 -13.9864 13.0201 2.6157 -6.9780 28.8086 -13.9949
# 6 -7.4853 7.4252 -3.0573 -0.7286 -13.9949 53.6893
#
#
#
# Elastic Compliance Matrix: (Units=1/GPa)
#
#
# Indices 1 2 3 4 5 6 
#
# 1 0.007022 -0.004904 -0.004337 -0.003718 0.006617 0.003084
# 2 -0.004904 0.020434 0.005466 0.019383 -0.010125 -0.005575
# 3 -0.004337 0.005466 0.023970 0.016273 -0.003093 -0.000581
# 4 -0.003718 0.019383 0.016273 0.056863 0.001147 -0.001202
# 5 0.006617 -0.010125 -0.003093 0.001147 0.050504 0.015327
# 6 0.003084 -0.005575 -0.000581 -0.001202 0.015327 0.023772
#
#
# Mechanical properties :
#
#
# Convention : Reuss Voigt Hill
#
# Bulk Modulus (GPa) = 22.79164 57.34828 40.06996
# Shear Modulus (GPa) = 24.42128 41.40287 32.91208
#
# Velocity S-wave (km/s) = 3.05693 3.98030 3.54878
# Velocity P-wave (km/s) = 4.60228 6.56263 5.66785
#
# Compressibility (1/GPa) = 0.04387574
#
# Stress axis : x y z
#
# Youngs Moduli (GPa) = 142.41815 48.93890 41.71945
#
# Poissons Ratio (x) = 0.23998 0.18092
# Poissons Ratio (y) = 0.69836 -0.22802
# Poissons Ratio (z) = 0.61761 -0.26748
#
# Static dielectric constant tensor:
#      x y z
#    x 2.212860 0.193370 -0.068170 
#    y 0.193370 2.307610 -0.009460 
#    z -0.068170 -0.009460 2.210330 
# 
# From -- ./inp_files/438415.got.cif
#   From: 2010.05.17/outbox.cif.g08.bks.cpg/sg2_220_cif.got.tgz:438415.got - 2010.06.03 11:33:40.
