data_PCOD9098685
_publ_section_title
;
Structure prediction by ZEFSAII (Michael W. Deem and Ramdas Pophale) SiO2 
 PCOD9098685
Probable space group: P -1
;
_chemical_formula_sum "Si O2"
_cell_formula_units_Z 16
_cell_length_a 13.626592
_cell_length_b 8.884517
_cell_length_c 10.329364
_cell_angle_alpha 82.099401
_cell_angle_beta 135.267159
_cell_angle_gamma 126.892189
_cell_volume 604.030792
_symmetry_space_group_name_H-M "P -1"
_symmetry_group_IT_number 2
_symmetry_cell_setting 'triclinic'
loop_
_space_group_symop_operation_xyz
x,y,z
-x,-y,-z
loop_
_atom_site_type_symbol
_atom_site_label
_atom_site_fract_x
_atom_site_fract_y
_atom_site_fract_z
Si Si1 0.108247 0.340902 0.536897
Si Si2 0.851931 0.832044 0.762688
Si Si3 0.520839 0.313926 0.497961
Si Si4 0.264496 0.202298 0.017223
Si Si5 0.126368 0.437109 0.839010
Si Si6 0.728203 0.263952 0.534788
Si Si7 0.298346 0.166216 0.771659
Si Si8 0.466029 0.897200 0.119716
O O1 0.130337 0.441458 0.685265
O O2 0.172726 0.509470 0.467952
O O3 0.234211 0.283182 0.654532
O O4 0.883762 0.097215 0.362362
O O5 0.707681 0.572191 0.674994
O O6 0.671212 0.812051 0.573383
O O7 0.035480 0.953254 0.820453
O O8 0.000000 0.000000 0.000000
O O9 0.624834 0.236551 0.573506
O O10 0.406462 0.265320 0.260688
O O11 0.214842 0.341552 0.964459
O O12 0.370878 0.243593 0.977672
O O13 0.904878 0.280377 0.707875
O O14 0.239009 0.676209 0.964426
O O15 0.569811 0.073413 0.306840
O O16 0.449458 0.205592 0.812612
O O17 0.500000 0.000000 0.000000
#
# Coordination Sequence:
#
# PCOD9098685 Si02
#       8
#     2   2   2   2   2   2   2   2
#     4  10  20  37  56  81 123 172 214 250 289 346
#     4   9  20  43  69  95 118 146 203 262 310 368
#     4  10  22  39  69  94 116 158 204 250 314 373
#     4  10  22  39  61  92 124 159 206 259 303 358
#     4  11  24  37  56  87 130 168 207 252 302 351
#     4  12  23  39  60  89 128 166 203 253 305 358
#     4  10  21  35  58  87 121 171 212 248 292 356
#     4  12  23  36  56  83 129 171 211 246 297 357
#
# _framework density 26.488714000000002
#
# number of rings (size 3 to 8) (size 9 to 14) (size 15 to 20)
#    0.000    1.500    2.500    2.625    1.750    4.000 
#    0.000    0.625    0.000    7.500    0.000    0.000 
#    0.000    0.000    0.000    0.000    0.000    0.000 
#
# Total GULP energy -89534.715061 kJ/mol
# GULP energy per Si atom -5595.919691 kJ/mol
# Density = 2.642842 g / cm^3
# Si number density = 26.488714 Si / 1000 Ang^3
#
#
#
# Elastic Constant Matrix: (Units=GPa)
#
#
# Indices 1 2 3 4 5 6 
#
# 1 88.7477 9.5031 26.7130 -4.6853 5.8356 -26.5273
# 2 9.5031 107.3087 48.9436 34.5023 7.5394 -6.3716
# 3 26.7130 48.9436 135.8966 47.8787 1.4920 -0.9020
# 4 -4.6853 34.5023 47.8787 58.2161 3.3607 1.8367
# 5 5.8356 7.5394 1.4920 3.3607 40.8407 -4.7249
# 6 -26.5273 -6.3716 -0.9020 1.8367 -4.7249 39.0204
#
#
#
# Elastic Compliance Matrix: (Units=1/GPa)
#
#
# Indices 1 2 3 4 5 6 
#
# 1 0.016249 -0.000158 -0.004867 0.005149 -0.001323 0.010506
# 2 -0.000158 0.012405 -0.002565 -0.005227 -0.001521 0.001921
# 3 -0.004867 -0.002565 0.012391 -0.009037 0.001127 -0.002879
# 4 0.005149 -0.005227 -0.009037 0.028189 -0.001655 0.000911
# 5 -0.001323 -0.001521 0.001127 -0.001655 0.025284 0.002018
# 6 0.010506 0.001921 -0.002879 0.000911 0.002018 0.033218
#
#
# Mechanical properties :
#
#
# Convention : Reuss Voigt Hill
#
# Bulk Modulus (GPa) = 38.66332 55.80805 47.23569
# Shear Modulus (GPa) = 32.99523 44.06832 38.53177
#
# Velocity S-wave (km/s) = 3.53318 4.08323 3.81812
# Velocity P-wave (km/s) = 5.59217 6.58367 6.10807
#
# Compressibility (1/GPa) = 0.02586431
#
# Stress axis : x y z
#
# Youngs Moduli (GPa) = 61.54314 80.61518 80.70109
#
# Poissons Ratio (x) = 0.01273 0.39277
# Poissons Ratio (y) = 0.00972 0.20703
# Poissons Ratio (z) = 0.29953 0.20681
#
# Static dielectric constant tensor:
#      x y z
#    x 2.206890 0.065770 0.078720 
#    y 0.065770 2.106900 -0.004130 
#    z 0.078720 -0.004130 2.165200 
# 
# From -- ./inp_files/338148.got.cif
#   From: 2010.05.17/outbox.cif.g08.bks.cpg/sg2_170_cif.got.tgz:338148.got - 2010.06.03 11:33:40.
