data_PCOD9098683
_publ_section_title
;
Structure prediction by ZEFSAII (Michael W. Deem and Ramdas Pophale) SiO2 
 PCOD9098683
Probable space group: P -1
;
_chemical_formula_sum "Si O2"
_cell_formula_units_Z 16
_cell_length_a 20.947536
_cell_length_b 7.924241
_cell_length_c 20.988756
_cell_angle_alpha 139.339270
_cell_angle_beta 160.793300
_cell_angle_gamma 43.015727
_cell_volume 745.024913
_symmetry_space_group_name_H-M "P -1"
_symmetry_group_IT_number 2
_symmetry_cell_setting 'triclinic'
loop_
_space_group_symop_operation_xyz
x,y,z
-x,-y,-z
loop_
_atom_site_type_symbol
_atom_site_label
_atom_site_fract_x
_atom_site_fract_y
_atom_site_fract_z
Si Si1 0.264037 0.982088 0.973090
Si Si2 0.669842 0.653072 0.590589
Si Si3 0.543391 0.374779 0.280649
Si Si4 0.728152 0.244274 0.813869
Si Si5 0.013665 0.588621 0.110052
Si Si6 0.532744 0.511254 0.110089
Si Si7 0.100165 0.799050 0.632276
Si Si8 0.269372 0.068634 0.753186
O O1 0.103929 0.138740 0.909867
O O2 0.397154 0.762705 0.072809
O O3 0.149936 0.878760 0.773981
O O4 0.422281 0.172233 0.149005
O O5 0.702554 0.511280 0.512437
O O6 0.436180 0.703723 0.381738
O O7 0.761703 0.450238 0.669396
O O8 0.748705 0.937097 0.753315
O O9 0.377553 0.610622 0.183295
O O10 0.650714 0.205333 0.279499
O O11 0.909279 0.392977 0.003634
O O12 0.000000 0.500000 0.000000
O O13 0.440281 0.256483 0.975993
O O14 0.500000 0.500000 0.000000
O O15 0.762724 0.464750 0.326440
O O16 0.879145 0.792937 0.399202
O O17 0.169139 0.019008 0.711629
#
# Coordination Sequence:
#
# PCOD9098683 Si02
#       8
#     2   2   2   2   2   2   2   2
#     4  10  21  40  54  84 111 157 183 223 285 332
#     4   9  18  38  61  80 109 148 183 237 271 332
#     4   9  17  34  60  80 111 145 187 221 281 326
#     4   8  19  37  59  85 106 148 189 228 280 331
#     4  11  22  38  59  84 115 146 184 232 284 336
#     4  10  20  37  56  80 118 150 186 226 273 332
#     4  10  22  36  59  80 117 145 189 234 272 327
#     4  11  20  36  57  90 108 150 188 230 276 324
#
# _framework density 21.475792999999999
#
# number of rings (size 3 to 8) (size 9 to 14) (size 15 to 20)
#    0.750    1.500    2.500    1.500    0.000    2.500 
#    4.500    3.750    0.000    0.000    0.000    0.000 
#    0.000    0.000    0.000    0.000    0.000    0.000 
#
# Total GULP energy -89083.244605 kJ/mol
# GULP energy per Si atom -5567.702788 kJ/mol
# Density = 2.142691 g / cm^3
# Si number density = 21.475793 Si / 1000 Ang^3
#
#
#
# Elastic Constant Matrix: (Units=GPa)
#
#
# Indices 1 2 3 4 5 6 
#
# 1 48.9674 24.9719 2.6515 -11.3677 -11.0491 -13.4213
# 2 24.9719 139.5340 42.1874 -22.1186 -19.5846 -30.5477
# 3 2.6515 42.1874 53.1320 -25.2732 -9.1271 -10.5510
# 4 -11.3677 -22.1186 -25.2732 40.5028 8.5025 9.8033
# 5 -11.0491 -19.5846 -9.1271 8.5025 19.1750 4.6652
# 6 -13.4213 -30.5477 -10.5510 9.8033 4.6652 23.0537
#
#
#
# Elastic Compliance Matrix: (Units=1/GPa)
#
#
# Indices 1 2 3 4 5 6 
#
# 1 0.028651 -0.002030 0.007684 0.006132 0.012358 0.012399
# 2 -0.002030 0.013192 -0.008104 -0.002836 0.006677 0.012445
# 3 0.007684 -0.008104 0.034384 0.018063 0.004282 0.000923
# 4 0.006132 -0.002836 0.018063 0.039245 -0.006387 -0.007317
# 5 0.012358 0.006677 0.004282 -0.006387 0.069335 0.006687
# 6 0.012399 0.012445 0.000923 -0.007317 0.006687 0.069266
#
#
# Mechanical properties :
#
#
# Convention : Reuss Voigt Hill
#
# Bulk Modulus (GPa) = 14.02002 42.36165 28.19084
# Shear Modulus (GPa) = 17.68349 28.00114 22.84232
#
# Velocity S-wave (km/s) = 2.87263 3.61480 3.26487
# Velocity P-wave (km/s) = 4.18869 6.09840 5.23143
#
# Compressibility (1/GPa) = 0.07132656
#
# Stress axis : x y z
#
# Youngs Moduli (GPa) = 34.90250 75.80150 29.08370
#
# Poissons Ratio (x) = 0.15386 -0.22347
# Poissons Ratio (y) = 0.07084 0.23570
# Poissons Ratio (z) = -0.26818 0.61432
#
# Static dielectric constant tensor:
#      x y z
#    x 1.885860 0.012400 0.078470 
#    y 0.012400 1.841580 -0.008160 
#    z 0.078470 -0.008160 1.877050 
# 
# From -- ./inp_files/317815.got.cif
#   From: 2010.05.17/outbox.cif.g08.bks.cpg/sg2_159_cif.got.tgz:317815.got - 2010.06.03 11:33:40.
