data_PCOD9098571
_publ_section_title
;
Structure prediction by ZEFSAII (Michael W. Deem and Ramdas Pophale) SiO2 
 PCOD9098571
Probable space group: P -1
;
_chemical_formula_sum "Si O2"
_cell_formula_units_Z 12
_cell_length_a 7.658461
_cell_length_b 9.103277
_cell_length_c 11.300227
_cell_angle_alpha 43.870055
_cell_angle_beta 118.270610
_cell_angle_gamma 101.751487
_cell_volume 468.442135
_symmetry_space_group_name_H-M "P -1"
_symmetry_group_IT_number 2
_symmetry_cell_setting 'triclinic'
loop_
_space_group_symop_operation_xyz
x,y,z
-x,-y,-z
loop_
_atom_site_type_symbol
_atom_site_label
_atom_site_fract_x
_atom_site_fract_y
_atom_site_fract_z
Si Si1 0.446700 0.214676 0.437045
Si Si2 0.300800 0.540777 0.995283
Si Si3 0.708636 0.219724 0.721428
Si Si4 0.876300 0.699520 0.114814
Si Si5 0.645198 0.772429 0.223884
Si Si6 0.160397 0.039763 0.627882
O O1 0.643617 0.253662 0.544956
O O2 0.500000 0.000000 0.500000
O O3 0.311450 0.143063 0.537226
O O4 0.343517 0.409894 0.206166
O O5 0.142894 0.444455 0.921562
O O6 0.238227 0.796767 0.843660
O O7 0.500000 0.500000 0.000000
O O8 0.515662 0.302928 0.697511
O O9 0.892961 0.323225 0.758652
O O10 0.785479 0.956096 0.910521
O O11 0.739427 0.646838 0.209795
O O12 0.837838 0.818401 0.334478
O O13 0.500000 0.000000 0.000000
O O14 0.000000 0.000000 0.500000
#
# Coordination Sequence:
#
# PCOD9098571 Si02
#       6
#     2   2   2   2   2   2
#     4  11  21  41  70  94 134 176 220 275 335 394
#     4  12  23  42  72 102 128 180 230 270 336 409
#     4   9  19  37  61  96 134 174 216 274 339 395
#     4  10  20  36  69  94 129 178 221 271 339 398
#     4   9  19  39  63  92 130 176 213 274 339 390
#     4  11  26  44  67  99 138 173 223 283 336 395
#
# _framework density 25.616824000000001
#
# number of rings (size 3 to 8) (size 9 to 14) (size 15 to 20)
#    0.000    1.667    3.333    2.000    2.333    2.000 
#    0.000    6.667    0.000   19.000    0.000    0.000 
#    0.000    0.000    0.000    0.000    0.000    0.000 
#
# Total GULP energy -67188.675420 kJ/mol
# GULP energy per Si atom -5599.056285 kJ/mol
# Density = 2.555852 g / cm^3
# Si number density = 25.616824 Si / 1000 Ang^3
#
#
#
# Elastic Constant Matrix: (Units=GPa)
#
#
# Indices 1 2 3 4 5 6 
#
# 1 69.5625 37.4709 44.5940 12.3630 -2.0935 17.7202
# 2 37.4709 131.4093 87.0393 25.6747 1.7222 11.2584
# 3 44.5940 87.0393 183.6459 9.4325 -18.8240 10.0460
# 4 12.3630 25.6747 9.4325 73.1196 7.0724 5.1291
# 5 -2.0935 1.7222 -18.8240 7.0724 31.2937 5.8620
# 6 17.7202 11.2584 10.0460 5.1291 5.8620 39.2377
#
#
#
# Elastic Compliance Matrix: (Units=1/GPa)
#
#
# Indices 1 2 3 4 5 6 
#
# 1 0.019991 -0.002884 -0.002834 -0.001627 0.001564 -0.007496
# 2 -0.002884 0.012723 -0.005545 -0.002919 -0.003566 -0.000014
# 3 -0.002834 -0.005545 0.009329 0.000708 0.005653 -0.000455
# 4 -0.001627 -0.002919 0.000708 0.015179 -0.002924 -0.000156
# 5 0.001564 -0.003566 0.005653 -0.002924 0.037507 -0.006351
# 6 -0.007496 -0.000014 -0.000455 -0.000156 -0.006351 0.029961
#
#
# Mechanical properties :
#
#
# Convention : Reuss Voigt Hill
#
# Bulk Modulus (GPa) = 51.23182 80.31403 65.77292
# Shear Modulus (GPa) = 32.52655 43.09774 37.81214
#
# Velocity S-wave (km/s) = 3.56720 4.10616 3.84613
# Velocity P-wave (km/s) = 6.08352 7.34172 6.74203
#
# Compressibility (1/GPa) = 0.01951912
#
# Stress axis : x y z
#
# Youngs Moduli (GPa) = 50.02138 78.59911 107.19106
#
# Poissons Ratio (x) = 0.22667 0.30375
# Poissons Ratio (y) = 0.14426 0.59433
# Poissons Ratio (z) = 0.14175 0.43580
#
# Static dielectric constant tensor:
#      x y z
#    x 1.975090 0.028880 0.044200 
#    y 0.028880 2.120760 -0.021390 
#    z 0.044200 -0.021390 2.115480 
# 
# From -- ./inp_files/263840.got.cif
#   From: 2010.05.17/outbox.cif.g08.bks.cpg/sg2_132_cif.got.tgz:263840.got - 2010.06.03 11:33:40.
