data_PCOD9098121
_publ_section_title
;
Structure prediction by ZEFSAII (Michael W. Deem and Ramdas Pophale) SiO2 
 PCOD9098121
Probable space group: P -1
;
_chemical_formula_sum "Si O2"
_cell_formula_units_Z 16
_cell_length_a 9.252277
_cell_length_b 12.870960
_cell_length_c 14.667289
_cell_angle_alpha 43.943428
_cell_angle_beta 58.267011
_cell_angle_gamma 36.277794
_cell_volume 710.853017
_symmetry_space_group_name_H-M "P -1"
_symmetry_group_IT_number 2
_symmetry_cell_setting 'triclinic'
loop_
_space_group_symop_operation_xyz
x,y,z
-x,-y,-z
loop_
_atom_site_type_symbol
_atom_site_label
_atom_site_fract_x
_atom_site_fract_y
_atom_site_fract_z
Si Si1 0.728927 0.863093 0.140137
Si Si2 0.002234 0.331412 0.643742
Si Si3 0.167178 0.945918 0.561651
Si Si4 0.246796 0.688080 0.410476
Si Si5 0.482276 0.011762 0.392057
Si Si6 0.573592 0.178826 0.843030
Si Si7 0.261064 0.294457 0.134762
Si Si8 0.226438 0.578240 0.840666
O O1 0.951265 0.706577 0.238317
O O2 0.637398 0.774870 0.172270
O O3 0.488717 0.072743 0.144556
O O4 0.744142 0.970575 0.984052
O O5 0.257923 0.106999 0.660291
O O6 0.000000 0.500000 0.500000
O O7 0.790466 0.382658 0.625075
O O8 0.389803 0.901322 0.473829
O O9 0.230981 0.754905 0.718149
O O10 0.000000 0.000000 0.500000
O O11 0.990904 0.170374 0.535722
O O12 0.500000 0.500000 0.500000
O O13 0.261468 0.848111 0.269784
O O14 0.500000 0.000000 0.500000
O O15 0.295625 0.246679 0.260304
O O16 0.432550 0.384636 0.824978
O O17 0.026631 0.342497 0.156238
O O18 0.261364 0.467330 0.994826
#
# Coordination Sequence:
#
# PCOD9098121 Si02
#       8
#     2   2   2   2   2   2   2   2
#     4   9  20  41  63  90 124 169 205 253 315 371
#     4  11  25  41  63  90 128 164 205 263 315 368
#     4  12  24  40  66  94 125 164 210 264 308 372
#     4  12  26  41  63  94 125 163 213 260 312 378
#     4  11  23  43  63  89 126 168 206 252 317 376
#     4  10  21  37  65  93 125 161 212 253 306 384
#     4   9  19  37  64  88 123 163 208 251 307 368
#     4  10  20  36  63  96 122 158 210 260 304 362
#
# _framework density 22.508167
#
# number of rings (size 3 to 8) (size 9 to 14) (size 15 to 20)
#    0.000    1.500    2.500    2.250    5.250    2.500 
#    0.000    0.625    0.000    0.000    0.000    0.000 
#    0.000    0.000    0.000    0.000    0.000    0.000 
#
# Total GULP energy -89213.992905 kJ/mol
# GULP energy per Si atom -5575.874557 kJ/mol
# Density = 2.245694 g / cm^3
# Si number density = 22.508167 Si / 1000 Ang^3
#
#
#
# Elastic Constant Matrix: (Units=GPa)
#
#
# Indices 1 2 3 4 5 6 
#
# 1 101.3235 0.1280 61.8070 -11.7730 25.2619 -7.3049
# 2 0.1280 32.5452 3.0405 1.0540 3.1221 -3.1174
# 3 61.8070 3.0405 156.0566 0.3111 25.9127 -3.4391
# 4 -11.7730 1.0540 0.3111 25.0653 0.5466 -3.1589
# 5 25.2619 3.1221 25.9127 0.5466 40.6664 6.4296
# 6 -7.3049 -3.1174 -3.4391 -3.1589 6.4296 23.4702
#
#
#
# Elastic Compliance Matrix: (Units=1/GPa)
#
#
# Indices 1 2 3 4 5 6 
#
# 1 0.016816 0.001757 -0.005067 0.009133 -0.008797 0.008364
# 2 0.001757 0.031714 -0.000497 0.000327 -0.004141 0.005865
# 3 -0.005067 -0.000497 0.008828 -0.002418 -0.002404 -0.000017
# 4 0.009133 0.000327 -0.002418 0.045657 -0.006421 0.010436
# 5 -0.008797 -0.004141 -0.002404 -0.006421 0.034184 -0.013869
# 6 0.008364 0.005865 -0.000017 0.010436 -0.013869 0.051191
#
#
# Mechanical properties :
#
#
# Convention : Reuss Voigt Hill
#
# Bulk Modulus (GPa) = 20.10383 46.65291 33.37837
# Shear Modulus (GPa) = 23.51977 32.83706 28.17841
#
# Velocity S-wave (km/s) = 3.23607 3.82369 3.54209
# Velocity P-wave (km/s) = 4.78686 6.34557 5.62051
#
# Compressibility (1/GPa) = 0.04974176
#
# Stress axis : x y z
#
# Youngs Moduli (GPa) = 59.46848 31.53139 113.27295
#
# Poissons Ratio (x) = -0.05539 0.57399
# Poissons Ratio (y) = -0.10446 0.05635
# Poissons Ratio (z) = 0.30135 0.01569
#
# Static dielectric constant tensor:
#      x y z
#    x 1.842610 -0.078980 0.029520 
#    y -0.078980 2.021390 -0.008430 
#    z 0.029520 -0.008430 1.885500 
# 
# From -- ./inp_files/238237.got.cif
#   From: 2010.05.17/outbox.cif.g08.bks.cpg/sg2_120_cif.got.tgz:238237.got - 2010.06.03 11:33:40.
