data_PCOD9098439
_publ_section_title
;
Structure prediction by ZEFSAII (Michael W. Deem and Ramdas Pophale) SiO2 
 PCOD9098439
Probable space group: P -1
;
_chemical_formula_sum "Si O2"
_cell_formula_units_Z 15
_cell_length_a 11.598437
_cell_length_b 11.516811
_cell_length_c 8.839576
_cell_angle_alpha 69.163127
_cell_angle_beta 90.795720
_cell_angle_gamma 37.750927
_cell_volume 578.806311
_symmetry_space_group_name_H-M "P -1"
_symmetry_group_IT_number 2
_symmetry_cell_setting 'triclinic'
loop_
_space_group_symop_operation_xyz
x,y,z
-x,-y,-z
loop_
_atom_site_type_symbol
_atom_site_label
_atom_site_fract_x
_atom_site_fract_y
_atom_site_fract_z
Si Si1 0.019844 0.885543 0.691295
Si Si2 0.636484 0.300482 0.715536
Si Si3 0.489666 0.171639 0.874103
Si Si4 0.000000 0.000000 0.000000
Si Si5 0.975384 0.728553 0.140210
Si Si6 0.317389 0.985351 0.525902
Si Si7 0.359013 0.413167 0.057674
Si Si8 0.274491 0.286609 0.534927
O O1 0.260002 0.620445 0.865744
O O2 0.891552 0.050051 0.766866
O O3 0.876301 0.901281 0.623148
O O4 0.000000 0.000000 0.500000
O O5 0.500000 0.500000 0.500000
O O6 0.510688 0.290676 0.747498
O O7 0.727345 0.285889 0.869129
O O8 0.411717 0.262548 0.000402
O O9 0.329050 0.244383 0.730855
O O10 0.740433 0.897035 0.001392
O O11 0.942212 0.904314 0.097406
O O12 0.077306 0.556819 0.357336
O O13 0.153852 0.557575 0.088980
O O14 0.509234 0.853315 0.477414
O O15 0.246078 0.175003 0.522188
O O16 0.427937 0.786429 0.737497
#
# Coordination Sequence:
#
# PCOD9098439 Si02
#       8
#     2   2   2   1   2   2   2   2
#     4  12  25  43  66 101 143 180 228 287 350 411
#     4  11  22  38  62  94 130 178 222 275 334 417
#     4  11  22  41  68  98 135 181 228 280 355 404
#     4  10  20  36  66  90 134 176 218 272 340 398
#     4  10  22  43  67 102 142 179 233 285 346 417
#     4  10  24  44  71 102 136 184 239 283 348 412
#     4  11  24  44  66 103 140 178 230 291 342 418
#     4  10  21  44  74  97 136 189 231 288 344 416
#
# _framework density 25.915405
#
# number of rings (size 3 to 8) (size 9 to 14) (size 15 to 20)
#    0.000    1.333    4.000    1.600    1.867    5.333 
#    0.000    5.333    0.000    0.000    0.000    0.000 
#    0.000    0.000    0.000    0.000    0.000    0.000 
#
# Total GULP energy -83862.340835 kJ/mol
# GULP energy per Si atom -5590.822722 kJ/mol
# Density = 2.585642 g / cm^3
# Si number density = 25.915405 Si / 1000 Ang^3
#
#
#
# Elastic Constant Matrix: (Units=GPa)
#
#
# Indices 1 2 3 4 5 6 
#
# 1 110.4322 8.9094 56.6058 -3.1984 0.5236 10.0517
# 2 8.9094 68.3898 28.6104 12.1644 2.9848 -7.5115
# 3 56.6058 28.6104 157.1376 -31.5882 12.4998 12.1036
# 4 -3.1984 12.1644 -31.5882 50.9634 5.2218 -4.2666
# 5 0.5236 2.9848 12.4998 5.2218 46.7433 3.8574
# 6 10.0517 -7.5115 12.1036 -4.2666 3.8574 28.4485
#
#
#
# Elastic Compliance Matrix: (Units=1/GPa)
#
#
# Indices 1 2 3 4 5 6 
#
# 1 0.011599 0.000634 -0.004785 -0.002768 0.001627 -0.002531
# 2 0.000634 0.018900 -0.005705 -0.007576 0.000666 0.005967
# 3 -0.004785 -0.005705 0.011243 0.008117 -0.003253 -0.002941
# 4 -0.002768 -0.007576 0.008117 0.026780 -0.004662 0.000172
# 5 0.001627 0.000666 -0.003253 -0.004662 0.022957 -0.002827
# 6 -0.002531 0.005967 -0.002941 0.000172 -0.002827 0.039282
#
#
# Mechanical properties :
#
#
# Convention : Reuss Voigt Hill
#
# Bulk Modulus (GPa) = 45.39114 58.24565 51.81840
# Shear Modulus (GPa) = 31.68248 41.35330 36.51789
#
# Velocity S-wave (km/s) = 3.50027 3.99896 3.75790
# Velocity P-wave (km/s) = 5.82143 6.62166 6.23439
#
# Compressibility (1/GPa) = 0.02203073
#
# Stress axis : x y z
#
# Youngs Moduli (GPa) = 86.21276 52.90982 88.94294
#
# Poissons Ratio (x) = -0.03353 0.42556
# Poissons Ratio (y) = -0.05464 0.50742
# Poissons Ratio (z) = 0.41249 0.30185
#
# Static dielectric constant tensor:
#      x y z
#    x 1.498330 -0.429460 -0.937960 
#    y -0.429460 1.713660 -0.745820 
#    z -0.937960 -0.745820 0.475520 
# 
# From -- ./inp_files/257556.got.cif
#   From: 2010.05.17/outbox.cif.g08.bks.cpg/sg2_129_cif.got.tgz:257556.got - 2010.06.03 11:33:40.
