data_PCOD9098240
_publ_section_title
;
Structure prediction by ZEFSAII (Michael W. Deem and Ramdas Pophale) SiO2 
 PCOD9098240
Probable space group: P -1
;
_chemical_formula_sum "Si O2"
_cell_formula_units_Z 16
_cell_length_a 8.493156
_cell_length_b 16.162903
_cell_length_c 20.595831
_cell_angle_alpha 30.975125
_cell_angle_beta 137.539327
_cell_angle_gamma 148.567766
_cell_volume 758.620052
_symmetry_space_group_name_H-M "P -1"
_symmetry_group_IT_number 2
_symmetry_cell_setting 'triclinic'
loop_
_space_group_symop_operation_xyz
x,y,z
-x,-y,-z
loop_
_atom_site_type_symbol
_atom_site_label
_atom_site_fract_x
_atom_site_fract_y
_atom_site_fract_z
Si Si1 0.706494 0.158896 0.680943
Si Si2 0.008069 0.678535 0.024866
Si Si3 0.277896 0.951628 0.804641
Si Si4 0.647427 0.331407 0.752413
Si Si5 0.099810 0.677594 0.558781
Si Si6 0.431209 0.219292 0.184016
Si Si7 0.306949 0.489027 0.582012
Si Si8 0.273785 0.106348 0.361531
O O1 0.562487 0.047308 0.780854
O O2 0.578414 0.277871 0.541207
O O3 0.067722 0.346066 0.662351
O O4 0.630398 0.981737 0.728536
O O5 0.751015 0.429268 0.117128
O O6 0.245492 0.743042 0.109658
O O7 0.826732 0.765082 0.924715
O O8 0.165425 0.764336 0.944954
O O9 0.374410 0.138261 0.757199
O O10 0.998909 0.888841 0.717897
O O11 0.550726 0.457031 0.670670
O O12 0.916491 0.483244 0.682014
O O13 0.438893 0.763546 0.591801
O O14 0.899377 0.611027 0.478768
O O15 0.142101 0.868820 0.477693
O O16 0.411470 0.200562 0.268356
#
# Coordination Sequence:
#
# PCOD9098240 Si02
#       8
#     2   2   2   2   2   2   2   2
#     4  11  23  39  62  88 130 165 188 248 323 361
#     4  10  23  40  67  86 114 164 214 256 286 348
#     4  11  22  39  62  91 122 162 204 250 297 358
#     4  12  21  40  66  95 117 157 213 248 296 361
#     4  11  19  35  66  91 119 154 204 254 297 353
#     4  10  20  43  62  87 123 159 204 255 303 353
#     4  11  22  39  62  92 129 160 192 252 309 368
#     4  10  20  36  64  92 117 158 208 252 294 355
#
# _framework density 21.090927000000001
#
# number of rings (size 3 to 8) (size 9 to 14) (size 15 to 20)
#    0.000    1.250    5.000    2.250    0.000    0.500 
#    0.000    6.250    0.000    0.000    0.000    0.000 
#    0.000    0.000    0.000    0.000    0.000    0.000 
#
# Total GULP energy -89400.706017 kJ/mol
# GULP energy per Si atom -5587.544126 kJ/mol
# Density = 2.104292 g / cm^3
# Si number density = 21.090927 Si / 1000 Ang^3
#
#
#
# Elastic Constant Matrix: (Units=GPa)
#
#
# Indices 1 2 3 4 5 6 
#
# 1 60.1379 14.6154 16.3514 -7.8104 -12.4011 5.0300
# 2 14.6154 63.5054 38.4187 -4.6600 1.3312 9.3870
# 3 16.3514 38.4187 81.3700 -1.9799 -9.6324 3.5947
# 4 -7.8104 -4.6600 -1.9799 49.1781 9.5467 1.0416
# 5 -12.4011 1.3312 -9.6324 9.5467 36.7417 -14.8076
# 6 5.0300 9.3870 3.5947 1.0416 -14.8076 20.5375
#
#
#
# Elastic Compliance Matrix: (Units=1/GPa)
#
#
# Indices 1 2 3 4 5 6 
#
# 1 0.019364 -0.004149 -0.001177 0.001225 0.007006 0.002349
# 2 -0.004149 0.028834 -0.013601 0.005098 -0.016044 -0.021609
# 3 -0.001177 -0.013601 0.019624 -0.002906 0.010279 0.010628
# 4 0.001225 0.005098 -0.002906 0.023302 -0.011163 -0.011352
# 5 0.007006 -0.016044 0.010279 -0.011163 0.052895 0.042522
# 6 0.002349 -0.021609 0.010628 -0.011352 0.042522 0.087366
#
#
# Mechanical properties :
#
#
# Convention : Reuss Voigt Hill
#
# Bulk Modulus (GPa) = 33.36747 38.19826 35.78287
# Shear Modulus (GPa) = 17.90646 30.33330 24.11988
#
# Velocity S-wave (km/s) = 2.91694 3.79650 3.38540
# Velocity P-wave (km/s) = 5.21535 6.11297 5.68191
#
# Compressibility (1/GPa) = 0.02996931
#
# Stress axis : x y z
#
# Youngs Moduli (GPa) = 51.64200 34.68132 50.95743
#
# Poissons Ratio (x) = 0.14388 0.05998
# Poissons Ratio (y) = 0.21424 0.69306
# Poissons Ratio (z) = 0.06079 0.47169
#
# Static dielectric constant tensor:
#      x y z
#    x 1.776490 0.004120 -0.010280 
#    y 0.004120 1.775320 -0.002090 
#    z -0.010280 -0.002090 1.750240 
# 
# From -- ./inp_files/303241.got.cif
#   From: 2010.05.17/outbox.cif.g08.bks.cpg/sg2_152_cif.got.tgz:303241.got - 2010.06.03 11:33:40.
