data_PCOD9098985
_publ_section_title
;
Structure prediction by ZEFSAII (Michael W. Deem and Ramdas Pophale) SiO2 
 PCOD9098985
Probable space group: P -1
;
_chemical_formula_sum "Si O2"
_cell_formula_units_Z 14
_cell_length_a 11.334097
_cell_length_b 8.183666
_cell_length_c 12.105068
_cell_angle_alpha 116.115685
_cell_angle_beta 63.033866
_cell_angle_gamma 143.136450
_cell_volume 594.024052
_symmetry_space_group_name_H-M "P -1"
_symmetry_group_IT_number 2
_symmetry_cell_setting 'triclinic'
loop_
_space_group_symop_operation_xyz
x,y,z
-x,-y,-z
loop_
_atom_site_type_symbol
_atom_site_label
_atom_site_fract_x
_atom_site_fract_y
_atom_site_fract_z
Si Si1 0.858832 0.718876 0.545746
Si Si2 0.262931 0.458923 0.825969
Si Si3 0.641894 0.693066 0.819556
Si Si4 0.518777 0.223748 0.397299
Si Si5 0.463806 0.151656 0.764347
Si Si6 0.701395 0.128059 0.013218
Si Si7 0.196853 0.019588 0.635360
O O1 0.712300 0.696183 0.671580
O O2 0.723893 0.453025 0.447506
O O3 0.000000 0.000000 0.500000
O O4 0.995728 0.745632 0.580595
O O5 0.411147 0.522480 0.870899
O O6 0.414405 0.662990 0.721392
O O7 0.172908 0.554369 0.936108
O O8 0.137563 0.161847 0.743636
O O9 0.620107 0.474236 0.822753
O O10 0.757931 0.996403 0.892158
O O11 0.359985 0.185763 0.516469
O O12 0.437291 0.933904 0.344244
O O13 0.310152 0.046767 0.699178
O O14 0.346043 0.982885 0.875098
O O15 0.500000 0.000000 0.000000
#
# Coordination Sequence:
#
# PCOD9098985 Si02
#       7
#     2   2   2   2   2   2   2
#     4  12  23  35  61  89 121 159 195 234 287 351
#     4   9  17  34  60  82 114 155 190 242 284 337
#     4  10  20  37  58  90 119 150 200 241 288 345
#     4  11  20  38  58  86 123 153 196 235 292 350
#     4  10  21  37  62  85 120 155 189 248 296 339
#     4   9  19  36  64  88 109 152 205 239 290 353
#     4  11  21  35  58  88 122 155 191 240 293 341
#
# _framework density 23.568069999999999
#
# number of rings (size 3 to 8) (size 9 to 14) (size 15 to 20)
#    0.000    1.714    4.286    2.143    0.000    0.571 
#    0.000    1.429    0.000    0.000    0.000    0.000 
#    0.000    0.000    0.000    0.000    0.000    0.000 
#
# Total GULP energy -78007.040966 kJ/mol
# GULP energy per Si atom -5571.931498 kJ/mol
# Density = 2.351443 g / cm^3
# Si number density = 23.568070 Si / 1000 Ang^3
#
#
#
# Elastic Constant Matrix: (Units=GPa)
#
#
# Indices 1 2 3 4 5 6 
#
# 1 54.4635 7.6993 11.8018 1.7641 0.7343 3.3002
# 2 7.6993 53.8845 -5.0196 31.4121 -6.1038 -8.0468
# 3 11.8018 -5.0196 68.1037 19.1746 -10.7480 -9.3829
# 4 1.7641 31.4121 19.1746 38.8033 -12.0663 -3.4143
# 5 0.7343 -6.1038 -10.7480 -12.0663 43.2713 9.7158
# 6 3.3002 -8.0468 -9.3829 -3.4143 9.7158 34.4048
#
#
#
# Elastic Compliance Matrix: (Units=1/GPa)
#
#
# Indices 1 2 3 4 5 6 
#
# 1 0.022224 -0.013127 -0.009550 0.013997 0.000794 -0.006641
# 2 -0.013127 0.060606 0.025554 -0.061386 -0.006044 0.018018
# 3 -0.009550 0.025554 0.029250 -0.034010 -0.001103 0.011806
# 4 0.013997 -0.061386 -0.034010 0.094043 0.013231 -0.019379
# 5 0.000794 -0.006044 -0.001103 0.013231 0.027511 -0.008247
# 6 -0.006641 0.018018 0.011806 -0.019379 -0.008247 0.037542
#
#
# Mechanical properties :
#
#
# Convention : Reuss Voigt Hill
#
# Bulk Modulus (GPa) = 8.48650 22.82386 15.65518
# Shear Modulus (GPa) = 16.40957 34.09390 25.25173
#
# Velocity S-wave (km/s) = 2.64154 3.80756 3.27683
# Velocity P-wave (km/s) = 3.59337 5.38844 4.57972
#
# Compressibility (1/GPa) = 0.11783421
#
# Stress axis : x y z
#
# Youngs Moduli (GPa) = 44.99585 16.50009 34.18821
#
# Poissons Ratio (x) = 0.21659 0.32648
# Poissons Ratio (y) = 0.59065 -0.87363
# Poissons Ratio (z) = 0.42969 -0.42164
#
# Static dielectric constant tensor:
#      x y z
#    x 1.935410 -0.031610 -0.005330 
#    y -0.031610 1.987650 0.046980 
#    z -0.005330 0.046980 1.885520 
# 
# From -- ./inp_files/231654.got.cif
#   From: 2010.05.17/outbox.cif.g08.bks.cpg/sg2_116_cif.got.tgz:231654.got - 2010.06.03 11:33:40.
