data_PCOD9098792
_publ_section_title
;
Structure prediction by ZEFSAII (Michael W. Deem and Ramdas Pophale) SiO2 
 PCOD9098792
Probable space group: P -1
;
_chemical_formula_sum "Si O2"
_cell_formula_units_Z 16
_cell_length_a 16.424705
_cell_length_b 8.251330
_cell_length_c 5.949074
_cell_angle_alpha 78.592833
_cell_angle_beta 55.687575
_cell_angle_gamma 72.296184
_cell_volume 634.050611
_symmetry_space_group_name_H-M "P -1"
_symmetry_group_IT_number 2
_symmetry_cell_setting 'triclinic'
loop_
_space_group_symop_operation_xyz
x,y,z
-x,-y,-z
loop_
_atom_site_type_symbol
_atom_site_label
_atom_site_fract_x
_atom_site_fract_y
_atom_site_fract_z
Si Si1 0.256180 0.497758 0.869680
Si Si2 0.458701 0.814012 0.880239
Si Si3 0.213581 0.728961 0.475281
Si Si4 0.640138 0.562379 0.877075
Si Si5 0.224735 0.231278 0.643040
Si Si6 0.937069 0.365598 0.560614
Si Si7 0.930331 0.923690 0.300359
Si Si8 0.402958 0.913638 0.446157
O O1 0.260337 0.650280 0.656512
O O2 0.225576 0.344243 0.829364
O O3 0.361284 0.423607 0.857065
O O4 0.162115 0.582878 0.146378
O O5 0.544888 0.643917 0.852485
O O6 0.422165 0.806280 0.679123
O O7 0.512939 0.973158 0.732213
O O8 0.401915 0.848735 0.205279
O O9 0.305392 0.634905 0.196620
O O10 0.115205 0.648383 0.595366
O O11 0.162199 0.927448 0.502961
O O12 0.720437 0.673649 0.651571
O O13 0.118480 0.208299 0.726332
O O14 0.296065 0.046265 0.619754
O O15 0.000000 0.500000 0.500000
O O16 0.003470 0.180828 0.575970
O O17 0.000000 0.000000 0.000000
#
# Coordination Sequence:
#
# PCOD9098792 Si02
#       8
#     2   2   2   2   2   2   2   2
#     4  10  20  37  57  85 120 157 205 254 315 374
#     4   9  18  32  61  92 129 160 209 265 322 393
#     4  10  22  39  57  84 122 156 206 255 313 377
#     4   9  20  37  62  93 119 164 202 258 319 375
#     4  10  23  37  58  87 125 164 204 265 318 377
#     4  11  23  40  62  86 115 160 210 266 318 375
#     4  12  24  42  61  87 123 168 212 259 318 378
#     4   9  19  33  55  95 129 162 207 267 327 379
#
# _framework density 25.234579
#
# number of rings (size 3 to 8) (size 9 to 14) (size 15 to 20)
#    0.000    2.000    1.250    2.625   12.250    1.000 
#    2.250    0.000    0.000    1.500    0.000    0.000 
#    0.000    0.000    0.000    0.000    0.000    0.000 
#
# Total GULP energy -89304.799696 kJ/mol
# GULP energy per Si atom -5581.549981 kJ/mol
# Density = 2.517714 g / cm^3
# Si number density = 25.234579 Si / 1000 Ang^3
#
#
#
# Elastic Constant Matrix: (Units=GPa)
#
#
# Indices 1 2 3 4 5 6 
#
# 1 88.0843 60.7556 42.1686 -11.8413 39.7744 -25.5156
# 2 60.7556 132.6522 43.9978 5.6795 16.3947 -24.9693
# 3 42.1686 43.9978 93.4968 -7.3704 15.3577 -26.2909
# 4 -11.8413 5.6795 -7.3704 32.1193 -3.9863 -9.1032
# 5 39.7744 16.3947 15.3577 -3.9863 39.6727 -8.0763
# 6 -25.5156 -24.9693 -26.2909 -9.1032 -8.0763 57.4872
#
#
#
# Elastic Compliance Matrix: (Units=1/GPa)
#
#
# Indices 1 2 3 4 5 6 
#
# 1 0.039440 -0.012182 -0.003541 0.014642 -0.029891 0.008714
# 2 -0.012182 0.013271 -0.002707 -0.006890 0.006880 -0.001005
# 3 -0.003541 -0.002707 0.015234 0.004077 0.000177 0.004890
# 4 0.014642 -0.006890 0.004077 0.040879 -0.007094 0.010847
# 5 -0.029891 0.006880 0.000177 -0.007094 0.050695 -0.004200
# 6 0.008714 -0.001005 0.004890 0.010847 -0.004200 0.024190
#
#
# Mechanical properties :
#
#
# Convention : Reuss Voigt Hill
#
# Bulk Modulus (GPa) = 32.16895 67.56414 49.86655
# Shear Modulus (GPa) = 21.65142 37.00992 29.33067
#
# Velocity S-wave (km/s) = 2.93235 3.83382 3.41298
# Velocity P-wave (km/s) = 4.92347 6.81397 5.94435
#
# Compressibility (1/GPa) = 0.03108587
#
# Stress axis : x y z
#
# Youngs Moduli (GPa) = 25.35474 75.35145 65.64356
#
# Poissons Ratio (x) = 0.91791 0.23246
# Poissons Ratio (y) = 0.30886 0.17768
# Poissons Ratio (z) = 0.08979 0.20396
#
# Static dielectric constant tensor:
#      x y z
#    x 2.110690 0.061600 0.023570 
#    y 0.061600 1.999320 0.027240 
#    z 0.023570 0.027240 2.034690 
# 
# From -- ./inp_files/105118.got.cif
#   From: 2010.05.17/outbox.cif.g08.bks.cpg/sg2_53_cif.got.tgz:105118.got - 2010.06.03 11:33:40.
