data_PCOD9098616
_publ_section_title
;
Structure prediction by ZEFSAII (Michael W. Deem and Ramdas Pophale) SiO2 
 PCOD9098616
Probable space group: P -1
;
_chemical_formula_sum "Si O2"
_cell_formula_units_Z 16
_cell_length_a 10.356184
_cell_length_b 13.208578
_cell_length_c 13.309433
_cell_angle_alpha 30.531459
_cell_angle_beta 77.015096
_cell_angle_gamma 56.361173
_cell_volume 617.790501
_symmetry_space_group_name_H-M "P -1"
_symmetry_group_IT_number 2
_symmetry_cell_setting 'triclinic'
loop_
_space_group_symop_operation_xyz
x,y,z
-x,-y,-z
loop_
_atom_site_type_symbol
_atom_site_label
_atom_site_fract_x
_atom_site_fract_y
_atom_site_fract_z
Si Si1 0.080588 0.355020 0.918286
Si Si2 0.486260 0.356553 0.214888
Si Si3 0.249258 0.605027 0.384592
Si Si4 0.065018 0.852924 0.503265
Si Si5 0.519061 0.010239 0.787797
Si Si6 0.892529 0.177473 0.044199
Si Si7 0.263576 0.249035 0.235477
Si Si8 0.543549 0.607598 0.259437
O O1 0.961181 0.460099 0.953294
O O2 0.069957 0.606331 0.695373
O O3 0.972416 0.316628 0.898438
O O4 0.306174 0.053770 0.137503
O O5 0.366841 0.297269 0.246752
O O6 0.679236 0.036779 0.493445
O O7 0.500000 0.500000 0.000000
O O8 0.336344 0.604068 0.111766
O O9 0.367102 0.666359 0.273739
O O10 0.339045 0.459092 0.603490
O O11 0.324087 0.346103 0.522353
O O12 0.025487 0.893549 0.194322
O O13 0.286900 0.677035 0.594892
O O14 0.000000 0.000000 0.500000
O O15 0.942696 0.065618 0.247723
O O16 0.630234 0.830952 0.819803
O O17 0.477136 0.870481 0.984330
#
# Coordination Sequence:
#
# PCOD9098616 Si02
#       8
#     2   2   2   2   2   2   2   2
#     4  10  21  34  55  86 125 148 175 238 293 347
#     4  10  22  43  62  79 113 152 199 247 291 339
#     4  10  20  37  54  82 119 159 197 223 277 356
#     4  10  21  30  52  88 120 148 188 227 288 351
#     4  11  21  34  58  88 122 150 186 238 291 343
#     4  10  22  38  59  83 113 159 195 231 288 343
#     4  10  23  37  58  89 112 151 197 239 297 345
#     4   9  20  33  50  81 122 161 185 220 281 353
#
# _framework density 25.898748000000001
#
# number of rings (size 3 to 8) (size 9 to 14) (size 15 to 20)
#    0.000    2.000    0.000    3.750   10.500    3.000 
#    0.000    0.625    0.000    1.500    0.000    0.000 
#    0.000    0.000    0.000    0.000    0.000    0.000 
#
# Total GULP energy -89419.142319 kJ/mol
# GULP energy per Si atom -5588.696395 kJ/mol
# Density = 2.583980 g / cm^3
# Si number density = 25.898748 Si / 1000 Ang^3
#
#
#
# Elastic Constant Matrix: (Units=GPa)
#
#
# Indices 1 2 3 4 5 6 
#
# 1 30.1437 5.9023 15.0372 -8.0765 -3.1922 -8.4372
# 2 5.9023 142.0003 53.7725 -20.9316 8.4364 -22.6286
# 3 15.0372 53.7725 106.7258 -9.1147 -17.0989 -10.7108
# 4 -8.0765 -20.9316 -9.1147 61.5492 -13.2388 11.1838
# 5 -3.1922 8.4364 -17.0989 -13.2388 32.6201 0.6135
# 6 -8.4372 -22.6286 -10.7108 11.1838 0.6135 37.9852
#
#
#
# Elastic Compliance Matrix: (Units=1/GPa)
#
#
# Indices 1 2 3 4 5 6 
#
# 1 0.038607 0.001876 -0.004961 0.004177 0.002256 0.007027
# 2 0.001876 0.010353 -0.005760 0.000922 -0.005229 0.004773
# 3 -0.004961 -0.005760 0.014505 0.001748 0.009338 -0.001109
# 4 0.004177 0.000922 0.001748 0.020120 0.009330 -0.004105
# 5 0.002256 -0.005229 0.009338 0.009330 0.040974 -0.003390
# 6 0.007027 0.004773 -0.001109 -0.004105 -0.003390 0.031681
#
#
# Mechanical properties :
#
#
# Convention : Reuss Voigt Hill
#
# Bulk Modulus (GPa) = 21.84686 47.58818 34.71752
# Shear Modulus (GPa) = 26.42847 40.04141 33.23494
#
# Velocity S-wave (km/s) = 3.19792 3.93628 3.58615
# Velocity P-wave (km/s) = 4.69993 6.25089 5.53006
#
# Compressibility (1/GPa) = 0.04577317
#
# Stress axis : x y z
#
# Youngs Moduli (GPa) = 25.90191 96.59281 68.94087
#
# Poissons Ratio (x) = -0.18117 0.34202
# Poissons Ratio (y) = -0.04858 0.39713
# Poissons Ratio (z) = 0.12850 0.55641
#
# Static dielectric constant tensor:
#      x y z
#    x 2.035730 0.051190 0.020980 
#    y 0.051190 2.102340 -0.021320 
#    z 0.020980 -0.021320 2.095130 
# 
# From -- ./inp_files/522153.got.cif
#   From: 2010.05.17/outbox.cif.g08.bks.cpg/sg2_262_cif.got.tgz:522153.got - 2010.06.03 11:33:40.
