data_PCOD9098493
_publ_section_title
;
Structure prediction by ZEFSAII (Michael W. Deem and Ramdas Pophale) SiO2 
 PCOD9098493
Probable space group: P -1
;
_chemical_formula_sum "Si O2"
_cell_formula_units_Z 15
_cell_length_a 10.519302
_cell_length_b 10.258543
_cell_length_c 9.372254
_cell_angle_alpha 70.139152
_cell_angle_beta 126.464628
_cell_angle_gamma 83.934173
_cell_volume 698.892544
_symmetry_space_group_name_H-M "P -1"
_symmetry_group_IT_number 2
_symmetry_cell_setting 'triclinic'
loop_
_space_group_symop_operation_xyz
x,y,z
-x,-y,-z
loop_
_atom_site_type_symbol
_atom_site_label
_atom_site_fract_x
_atom_site_fract_y
_atom_site_fract_z
Si Si1 0.500000 0.500000 0.500000
Si Si2 0.727300 0.316875 0.148681
Si Si3 0.399142 0.858392 0.236673
Si Si4 0.118394 0.033935 0.183373
Si Si5 0.004817 0.647415 0.879580
Si Si6 0.649744 0.524728 0.284146
Si Si7 0.767924 0.761262 0.403966
Si Si8 0.884990 0.999697 0.255507
O O1 0.442512 0.683303 0.365512
O O2 0.603703 0.467147 0.424326
O O3 0.738345 0.393357 0.276465
O O4 0.809047 0.379956 0.051380
O O5 0.835797 0.136802 0.284087
O O6 0.528484 0.365467 0.954385
O O7 0.311548 0.957517 0.280634
O O8 0.574326 0.863686 0.292120
O O9 0.258053 0.921030 0.993756
O O10 0.068569 0.970628 0.317484
O O11 0.053975 0.212879 0.101868
O O12 0.000000 0.000000 0.000000
O O13 0.877698 0.694599 0.643260
O O14 0.000000 0.500000 0.000000
O O15 0.755314 0.625990 0.353324
O O16 0.850838 0.859156 0.339886
#
# Coordination Sequence:
#
# PCOD9098493 Si02
#       8
#     1   2   2   2   2   2   2   2
#     4  10  20  36  66  98 132 170 220 270 332 390
#     4  10  22  43  66  96 135 179 224 271 341 403
#     4  10  21  38  66  99 130 176 225 274 331 405
#     4   9  22  42  68  94 131 184 219 270 345 404
#     4  11  27  45  65  99 141 177 225 293 338 400
#     4  10  23  40  68  99 130 179 225 276 334 407
#     4  11  24  40  68  98 132 175 225 285 340 392
#     4  10  20  42  69  94 135 176 222 281 334 401
#
# _framework density 21.462527000000001
#
# number of rings (size 3 to 8) (size 9 to 14) (size 15 to 20)
#    0.000    1.867    2.667    0.400    3.733    7.467 
#    2.400    0.000    0.000    0.000    0.000    0.000 
#    0.000    0.000    0.000    0.000    0.000    0.000 
#
# Total GULP energy -83582.636096 kJ/mol
# GULP energy per Si atom -5572.175740 kJ/mol
# Density = 2.141368 g / cm^3
# Si number density = 21.462527 Si / 1000 Ang^3
#
#
#
# Elastic Constant Matrix: (Units=GPa)
#
#
# Indices 1 2 3 4 5 6 
#
# 1 77.3737 59.0925 16.0418 -3.2445 -19.9687 -12.8050
# 2 59.0925 172.5841 45.7071 11.9535 -26.9275 -8.4400
# 3 16.0418 45.7071 48.7159 -7.1842 -22.0180 9.7023
# 4 -3.2445 11.9535 -7.1842 19.8569 12.8516 -1.3218
# 5 -19.9687 -26.9275 -22.0180 12.8516 41.4523 -2.4852
# 6 -12.8050 -8.4400 9.7023 -1.3218 -2.4852 43.0882
#
#
#
# Elastic Compliance Matrix: (Units=1/GPa)
#
#
# Indices 1 2 3 4 5 6 
#
# 1 0.019860 -0.006585 0.001660 0.004936 0.004921 0.004674
# 2 -0.006585 0.012708 -0.010571 -0.015176 0.004335 0.002697
# 3 0.001660 -0.010571 0.037943 0.013749 0.009275 -0.009164
# 4 0.004936 -0.015176 0.013749 0.081683 -0.025717 -0.003579
# 5 0.004921 0.004335 0.009275 -0.025717 0.042323 0.001875
# 6 0.004674 0.002697 -0.009164 -0.003579 0.001875 0.027187
#
#
# Mechanical properties :
#
#
# Convention : Reuss Voigt Hill
#
# Bulk Modulus (GPa) = 25.30413 60.03960 42.67186
# Shear Modulus (GPa) = 18.80632 32.73499 25.77065
#
# Velocity S-wave (km/s) = 2.96335 3.90964 3.46891
# Velocity P-wave (km/s) = 4.85016 6.95811 5.99747
#
# Compressibility (1/GPa) = 0.03951925
#
# Stress axis : x y z
#
# Youngs Moduli (GPa) = 50.35297 78.69117 26.35537
#
# Poissons Ratio (x) = 0.51819 -0.04375
# Poissons Ratio (y) = 0.33158 0.27859
# Poissons Ratio (z) = -0.08358 0.83181
#
# Static dielectric constant tensor:
#      x y z
#    x 1.564150 -0.452020 -0.425170 
#    y -0.452020 1.101840 -0.717450 
#    z -0.425170 -0.717450 0.960700 
# 
# From -- ./inp_files/237971.got.cif
#   From: 2010.05.17/outbox.cif.g08.bks.cpg/sg2_119_cif.got.tgz:237971.got - 2010.06.03 11:33:40.
