data_PCOD9098368
_publ_section_title
;
Structure prediction by ZEFSAII (Michael W. Deem and Ramdas Pophale) SiO2 
 PCOD9098368
Probable space group: P -1
;
_chemical_formula_sum "Si O2"
_cell_formula_units_Z 16
_cell_length_a 9.098492
_cell_length_b 16.431502
_cell_length_c 8.965674
_cell_angle_alpha 152.483035
_cell_angle_beta 80.009129
_cell_angle_gamma 95.906889
_cell_volume 606.045923
_symmetry_space_group_name_H-M "P -1"
_symmetry_group_IT_number 2
_symmetry_cell_setting 'triclinic'
loop_
_space_group_symop_operation_xyz
x,y,z
-x,-y,-z
loop_
_atom_site_type_symbol
_atom_site_label
_atom_site_fract_x
_atom_site_fract_y
_atom_site_fract_z
Si Si1 0.451361 0.847767 0.643942
Si Si2 0.155557 0.562159 0.524067
Si Si3 0.672347 0.568820 0.270216
Si Si4 0.649539 0.001181 0.652837
Si Si5 0.399366 0.337620 0.247516
Si Si6 0.105980 0.237887 0.636752
Si Si7 0.184461 0.766430 0.149396
Si Si8 0.889064 0.179371 0.326215
O O1 0.507235 0.656465 0.395774
O O2 0.275280 0.871713 0.692143
O O3 0.541546 0.856343 0.487004
O O4 0.500000 0.000000 0.000000
O O5 0.280779 0.390907 0.223459
O O6 0.132109 0.681614 0.577699
O O7 0.000000 0.500000 0.500000
O O8 0.205634 0.687637 0.851165
O O9 0.693437 0.663290 0.581539
O O10 0.781092 0.624690 0.212238
O O11 0.713763 0.365741 0.974702
O O12 0.750250 0.044206 0.562683
O O13 0.783067 0.945291 0.660974
O O14 0.517932 0.165648 0.939492
O O15 0.500000 0.500000 0.500000
O O16 0.991751 0.241053 0.800557
O O17 0.979626 0.264111 0.576353
O O18 0.000000 0.000000 0.000000
#
# Coordination Sequence:
#
# PCOD9098368 Si02
#       8
#     2   2   2   2   2   2   2   2
#     4  11  21  36  60  92 128 161 207 261 320 369
#     4  11  24  39  66  99 126 159 213 270 314 366
#     4  10  20  36  65  92 121 166 213 254 310 379
#     4  11  22  38  67  91 121 173 216 255 308 384
#     4  11  19  36  65  93 125 160 216 265 312 364
#     4  11  25  42  64  94 131 170 207 258 323 383
#     4  11  22  43  67  90 128 173 213 249 320 389
#     4  12  25  39  62  98 131 159 211 273 316 365
#
# _framework density 26.400639999999999
#
# number of rings (size 3 to 8) (size 9 to 14) (size 15 to 20)
#    0.000    1.000    3.750    6.000    1.750    0.000 
#    0.000    1.250    5.500    0.000    0.000    0.000 
#    0.000    0.000    0.000    0.000    0.000    0.000 
#
# Total GULP energy -89303.312599 kJ/mol
# GULP energy per Si atom -5581.457037 kJ/mol
# Density = 2.634055 g / cm^3
# Si number density = 26.400640 Si / 1000 Ang^3
#
#
#
# Elastic Constant Matrix: (Units=GPa)
#
#
# Indices 1 2 3 4 5 6 
#
# 1 195.8074 72.3323 37.0702 19.7023 -41.2783 -13.4924
# 2 72.3323 185.0071 47.3531 41.0761 -29.1730 -6.6146
# 3 37.0702 47.3531 62.4499 14.1747 -29.9830 -21.2227
# 4 19.7023 41.0761 14.1747 45.6391 -6.9432 -18.1690
# 5 -41.2783 -29.1730 -29.9830 -6.9432 40.5974 13.5368
# 6 -13.4924 -6.6146 -21.2227 -18.1690 13.5368 55.2612
#
#
#
# Elastic Compliance Matrix: (Units=1/GPa)
#
#
# Indices 1 2 3 4 5 6 
#
# 1 0.007021 -0.001678 0.000044 -0.000694 0.005894 -0.000142
# 2 -0.001678 0.008960 -0.004931 -0.007174 0.001155 -0.003873
# 3 0.000044 -0.004931 0.029823 0.000430 0.016255 0.007033
# 4 -0.000694 -0.007174 0.000430 0.032212 -0.003570 0.010602
# 5 0.005894 0.001155 0.016255 -0.003570 0.044247 -0.004193
# 6 -0.000142 -0.003873 0.007033 0.010602 -0.004193 0.024811
#
#
# Mechanical properties :
#
#
# Convention : Reuss Voigt Hill
#
# Bulk Modulus (GPa) = 30.60611 84.08618 57.34614
# Shear Modulus (GPa) = 29.22346 47.40013 38.31180
#
# Velocity S-wave (km/s) = 3.33065 4.24183 3.81355
# Velocity P-wave (km/s) = 5.13898 7.47730 6.41557
#
# Compressibility (1/GPa) = 0.03267322
#
# Stress axis : x y z
#
# Youngs Moduli (GPa) = 142.42589 111.61015 33.53166
#
# Poissons Ratio (x) = 0.18725 -0.00146
# Poissons Ratio (y) = 0.23895 0.16534
# Poissons Ratio (z) = -0.00621 0.55035
#
# Static dielectric constant tensor:
#      x y z
#    x 2.141300 0.139180 0.088930 
#    y 0.139180 2.246380 -0.068130 
#    z 0.088930 -0.068130 2.301870 
# 
# From -- ./inp_files/209279.got.cif
#   From: 2010.05.17/outbox.cif.g08.bks.cpg/sg2_105_cif.got.tgz:209279.got - 2010.06.03 11:33:40.
