data_PCOD9098978
_publ_section_title
;
Structure prediction by ZEFSAII (Michael W. Deem and Ramdas Pophale) SiO2 
 PCOD9098978
Probable space group: P -1
;
_chemical_formula_sum "Si O2"
_cell_formula_units_Z 16
_cell_length_a 9.732818
_cell_length_b 16.844589
_cell_length_c 6.725268
_cell_angle_alpha 77.971899
_cell_angle_beta 75.652431
_cell_angle_gamma 34.999602
_cell_volume 612.651992
_symmetry_space_group_name_H-M "P -1"
_symmetry_group_IT_number 2
_symmetry_cell_setting 'triclinic'
loop_
_space_group_symop_operation_xyz
x,y,z
-x,-y,-z
loop_
_atom_site_type_symbol
_atom_site_label
_atom_site_fract_x
_atom_site_fract_y
_atom_site_fract_z
Si Si1 0.713846 0.621658 0.604373
Si Si2 0.591579 0.019073 0.175759
Si Si3 0.808437 0.667592 0.920373
Si Si4 0.003048 0.082177 0.180933
Si Si5 0.825086 0.427590 0.425906
Si Si6 0.846364 0.745196 0.220608
Si Si7 0.275619 0.630244 0.876627
Si Si8 0.255808 0.946337 0.576887
O O1 0.708410 0.639894 0.837195
O O2 0.656382 0.561054 0.558763
O O3 0.506865 0.782040 0.529873
O O4 0.000000 0.500000 0.500000
O O5 0.341338 0.182079 0.164886
O O6 0.687610 0.995293 0.371947
O O7 0.617420 0.911338 0.195644
O O8 0.775449 0.984111 0.987983
O O9 0.070207 0.561201 0.787809
O O10 0.805578 0.679384 0.151760
O O11 0.786442 0.246241 0.150583
O O12 0.895276 0.041649 0.224399
O O13 0.099437 0.035562 0.395042
O O14 0.725193 0.401939 0.335268
O O15 0.038539 0.308059 0.572134
O O16 0.049658 0.693280 0.038363
O O17 0.500000 0.500000 0.000000
#
# Coordination Sequence:
#
# PCOD9098978 Si02
#       8
#     2   2   2   2   2   2   2   2
#     4   9  20  39  60  89 125 160 205 251 303 362
#     4  10  20  37  58  89 123 156 203 248 310 362
#     4   9  20  37  59  87 125 158 205 254 302 367
#     4  10  22  40  62  87 122 161 207 254 308 362
#     4  10  21  39  59  88 122 160 209 249 308 366
#     4  10  21  36  60  90 119 162 204 251 309 365
#     4  10  23  42  60  90 124 159 209 258 307 367
#     4  10  21  40  62  89 122 163 207 253 301 365
#
# _framework density 26.115967999999999
#
# number of rings (size 3 to 8) (size 9 to 14) (size 15 to 20)
#    0.000    2.250    0.000    1.500    1.750    4.500 
#   11.250    2.500    0.000    0.000    0.000    0.000 
#    0.000    0.000    0.000    0.000    0.000    0.000 
#
# Total GULP energy -89321.925991 kJ/mol
# GULP energy per Si atom -5582.620374 kJ/mol
# Density = 2.605653 g / cm^3
# Si number density = 26.115968 Si / 1000 Ang^3
#
#
#
# Elastic Constant Matrix: (Units=GPa)
#
#
# Indices 1 2 3 4 5 6 
#
# 1 82.4917 8.1641 34.6264 9.3858 29.8215 11.4073
# 2 8.1641 121.8167 26.2914 -21.6216 1.3527 14.4731
# 3 34.6264 26.2914 143.0412 -6.0730 12.3473 6.5876
# 4 9.3858 -21.6216 -6.0730 44.1371 -12.9753 -2.9521
# 5 29.8215 1.3527 12.3473 -12.9753 51.9796 16.2674
# 6 11.4073 14.4731 6.5876 -2.9521 16.2674 47.0981
#
#
#
# Elastic Compliance Matrix: (Units=1/GPa)
#
#
# Indices 1 2 3 4 5 6 
#
# 1 0.019466 -0.002063 -0.003648 -0.009356 -0.012650 0.000212
# 2 -0.002063 0.010054 -0.001263 0.006079 0.003784 -0.003339
# 3 -0.003648 -0.001263 0.008119 0.001436 0.000544 0.000038
# 4 -0.009356 0.006079 0.001436 0.031638 0.013548 -0.002499
# 5 -0.012650 0.003784 0.000544 0.013548 0.032305 -0.008484
# 6 0.000212 -0.003339 0.000038 -0.002499 -0.008484 0.024975
#
#
# Mechanical properties :
#
#
# Convention : Reuss Voigt Hill
#
# Bulk Modulus (GPa) = 42.21197 53.94593 48.07895
# Shear Modulus (GPa) = 33.69242 47.19414 40.44328
#
# Velocity S-wave (km/s) = 3.59570 4.25561 3.93950
# Velocity P-wave (km/s) = 5.78249 6.69687 6.25641
#
# Compressibility (1/GPa) = 0.02368996
#
# Stress axis : x y z
#
# Youngs Moduli (GPa) = 51.37124 99.46643 123.17396
#
# Poissons Ratio (x) = 0.20516 0.44936
# Poissons Ratio (y) = 0.10596 0.15561
# Poissons Ratio (z) = 0.18741 0.12566
#
# Static dielectric constant tensor:
#      x y z
#    x 2.104220 0.002130 -0.014820 
#    y 0.002130 2.034150 -0.000220 
#    z -0.014820 -0.000220 2.080430 
# 
# From -- ./inp_files/83235.got.cif
#   From: 2010.05.17/outbox.cif.g08.bks.cpg/sg2_42_cif.got.tgz:83235.got - 2010.06.03 11:33:40.
