data_PCOD9098440
_publ_section_title
;
Structure prediction by ZEFSAII (Michael W. Deem and Ramdas Pophale) SiO2 
 PCOD9098440
Probable space group: P -1
;
_chemical_formula_sum "Si O2"
_cell_formula_units_Z 14
_cell_length_a 8.051855
_cell_length_b 10.052482
_cell_length_c 8.979462
_cell_angle_alpha 125.349317
_cell_angle_beta 62.781413
_cell_angle_gamma 114.726132
_cell_volume 515.205001
_symmetry_space_group_name_H-M "P -1"
_symmetry_group_IT_number 2
_symmetry_cell_setting 'triclinic'
loop_
_space_group_symop_operation_xyz
x,y,z
-x,-y,-z
loop_
_atom_site_type_symbol
_atom_site_label
_atom_site_fract_x
_atom_site_fract_y
_atom_site_fract_z
Si Si1 0.762605 0.613035 0.682876
Si Si2 0.542446 0.694418 0.301060
Si Si3 0.837456 0.543198 0.268111
Si Si4 0.552391 0.866992 0.085442
Si Si5 0.145505 0.030375 0.597364
Si Si6 0.889022 0.137713 0.203018
Si Si7 0.137970 0.761629 0.096010
O O1 0.656899 0.429478 0.662352
O O2 0.788154 0.599264 0.486395
O O3 0.959334 0.685861 0.736659
O O4 0.638824 0.753083 0.858524
O O5 0.688490 0.582429 0.230025
O O6 0.551250 0.759743 0.170163
O O7 0.642581 0.866467 0.455331
O O8 0.045079 0.639552 0.189353
O O9 0.825339 0.348734 0.128402
O O10 0.336145 0.871103 0.137320
O O11 0.682032 0.051813 0.165699
O O12 0.030590 0.146792 0.813666
O O13 0.000000 0.000000 0.500000
O O14 0.150776 0.885789 0.616283
O O15 0.000000 0.000000 0.000000
#
# Coordination Sequence:
#
# PCOD9098440 Si02
#       7
#     2   2   2   2   2   2   2
#     4  11  20  37  65  91 120 160 205 245 294 367
#     4  10  20  36  66  91 118 166 199 240 303 373
#     4  10  21  36  60  91 127 156 199 250 301 354
#     4  10  21  38  65  91 123 162 202 245 304 358
#     4  10  21  41  65  85 117 166 205 239 305 373
#     4   9  20  38  61  88 118 160 201 245 299 357
#     4  10  21  38  62  90 124 157 201 253 303 355
#
# _framework density 27.173649999999999
#
# number of rings (size 3 to 8) (size 9 to 14) (size 15 to 20)
#    0.000    2.000    1.429    2.571    0.000    0.000 
#    0.000   10.000    3.143    0.000    0.000    0.000 
#    0.000    0.000    0.000    0.000    0.000    0.000 
#
# Total GULP energy -78252.963300 kJ/mol
# GULP energy per Si atom -5589.497379 kJ/mol
# Density = 2.711180 g / cm^3
# Si number density = 27.173650 Si / 1000 Ang^3
#
#
#
# Elastic Constant Matrix: (Units=GPa)
#
#
# Indices 1 2 3 4 5 6 
#
# 1 125.5806 79.0074 38.9687 0.3576 8.8536 43.8359
# 2 79.0074 192.6442 60.3396 -1.0089 22.4643 62.7579
# 3 38.9687 60.3396 144.7748 -1.0822 15.7815 9.2517
# 4 0.3576 -1.0089 -1.0822 26.8815 2.3709 6.4825
# 5 8.8536 22.4643 15.7815 2.3709 39.9072 6.9200
# 6 43.8359 62.7579 9.2517 6.4825 6.9200 58.7264
#
#
#
# Elastic Compliance Matrix: (Units=1/GPa)
#
#
# Indices 1 2 3 4 5 6 
#
# 1 0.012295 -0.002339 -0.001953 0.001213 0.000426 -0.006555
# 2 -0.002339 0.010158 -0.002730 0.002632 -0.002778 -0.008643
# 3 -0.001953 -0.002730 0.008572 -0.000352 -0.001971 0.003296
# 4 0.001213 0.002632 -0.000352 0.039356 -0.002615 -0.007699
# 5 0.000426 -0.002778 -0.001971 -0.002615 0.027459 0.000014
# 6 -0.006555 -0.008643 0.003296 -0.007699 0.000014 0.031487
#
#
# Mechanical properties :
#
#
# Convention : Reuss Voigt Hill
#
# Bulk Modulus (GPa) = 58.88271 91.07011 74.97641
# Shear Modulus (GPa) = 33.55001 44.08194 38.81597
#
# Velocity S-wave (km/s) = 3.51757 4.03206 3.78357
# Velocity P-wave (km/s) = 6.18174 7.43395 6.83657
#
# Compressibility (1/GPa) = 0.01698291
#
# Stress axis : x y z
#
# Youngs Moduli (GPa) = 81.33410 98.44055 116.65574
#
# Poissons Ratio (x) = 0.23021 0.22785
# Poissons Ratio (y) = 0.19021 0.31842
# Poissons Ratio (z) = 0.15886 0.26870
#
# Static dielectric constant tensor:
#      x y z
#    x 2.090090 -0.047790 -0.014550 
#    y -0.047790 2.239980 -0.020810 
#    z -0.014550 -0.020810 2.225300 
# 
# From -- ./inp_files/189892.got.cif
#   From: 2010.05.17/outbox.cif.g08.bks.cpg/sg2_95_cif.got.tgz:189892.got - 2010.06.03 11:33:40.
