data_PCOD9098321
_publ_section_title
;
Structure prediction by ZEFSAII (Michael W. Deem and Ramdas Pophale) SiO2 
 PCOD9098321
Probable space group: P -1
;
_chemical_formula_sum "Si O2"
_cell_formula_units_Z 16
_cell_length_a 8.632029
_cell_length_b 15.484613
_cell_length_c 11.394594
_cell_angle_alpha 43.178119
_cell_angle_beta 127.412164
_cell_angle_gamma 102.407159
_cell_volume 751.294463
_symmetry_space_group_name_H-M "P -1"
_symmetry_group_IT_number 2
_symmetry_cell_setting 'triclinic'
loop_
_space_group_symop_operation_xyz
x,y,z
-x,-y,-z
loop_
_atom_site_type_symbol
_atom_site_label
_atom_site_fract_x
_atom_site_fract_y
_atom_site_fract_z
Si Si1 0.875615 0.380087 0.139804
Si Si2 0.554883 0.943235 0.429712
Si Si3 0.941898 0.903221 0.981820
Si Si4 0.297698 0.169785 0.651731
Si Si5 0.718563 0.111652 0.030510
Si Si6 0.134609 0.351661 0.052789
Si Si7 0.623672 0.202926 0.158642
Si Si8 0.113440 0.360340 0.763246
O O1 0.739997 0.290434 0.182062
O O2 0.090794 0.307159 0.388815
O O3 0.954913 0.370834 0.050088
O O4 0.768071 0.539792 0.970506
O O5 0.594324 0.896141 0.357963
O O6 0.687028 0.805498 0.699791
O O7 0.300078 0.012300 0.259400
O O8 0.641887 0.061770 0.368723
O O9 0.112961 0.861107 0.997855
O O10 0.946774 0.764534 0.181850
O O11 0.000000 0.000000 0.000000
O O12 0.235380 0.051313 0.794958
O O13 0.475625 0.189032 0.793348
O O14 0.724564 0.153512 0.125506
O O15 0.056801 0.381975 0.853928
O O16 0.371343 0.300078 0.933651
O O17 0.000000 0.500000 0.500000
#
# Coordination Sequence:
#
# PCOD9098321 Si02
#       8
#     2   2   2   2   2   2   2   2
#     4  10  22  41  67  97 124 170 214 261 321 382
#     4   9  20  40  64  92 128 161 213 269 312 374
#     4  11  22  39  66  96 125 169 218 261 321 375
#     4   9  19  35  62  95 132 163 206 264 317 378
#     4  10  20  36  64  98 127 166 211 265 317 373
#     4  10  23  43  65  91 132 166 216 262 322 376
#     4  10  23  41  65  96 128 167 214 259 323 380
#     4  11  27  45  60  93 135 172 210 267 322 384
#
# _framework density 21.296576999999999
#
# number of rings (size 3 to 8) (size 9 to 14) (size 15 to 20)
#    0.000    2.000    1.250    0.750    3.500   10.000 
#    2.250    1.250    0.000    0.000    0.000    0.000 
#    0.000    0.000    0.000    0.000    0.000    0.000 
#
# Total GULP energy -89490.848069 kJ/mol
# GULP energy per Si atom -5593.178004 kJ/mol
# Density = 2.124810 g / cm^3
# Si number density = 21.296577 Si / 1000 Ang^3
#
#
#
# Elastic Constant Matrix: (Units=GPa)
#
#
# Indices 1 2 3 4 5 6 
#
# 1 66.5010 39.2405 43.1326 -10.1367 -0.9617 18.5275
# 2 39.2405 133.1197 56.0362 -23.5806 -9.0807 20.0482
# 3 43.1326 56.0362 157.2349 -25.9275 -19.8449 11.1542
# 4 -10.1367 -23.5806 -25.9275 21.7631 -9.3068 -5.2001
# 5 -0.9617 -9.0807 -19.8449 -9.3068 18.2603 1.8819
# 6 18.5275 20.0482 11.1542 -5.2001 1.8819 31.6212
#
#
#
# Elastic Compliance Matrix: (Units=1/GPa)
#
#
# Indices 1 2 3 4 5 6 
#
# 1 0.024075 -0.006205 -0.008752 -0.015930 -0.018563 -0.008599
# 2 -0.006205 0.015616 0.005955 0.033438 0.031441 -0.004738
# 3 -0.008752 0.005955 0.021177 0.048984 0.050592 -0.001073
# 4 -0.015930 0.033438 0.048984 0.206569 0.174882 -0.005583
# 5 -0.018563 0.031441 0.050592 0.174882 0.214661 -0.010920
# 6 -0.008599 -0.004738 -0.001073 -0.005583 -0.010920 0.039777
#
#
# Mechanical properties :
#
#
# Convention : Reuss Voigt Hill
#
# Bulk Modulus (GPa) = 23.33027 70.40822 46.86925
# Shear Modulus (GPa) = 9.02254 28.89202 18.95728
#
# Velocity S-wave (km/s) = 2.06054 3.68727 2.98679
# Velocity P-wave (km/s) = 4.07919 7.15965 5.82668
#
# Compressibility (1/GPa) = 0.04286276
#
# Stress axis : x y z
#
# Youngs Moduli (GPa) = 41.53696 64.03767 47.22052
#
# Poissons Ratio (x) = 0.39738 0.41329
# Poissons Ratio (y) = 0.25776 -0.28121
# Poissons Ratio (z) = 0.36354 -0.38135
#
# Static dielectric constant tensor:
#      x y z
#    x 1.768870 -0.017580 -0.015920 
#    y -0.017580 1.772810 -0.006640 
#    z -0.015920 -0.006640 1.748880 
# 
# From -- ./inp_files/398469.got.cif
#   From: 2010.05.17/outbox.cif.g08.bks.cpg/sg2_200_cif.got.tgz:398469.got - 2010.06.03 11:33:40.
