data_PCOD9098983
_publ_section_title
;
Structure prediction by ZEFSAII (Michael W. Deem and Ramdas Pophale) SiO2 
 PCOD9098983
Probable space group: P -1
;
_chemical_formula_sum "Si O2"
_cell_formula_units_Z 12
_cell_length_a 10.105584
_cell_length_b 13.331691
_cell_length_c 5.378168
_cell_angle_alpha 44.640254
_cell_angle_beta 114.429187
_cell_angle_gamma 112.147314
_cell_volume 459.650586
_symmetry_space_group_name_H-M "P -1"
_symmetry_group_IT_number 2
_symmetry_cell_setting 'triclinic'
loop_
_space_group_symop_operation_xyz
x,y,z
-x,-y,-z
loop_
_atom_site_type_symbol
_atom_site_label
_atom_site_fract_x
_atom_site_fract_y
_atom_site_fract_z
Si Si1 0.923000 0.547907 0.110074
Si Si2 0.339438 0.542242 0.250474
Si Si3 0.748357 0.751157 0.111894
Si Si4 0.528445 0.141841 0.093488
Si Si5 0.754520 0.992986 0.344144
Si Si6 0.980340 0.865787 0.437430
O O1 0.000000 0.500000 0.500000
O O2 0.751936 0.493127 0.012491
O O3 0.949537 0.720519 0.829368
O O4 0.000000 0.500000 0.000000
O O5 0.500000 0.500000 0.500000
O O6 0.258846 0.420211 0.590265
O O7 0.365301 0.714010 0.996372
O O8 0.911359 0.813114 0.214693
O O9 0.631031 0.801094 0.136027
O O10 0.703231 0.832580 0.690086
O O11 0.621474 0.084070 0.040399
O O12 0.500000 0.000000 0.500000
O O13 0.851828 0.073298 0.502225
O O14 0.875527 0.978518 0.257396
#
# Coordination Sequence:
#
# PCOD9098983 Si02
#       6
#     2   2   2   2   2   2
#     4  11  25  44  70 102 141 179 232 286 345 411
#     4   9  19  40  69  97 134 177 230 282 343 405
#     4   9  19  36  63  85 126 167 218 277 331 399
#     4   9  18  36  63  92 125 170 221 280 338 404
#     4  10  20  37  58  89 130 163 223 262 343 394
#     4  10  22  37  60  91 124 176 214 275 332 404
#
# _framework density 26.106788000000002
#
# number of rings (size 3 to 8) (size 9 to 14) (size 15 to 20)
#    0.000    2.333    0.000    1.500    4.667    0.667 
#   12.000    0.833   22.000    0.000    0.000    0.000 
#    0.000    0.000    0.000    0.000    0.000    0.000 
#
# Total GULP energy -66865.727331 kJ/mol
# GULP energy per Si atom -5572.143944 kJ/mol
# Density = 2.604737 g / cm^3
# Si number density = 26.106788 Si / 1000 Ang^3
#
#
#
# Elastic Constant Matrix: (Units=GPa)
#
#
# Indices 1 2 3 4 5 6 
#
# 1 118.2530 43.7148 34.0569 -0.9074 24.5483 -7.9626
# 2 43.7148 140.2303 88.6984 -7.8893 7.8984 30.1280
# 3 34.0569 88.6984 147.2906 -15.1378 10.0281 7.6894
# 4 -0.9074 -7.8893 -15.1378 56.8958 5.1414 2.2683
# 5 24.5483 7.8984 10.0281 5.1414 29.0742 -3.8127
# 6 -7.9626 30.1280 7.6894 2.2683 -3.8127 48.8757
#
#
#
# Elastic Compliance Matrix: (Units=1/GPa)
#
#
# Indices 1 2 3 4 5 6 
#
# 1 0.011991 -0.004141 0.000137 0.000279 -0.008597 0.003801
# 2 -0.004141 0.015174 -0.007757 0.000246 0.000858 -0.008753
# 3 0.000137 -0.007757 0.011642 0.002100 -0.002039 0.002716
# 4 0.000279 0.000246 0.002100 0.018650 -0.004542 -0.001656
# 5 -0.008597 0.000858 -0.002039 -0.004542 0.043185 0.001971
# 6 0.003801 -0.008753 0.002716 -0.001656 0.001971 0.026278
#
#
# Mechanical properties :
#
#
# Convention : Reuss Voigt Hill
#
# Bulk Modulus (GPa) = 65.42573 82.07933 73.75253
# Shear Modulus (GPa) = 32.14682 42.92272 37.53477
#
# Velocity S-wave (km/s) = 3.51288 4.05918 3.79587
# Velocity P-wave (km/s) = 6.44740 7.31282 6.89370
#
# Compressibility (1/GPa) = 0.01528451
#
# Stress axis : x y z
#
# Youngs Moduli (GPa) = 83.39780 65.90099 85.89896
#
# Poissons Ratio (x) = 0.27291 -0.01176
# Poissons Ratio (y) = 0.34537 0.66629
# Poissons Ratio (z) = -0.01142 0.51117
#
# Static dielectric constant tensor:
#      x y z
#    x 2.251300 -0.081510 -0.001180 
#    y -0.081510 2.148010 -0.022540 
#    z -0.001180 -0.022540 2.086460 
# 
# From -- ./inp_files/75266.got.cif
#   From: 2010.05.17/outbox.cif.g08.bks.cpg/sg2_38_cif.got.tgz:75266.got - 2010.06.03 11:33:40.
