data_PCOD9098001
_publ_section_title
;
Structure prediction by ZEFSAII (Michael W. Deem and Ramdas Pophale) SiO2 
 PCOD9098001
Probable space group: P -1
;
_chemical_formula_sum "Si O2"
_cell_formula_units_Z 12
_cell_length_a 10.192323
_cell_length_b 9.250732
_cell_length_c 7.512943
_cell_angle_alpha 103.779379
_cell_angle_beta 130.967723
_cell_angle_gamma 98.074184
_cell_volume 475.091962
_symmetry_space_group_name_H-M "P -1"
_symmetry_group_IT_number 2
_symmetry_cell_setting 'triclinic'
loop_
_space_group_symop_operation_xyz
x,y,z
-x,-y,-z
loop_
_atom_site_type_symbol
_atom_site_label
_atom_site_fract_x
_atom_site_fract_y
_atom_site_fract_z
Si Si1 0.223420 0.305275 0.585408
Si Si2 0.961198 0.957287 0.163821
Si Si3 0.637328 0.046091 0.887842
Si Si4 0.370932 0.640009 0.914509
Si Si5 0.337411 0.530545 0.466384
Si Si6 0.241328 0.815478 0.360639
O O1 0.225946 0.451168 0.759088
O O2 0.191391 0.362561 0.375415
O O3 0.439403 0.316588 0.788566
O O4 0.084355 0.121310 0.430428
O O5 0.044202 0.824408 0.239286
O O6 0.747616 0.934006 0.001241
O O7 0.000000 0.000000 0.000000
O O8 0.695727 0.106637 0.755303
O O9 0.701685 0.218542 0.093914
O O10 0.413141 0.940841 0.670333
O O11 0.423738 0.626761 0.753732
O O12 0.500000 0.500000 0.500000
O O13 0.247885 0.639538 0.319358
#
# Coordination Sequence:
#
# PCOD9098001 Si02
#       6
#     2   2   2   2   2   2
#     4   9  19  38  60  86 118 149 199 232 291 351
#     4  10  21  37  62  86 118 154 196 237 281 355
#     4  10  20  36  63  86 114 162 188 235 295 340
#     4   9  19  36  62  87 115 154 196 235 293 348
#     4  10  21  34  63  87 113 156 193 244 292 336
#     4  10  21  37  61  86 120 149 202 233 285 352
#
# _framework density 25.258268999999999
#
# number of rings (size 3 to 8) (size 9 to 14) (size 15 to 20)
#    1.000    1.333    1.667    1.000    4.667    1.333 
#    0.000    4.167    3.667    0.000    0.000    0.000 
#    0.000    0.000    0.000    0.000    0.000    0.000 
#
# Total GULP energy -67000.999238 kJ/mol
# GULP energy per Si atom -5583.416603 kJ/mol
# Density = 2.520078 g / cm^3
# Si number density = 25.258269 Si / 1000 Ang^3
#
#
#
# Elastic Constant Matrix: (Units=GPa)
#
#
# Indices 1 2 3 4 5 6 
#
# 1 60.5390 45.5609 24.0665 -5.7106 5.0405 -33.6642
# 2 45.5609 147.6283 32.5791 -24.7373 18.8730 -28.5385
# 3 24.0665 32.5791 71.8995 -7.9639 3.8556 -13.8259
# 4 -5.7106 -24.7373 -7.9639 43.0401 -18.5578 8.6251
# 5 5.0405 18.8730 3.8556 -18.5578 11.8786 -5.2229
# 6 -33.6642 -28.5385 -13.8259 8.6251 -5.2229 52.0410
#
#
#
# Elastic Compliance Matrix: (Units=1/GPa)
#
#
# Indices 1 2 3 4 5 6 
#
# 1 0.032109 -0.006057 -0.005189 -0.004166 -0.001524 0.016608
# 2 -0.006057 0.011104 -0.002294 -0.003142 -0.019165 0.000159
# 3 -0.005189 -0.002294 0.016739 0.003892 0.006420 -0.000168
# 4 -0.004166 -0.003142 0.003892 0.073549 0.118795 -0.003651
# 5 -0.001524 -0.019165 0.006420 0.118795 0.299024 0.000532
# 6 0.016608 0.000159 -0.000168 -0.003651 0.000532 0.030660
#
#
# Mechanical properties :
#
#
# Convention : Reuss Voigt Hill
#
# Bulk Modulus (GPa) = 30.42126 53.83110 42.12618
# Shear Modulus (GPa) = 9.97565 33.24928 21.61247
#
# Velocity S-wave (km/s) = 1.98948 3.63212 2.92834
# Velocity P-wave (km/s) = 4.16505 6.24085 5.30546
#
# Compressibility (1/GPa) = 0.03287175
#
# Stress axis : x y z
#
# Youngs Moduli (GPa) = 31.14437 90.06073 59.74065
#
# Poissons Ratio (x) = 0.54550 0.31000
# Poissons Ratio (y) = 0.18864 0.13702
# Poissons Ratio (z) = 0.16161 0.20656
#
# Static dielectric constant tensor:
#      x y z
#    x 1.993070 0.020740 -0.032920 
#    y 0.020740 2.072630 -0.014590 
#    z -0.032920 -0.014590 2.021480 
# 
# From -- ./inp_files/443246.got.cif
#   From: 2010.05.17/outbox.cif.g08.bks.cpg/sg2_222_cif.got.tgz:443246.got - 2010.06.03 11:33:40.
