data_PCOD9098849
_publ_section_title
;
Structure prediction by ZEFSAII (Michael W. Deem and Ramdas Pophale) SiO2 
 PCOD9098849
Probable space group: P -1
;
_chemical_formula_sum "Si O2"
_cell_formula_units_Z 12
_cell_length_a 8.602075
_cell_length_b 9.581869
_cell_length_c 9.485524
_cell_angle_alpha 57.707364
_cell_angle_beta 126.024847
_cell_angle_gamma 113.202333
_cell_volume 530.866628
_symmetry_space_group_name_H-M "P -1"
_symmetry_group_IT_number 2
_symmetry_cell_setting 'triclinic'
loop_
_space_group_symop_operation_xyz
x,y,z
-x,-y,-z
loop_
_atom_site_type_symbol
_atom_site_label
_atom_site_fract_x
_atom_site_fract_y
_atom_site_fract_z
Si Si1 0.844299 0.849787 0.449452
Si Si2 0.075089 0.258042 0.738820
Si Si3 0.606587 0.851712 0.574940
Si Si4 0.297363 0.614697 0.674862
Si Si5 0.972544 0.751540 0.964290
Si Si6 0.862011 0.358440 0.144973
O O1 0.837949 0.849117 0.278091
O O2 0.648672 0.859162 0.426980
O O3 0.940703 0.687833 0.646696
O O4 0.000000 0.000000 0.500000
O O5 0.234646 0.418759 0.753324
O O6 0.880979 0.313333 0.536588
O O7 0.009978 0.196476 0.892301
O O8 0.485053 0.681414 0.652325
O O9 0.816799 0.856369 0.754904
O O10 0.500000 0.000000 0.500000
O O11 0.301625 0.681031 0.802406
O O12 0.147989 0.741889 0.952635
O O13 0.886038 0.555468 0.025936
#
# Coordination Sequence:
#
# PCOD9098849 Si02
#       6
#     2   2   2   2   2   2
#     4  10  20  37  58  78 110 149 181 221 280 334
#     4   9  18  35  57  81 106 144 188 223 262 321
#     4  11  22  36  54  81 113 147 180 222 280 327
#     4   9  18  34  56  81 114 144 177 222 271 326
#     4   9  18  34  58  82 107 142 187 224 260 322
#     4   8  16  33  55  79 104 143 179 211 265 325
#
# _framework density 22.604548999999999
#
# number of rings (size 3 to 8) (size 9 to 14) (size 15 to 20)
#    0.000    2.667    0.000    3.000    0.000    3.333 
#    0.000   10.000    0.000    0.000    0.000    0.000 
#    0.000    0.000    0.000    0.000    0.000    0.000 
#
# Total GULP energy -66935.731480 kJ/mol
# GULP energy per Si atom -5577.977623 kJ/mol
# Density = 2.255310 g / cm^3
# Si number density = 22.604549 Si / 1000 Ang^3
#
#
#
# Elastic Constant Matrix: (Units=GPa)
#
#
# Indices 1 2 3 4 5 6 
#
# 1 145.8682 52.1732 23.2516 34.0225 -47.5314 -22.8759
# 2 52.1732 80.7610 33.8527 5.8163 -20.3968 -24.4835
# 3 23.2516 33.8527 65.5617 13.3964 -28.4649 -25.5502
# 4 34.0225 5.8163 13.3964 35.9951 -29.2665 -13.4781
# 5 -47.5314 -20.3968 -28.4649 -29.2665 42.9186 9.8200
# 6 -22.8759 -24.4835 -25.5502 -13.4781 9.8200 42.5810
#
#
#
# Elastic Compliance Matrix: (Units=1/GPa)
#
#
# Indices 1 2 3 4 5 6 
#
# 1 0.014034 -0.006764 0.007049 -0.000443 0.015761 0.004105
# 2 -0.006764 0.022456 -0.005740 0.013485 0.006607 0.008579
# 3 0.007049 -0.005740 0.035078 0.017488 0.035973 0.018774
# 4 -0.000443 0.013485 0.017488 0.088271 0.070939 0.029590
# 5 0.015761 0.006607 0.035973 0.070939 0.108996 0.031170
# 6 0.004105 0.008579 0.018774 0.029590 0.031170 0.044065
#
#
# Mechanical properties :
#
#
# Convention : Reuss Voigt Hill
#
# Bulk Modulus (GPa) = 16.48584 56.74954 36.61769
# Shear Modulus (GPa) = 14.53358 36.49316 25.51337
#
# Velocity S-wave (km/s) = 2.53840 4.02234 3.36323
# Velocity P-wave (km/s) = 3.98751 6.83609 5.59609
#
# Compressibility (1/GPa) = 0.06065811
#
# Stress axis : x y z
#
# Youngs Moduli (GPa) = 71.25409 44.53127 28.50753
#
# Poissons Ratio (x) = 0.30121 -0.20094
# Poissons Ratio (y) = 0.48197 0.16363
# Poissons Ratio (z) = -0.50225 0.25561
#
# Static dielectric constant tensor:
#      x y z
#    x 1.880890 -0.034590 -0.052110 
#    y -0.034590 1.893490 -0.016380 
#    z -0.052110 -0.016380 1.877690 
# 
# From -- ./inp_files/153337.got.cif
#   From: 2010.05.17/outbox.cif.g08.bks.cpg/sg2_77_cif.got.tgz:153337.got - 2010.06.03 11:33:40.
