data_PCOD9098286
_publ_section_title
;
Structure prediction by ZEFSAII (Michael W. Deem and Ramdas Pophale) SiO2 
 PCOD9098286
Probable space group: P -1
;
_chemical_formula_sum "Si O2"
_cell_formula_units_Z 16
_cell_length_a 8.088812
_cell_length_b 10.598605
_cell_length_c 17.288962
_cell_angle_alpha 34.892532
_cell_angle_beta 117.512955
_cell_angle_gamma 126.278221
_cell_volume 682.631791
_symmetry_space_group_name_H-M "P -1"
_symmetry_group_IT_number 2
_symmetry_cell_setting 'triclinic'
loop_
_space_group_symop_operation_xyz
x,y,z
-x,-y,-z
loop_
_atom_site_type_symbol
_atom_site_label
_atom_site_fract_x
_atom_site_fract_y
_atom_site_fract_z
Si Si1 0.146362 0.015935 0.776449
Si Si2 0.087225 0.689445 0.798341
Si Si3 0.084543 0.617576 0.239187
Si Si4 0.805421 0.722482 0.948276
Si Si5 0.700424 0.479300 0.519268
Si Si6 0.474671 0.054462 0.307577
Si Si7 0.474907 0.072895 0.043404
Si Si8 0.356660 0.484841 0.812397
O O1 0.013815 0.839033 0.767004
O O2 0.353822 0.974304 0.847645
O O3 0.024783 0.937914 0.869617
O O4 0.190958 0.287075 0.627970
O O5 0.299595 0.881294 0.710400
O O6 0.952888 0.537521 0.771981
O O7 0.150418 0.505932 0.955145
O O8 0.173282 0.520213 0.377255
O O9 0.865197 0.597341 0.232045
O O10 0.251767 0.890623 0.119643
O O11 0.645192 0.815212 0.831998
O O12 0.723407 0.621943 0.065094
O O13 0.500000 0.500000 0.500000
O O14 0.646987 0.232309 0.583298
O O15 0.526943 0.223508 0.310313
O O16 0.496893 0.345242 0.898362
O O17 0.500000 0.000000 0.000000
#
# Coordination Sequence:
#
# PCOD9098286 Si02
#       8
#     2   2   2   2   2   2   2   2
#     4  12  24  39  63  97 134 173 214 262 319 382
#     4  10  20  39  64  96 125 168 213 272 323 377
#     4  10  22  39  63  96 128 170 217 260 322 379
#     4  10  20  36  64  95 125 160 215 262 319 381
#     4  12  23  42  65  90 130 178 222 257 309 387
#     4  10  20  39  64  88 123 176 213 255 313 382
#     4  12  23  40  67  99 132 161 207 274 332 381
#     4  10  22  42  67  96 126 165 211 270 330 383
#
# _framework density 23.438699
#
# number of rings (size 3 to 8) (size 9 to 14) (size 15 to 20)
#    0.000    1.500    2.500    6.000    0.000    4.000 
#    0.000    0.000    0.000    3.750    0.000    0.000 
#    0.000    0.000    0.000    0.000    0.000    0.000 
#
# Total GULP energy -89255.297151 kJ/mol
# GULP energy per Si atom -5578.456072 kJ/mol
# Density = 2.338535 g / cm^3
# Si number density = 23.438699 Si / 1000 Ang^3
#
#
#
# Elastic Constant Matrix: (Units=GPa)
#
#
# Indices 1 2 3 4 5 6 
#
# 1 37.2073 31.0462 24.4021 -8.7026 11.6681 -0.3616
# 2 31.0462 115.5941 56.0782 -27.5179 19.5870 1.4749
# 3 24.4021 56.0782 129.1019 -33.5917 18.5664 -4.2976
# 4 -8.7026 -27.5179 -33.5917 28.8859 5.6614 14.5099
# 5 11.6681 19.5870 18.5664 5.6614 25.2373 2.0409
# 6 -0.3616 1.4749 -4.2976 14.5099 2.0409 36.4643
#
#
#
# Elastic Compliance Matrix: (Units=1/GPa)
#
#
# Indices 1 2 3 4 5 6 
#
# 1 0.038873 -0.004517 0.000417 0.013133 -0.017426 -0.003633
# 2 -0.004517 0.019370 0.003019 0.030468 -0.021077 -0.011417
# 3 0.000417 0.003019 0.017850 0.033126 -0.022294 -0.009948
# 4 0.013133 0.030468 0.033126 0.148331 -0.083193 -0.051566
# 5 -0.017426 -0.021077 -0.022294 -0.083193 0.097021 0.025726
# 6 -0.003633 -0.011417 -0.009948 -0.051566 0.025726 0.045757
#
#
# Mechanical properties :
#
#
# Convention : Reuss Voigt Hill
#
# Bulk Modulus (GPa) = 13.52630 56.10625 34.81628
# Shear Modulus (GPa) = 12.69008 29.47596 21.08302
#
# Velocity S-wave (km/s) = 2.32936 3.55008 3.00241
# Velocity P-wave (km/s) = 3.60805 6.38698 5.18708
#
# Compressibility (1/GPa) = 0.07393004
#
# Stress axis : x y z
#
# Youngs Moduli (GPa) = 25.72453 51.62638 56.02292
#
# Poissons Ratio (x) = 0.23321 -0.02335
# Poissons Ratio (y) = 0.11620 -0.16913
# Poissons Ratio (z) = -0.01072 -0.15585
#
# Static dielectric constant tensor:
#      x y z
#    x 1.971720 0.020260 0.051280 
#    y 0.020260 2.029310 -0.010470 
#    z 0.051280 -0.010470 1.875130 
# 
# From -- ./inp_files/239688.got.cif
#   From: 2010.05.17/outbox.cif.g08.bks.cpg/sg2_120_cif.got.tgz:239688.got - 2010.06.03 11:33:40.
