data_PCOD9098603
_publ_section_title
;
Structure prediction by ZEFSAII (Michael W. Deem and Ramdas Pophale) SiO2 
 PCOD9098603
Probable space group: P -1
;
_chemical_formula_sum "Si O2"
_cell_formula_units_Z 14
_cell_length_a 15.612251
_cell_length_b 5.663690
_cell_length_c 8.956214
_cell_angle_alpha 75.957869
_cell_angle_beta 62.063865
_cell_angle_gamma 47.458633
_cell_volume 512.142647
_symmetry_space_group_name_H-M "P -1"
_symmetry_group_IT_number 2
_symmetry_cell_setting 'triclinic'
loop_
_space_group_symop_operation_xyz
x,y,z
-x,-y,-z
loop_
_atom_site_type_symbol
_atom_site_label
_atom_site_fract_x
_atom_site_fract_y
_atom_site_fract_z
Si Si1 0.693494 0.725549 0.474678
Si Si2 0.270703 0.981426 0.874364
Si Si3 0.569802 0.130467 0.974555
Si Si4 0.814308 0.692430 0.676293
Si Si5 0.006090 0.887173 0.178621
Si Si6 0.425020 0.393515 0.643316
Si Si7 0.976599 0.670816 0.757474
O O1 0.789927 0.606069 0.552405
O O2 0.675937 0.518157 0.416448
O O3 0.728556 0.868795 0.300743
O O4 0.546292 0.007952 0.613793
O O5 0.352157 0.019870 0.912111
O O6 0.346835 0.610215 0.820816
O O7 0.138629 0.158291 0.048224
O O8 0.500000 0.500000 0.000000
O O9 0.500000 0.000000 0.000000
O O10 0.675684 0.016339 0.782077
O O11 0.861263 0.408193 0.799643
O O12 0.909713 0.758619 0.634686
O O13 0.949998 0.708269 0.239327
O O14 0.957662 0.186849 0.273518
O O15 0.000000 0.000000 0.000000
O O16 0.500000 0.500000 0.500000
#
# Coordination Sequence:
#
# PCOD9098603 Si02
#       7
#     2   2   2   2   2   2   2
#     4  10  20  37  52  83 118 161 205 235 291 348
#     4  10  22  35  56  81 118 159 195 245 290 344
#     4  11  25  36  56  82 121 156 200 243 286 338
#     4   9  23  35  60  87 118 155 202 242 293 355
#     4  10  21  41  67  91 116 147 196 253 306 361
#     4   9  20  31  51  75 116 164 202 231 279 339
#     4   9  22  38  64  90 115 146 198 243 308 350
#
# _framework density 27.336137000000001
#
# number of rings (size 3 to 8) (size 9 to 14) (size 15 to 20)
#    0.857    1.429    0.000    1.286   14.000    2.286 
#    0.000    0.000    0.000    1.714    0.000    0.000 
#    0.000    0.000    0.000    0.000    0.000    0.000 
#
# Total GULP energy -78157.849070 kJ/mol
# GULP energy per Si atom -5582.703505 kJ/mol
# Density = 2.727392 g / cm^3
# Si number density = 27.336137 Si / 1000 Ang^3
#
#
#
# Elastic Constant Matrix: (Units=GPa)
#
#
# Indices 1 2 3 4 5 6 
#
# 1 245.3666 58.5568 66.0808 11.0204 57.4549 36.1310
# 2 58.5568 139.3066 46.7884 32.5902 17.9589 38.5719
# 3 66.0808 46.7884 139.0478 38.1438 40.1846 -2.9115
# 4 11.0204 32.5902 38.1438 55.6764 3.5340 18.3460
# 5 57.4549 17.9589 40.1846 3.5340 62.3756 3.0487
# 6 36.1310 38.5719 -2.9115 18.3460 3.0487 43.0078
#
#
#
# Elastic Compliance Matrix: (Units=1/GPa)
#
#
# Indices 1 2 3 4 5 6 
#
# 1 0.006748 -0.000180 -0.003042 0.003374 -0.004059 -0.006865
# 2 -0.000180 0.011502 -0.003700 -0.000839 -0.000224 -0.010042
# 3 -0.003042 -0.003700 0.014739 -0.010902 -0.005593 0.011920
# 4 0.003374 -0.000839 -0.010902 0.030314 0.003221 -0.015979
# 5 -0.004059 -0.000224 -0.005593 0.003221 0.023246 0.000210
# 6 -0.006865 -0.010042 0.011920 -0.015979 0.000210 0.045633
#
#
# Mechanical properties :
#
#
# Convention : Reuss Voigt Hill
#
# Bulk Modulus (GPa) = 52.23428 96.28588 74.26008
# Shear Modulus (GPa) = 32.80647 55.69830 44.25239
#
# Velocity S-wave (km/s) = 3.46802 4.51880 4.02783
# Velocity P-wave (km/s) = 5.93177 7.90731 6.98968
#
# Compressibility (1/GPa) = 0.01914452
#
# Stress axis : x y z
#
# Youngs Moduli (GPa) = 148.20063 86.93873 67.84533
#
# Poissons Ratio (x) = 0.01562 0.20641
# Poissons Ratio (y) = 0.02663 0.25106
# Poissons Ratio (z) = 0.45088 0.32171
#
# Static dielectric constant tensor:
#      x y z
#    x 2.186230 0.061450 0.050210 
#    y 0.061450 3.360450 0.286760 
#    z 0.050210 0.286760 2.298820 
# 
# From -- ./inp_files/322464.got.cif
#   From: 2010.05.17/outbox.cif.g08.bks.cpg/sg2_162_cif.got.tgz:322464.got - 2010.06.03 11:33:40.
