data_PCOD9098243
_publ_section_title
;
Structure prediction by ZEFSAII (Michael W. Deem and Ramdas Pophale) SiO2 
 PCOD9098243
Probable space group: P -1
;
_chemical_formula_sum "Si O2"
_cell_formula_units_Z 16
_cell_length_a 9.891885
_cell_length_b 5.333717
_cell_length_c 16.369316
_cell_angle_alpha 99.588326
_cell_angle_beta 101.497980
_cell_angle_gamma 76.240457
_cell_volume 815.567084
_symmetry_space_group_name_H-M "P -1"
_symmetry_group_IT_number 2
_symmetry_cell_setting 'triclinic'
loop_
_space_group_symop_operation_xyz
x,y,z
-x,-y,-z
loop_
_atom_site_type_symbol
_atom_site_label
_atom_site_fract_x
_atom_site_fract_y
_atom_site_fract_z
Si Si1 0.164231 0.135178 0.981087
Si Si2 0.655076 0.437222 0.977665
Si Si3 0.303859 0.712881 0.203860
Si Si4 0.602754 0.984187 0.635832
Si Si5 0.619021 0.250725 0.480142
Si Si6 0.952005 0.867260 0.861068
Si Si7 0.129633 0.448535 0.294719
Si Si8 0.927676 0.296310 0.527414
O O1 0.253285 0.347382 0.978421
O O2 0.263839 0.852771 0.000502
O O3 0.070217 0.239625 0.056438
O O4 0.057972 0.060307 0.897227
O O5 0.500000 0.500000 0.000000
O O6 0.639453 0.447523 0.877695
O O7 0.411214 0.797401 0.284489
O O8 0.202582 0.584468 0.240523
O O9 0.203353 0.970898 0.170338
O O10 0.638487 0.085243 0.557029
O O11 0.455978 0.893328 0.604188
O O12 0.739337 0.761505 0.662426
O O13 0.500000 0.500000 0.500000
O O14 0.765190 0.327180 0.482193
O O15 0.982143 0.677634 0.776621
O O16 0.070089 0.637673 0.372151
O O17 0.000000 0.500000 0.500000
O O18 0.000000 0.000000 0.500000
#
# Coordination Sequence:
#
# PCOD9098243 Si02
#       8
#     2   2   2   2   2   2   2   2
#     4  10  21  39  61  95 122 162 206 259 312 377
#     4  11  23  40  62  90 129 168 205 256 321 374
#     4  10  20  36  64  92 120 162 215 263 305 374
#     4  10  20  36  65  96 119 158 232 270 302 369
#     4  11  21  39  68  91 121 172 223 266 313 393
#     4   9  21  34  65  92 121 153 216 263 305 365
#     4  11  20  40  63  92 124 168 215 267 317 391
#     4  12  27  43  63  95 135 170 206 272 343 379
#
# _framework density 19.618251000000001
#
# number of rings (size 3 to 8) (size 9 to 14) (size 15 to 20)
#    0.000    1.500    3.750    1.125    5.250    1.500 
#    0.000    2.500    0.000    0.000    0.000    0.000 
#    0.000    0.000    0.000    0.000    0.000    0.000 
#
# Total GULP energy -89261.847100 kJ/mol
# GULP energy per Si atom -5578.865444 kJ/mol
# Density = 1.957360 g / cm^3
# Si number density = 19.618251 Si / 1000 Ang^3
#
#
#
# Elastic Constant Matrix: (Units=GPa)
#
#
# Indices 1 2 3 4 5 6 
#
# 1 139.7069 33.9892 56.5239 25.1108 13.4790 24.4957
# 2 33.9892 67.3315 30.4860 12.2425 -1.4128 11.3871
# 3 56.5239 30.4860 139.3049 33.0780 17.5340 12.5494
# 4 25.1108 12.2425 33.0780 32.8746 6.6207 4.2655
# 5 13.4790 -1.4128 17.5340 6.6207 41.9872 6.2343
# 6 24.4957 11.3871 12.5494 4.2655 6.2343 32.6053
#
#
#
# Elastic Compliance Matrix: (Units=1/GPa)
#
#
# Indices 1 2 3 4 5 6 
#
# 1 0.010412 -0.002726 -0.002068 -0.003931 -0.001158 -0.005339
# 2 -0.002726 0.018514 -0.002429 -0.002575 0.003485 -0.003812
# 3 -0.002068 -0.002429 0.010746 -0.007767 -0.002649 -0.000211
# 4 -0.003931 -0.002575 -0.007767 0.042478 -0.002542 0.001771
# 5 -0.001158 0.003485 -0.002649 -0.002542 0.026414 -0.004045
# 6 -0.005339 -0.003812 -0.000211 0.001771 -0.004045 0.036635
#
#
# Mechanical properties :
#
#
# Convention : Reuss Voigt Hill
#
# Bulk Modulus (GPa) = 39.64298 65.37129 52.50714
# Shear Modulus (GPa) = 29.75223 36.51636 33.13429
#
# Velocity S-wave (km/s) = 3.89853 4.31901 4.11415
# Velocity P-wave (km/s) = 6.36520 7.63321 7.02786
#
# Compressibility (1/GPa) = 0.02522514
#
# Stress axis : x y z
#
# Youngs Moduli (GPa) = 96.04090 54.01286 93.05717
#
# Poissons Ratio (x) = 0.14726 0.19244
# Poissons Ratio (y) = 0.26185 0.22605
# Poissons Ratio (z) = 0.19861 0.13121
#
# Static dielectric constant tensor:
#      x y z
#    x 1.724610 0.053820 0.043920 
#    y 0.053820 1.784300 -0.007250 
#    z 0.043920 -0.007250 1.790980 
# 
# From -- ./inp_files/124601.got.cif
#   From: 2010.05.17/outbox.cif.g08.bks.cpg/sg2_63_cif.got.tgz:124601.got - 2010.06.03 11:33:40.
