data_PCOD9098599
_publ_section_title
;
Structure prediction by ZEFSAII (Michael W. Deem and Ramdas Pophale) SiO2 
 PCOD9098599
Probable space group: P -1
;
_chemical_formula_sum "Si O2"
_cell_formula_units_Z 16
_cell_length_a 5.511515
_cell_length_b 9.802443
_cell_length_c 16.980241
_cell_angle_alpha 121.139780
_cell_angle_beta 104.111640
_cell_angle_gamma 92.355877
_cell_volume 745.892054
_symmetry_space_group_name_H-M "P -1"
_symmetry_group_IT_number 2
_symmetry_cell_setting 'triclinic'
loop_
_space_group_symop_operation_xyz
x,y,z
-x,-y,-z
loop_
_atom_site_type_symbol
_atom_site_label
_atom_site_fract_x
_atom_site_fract_y
_atom_site_fract_z
Si Si1 0.704305 0.402289 0.095417
Si Si2 0.364291 0.360697 0.289591
Si Si3 0.053344 0.541773 0.607064
Si Si4 0.365759 0.685341 0.281221
Si Si5 0.038650 0.878740 0.898907
Si Si6 0.890718 0.696136 0.320827
Si Si7 0.736245 0.821428 0.080240
Si Si8 0.246947 0.687470 0.095106
O O1 0.410302 0.307693 0.034935
O O2 0.785983 0.436315 0.019921
O O3 0.778229 0.551801 0.205045
O O4 0.844294 0.265869 0.099556
O O5 0.655704 0.358939 0.332339
O O6 0.171191 0.377445 0.350751
O O7 0.362311 0.521337 0.283213
O O8 0.227339 0.202086 0.185289
O O9 0.057315 0.386339 0.617513
O O10 0.000000 0.500000 0.500000
O O11 0.159465 0.777665 0.329760
O O12 0.277654 0.635702 0.171047
O O13 0.227462 0.993122 0.888787
O O14 0.000000 0.000000 0.000000
O O15 0.530532 0.789719 0.124952
O O16 0.655037 0.784332 0.336255
O O17 0.017647 0.785307 0.103774
#
# Coordination Sequence:
#
# PCOD9098599 Si02
#       8
#     2   2   2   2   2   2   2   2
#     4  10  22  34  49  74 107 150 188 218 264 312
#     4  10  23  36  58  86 111 149 184 219 289 335
#     4  10  20  37  58  82 115 139 177 237 287 343
#     4  10  20  37  51  74 110 144 184 230 267 324
#     4  12  21  38  57  76 119 158 190 226 265 333
#     4  10  21  33  54  76 107 138 180 217 286 330
#     4  10  23  34  50  75 103 155 193 218 263 305
#     4  10  22  35  50  73 106 150 195 223 259 315
#
# _framework density 21.450824000000001
#
# number of rings (size 3 to 8) (size 9 to 14) (size 15 to 20)
#    0.750    1.000    3.750    1.500    5.250    3.000 
#    0.000    0.000    0.000    0.000    0.000    0.000 
#    0.000   80.000    0.000    0.000    0.000    0.000 
#
# Total GULP energy -89303.677225 kJ/mol
# GULP energy per Si atom -5581.479827 kJ/mol
# Density = 2.140200 g / cm^3
# Si number density = 21.450824 Si / 1000 Ang^3
#
#
#
# Elastic Constant Matrix: (Units=GPa)
#
#
# Indices 1 2 3 4 5 6 
#
# 1 181.6020 22.5958 36.6830 -11.3025 3.0271 8.8132
# 2 22.5958 29.8025 16.9558 -9.9075 -0.9111 3.2924
# 3 36.6830 16.9558 94.9097 -27.6414 -12.0546 14.8296
# 4 -11.3025 -9.9075 -27.6414 18.6058 1.2075 -0.7492
# 5 3.0271 -0.9111 -12.0546 1.2075 23.9387 -6.9194
# 6 8.8132 3.2924 14.8296 -0.7492 -6.9194 22.1770
#
#
#
# Elastic Compliance Matrix: (Units=1/GPa)
#
#
# Indices 1 2 3 4 5 6 
#
# 1 0.006489 -0.004054 -0.002389 -0.001656 -0.002440 -0.001197
# 2 -0.004054 0.043988 0.000905 0.022105 0.000161 -0.004728
# 3 -0.002389 0.000905 0.023777 0.033413 0.007244 -0.011695
# 4 -0.001656 0.022105 0.033413 0.112951 0.006666 -0.019071
# 5 -0.002440 0.000161 0.007244 0.006666 0.048733 0.011532
# 6 -0.001197 -0.004728 -0.011695 -0.019071 0.011532 0.057044
#
#
# Mechanical properties :
#
#
# Convention : Reuss Voigt Hill
#
# Bulk Modulus (GPa) = 15.82792 50.97594 33.40193
# Shear Modulus (GPa) = 15.37910 28.28294 21.83102
#
# Velocity S-wave (km/s) = 2.68049 3.63506 3.19364
# Velocity P-wave (km/s) = 4.12004 6.43691 5.40410
#
# Compressibility (1/GPa) = 0.06317950
#
# Stress axis : x y z
#
# Youngs Moduli (GPa) = 154.10188 22.73322 42.05820
#
# Poissons Ratio (x) = 0.09215 0.10048
# Poissons Ratio (y) = 0.62466 -0.03807
# Poissons Ratio (z) = 0.36815 -0.02058
#
# Static dielectric constant tensor:
#      x y z
#    x 1.927650 0.057640 0.021770 
#    y 0.057640 1.808380 0.003560 
#    z 0.021770 0.003560 1.810970 
# 
# From -- ./inp_files/79614.got.cif
#   From: 2010.05.17/outbox.cif.g08.bks.cpg/sg2_40_cif.got.tgz:79614.got - 2010.06.03 11:33:40.
