data_PCOD9098317
_publ_section_title
;
Structure prediction by ZEFSAII (Michael W. Deem and Ramdas Pophale) SiO2 
 PCOD9098317
Probable space group: P -1
;
_chemical_formula_sum "Si O2"
_cell_formula_units_Z 14
_cell_length_a 8.351211
_cell_length_b 12.657197
_cell_length_c 10.529635
_cell_angle_alpha 97.208659
_cell_angle_beta 83.289357
_cell_angle_gamma 146.026820
_cell_volume 616.876694
_symmetry_space_group_name_H-M "P -1"
_symmetry_group_IT_number 2
_symmetry_cell_setting 'triclinic'
loop_
_space_group_symop_operation_xyz
x,y,z
-x,-y,-z
loop_
_atom_site_type_symbol
_atom_site_label
_atom_site_fract_x
_atom_site_fract_y
_atom_site_fract_z
Si Si1 0.966307 0.091047 0.437699
Si Si2 0.942685 0.559284 0.694817
Si Si3 0.991694 0.041595 0.804581
Si Si4 0.441362 0.584721 0.070710
Si Si5 0.687201 0.218720 0.542522
Si Si6 0.350444 0.633461 0.833129
Si Si7 0.878065 0.682271 0.342378
O O1 0.019127 0.945401 0.710631
O O2 0.181873 0.292508 0.513192
O O3 0.651231 0.968179 0.467314
O O4 0.000000 0.000000 0.500000
O O5 0.160418 0.725584 0.596708
O O6 0.133968 0.594644 0.778755
O O7 0.734054 0.513328 0.796095
O O8 0.751372 0.376526 0.598017
O O9 0.251897 0.191199 0.901541
O O10 0.048067 0.179123 0.735961
O O11 0.660570 0.857970 0.845370
O O12 0.500000 0.500000 0.000000
O O13 0.274628 0.555431 0.970303
O O14 0.841985 0.237501 0.642262
O O15 0.342744 0.521593 0.729604
#
# Coordination Sequence:
#
# PCOD9098317 Si02
#       7
#     2   2   2   2   2   2   2
#     4  10  20  36  64  97 137 168 211 280 329 391
#     4  10  22  41  69  98 132 179 221 272 338 393
#     4  11  23  44  66 100 139 173 221 280 333 387
#     4  12  24  45  69  95 138 177 229 277 322 396
#     4  10  20  40  67 100 136 170 221 275 335 403
#     4  11  24  43  68  95 135 182 221 268 332 402
#     4  10  22  40  66  98 134 172 221 266 335 401
#
# _framework density 22.694973999999998
#
# number of rings (size 3 to 8) (size 9 to 14) (size 15 to 20)
#    0.000    1.429    2.857    3.000    0.000    1.714 
#    0.000    0.714    0.000    0.000    0.000    0.000 
#    0.000    0.000    0.000    0.000    0.000    0.000 
#
# Total GULP energy -78144.819687 kJ/mol
# GULP energy per Si atom -5581.772835 kJ/mol
# Density = 2.264332 g / cm^3
# Si number density = 22.694974 Si / 1000 Ang^3
#
#
#
# Elastic Constant Matrix: (Units=GPa)
#
#
# Indices 1 2 3 4 5 6 
#
# 1 80.5992 38.1937 36.2964 -2.4712 7.3591 -2.2383
# 2 38.1937 111.5238 46.7581 12.3101 -9.4617 6.3289
# 3 36.2964 46.7581 102.7881 11.6236 -10.2403 2.5059
# 4 -2.4712 12.3101 11.6236 32.9835 2.3332 -2.9660
# 5 7.3591 -9.4617 -10.2403 2.3332 45.7354 5.9247
# 6 -2.2383 6.3289 2.5059 -2.9660 5.9247 24.7954
#
#
#
# Elastic Compliance Matrix: (Units=1/GPa)
#
#
# Indices 1 2 3 4 5 6 
#
# 1 0.018501 -0.005632 -0.005487 0.006417 -0.006472 0.005976
# 2 -0.005632 0.013334 -0.002985 -0.005088 0.003924 -0.005156
# 3 -0.005487 -0.002985 0.014026 -0.004763 0.003995 -0.002675
# 4 0.006417 -0.005088 -0.004763 0.035525 -0.006006 0.008044
# 5 -0.006472 0.003924 0.003995 -0.006006 0.026077 -0.008939
# 6 0.005976 -0.005156 -0.002675 0.008044 -0.008939 0.045554
#
#
# Mechanical properties :
#
#
# Convention : Reuss Voigt Hill
#
# Bulk Modulus (GPa) = 56.64798 59.71195 58.17997
# Shear Modulus (GPa) = 26.72245 32.28037 29.50141
#
# Velocity S-wave (km/s) = 3.43514 3.77551 3.60934
# Velocity P-wave (km/s) = 6.38344 6.73600 6.56209
#
# Compressibility (1/GPa) = 0.01765288
#
# Stress axis : x y z
#
# Youngs Moduli (GPa) = 54.05253 74.99583 71.29577
#
# Poissons Ratio (x) = 0.42237 0.39120
# Poissons Ratio (y) = 0.30442 0.21281
# Poissons Ratio (z) = 0.29659 0.22386
#
# Static dielectric constant tensor:
#      x y z
#    x 1.873960 -0.033330 -0.007340 
#    y -0.033330 1.876970 -0.002160 
#    z -0.007340 -0.002160 1.875310 
# 
# From -- ./inp_files/394265.got.cif
#   From: 2010.05.17/outbox.cif.g08.bks.cpg/sg2_198_cif.got.tgz:394265.got - 2010.06.03 11:33:40.
