data_PCOD9098861
_publ_section_title
;
Structure prediction by ZEFSAII (Michael W. Deem and Ramdas Pophale) SiO2 
 PCOD9098861
Probable space group: P -1
;
_chemical_formula_sum "Si O2"
_cell_formula_units_Z 14
_cell_length_a 6.853075
_cell_length_b 19.733237
_cell_length_c 9.102350
_cell_angle_alpha 147.751621
_cell_angle_beta 124.996339
_cell_angle_gamma 57.013638
_cell_volume 533.069682
_symmetry_space_group_name_H-M "P -1"
_symmetry_group_IT_number 2
_symmetry_cell_setting 'triclinic'
loop_
_space_group_symop_operation_xyz
x,y,z
-x,-y,-z
loop_
_atom_site_type_symbol
_atom_site_label
_atom_site_fract_x
_atom_site_fract_y
_atom_site_fract_z
Si Si1 0.712584 0.223246 0.565442
Si Si2 0.539800 0.098701 0.827695
Si Si3 0.909486 0.876666 0.646300
Si Si4 0.084108 0.272346 0.047645
Si Si5 0.857327 0.706166 0.552507
Si Si6 0.312120 0.511447 0.075478
Si Si7 0.375307 0.329425 0.027317
O O1 0.883515 0.106668 0.352479
O O2 0.427901 0.232076 0.464612
O O3 0.834325 0.248407 0.820438
O O4 0.755442 0.337485 0.679185
O O5 0.288571 0.146397 0.891228
O O6 0.587061 0.232835 0.017934
O O7 0.500000 0.000000 0.500000
O O8 0.733913 0.007662 0.836844
O O9 0.980640 0.808845 0.705685
O O10 0.757188 0.772971 0.310686
O O11 0.198927 0.367608 0.159629
O O12 0.076732 0.316318 0.291442
O O13 0.881800 0.574452 0.227354
O O14 0.413205 0.444161 0.145820
O O15 0.500000 0.500000 0.000000
#
# Coordination Sequence:
#
# PCOD9098861 Si02
#       7
#     2   2   2   2   2   2   2
#     4  10  20  37  58  80 112 152 190 220 285 345
#     4   8  14  32  58  79 107 151 182 224 284 330
#     4   9  17  34  59  78 113 151 182 231 281 328
#     4   9  19  34  57  81 116 145 186 232 279 335
#     4  10  21  36  54  88 116 140 189 240 273 325
#     4   9  18  34  55  80 115 146 186 236 273 331
#     4   7  15  30  54  76 104 151 176 216 289 318
#
# _framework density 26.262981
#
# number of rings (size 3 to 8) (size 9 to 14) (size 15 to 20)
#    0.857    2.286    1.429    0.000    0.000    6.286 
#    0.000   10.000    3.143    0.000    0.000    1.000 
#    0.000    0.000    0.000    0.000    0.000    0.000 
#
# Total GULP energy -78105.025734 kJ/mol
# GULP energy per Si atom -5578.930410 kJ/mol
# Density = 2.620321 g / cm^3
# Si number density = 26.262981 Si / 1000 Ang^3
#
#
#
# Elastic Constant Matrix: (Units=GPa)
#
#
# Indices 1 2 3 4 5 6 
#
# 1 75.8077 39.0271 13.7859 -15.1962 0.8563 0.0943
# 2 39.0271 139.6077 23.8781 -24.8713 -22.5174 4.4528
# 3 13.7859 23.8781 76.5527 -28.0284 -6.4882 12.6519
# 4 -15.1962 -24.8713 -28.0284 42.5541 10.1315 -12.4477
# 5 0.8563 -22.5174 -6.4882 10.1315 15.1893 -3.7093
# 6 0.0943 4.4528 12.6519 -12.4477 -3.7093 50.5664
#
#
#
# Elastic Compliance Matrix: (Units=1/GPa)
#
#
# Indices 1 2 3 4 5 6 
#
# 1 0.017816 -0.006118 -0.000408 0.006200 -0.014115 0.001098
# 2 -0.006118 0.011898 -0.001236 -0.000086 0.017646 0.000546
# 3 -0.000408 -0.001236 0.017544 0.010593 -0.001821 -0.001806
# 4 0.006200 -0.000086 0.010593 0.039180 -0.020751 0.005468
# 5 -0.014115 0.017646 -0.001821 -0.020751 0.106248 0.001614
# 6 0.001098 0.000546 -0.001806 0.005468 0.001614 0.021642
#
#
# Mechanical properties :
#
#
# Convention : Reuss Voigt Hill
#
# Bulk Modulus (GPa) = 31.51095 49.48337 40.49716
# Shear Modulus (GPa) = 20.79605 36.01375 28.40490
#
# Velocity S-wave (km/s) = 2.81702 3.70709 3.29227
# Velocity P-wave (km/s) = 4.75448 6.09965 5.46858
#
# Compressibility (1/GPa) = 0.03173500
#
# Stress axis : x y z
#
# Youngs Moduli (GPa) = 56.12983 84.04883 56.99826
#
# Poissons Ratio (x) = 0.51419 0.02326
# Poissons Ratio (y) = 0.34339 0.07043
# Poissons Ratio (z) = 0.02291 0.10386
#
# Static dielectric constant tensor:
#      x y z
#    x 2.149130 -0.042180 0.021520 
#    y -0.042180 2.118680 -0.015360 
#    z 0.021520 -0.015360 2.142230 
# 
# From -- ./inp_files/221393.got.cif
#   From: 2010.05.17/outbox.cif.g08.bks.cpg/sg2_111_cif.got.tgz:221393.got - 2010.06.03 11:33:40.
