data_PCOD9098214
_publ_section_title
;
Structure prediction by ZEFSAII (Michael W. Deem and Ramdas Pophale) SiO2 
 PCOD9098214
Probable space group: P -1
;
_chemical_formula_sum "Si O2"
_cell_formula_units_Z 11
_cell_length_a 11.818454
_cell_length_b 8.451098
_cell_length_c 6.498527
_cell_angle_alpha 127.464893
_cell_angle_beta 92.951601
_cell_angle_gamma 60.177246
_cell_volume 416.201347
_symmetry_space_group_name_H-M "P -1"
_symmetry_group_IT_number 2
_symmetry_cell_setting 'triclinic'
loop_
_space_group_symop_operation_xyz
x,y,z
-x,-y,-z
loop_
_atom_site_type_symbol
_atom_site_label
_atom_site_fract_x
_atom_site_fract_y
_atom_site_fract_z
Si Si1 0.977858 0.748945 0.275885
Si Si2 0.820691 0.548526 0.607812
Si Si3 0.798632 0.331703 0.069697
Si Si4 0.242386 0.951127 0.815390
Si Si5 0.500000 0.500000 0.000000
Si Si6 0.479252 0.255476 0.179089
O O1 0.036296 0.676671 0.455017
O O2 0.826106 0.970651 0.354706
O O3 0.000000 0.500000 0.000000
O O4 0.084292 0.779070 0.181235
O O5 0.815960 0.523864 0.344789
O O6 0.791917 0.799511 0.885732
O O7 0.687248 0.551019 0.665722
O O8 0.646066 0.461063 0.063607
O O9 0.816944 0.147233 0.105135
O O10 0.411838 0.761890 0.659773
O O11 0.469815 0.713813 0.006733
O O12 0.500000 0.000000 0.000000
#
# Coordination Sequence:
#
# PCOD9098214 Si02
#       6
#     2   2   2   2   1   2
#     4  10  21  40  64  87 127 163 198 260 310 366
#     4  10  21  40  66  86 123 168 200 256 314 368
#     4  11  22  40  64  91 123 160 213 250 312 374
#     4   9  21  37  61  92 123 158 203 259 301 372
#     4  10  20  36  64  90 122 162 202 266 302 364
#     4   9  18  38  61  88 125 160 206 254 311 364
#
# _framework density 26.429514000000001
#
# number of rings (size 3 to 8) (size 9 to 14) (size 15 to 20)
#    0.000    2.182    1.818    0.545    0.000    6.545 
#    0.000   11.818    4.000    0.000    0.000    0.000 
#    0.000    0.000    0.000    0.000    0.000    0.000 
#
# Total GULP energy -61326.409910 kJ/mol
# GULP energy per Si atom -5575.128174 kJ/mol
# Density = 2.636936 g / cm^3
# Si number density = 26.429514 Si / 1000 Ang^3
#
#
#
# Elastic Constant Matrix: (Units=GPa)
#
#
# Indices 1 2 3 4 5 6 
#
# 1 148.5466 62.1380 27.0675 -11.3615 17.8974 -23.1532
# 2 62.1380 154.5444 8.5740 -8.4476 8.9395 -34.6858
# 3 27.0675 8.5740 72.8341 6.2111 13.6382 -8.6709
# 4 -11.3615 -8.4476 6.2111 24.2443 1.3150 12.0517
# 5 17.8974 8.9395 13.6382 1.3150 39.4450 -12.0398
# 6 -23.1532 -34.6858 -8.6709 12.0517 -12.0398 72.0997
#
#
#
# Elastic Compliance Matrix: (Units=1/GPa)
#
#
# Indices 1 2 3 4 5 6 
#
# 1 0.009215 -0.003177 -0.002920 0.004122 -0.002602 -0.000044
# 2 -0.003177 0.008399 0.000535 -0.000304 0.000338 0.003192
# 3 -0.002920 0.000535 0.016142 -0.005932 -0.003680 0.001638
# 4 0.004122 -0.000304 -0.005932 0.048972 -0.003941 -0.008380
# 5 -0.002602 0.000338 -0.003680 -0.003941 0.029209 0.004420
# 6 -0.000044 0.003192 0.001638 -0.008380 0.004420 0.017727
#
#
# Mechanical properties :
#
#
# Convention : Reuss Voigt Hill
#
# Bulk Modulus (GPa) = 44.18794 63.49824 53.84309
# Shear Modulus (GPa) = 33.70830 45.70084 39.70457
#
# Velocity S-wave (km/s) = 3.57515 4.16283 3.88013
# Velocity P-wave (km/s) = 5.81358 6.86900 6.36321
#
# Compressibility (1/GPa) = 0.02263061
#
# Stress axis : x y z
#
# Youngs Moduli (GPa) = 108.51934 119.06797 61.95032
#
# Poissons Ratio (x) = 0.37829 0.18090
# Poissons Ratio (y) = 0.34478 -0.03313
# Poissons Ratio (z) = 0.31689 -0.06367
#
# Static dielectric constant tensor:
#      x y z
#    x 2.137080 -0.015920 -0.118700 
#    y -0.015920 2.020460 0.063570 
#    z -0.118700 0.063570 2.459280 
# 
# From -- ./inp_files/17785.got.cif
#   From: 2010.05.17/outbox.cif.g08.bks.cpg/sg2_9_cif.got.tgz:17785.got - 2010.06.03 11:33:40.
