data_PCOD9098896
_publ_section_title
;
Structure prediction by ZEFSAII (Michael W. Deem and Ramdas Pophale) SiO2 
 PCOD9098896
Probable space group: P -1
;
_chemical_formula_sum "Si O2"
_cell_formula_units_Z 16
_cell_length_a 5.835166
_cell_length_b 16.427008
_cell_length_c 7.904348
_cell_angle_alpha 69.904884
_cell_angle_beta 120.058855
_cell_angle_gamma 102.827246
_cell_volume 614.685162
_symmetry_space_group_name_H-M "P -1"
_symmetry_group_IT_number 2
_symmetry_cell_setting 'triclinic'
loop_
_space_group_symop_operation_xyz
x,y,z
-x,-y,-z
loop_
_atom_site_type_symbol
_atom_site_label
_atom_site_fract_x
_atom_site_fract_y
_atom_site_fract_z
Si Si1 0.853284 0.078061 0.649775
Si Si2 0.898899 0.182324 0.906710
Si Si3 0.343695 0.116567 0.275048
Si Si4 0.576094 0.602112 0.446318
Si Si5 0.066425 0.643513 0.391902
Si Si6 0.704791 0.389999 0.010698
Si Si7 0.412359 0.098361 0.912422
Si Si8 0.223988 0.406925 0.017209
O O1 0.877696 0.093868 0.849046
O O2 0.619816 0.134654 0.457669
O O3 0.154021 0.101465 0.695743
O O4 0.772884 0.979120 0.644443
O O5 0.977321 0.258760 0.753984
O O6 0.606096 0.178071 0.869692
O O7 0.101117 0.177866 0.139580
O O8 0.398169 0.111977 0.098431
O O9 0.500000 0.500000 0.500000
O O10 0.384835 0.635709 0.499839
O O11 0.892029 0.620024 0.511162
O O12 0.447340 0.633544 0.202299
O O13 0.931913 0.587217 0.225757
O O14 0.493756 0.361385 0.099513
O O15 0.005258 0.366285 0.097209
O O16 0.716832 0.495121 0.963628
O O17 0.500000 0.000000 0.000000
#
# Coordination Sequence:
#
# PCOD9098896 Si02
#       8
#     2   2   2   2   2   2   2   2
#     4  10  21  37  59  88 123 165 213 263 310 368
#     4  11  22  38  59  85 128 165 204 261 324 381
#     4  10  21  37  59  88 121 163 218 263 306 373
#     4  10  20  37  58  84 112 153 203 252 308 388
#     4  10  22  35  59  85 117 157 200 254 325 379
#     4   8  14  26  50  72  98 127 173 229 277 338
#     4  11  19  35  59  90 119 166 215 258 308 377
#     4   8  14  28  46  75  98 130 175 224 283 347
#
# _framework density 26.029586999999999
#
# number of rings (size 3 to 8) (size 9 to 14) (size 15 to 20)
#    0.000    2.250    2.500    1.125    3.500    1.500 
#    0.000    1.250    2.750    1.500    0.000    0.000 
#    0.000    0.000    0.000    0.000    0.000    0.000 
#
# Total GULP energy -89225.220870 kJ/mol
# GULP energy per Si atom -5576.576304 kJ/mol
# Density = 2.597034 g / cm^3
# Si number density = 26.029587 Si / 1000 Ang^3
#
#
#
# Elastic Constant Matrix: (Units=GPa)
#
#
# Indices 1 2 3 4 5 6 
#
# 1 231.1803 34.1622 53.6874 -2.2865 17.4601 41.8916
# 2 34.1622 71.3916 24.5991 -10.5322 15.7696 8.3989
# 3 53.6874 24.5991 95.3723 16.0444 6.0756 14.6303
# 4 -2.2865 -10.5322 16.0444 33.1580 -4.3457 -3.4492
# 5 17.4601 15.7696 6.0756 -4.3457 38.2032 5.8654
# 6 41.8916 8.3989 14.6303 -3.4492 5.8654 39.0134
#
#
#
# Elastic Compliance Matrix: (Units=1/GPa)
#
#
# Indices 1 2 3 4 5 6 
#
# 1 0.006065 -0.001183 -0.002329 0.000491 -0.001062 -0.005182
# 2 -0.001183 0.018643 -0.005194 0.007699 -0.005564 0.000722
# 3 -0.002329 -0.005194 0.015160 -0.009427 0.000174 -0.002925
# 4 0.000491 0.007699 -0.009427 0.037888 0.001725 0.004441
# 5 -0.001062 -0.005564 0.000174 0.001725 0.029433 -0.002000
# 6 -0.005182 0.000722 -0.002925 0.004441 -0.002000 0.032831
#
#
# Mechanical properties :
#
#
# Convention : Reuss Voigt Hill
#
# Bulk Modulus (GPa) = 44.53350 69.20460 56.86905
# Shear Modulus (GPa) = 30.31805 41.10796 35.71300
#
# Velocity S-wave (km/s) = 3.41655 3.97832 3.70809
# Velocity P-wave (km/s) = 5.71924 6.90995 6.34260
#
# Compressibility (1/GPa) = 0.02245501
#
# Stress axis : x y z
#
# Youngs Moduli (GPa) = 164.86923 53.63945 65.96408
#
# Poissons Ratio (x) = 0.06346 0.15365
# Poissons Ratio (y) = 0.19507 0.34262
# Poissons Ratio (z) = 0.38404 0.27861
#
# Static dielectric constant tensor:
#      x y z
#    x 2.420440 0.015070 0.079810 
#    y 0.015070 2.069890 -0.096320 
#    z 0.079810 -0.096320 2.154960 
# 
# From -- ./inp_files/55428.got.cif
#   From: 2010.05.17/outbox.cif.g08.bks.cpg/sg2_28_cif.got.tgz:55428.got - 2010.06.03 11:33:40.
