data_PCOD9098587
_publ_section_title
;
Structure prediction by ZEFSAII (Michael W. Deem and Ramdas Pophale) SiO2 
 PCOD9098587
Probable space group: P -1
;
_chemical_formula_sum "Si O2"
_cell_formula_units_Z 12
_cell_length_a 13.598733
_cell_length_b 7.577667
_cell_length_c 9.516143
_cell_angle_alpha 78.836155
_cell_angle_beta 131.552219
_cell_angle_gamma 127.570452
_cell_volume 543.663076
_symmetry_space_group_name_H-M "P -1"
_symmetry_group_IT_number 2
_symmetry_cell_setting 'triclinic'
loop_
_space_group_symop_operation_xyz
x,y,z
-x,-y,-z
loop_
_atom_site_type_symbol
_atom_site_label
_atom_site_fract_x
_atom_site_fract_y
_atom_site_fract_z
Si Si1 0.191954 0.404044 0.371716
Si Si2 0.676564 0.701621 0.721319
Si Si3 0.538628 0.035972 0.865778
Si Si4 0.929741 0.430058 0.106491
Si Si5 0.262777 0.868883 0.409190
Si Si6 0.491081 0.576648 0.827912
O O1 0.186633 0.290661 0.238823
O O2 0.289720 0.688181 0.404318
O O3 0.304560 0.402217 0.596227
O O4 0.998826 0.296033 0.244647
O O5 0.500000 0.500000 0.500000
O O6 0.634730 0.620799 0.853788
O O7 0.707429 0.941630 0.697003
O O8 0.388300 0.001640 0.640429
O O9 0.530416 0.821694 0.844938
O O10 0.728982 0.276680 0.966490
O O11 0.500000 0.000000 0.000000
O O12 0.056124 0.678685 0.272626
O O13 0.000000 0.500000 0.000000
O O14 0.500000 0.500000 0.000000
#
# Coordination Sequence:
#
# PCOD9098587 Si02
#       6
#     2   2   2   2   2   2
#     4   8  21  40  65  93 133 163 219 281 326 384
#     4  10  20  36  71  93 128 176 221 270 341 386
#     4  11  25  41  71  94 135 186 217 272 348 393
#     4  10  22  41  69  99 131 169 230 278 330 395
#     4   9  22  43  67  98 131 169 229 278 323 400
#     4  10  22  39  58  98 136 171 221 271 329 407
#
# _framework density 22.072495
#
# number of rings (size 3 to 8) (size 9 to 14) (size 15 to 20)
#    1.000    1.333    0.000    1.000    9.333    4.667 
#    0.000    5.833    0.000    0.000    0.000    0.000 
#    0.000    0.000    0.000    0.000    0.000    0.000 
#
# Total GULP energy -66883.619236 kJ/mol
# GULP energy per Si atom -5573.634936 kJ/mol
# Density = 2.202226 g / cm^3
# Si number density = 22.072495 Si / 1000 Ang^3
#
#
#
# Elastic Constant Matrix: (Units=GPa)
#
#
# Indices 1 2 3 4 5 6 
#
# 1 71.8144 25.1217 47.5026 -3.5356 -21.9983 6.9334
# 2 25.1217 76.6289 50.5314 -7.7560 -0.8395 12.1582
# 3 47.5026 50.5314 149.4009 -1.7830 -3.0928 34.5459
# 4 -3.5356 -7.7560 -1.7830 37.4762 11.5377 6.9338
# 5 -21.9983 -0.8395 -3.0928 11.5377 29.3653 -5.5015
# 6 6.9334 12.1582 34.5459 6.9338 -5.5015 35.6919
#
#
#
# Elastic Compliance Matrix: (Units=1/GPa)
#
#
# Indices 1 2 3 4 5 6 
#
# 1 0.028344 -0.005550 -0.009257 -0.008846 0.025639 0.011014
# 2 -0.005550 0.018423 -0.003626 0.006045 -0.007130 -0.003961
# 3 -0.009257 -0.003626 0.013591 0.004286 -0.009620 -0.012436
# 4 -0.008846 0.006045 0.004286 0.037413 -0.023586 -0.015392
# 5 0.025639 -0.007130 -0.009620 -0.023586 0.065322 0.021410
# 6 0.011014 -0.003961 -0.012436 -0.015392 0.021410 0.045555
#
#
# Mechanical properties :
#
#
# Convention : Reuss Voigt Hill
#
# Bulk Modulus (GPa) = 42.56755 60.46173 51.51464
# Shear Modulus (GPa) = 19.73611 32.15259 25.94435
#
# Velocity S-wave (km/s) = 2.99348 3.82079 3.43215
# Velocity P-wave (km/s) = 5.59241 6.84955 6.25266
#
# Compressibility (1/GPa) = 0.02349207
#
# Stress axis : x y z
#
# Youngs Moduli (GPa) = 35.28080 54.28106 73.58064
#
# Poissons Ratio (x) = 0.30127 0.68110
# Poissons Ratio (y) = 0.19582 0.26679
# Poissons Ratio (z) = 0.32658 0.19681
#
# Static dielectric constant tensor:
#      x y z
#    x 1.867750 -0.027520 0.039020 
#    y -0.027520 1.847870 0.011540 
#    z 0.039020 0.011540 1.906680 
# 
# From -- ./inp_files/295036.got.cif
#   From: 2010.05.17/outbox.cif.g08.bks.cpg/sg2_148_cif.got.tgz:295036.got - 2010.06.03 11:33:40.
