data_PCOD9098496
_publ_section_title
;
Structure prediction by ZEFSAII (Michael W. Deem and Ramdas Pophale) SiO2 
 PCOD9098496
Probable space group: P -1
;
_chemical_formula_sum "Si O2"
_cell_formula_units_Z 16
_cell_length_a 18.544137
_cell_length_b 9.395382
_cell_length_c 12.349452
_cell_angle_alpha 132.915088
_cell_angle_beta 131.494819
_cell_angle_gamma 30.892815
_cell_volume 791.350428
_symmetry_space_group_name_H-M "P -1"
_symmetry_group_IT_number 2
_symmetry_cell_setting 'triclinic'
loop_
_space_group_symop_operation_xyz
x,y,z
-x,-y,-z
loop_
_atom_site_type_symbol
_atom_site_label
_atom_site_fract_x
_atom_site_fract_y
_atom_site_fract_z
Si Si1 0.350875 0.672139 0.999255
Si Si2 0.444972 0.306475 0.117782
Si Si3 0.218287 0.618767 0.247801
Si Si4 0.877826 0.656090 0.369996
Si Si5 0.854034 0.658190 0.871931
Si Si6 0.633300 0.269421 0.436736
Si Si7 0.031869 0.729317 0.425067
Si Si8 0.888667 0.255087 0.259353
O O1 0.389522 0.488998 0.048274
O O2 0.253976 0.008619 0.094799
O O3 0.500000 0.500000 0.000000
O O4 0.237595 0.709570 0.841354
O O5 0.315823 0.510927 0.183739
O O6 0.573044 0.255831 0.262697
O O7 0.500000 0.000000 0.000000
O O8 0.227113 0.377845 0.154264
O O9 0.279644 0.658658 0.429021
O O10 0.048961 0.927887 0.232594
O O11 0.865703 0.443998 0.236795
O O12 0.000000 0.500000 0.500000
O O13 0.910397 0.751930 0.352100
O O14 0.733085 0.958629 0.430456
O O15 0.895497 0.480915 0.712956
O O16 0.000000 0.500000 0.000000
O O17 0.500000 0.500000 0.500000
O O18 0.115397 0.630997 0.569958
O O19 0.000000 0.000000 0.500000
#
# Coordination Sequence:
#
# PCOD9098496 Si02
#       8
#     2   2   2   2   2   2   2   2
#     4  12  28  48  68 100 146 186 236 292 362 426
#     4  11  26  45  70 103 142 190 228 285 365 421
#     4  11  22  45  70 100 137 178 240 288 348 418
#     4  10  20  36  67 101 131 171 233 285 337 404
#     4  12  25  44  69 104 139 185 229 296 355 420
#     4  10  21  40  68  97 137 175 227 287 340 413
#     4  11  21  39  67 103 139 176 227 281 359 411
#     4  11  23  44  69 101 137 181 236 298 340 421
#
# _framework density 20.218603000000002
#
# number of rings (size 3 to 8) (size 9 to 14) (size 15 to 20)
#    0.000    1.000    5.000    1.500    1.750    7.500 
#    0.000    1.250    0.000    0.000    0.000    0.000 
#    0.000    0.000    0.000    0.000    0.000    0.000 
#
# Total GULP energy -89128.495713 kJ/mol
# GULP energy per Si atom -5570.530982 kJ/mol
# Density = 2.017258 g / cm^3
# Si number density = 20.218603 Si / 1000 Ang^3
#
#
#
# Elastic Constant Matrix: (Units=GPa)
#
#
# Indices 1 2 3 4 5 6 
#
# 1 133.0275 44.6682 47.1752 3.0367 11.0878 4.7302
# 2 44.6682 141.0236 51.3125 7.7576 3.4019 0.1173
# 3 47.1752 51.3125 119.4350 2.3457 11.8914 -4.6404
# 4 3.0367 7.7576 2.3457 30.5317 -2.6580 9.3531
# 5 11.0878 3.4019 11.8914 -2.6580 39.1035 2.8462
# 6 4.7302 0.1173 -4.6404 9.3531 2.8462 42.5141
#
#
#
# Elastic Compliance Matrix: (Units=1/GPa)
#
#
# Indices 1 2 3 4 5 6 
#
# 1 0.009306 -0.001910 -0.002749 0.000013 -0.001546 -0.001230
# 2 -0.001910 0.008906 -0.003083 -0.001855 0.000562 0.000222
# 3 -0.002749 -0.003083 0.011114 -0.000573 -0.002504 0.001821
# 4 0.000013 -0.001855 -0.000573 0.036081 0.003383 -0.008223
# 5 -0.001546 0.000562 -0.002504 0.003383 0.027148 -0.002665
# 6 -0.001230 0.000222 0.001821 -0.008223 -0.002665 0.025844
#
#
# Mechanical properties :
#
#
# Convention : Reuss Voigt Hill
#
# Bulk Modulus (GPa) = 72.24073 75.53310 73.88692
# Shear Modulus (GPa) = 36.10204 39.11853 37.61029
#
# Velocity S-wave (km/s) = 4.23020 4.40338 4.31766
# Velocity P-wave (km/s) = 7.72443 7.95565 7.84089
#
# Compressibility (1/GPa) = 0.01384261
#
# Stress axis : x y z
#
# Youngs Moduli (GPa) = 107.46091 112.28545 89.97281
#
# Poissons Ratio (x) = 0.21441 0.24736
# Poissons Ratio (y) = 0.20520 0.27737
# Poissons Ratio (z) = 0.29545 0.34616
#
# Static dielectric constant tensor:
#      x y z
#    x 2.396680 -0.291150 0.004410 
#    y -0.291150 1.880760 0.035460 
#    z 0.004410 0.035460 1.793900 
# 
# From -- ./inp_files/399756.got.cif
#   From: 2010.05.17/outbox.cif.g08.bks.cpg/sg2_200_cif.got.tgz:399756.got - 2010.06.03 11:33:40.
