data_PCOD9098909
_publ_section_title
;
Structure prediction by ZEFSAII (Michael W. Deem and Ramdas Pophale) SiO2 
 PCOD9098909
Probable space group: P -1
;
_chemical_formula_sum "Si O2"
_cell_formula_units_Z 16
_cell_length_a 9.591481
_cell_length_b 8.707008
_cell_length_c 8.675175
_cell_angle_alpha 111.717203
_cell_angle_beta 76.353696
_cell_angle_gamma 78.340922
_cell_volume 619.554176
_symmetry_space_group_name_H-M "P -1"
_symmetry_group_IT_number 2
_symmetry_cell_setting 'triclinic'
loop_
_space_group_symop_operation_xyz
x,y,z
-x,-y,-z
loop_
_atom_site_type_symbol
_atom_site_label
_atom_site_fract_x
_atom_site_fract_y
_atom_site_fract_z
Si Si1 0.196950 0.471047 0.934888
Si Si2 0.963512 0.760405 0.251657
Si Si3 0.727459 0.368894 0.495594
Si Si4 0.572772 0.688034 0.426277
Si Si5 0.273891 0.361254 0.194555
Si Si6 0.242837 0.111735 0.379567
Si Si7 0.148770 0.933360 0.838513
Si Si8 0.594969 0.134207 0.997625
O O1 0.097462 0.406271 0.812896
O O2 0.356945 0.409952 0.785337
O O3 0.212725 0.352777 0.038471
O O4 0.124542 0.669378 0.087343
O O5 0.912027 0.841051 0.464798
O O6 0.865976 0.918816 0.229313
O O7 0.639383 0.542659 0.487440
O O8 0.606346 0.268429 0.518067
O O9 0.785509 0.440885 0.656385
O O10 0.852407 0.242483 0.310673
O O11 0.635052 0.843699 0.521511
O O12 0.225775 0.241943 0.286189
O O13 0.455969 0.312299 0.110251
O O14 0.314996 0.925044 0.208169
O O15 0.292605 0.887715 0.896732
O O16 0.000000 0.000000 0.000000
O O17 0.500000 0.000000 0.000000
#
# Coordination Sequence:
#
# PCOD9098909 Si02
#       8
#     2   2   2   2   2   2   2   2
#     4  10  21  38  61  88 117 153 205 255 295 348
#     4  10  22  39  59  86 120 159 199 244 303 361
#     4  10  20  37  58  84 120 161 198 237 299 364
#     4   9  18  36  60  87 118 154 200 249 295 350
#     4  10  21  37  61  89 117 154 202 254 298 346
#     4   9  19  36  61  89 116 152 200 254 298 346
#     4  12  25  41  62  88 125 164 195 241 305 367
#     4  10  20  39  64  91 118 152 203 251 295 347
#
# _framework density 25.825019999999999
#
# number of rings (size 3 to 8) (size 9 to 14) (size 15 to 20)
#    0.000    2.000    0.000    5.250    0.000    4.000 
#    0.000   10.000    0.000    0.000    0.000    0.000 
#    0.000    0.000    0.000    0.000    0.000    0.000 
#
# Total GULP energy -89419.640542 kJ/mol
# GULP energy per Si atom -5588.727534 kJ/mol
# Density = 2.576624 g / cm^3
# Si number density = 25.825020 Si / 1000 Ang^3
#
#
#
# Elastic Constant Matrix: (Units=GPa)
#
#
# Indices 1 2 3 4 5 6 
#
# 1 40.7112 11.5752 22.8457 -1.7432 -1.3428 -1.3532
# 2 11.5752 40.6483 17.6354 -0.9373 -0.2512 -6.8308
# 3 22.8457 17.6354 217.8033 13.2309 -14.5230 -9.7490
# 4 -1.7432 -0.9373 13.2309 42.7807 -5.1477 3.5708
# 5 -1.3428 -0.2512 -14.5230 -5.1477 33.4424 9.4759
# 6 -1.3532 -6.8308 -9.7490 3.5708 9.4759 30.7495
#
#
#
# Elastic Compliance Matrix: (Units=1/GPa)
#
#
# Indices 1 2 3 4 5 6 
#
# 1 0.028051 -0.007118 -0.002509 0.001986 0.000743 -0.001602
# 2 -0.007118 0.028287 -0.001424 -0.000053 -0.002482 0.006290
# 3 -0.002509 -0.001424 0.005219 -0.001625 0.001647 0.000909
# 4 0.001986 -0.000053 -0.001625 0.024900 0.004547 -0.004733
# 5 0.000743 -0.002482 0.001647 0.004547 0.034489 -0.011153
# 6 -0.001602 0.006290 0.000909 -0.004733 -0.011153 0.038122
#
#
# Mechanical properties :
#
#
# Convention : Reuss Voigt Hill
#
# Bulk Modulus (GPa) = 25.34600 44.80837 35.07719
# Shear Modulus (GPa) = 25.73043 37.86829 31.79936
#
# Velocity S-wave (km/s) = 3.15991 3.83344 3.51285
# Velocity P-wave (km/s) = 4.81136 6.08129 5.48321
#
# Compressibility (1/GPa) = 0.03945396
#
# Stress axis : x y z
#
# Youngs Moduli (GPa) = 35.64886 35.35218 191.60623
#
# Poissons Ratio (x) = 0.25165 0.48070
# Poissons Ratio (y) = 0.25376 0.27293
# Poissons Ratio (z) = 0.08944 0.05036
#
# Static dielectric constant tensor:
#      x y z
#    x 2.115200 -0.047180 -0.056910 
#    y -0.047180 2.093700 0.034060 
#    z -0.056910 0.034060 2.077580 
# 
# From -- ./inp_files/244983.got.cif
#   From: 2010.05.17/outbox.cif.g08.bks.cpg/sg2_123_cif.got.tgz:244983.got - 2010.06.03 11:33:40.
