data_PCOD9098649
_publ_section_title
;
Structure prediction by ZEFSAII (Michael W. Deem and Ramdas Pophale) SiO2 
 PCOD9098649
Probable space group: P -1
;
_chemical_formula_sum "Si O2"
_cell_formula_units_Z 16
_cell_length_a 10.399064
_cell_length_b 6.529937
_cell_length_c 12.612698
_cell_angle_alpha 99.149705
_cell_angle_beta 87.585803
_cell_angle_gamma 104.303575
_cell_volume 819.354664
_symmetry_space_group_name_H-M "P -1"
_symmetry_group_IT_number 2
_symmetry_cell_setting 'triclinic'
loop_
_space_group_symop_operation_xyz
x,y,z
-x,-y,-z
loop_
_atom_site_type_symbol
_atom_site_label
_atom_site_fract_x
_atom_site_fract_y
_atom_site_fract_z
Si Si1 0.372760 0.824062 0.110891
Si Si2 0.373287 0.375129 0.427163
Si Si3 0.985075 0.087578 0.390469
Si Si4 0.634504 0.209468 0.129006
Si Si5 0.711963 0.005960 0.310625
Si Si6 0.185565 0.645931 0.507606
Si Si7 0.769093 0.062329 0.671172
Si Si8 0.508605 0.577263 0.232641
O O1 0.438860 0.637244 0.134743
O O2 0.490584 0.040180 0.119255
O O3 0.277684 0.859486 0.211243
O O4 0.314424 0.777579 0.991882
O O5 0.500000 0.500000 0.500000
O O6 0.241586 0.436679 0.482886
O O7 0.345062 0.120173 0.396954
O O8 0.403383 0.462028 0.313775
O O9 0.850322 0.950393 0.330595
O O10 0.947104 0.317195 0.425523
O O11 0.112802 0.056170 0.323254
O O12 0.000000 0.000000 0.500000
O O13 0.718159 0.116343 0.204791
O O14 0.607102 0.429911 0.188568
O O15 0.703864 0.184170 0.412924
O O16 0.591406 0.800077 0.297447
O O17 0.187318 0.746414 0.398809
#
# Coordination Sequence:
#
# PCOD9098649 Si02
#       8
#     2   2   2   2   2   2   2   2
#     4  10  21  35  57  79 114 141 176 226 270 327
#     4  12  23  29  54  88 112 137 176 220 273 329
#     4   8  19  38  56  73 108 152 181 212 268 315
#     4  10  20  37  55  84 107 141 182 220 278 320
#     4   9  20  37  56  78 108 145 178 223 263 322
#     4   9  20  37  51  77 111 142 174 215 266 319
#     4  11  20  37  54  79 109 145 179 221 263 316
#     4  11  20  34  55  81 111 141 174 222 276 324
#
# _framework density 19.527562
#
# number of rings (size 3 to 8) (size 9 to 14) (size 15 to 20)
#    0.750    1.250    2.500    1.875    1.750    1.500 
#    0.000    1.875    0.000    0.750    0.000    0.000 
#    0.000    0.000    0.000    0.000    0.000    0.000 
#
# Total GULP energy -89186.426879 kJ/mol
# GULP energy per Si atom -5574.151680 kJ/mol
# Density = 1.948312 g / cm^3
# Si number density = 19.527562 Si / 1000 Ang^3
#
#
#
# Elastic Constant Matrix: (Units=GPa)
#
#
# Indices 1 2 3 4 5 6 
#
# 1 71.2311 0.8143 25.4360 -0.2014 -0.1800 -17.0620
# 2 0.8143 48.3208 10.3896 -2.2954 2.1482 -9.6918
# 3 25.4360 10.3896 104.5729 -6.0612 -1.7159 -9.0410
# 4 -0.2014 -2.2954 -6.0612 20.3697 -4.7695 -5.6018
# 5 -0.1800 2.1482 -1.7159 -4.7695 22.2340 -1.5276
# 6 -17.0620 -9.6918 -9.0410 -5.6018 -1.5276 17.4419
#
#
#
# Elastic Compliance Matrix: (Units=1/GPa)
#
#
# Indices 1 2 3 4 5 6 
#
# 1 0.020971 0.005451 -0.003056 0.007279 0.002654 0.024529
# 2 0.005451 0.025642 -0.001487 0.008642 0.000794 0.021655
# 3 -0.003056 -0.001487 0.011067 0.004599 0.002206 0.003591
# 4 0.007279 0.008642 0.004599 0.065381 0.016127 0.036718
# 5 0.002654 0.000794 0.002206 0.016127 0.049492 0.013695
# 6 0.024529 0.021655 0.003591 0.036718 0.013695 0.108214
#
#
# Mechanical properties :
#
#
# Convention : Reuss Voigt Hill
#
# Bulk Modulus (GPa) = 16.80821 33.04495 24.92658
# Shear Modulus (GPa) = 16.73464 24.50814 20.62139
#
# Velocity S-wave (km/s) = 2.93059 3.54652 3.25316
# Velocity P-wave (km/s) = 4.48077 5.80770 5.18684
#
# Compressibility (1/GPa) = 0.05949474
#
# Stress axis : x y z
#
# Youngs Moduli (GPa) = 47.68578 38.99919 90.35767
#
# Poissons Ratio (x) = -0.21260 0.27616
# Poissons Ratio (y) = -0.25996 0.13440
# Poissons Ratio (z) = 0.14574 0.05801
#
# Static dielectric constant tensor:
#      x y z
#    x 1.753480 0.021290 0.013720 
#    y 0.021290 1.745240 0.012270 
#    z 0.013720 0.012270 1.671030 
# 
# From -- ./inp_files/410549.got.cif
#   From: 2010.05.17/outbox.cif.g08.bks.cpg/sg2_206_cif.got.tgz:410549.got - 2010.06.03 11:33:40.
