data_PCOD9098543
_publ_section_title
;
Structure prediction by ZEFSAII (Michael W. Deem and Ramdas Pophale) SiO2 
 PCOD9098543
Probable space group: P -1
;
_chemical_formula_sum "Si O2"
_cell_formula_units_Z 14
_cell_length_a 11.150475
_cell_length_b 8.805852
_cell_length_c 19.731329
_cell_angle_alpha 129.467095
_cell_angle_beta 148.596162
_cell_angle_gamma 73.250245
_cell_volume 603.796337
_symmetry_space_group_name_H-M "P -1"
_symmetry_group_IT_number 2
_symmetry_cell_setting 'triclinic'
loop_
_space_group_symop_operation_xyz
x,y,z
-x,-y,-z
loop_
_atom_site_type_symbol
_atom_site_label
_atom_site_fract_x
_atom_site_fract_y
_atom_site_fract_z
Si Si1 0.188060 0.034141 0.035295
Si Si2 0.804396 0.187770 0.430698
Si Si3 0.817976 0.543135 0.618764
Si Si4 0.733812 0.514623 0.878013
Si Si5 0.993174 0.270149 0.803548
Si Si6 0.874023 0.965250 0.534713
Si Si7 0.502030 0.263945 0.516371
O O1 0.488773 0.093524 0.224008
O O2 0.230413 0.259256 0.077696
O O3 0.000000 0.000000 0.000000
O O4 0.020774 0.787349 0.834731
O O5 0.967610 0.468828 0.619863
O O6 0.966088 0.150294 0.440259
O O7 0.796496 0.039055 0.449632
O O8 0.588353 0.302979 0.489308
O O9 0.620251 0.584461 0.490876
O O10 0.432539 0.247740 0.635678
O O11 0.000000 0.500000 0.000000
O O12 0.717595 0.549532 0.960863
O O13 0.812539 0.372541 0.730865
O O14 0.048143 0.194188 0.737230
O O15 0.759580 0.020276 0.666302
#
# Coordination Sequence:
#
# PCOD9098543 Si02
#       7
#     2   2   2   2   2   2   2
#     4  12  27  42  70 107 137 176 229 283 338 403
#     4  11  27  48  69  97 138 186 229 274 338 410
#     4  11  23  42  64 101 138 179 217 282 336 403
#     4  12  27  42  70 107 137 176 229 283 338 403
#     4  11  23  42  64 101 138 179 217 282 336 403
#     4  11  27  48  69  97 138 186 229 274 338 410
#     4  10  20  36  68  94 136 172 216 272 346 382
#
# _framework density 23.186624999999999
#
# number of rings (size 3 to 8) (size 9 to 14) (size 15 to 20)
#    0.000    0.857    2.857    4.286   10.000    1.714 
#    0.000    4.286    0.000    0.000    0.000    0.000 
#    0.000    0.000    0.000    0.000    0.000    0.000 
#
# Total GULP energy -78286.857465 kJ/mol
# GULP energy per Si atom -5591.918390 kJ/mol
# Density = 2.313385 g / cm^3
# Si number density = 23.186625 Si / 1000 Ang^3
#
#
#
# Elastic Constant Matrix: (Units=GPa)
#
#
# Indices 1 2 3 4 5 6 
#
# 1 104.0557 44.0576 32.6314 -9.8468 -22.0571 -36.8117
# 2 44.0576 130.1063 20.5759 -24.4308 -4.8534 -16.2912
# 3 32.6314 20.5759 72.7754 -11.6422 -34.0085 -16.9114
# 4 -9.8468 -24.4308 -11.6422 34.9516 -0.0826 -1.1683
# 5 -22.0571 -4.8534 -34.0085 -0.0826 37.2404 -2.9232
# 6 -36.8117 -16.2912 -16.9114 -1.1683 -2.9232 49.4989
#
#
#
# Elastic Compliance Matrix: (Units=1/GPa)
#
#
# Indices 1 2 3 4 5 6 
#
# 1 0.019227 -0.003739 0.004384 0.004825 0.016142 0.015634
# 2 -0.003739 0.010148 -0.001123 0.005669 -0.001889 0.000198
# 3 0.004384 -0.001123 0.034694 0.012664 0.035507 0.017140
# 4 0.004825 0.005669 0.012664 0.038578 0.016161 0.011645
# 5 0.016142 -0.001889 0.035507 0.016161 0.070832 0.028079
# 6 0.015634 0.000198 0.017140 0.011645 0.028079 0.039683
#
#
# Mechanical properties :
#
#
# Convention : Reuss Voigt Hill
#
# Bulk Modulus (GPa) = 15.84407 55.71858 35.78133
# Shear Modulus (GPa) = 21.26242 38.31634 29.78938
#
# Velocity S-wave (km/s) = 3.03151 4.06953 3.58825
# Velocity P-wave (km/s) = 4.37053 6.79441 5.71251
#
# Compressibility (1/GPa) = 0.06311509
#
# Stress axis : x y z
#
# Youngs Moduli (GPa) = 52.00913 98.53819 28.82343
#
# Poissons Ratio (x) = 0.36839 -0.12636
# Poissons Ratio (y) = 0.19444 0.03236
# Poissons Ratio (z) = -0.22800 0.11062
#
# Static dielectric constant tensor:
#      x y z
#    x 1.909960 0.006480 -0.061020 
#    y 0.006480 1.873580 0.023590 
#    z -0.061020 0.023590 1.893010 
# 
# From -- ./inp_files/593784.got.cif
#   From: 2010.05.17/outbox.cif.g08.bks.cpg/sg2_297_cif.got.tgz:593784.got - 2010.06.03 11:33:40.
