data_PCOD9098594
_publ_section_title
;
Structure prediction by ZEFSAII (Michael W. Deem and Ramdas Pophale) SiO2 
 PCOD9098594
Probable space group: P -1
;
_chemical_formula_sum "Si O2"
_cell_formula_units_Z 15
_cell_length_a 11.974088
_cell_length_b 13.209351
_cell_length_c 8.686938
_cell_angle_alpha 122.600060
_cell_angle_beta 41.316401
_cell_angle_gamma 134.641303
_cell_volume 645.274668
_symmetry_space_group_name_H-M "P -1"
_symmetry_group_IT_number 2
_symmetry_cell_setting 'triclinic'
loop_
_space_group_symop_operation_xyz
x,y,z
-x,-y,-z
loop_
_atom_site_type_symbol
_atom_site_label
_atom_site_fract_x
_atom_site_fract_y
_atom_site_fract_z
Si Si1 0.668693 0.231352 0.467400
Si Si2 0.279505 0.960233 0.516308
Si Si3 0.136887 0.102268 0.238642
Si Si4 0.764603 0.302426 0.079372
Si Si5 0.318251 0.476772 0.774437
Si Si6 0.525746 0.379136 0.944692
Si Si7 0.971194 0.807628 0.269208
Si Si8 0.500000 0.000000 0.000000
O O1 0.760466 0.161100 0.419481
O O2 0.774797 0.290033 0.242751
O O3 0.661384 0.348930 0.670618
O O4 0.441282 0.107023 0.553787
O O5 0.388444 0.947991 0.242538
O O6 0.076267 0.948251 0.661603
O O7 0.134451 0.159239 0.458775
O O8 0.319104 0.228018 0.061229
O O9 0.140122 0.959625 0.148268
O O10 0.782688 0.447507 0.140993
O O11 0.559358 0.164786 0.116478
O O12 0.923748 0.266548 0.822514
O O13 0.500000 0.500000 0.500000
O O14 0.178650 0.306286 0.790941
O O15 0.383983 0.557637 0.931736
O O16 0.500000 0.500000 0.000000
#
# Coordination Sequence:
#
# PCOD9098594 Si02
#       8
#     2   2   2   2   2   2   2   1
#     4  10  25  42  68 105 140 186 230 286 367 415
#     4  10  22  42  69 104 141 181 235 297 342 425
#     4  11  26  44  76 104 144 180 244 295 351 421
#     4  11  24  43  73 100 144 182 241 292 352 424
#     4  12  26  46  74 100 141 189 239 292 355 421
#     4  12  28  48  68 105 147 188 229 293 363 431
#     4  11  26  45  72 112 133 184 245 302 347 414
#     4  10  20  36  74 100 134 184 238 282 350 408
#
# _framework density 23.245915
#
# number of rings (size 3 to 8) (size 9 to 14) (size 15 to 20)
#    0.000    1.067    2.667    2.000   13.067    1.600 
#    0.000    1.333    0.000    0.000    0.000    0.000 
#    0.000    0.000    0.000    0.000    0.000    0.000 
#
# Total GULP energy -83668.274116 kJ/mol
# GULP energy per Si atom -5577.884941 kJ/mol
# Density = 2.319301 g / cm^3
# Si number density = 23.245915 Si / 1000 Ang^3
#
#
#
# Elastic Constant Matrix: (Units=GPa)
#
#
# Indices 1 2 3 4 5 6 
#
# 1 59.5980 15.6785 8.3353 14.3101 13.5548 11.1725
# 2 15.6785 135.7516 24.7708 16.2475 7.3484 -2.5953
# 3 8.3353 24.7708 77.1940 23.8495 20.4650 10.4125
# 4 14.3101 16.2475 23.8495 39.8878 0.8583 3.4757
# 5 13.5548 7.3484 20.4650 0.8583 36.7515 1.8659
# 6 11.1725 -2.5953 10.4125 3.4757 1.8659 34.4908
#
#
#
# Elastic Compliance Matrix: (Units=1/GPa)
#
#
# Indices 1 2 3 4 5 6 
#
# 1 0.022487 -0.001951 0.004665 -0.009206 -0.009912 -0.007375
# 2 -0.001951 0.008214 -0.002347 -0.001431 0.000312 0.002086
# 3 0.004665 -0.002347 0.021236 -0.012610 -0.012469 -0.006153
# 4 -0.009206 -0.001431 -0.012610 0.036067 0.009733 0.002520
# 5 -0.009912 0.000312 -0.012469 0.009733 0.037316 0.003999
# 6 -0.007375 0.002086 -0.006153 0.002520 0.003999 0.032927
#
#
# Mechanical properties :
#
#
# Convention : Reuss Voigt Hill
#
# Bulk Modulus (GPa) = 18.98594 41.12363 30.05479
# Shear Modulus (GPa) = 28.56000 37.14330 32.85165
#
# Velocity S-wave (km/s) = 3.50895 4.00164 3.76336
# Velocity P-wave (km/s) = 4.96005 6.25139 5.64278
#
# Compressibility (1/GPa) = 0.05267055
#
# Stress axis : x y z
#
# Youngs Moduli (GPa) = 44.46950 121.73908 47.09095
#
# Poissons Ratio (x) = 0.23751 -0.21967
# Poissons Ratio (y) = 0.08676 0.11052
# Poissons Ratio (z) = -0.20744 0.28573
#
# Static dielectric constant tensor:
#      x y z
#    x 2.316710 -0.169860 -0.001880 
#    y -0.169860 2.054580 -0.106090 
#    z -0.001880 -0.106090 1.880590 
# 
# From -- ./inp_files/262877.got.cif
#   From: 2010.05.17/outbox.cif.g08.bks.cpg/sg2_132_cif.got.tgz:262877.got - 2010.06.03 11:33:40.
