data_PCOD9098309
_publ_section_title
;
Structure prediction by ZEFSAII (Michael W. Deem and Ramdas Pophale) SiO2 
 PCOD9098309
Probable space group: P -1
;
_chemical_formula_sum "Si O2"
_cell_formula_units_Z 15
_cell_length_a 10.918987
_cell_length_b 7.173966
_cell_length_c 9.762391
_cell_angle_alpha 128.867070
_cell_angle_beta 70.726692
_cell_angle_gamma 110.505897
_cell_volume 551.270221
_symmetry_space_group_name_H-M "P -1"
_symmetry_group_IT_number 2
_symmetry_cell_setting 'triclinic'
loop_
_space_group_symop_operation_xyz
x,y,z
-x,-y,-z
loop_
_atom_site_type_symbol
_atom_site_label
_atom_site_fract_x
_atom_site_fract_y
_atom_site_fract_z
Si Si1 0.470268 0.398164 0.182097
Si Si2 0.002731 0.560849 0.345822
Si Si3 0.082367 0.262075 0.788311
Si Si4 0.651070 0.911567 0.413876
Si Si5 0.000000 0.000000 0.000000
Si Si6 0.833057 0.153195 0.964680
Si Si7 0.419763 0.979445 0.200570
Si Si8 0.764441 0.405827 0.527166
O O1 0.559543 0.665190 0.281722
O O2 0.321547 0.439168 0.281924
O O3 0.499970 0.233539 0.225379
O O4 0.506793 0.241235 0.968626
O O5 0.022734 0.745511 0.297412
O O6 0.848247 0.546365 0.436976
O O7 0.028069 0.298198 0.173120
O O8 0.110296 0.650024 0.460988
O O9 0.206180 0.153097 0.661457
O O10 0.990100 0.108148 0.868253
O O11 0.135568 0.552266 0.922760
O O12 0.614144 0.992351 0.616410
O O13 0.666135 0.149941 0.422261
O O14 0.169131 0.976467 0.948981
O O15 0.714860 0.066844 0.864810
#
# Coordination Sequence:
#
# PCOD9098309 Si02
#       8
#     2   2   2   2   1   2   2   2
#     4  11  25  46  64  96 134 180 225 278 323 403
#     4  10  22  41  64 100 127 178 216 276 337 394
#     4  10  21  38  67  95 136 167 223 271 334 397
#     4  12  24  43  67 100 132 181 219 280 329 398
#     4  10  20  36  64  96 136 164 212 272 344 380
#     4  10  20  39  63 101 130 173 215 281 331 395
#     4  11  24  43  72  93 132 178 231 272 328 397
#     4  11  24  43  66  95 140 169 224 274 338 395
#
# _framework density 27.209886999999998
#
# number of rings (size 3 to 8) (size 9 to 14) (size 15 to 20)
#    0.000    1.333    1.333    4.000    0.000    4.800 
#    7.200    0.000    0.000    0.000    0.000    0.000 
#    0.000    0.000    0.000    0.000    0.000    0.000 
#
# Total GULP energy -83729.400890 kJ/mol
# GULP energy per Si atom -5581.960059 kJ/mol
# Density = 2.714796 g / cm^3
# Si number density = 27.209887 Si / 1000 Ang^3
#
#
#
# Elastic Constant Matrix: (Units=GPa)
#
#
# Indices 1 2 3 4 5 6 
#
# 1 110.7667 44.2058 47.3620 0.7755 -23.4835 -0.4859
# 2 44.2058 120.4563 61.0368 11.8736 -8.1615 3.4713
# 3 47.3620 61.0368 137.1820 -9.6526 -42.6852 15.9462
# 4 0.7755 11.8736 -9.6526 53.6622 1.8699 0.4004
# 5 -23.4835 -8.1615 -42.6852 1.8699 49.7193 -3.7888
# 6 -0.4859 3.4713 15.9462 0.4004 -3.7888 35.1548
#
#
#
# Elastic Compliance Matrix: (Units=1/GPa)
#
#
# Indices 1 2 3 4 5 6 
#
# 1 0.011859 -0.003340 -0.001608 0.000134 0.003791 0.001630
# 2 -0.003340 0.012798 -0.006420 -0.003781 -0.004760 0.001132
# 3 -0.001608 -0.006420 0.014768 0.003777 0.010341 -0.005015
# 4 0.000134 -0.003781 0.003777 0.020096 0.001825 -0.001370
# 5 0.003791 -0.004760 0.010341 0.001825 0.029857 -0.000971
# 6 0.001630 0.001132 -0.005015 -0.001370 -0.000971 0.030542
#
#
# Mechanical properties :
#
#
# Convention : Reuss Voigt Hill
#
# Bulk Modulus (GPa) = 59.92556 74.84603 67.38579
# Shear Modulus (GPa) = 33.73375 42.09395 37.91385
#
# Velocity S-wave (km/s) = 3.52484 3.93747 3.73686
# Velocity P-wave (km/s) = 6.21589 6.94537 6.59073
#
# Compressibility (1/GPa) = 0.01668737
#
# Stress axis : x y z
#
# Youngs Moduli (GPa) = 84.32560 78.13610 67.71573
#
# Poissons Ratio (x) = 0.26100 0.10892
# Poissons Ratio (y) = 0.28167 0.43472
# Poissons Ratio (z) = 0.13563 0.50162
#
# Static dielectric constant tensor:
#      x y z
#    x 2.199850 -0.023790 0.043950 
#    y -0.023790 2.302090 -0.145450 
#    z 0.043950 -0.145450 2.270040 
# 
# From -- ./inp_files/418522.got.cif
#   From: 2010.05.17/outbox.cif.g08.bks.cpg/sg2_210_cif.got.tgz:418522.got - 2010.06.03 11:33:40.
