data_PCOD9098072
_publ_section_title
;
Structure prediction by ZEFSAII (Michael W. Deem and Ramdas Pophale) SiO2 
 PCOD9098072
Probable space group: P -1
;
_chemical_formula_sum "Si O2"
_cell_formula_units_Z 16
_cell_length_a 9.179421
_cell_length_b 17.126776
_cell_length_c 12.326106
_cell_angle_alpha 59.765528
_cell_angle_beta 34.484099
_cell_angle_gamma 39.424288
_cell_volume 647.192516
_symmetry_space_group_name_H-M "P -1"
_symmetry_group_IT_number 2
_symmetry_cell_setting 'triclinic'
loop_
_space_group_symop_operation_xyz
x,y,z
-x,-y,-z
loop_
_atom_site_type_symbol
_atom_site_label
_atom_site_fract_x
_atom_site_fract_y
_atom_site_fract_z
Si Si1 0.722364 0.831905 0.025200
Si Si2 0.064359 0.865322 0.428522
Si Si3 0.348014 0.345807 0.612356
Si Si4 0.935796 0.457790 0.177414
Si Si5 0.602866 0.021300 0.101037
Si Si6 0.803250 0.361270 0.842171
Si Si7 0.262173 0.813347 0.097274
Si Si8 0.530336 0.453074 0.281043
O O1 0.305693 0.897663 0.261645
O O2 0.843260 0.879140 0.000098
O O3 0.672841 0.886176 0.897680
O O4 0.045354 0.672620 0.936745
O O5 0.311656 0.745804 0.447216
O O6 0.096246 0.832096 0.305178
O O7 0.643464 0.956819 0.665313
O O8 0.059705 0.478906 0.767008
O O9 0.404877 0.386162 0.438831
O O10 0.194098 0.289352 0.708617
O O11 0.571175 0.495138 0.340742
O O12 0.000000 0.500000 0.000000
O O13 0.286349 0.302644 0.085254
O O14 0.816129 0.060890 0.965904
O O15 0.801386 0.253891 0.898354
O O16 0.730430 0.424361 0.724447
O O17 0.500000 0.500000 0.000000
#
# Coordination Sequence:
#
# PCOD9098072 Si02
#       8
#     2   2   2   2   2   2   2   2
#     4  10  20  36  63  92 124 149 199 261 301 345
#     4  11  19  39  65  92 121 155 200 250 305 350
#     4  12  23  36  59  91 124 163 198 242 299 370
#     4  12  18  36  57  85 120 157 195 240 300 356
#     4  10  21  37  61  97 115 155 204 253 303 349
#     4  12  24  40  58  85 126 166 197 241 305 362
#     4  11  22  38  62  87 127 157 198 250 299 360
#     4  12  22  39  59  93 121 156 203 249 300 361
#
# _framework density 24.722166000000001
#
# number of rings (size 3 to 8) (size 9 to 14) (size 15 to 20)
#    0.000    0.750    7.500    1.875    0.000    1.000 
#    2.250    0.000    0.000    3.750    0.000    0.000 
#    0.000    0.000    0.000    0.000    0.000    0.000 
#
# Total GULP energy -89290.321893 kJ/mol
# GULP energy per Si atom -5580.645118 kJ/mol
# Density = 2.466590 g / cm^3
# Si number density = 24.722166 Si / 1000 Ang^3
#
#
#
# Elastic Constant Matrix: (Units=GPa)
#
#
# Indices 1 2 3 4 5 6 
#
# 1 133.4517 47.1384 34.3524 -3.1476 14.1129 32.8041
# 2 47.1384 101.2348 24.7848 -10.7020 4.7123 43.9610
# 3 34.3524 24.7848 96.1934 -15.0964 17.7256 21.7679
# 4 -3.1476 -10.7020 -15.0964 27.6698 3.9822 -2.5166
# 5 14.1129 4.7123 17.7256 3.9822 23.2471 -10.1042
# 6 32.8041 43.9610 21.7679 -2.5166 -10.1042 60.2760
#
#
#
# Elastic Compliance Matrix: (Units=1/GPa)
#
#
# Indices 1 2 3 4 5 6 
#
# 1 0.010528 -0.001904 -0.000305 0.000991 -0.008374 -0.005593
# 2 -0.001904 0.018154 0.003331 0.009143 -0.013257 -0.015247
# 3 -0.000305 0.003331 0.018630 0.013521 -0.022298 -0.012165
# 4 0.000991 0.009143 0.013521 0.049815 -0.027664 -0.014648
# 5 -0.008374 -0.013257 -0.022298 -0.027664 0.088130 0.035897
# 6 -0.005593 -0.015247 -0.012165 -0.014648 0.035897 0.040554
#
#
# Mechanical properties :
#
#
# Convention : Reuss Voigt Hill
#
# Bulk Modulus (GPa) = 20.17947 60.38123 40.28035
# Shear Modulus (GPa) = 20.82578 37.21221 29.01899
#
# Velocity S-wave (km/s) = 2.90555 3.88392 3.42980
# Velocity P-wave (km/s) = 4.40869 6.67758 5.65803
#
# Compressibility (1/GPa) = 0.04955532
#
# Stress axis : x y z
#
# Youngs Moduli (GPa) = 94.98231 55.08431 53.67669
#
# Poissons Ratio (x) = 0.10489 0.01636
# Poissons Ratio (y) = 0.18087 -0.17878
# Poissons Ratio (z) = 0.02896 -0.18346
#
# Static dielectric constant tensor:
#      x y z
#    x 1.983140 0.043340 -0.042490 
#    y 0.043340 1.987840 -0.040990 
#    z -0.042490 -0.040990 2.131410 
# 
# From -- ./inp_files/398874.got.cif
#   From: 2010.05.17/outbox.cif.g08.bks.cpg/sg2_200_cif.got.tgz:398874.got - 2010.06.03 11:33:40.
