data_PCOD9098955
_publ_section_title
;
Structure prediction by ZEFSAII (Michael W. Deem and Ramdas Pophale) SiO2 
 PCOD9098955
Probable space group: P -1
;
_chemical_formula_sum "Si O2"
_cell_formula_units_Z 14
_cell_length_a 16.415740
_cell_length_b 7.049837
_cell_length_c 14.099235
_cell_angle_alpha 80.012507
_cell_angle_beta 155.291583
_cell_angle_gamma 113.126150
_cell_volume 551.278351
_symmetry_space_group_name_H-M "P -1"
_symmetry_group_IT_number 2
_symmetry_cell_setting 'triclinic'
loop_
_space_group_symop_operation_xyz
x,y,z
-x,-y,-z
loop_
_atom_site_type_symbol
_atom_site_label
_atom_site_fract_x
_atom_site_fract_y
_atom_site_fract_z
Si Si1 0.614649 0.758302 0.646106
Si Si2 0.191300 0.135260 0.955123
Si Si3 0.773490 0.140746 0.237340
Si Si4 0.264988 0.318814 0.827901
Si Si5 0.773655 0.295549 0.021453
Si Si6 0.851709 0.451666 0.752090
Si Si7 0.727616 0.832952 0.560931
O O1 0.500000 0.500000 0.500000
O O2 0.405284 0.766715 0.469517
O O3 0.751673 0.921393 0.687246
O O4 0.761258 0.794906 0.891157
O O5 0.321044 0.339509 0.997708
O O6 0.909711 0.012049 0.659452
O O7 0.246088 0.940316 0.012751
O O8 0.019346 0.291251 0.545190
O O9 0.786430 0.932555 0.228256
O O10 0.795329 0.294709 0.157177
O O11 0.500000 0.000000 0.000000
O O12 0.500000 0.500000 0.000000
O O13 0.535590 0.264541 0.739376
O O14 0.995705 0.515267 0.181395
O O15 0.795158 0.645428 0.654398
O O16 0.000000 0.500000 0.000000
#
# Coordination Sequence:
#
# PCOD9098955 Si02
#       7
#     2   2   2   2   2   2   2
#     4  10  21  38  59  88 123 161 207 252 307 373
#     4  10  22  40  60  88 127 163 207 262 318 378
#     4  10  22  43  68  95 131 171 221 276 329 393
#     4  10  23  43  68  98 130 172 222 274 335 389
#     4  10  21  38  62  89 122 170 205 253 326 379
#     4  10  20  37  58  87 125 156 206 253 302 372
#     4  10  20  38  60  87 123 163 207 250 312 379
#
# _framework density 25.395517999999999
#
# number of rings (size 3 to 8) (size 9 to 14) (size 15 to 20)
#    0.000    2.000    1.429    1.286    2.000    2.286 
#   10.286    0.000    0.000    0.000    0.000    0.000 
#    0.000    0.000    0.000    0.000    0.000    0.000 
#
# Total GULP energy -78166.449054 kJ/mol
# GULP energy per Si atom -5583.317790 kJ/mol
# Density = 2.533772 g / cm^3
# Si number density = 25.395518 Si / 1000 Ang^3
#
#
#
# Elastic Constant Matrix: (Units=GPa)
#
#
# Indices 1 2 3 4 5 6 
#
# 1 156.1769 41.2327 85.2511 -6.2220 10.0459 42.9703
# 2 41.2327 100.4110 26.7980 -21.5342 1.8200 -0.3247
# 3 85.2511 26.7980 166.2766 -27.0365 22.3837 19.9629
# 4 -6.2220 -21.5342 -27.0365 35.3976 0.9216 5.2198
# 5 10.0459 1.8200 22.3837 0.9216 54.2725 7.7686
# 6 42.9703 -0.3247 19.9629 5.2198 7.7686 61.8822
#
#
#
# Elastic Compliance Matrix: (Units=1/GPa)
#
#
# Indices 1 2 3 4 5 6 
#
# 1 0.012120 -0.004366 -0.005508 -0.003806 0.001168 -0.006488
# 2 -0.004366 0.013127 0.001223 0.007856 -0.000573 0.002115
# 3 -0.005508 0.001223 0.010325 0.007710 -0.003451 0.000283
# 4 -0.003806 0.007856 0.007710 0.038725 -0.003011 -0.002692
# 5 0.001168 -0.000573 -0.003451 -0.003011 0.019983 -0.001955
# 6 -0.006488 0.002115 0.000283 -0.002692 -0.001955 0.021057
#
#
# Mechanical properties :
#
#
# Convention : Reuss Voigt Hill
#
# Bulk Modulus (GPa) = 54.72676 81.04755 67.88715
# Shear Modulus (GPa) = 36.04145 48.28266 42.16205
#
# Velocity S-wave (km/s) = 3.77132 4.36504 4.07900
# Velocity P-wave (km/s) = 6.36870 7.57550 6.99816
#
# Compressibility (1/GPa) = 0.01827260
#
# Stress axis : x y z
#
# Youngs Moduli (GPa) = 82.50599 76.17717 96.85125
#
# Poissons Ratio (x) = 0.33255 0.53343
# Poissons Ratio (y) = 0.36018 -0.11846
# Poissons Ratio (z) = 0.45442 -0.09317
#
# Static dielectric constant tensor:
#      x y z
#    x 2.040050 -0.123490 0.090090 
#    y -0.123490 0.922880 0.898600 
#    z 0.090090 0.898600 1.442240 
# 
# From -- ./inp_files/537372.got.cif
#   From: 2010.05.17/outbox.cif.g08.bks.cpg/sg2_269_cif.got.tgz:537372.got - 2010.06.03 11:33:40.
