data_PCOD9098606
_publ_section_title
;
Structure prediction by ZEFSAII (Michael W. Deem and Ramdas Pophale) SiO2 
 PCOD9098606
Probable space group: P -1
;
_chemical_formula_sum "Si O2"
_cell_formula_units_Z 16
_cell_length_a 16.498994
_cell_length_b 12.697486
_cell_length_c 5.338641
_cell_angle_alpha 93.995596
_cell_angle_beta 65.920568
_cell_angle_gamma 120.488816
_cell_volume 866.400477
_symmetry_space_group_name_H-M "P -1"
_symmetry_group_IT_number 2
_symmetry_cell_setting 'triclinic'
loop_
_space_group_symop_operation_xyz
x,y,z
-x,-y,-z
loop_
_atom_site_type_symbol
_atom_site_label
_atom_site_fract_x
_atom_site_fract_y
_atom_site_fract_z
Si Si1 0.034361 0.409908 0.321649
Si Si2 0.238767 0.648563 0.055385
Si Si3 0.461579 0.838612 0.765550
Si Si4 0.786570 0.025384 0.176233
Si Si5 0.008199 0.829871 0.377121
Si Si6 0.903507 0.946367 0.303165
Si Si7 0.819214 0.260710 0.352564
Si Si8 0.586000 0.942196 0.117803
O O1 0.154357 0.502142 0.112944
O O2 0.000000 0.500000 0.500000
O O3 0.021587 0.301945 0.500360
O O4 0.945324 0.337031 0.214195
O O5 0.217101 0.696069 0.352148
O O6 0.361167 0.701362 0.899382
O O7 0.215423 0.708455 0.856946
O O8 0.512236 0.863021 0.431709
O O9 0.419635 0.933421 0.861681
O O10 0.542894 0.874809 0.895926
O O11 0.768555 0.112769 0.399313
O O12 0.802264 0.924984 0.282792
O O13 0.699842 0.974674 0.063641
O O14 0.899727 0.122318 0.932706
O O15 0.908936 0.835775 0.408389
O O16 0.062496 0.940072 0.531468
O O17 0.000000 0.000000 0.000000
#
# Coordination Sequence:
#
# PCOD9098606 Si02
#       8
#     2   2   2   2   2   2   2   2
#     4  10  21  34  54  83 112 153 183 219 265 342
#     4  11  22  36  51  74 116 153 183 223 274 320
#     4  10  21  35  47  76 107 147 186 232 268 325
#     4  11  20  32  57  79 107 149 180 232 281 328
#     4  10  20  37  53  81 117 142 184 225 274 336
#     4   9  20  35  55  78 111 144 182 231 277 324
#     4  11  21  33  52  80 112 146 189 217 262 341
#     4  10  22  32  54  73 106 143 190 228 280 318
#
# _framework density 18.467210999999999
#
# number of rings (size 3 to 8) (size 9 to 14) (size 15 to 20)
#    0.000    1.750    2.500    2.625    5.250    1.000 
#    0.000    0.000    0.000    0.000    0.000    1.750 
#    0.000    0.000    0.000    0.000    0.000    0.000 
#
# Total GULP energy -89247.430197 kJ/mol
# GULP energy per Si atom -5577.964387 kJ/mol
# Density = 1.842518 g / cm^3
# Si number density = 18.467211 Si / 1000 Ang^3
#
#
#
# Elastic Constant Matrix: (Units=GPa)
#
#
# Indices 1 2 3 4 5 6 
#
# 1 128.9561 42.8590 0.0153 -11.1772 21.8019 3.2103
# 2 42.8590 62.6812 16.9270 -10.1040 1.6989 3.4320
# 3 0.0153 16.9270 48.8511 2.5855 5.3469 3.8911
# 4 -11.1772 -10.1040 2.5855 24.1261 7.3190 -1.4493
# 5 21.8019 1.6989 5.3469 7.3190 23.1043 -2.5131
# 6 3.2103 3.4320 3.8911 -1.4493 -2.5131 35.4790
#
#
#
# Elastic Compliance Matrix: (Units=1/GPa)
#
#
# Indices 1 2 3 4 5 6 
#
# 1 0.014289 -0.009399 0.004809 0.007012 -0.016321 -0.001781
# 2 -0.009399 0.025703 -0.010036 0.005166 0.007689 0.000220
# 3 0.004809 -0.010036 0.025314 -0.002034 -0.009339 -0.002985
# 4 0.007012 0.005166 -0.002034 0.054263 -0.023757 -0.000377
# 5 -0.016321 0.007689 -0.009339 -0.023757 0.068417 0.005633
# 6 -0.001781 0.000220 -0.002985 -0.000377 0.005633 0.029036
#
#
# Mechanical properties :
#
#
# Convention : Reuss Voigt Hill
#
# Bulk Modulus (GPa) = 27.73526 40.01010 33.87268
# Shear Modulus (GPa) = 19.35798 28.58769 23.97284
#
# Velocity S-wave (km/s) = 3.24116 3.93876 3.60687
# Velocity P-wave (km/s) = 5.39055 6.51135 5.97728
#
# Compressibility (1/GPa) = 0.03605519
#
# Stress axis : x y z
#
# Youngs Moduli (GPa) = 69.98332 38.90632 39.50409
#
# Poissons Ratio (x) = 0.36568 -0.18999
# Poissons Ratio (y) = 0.65776 0.39645
# Poissons Ratio (z) = -0.33657 0.39045
#
# Static dielectric constant tensor:
#      x y z
#    x 1.712520 -0.030060 -0.016550 
#    y -0.030060 1.700780 0.029480 
#    z -0.016550 0.029480 1.718250 
# 
# From -- ./inp_files/93619.got.cif
#   From: 2010.05.17/outbox.cif.g08.bks.cpg/sg2_47_cif.got.tgz:93619.got - 2010.06.03 11:33:40.
