data_PCOD9098231
_publ_section_title
;
Structure prediction by ZEFSAII (Michael W. Deem and Ramdas Pophale) SiO2 
 PCOD9098231
Probable space group: P -1
;
_chemical_formula_sum "Si O2"
_cell_formula_units_Z 16
_cell_length_a 8.976810
_cell_length_b 8.848498
_cell_length_c 14.610674
_cell_angle_alpha 65.735261
_cell_angle_beta 35.945467
_cell_angle_gamma 61.199351
_cell_volume 596.492085
_symmetry_space_group_name_H-M "P -1"
_symmetry_group_IT_number 2
_symmetry_cell_setting 'triclinic'
loop_
_space_group_symop_operation_xyz
x,y,z
-x,-y,-z
loop_
_atom_site_type_symbol
_atom_site_label
_atom_site_fract_x
_atom_site_fract_y
_atom_site_fract_z
Si Si1 0.224974 0.854289 0.693145
Si Si2 0.286849 0.408457 0.671162
Si Si3 0.782290 0.154536 0.517107
Si Si4 0.337140 0.108975 0.968074
Si Si5 0.962352 0.681516 0.519225
Si Si6 0.251176 0.444318 0.022435
Si Si7 0.201973 0.227715 0.599810
Si Si8 0.513354 0.244324 0.126969
O O1 0.155729 0.850839 0.619868
O O2 0.525686 0.739059 0.579741
O O3 0.977278 0.839844 0.875192
O O4 0.259399 0.039337 0.659378
O O5 0.500000 0.500000 0.500000
O O6 0.462982 0.217562 0.662291
O O7 0.102465 0.368409 0.690911
O O8 0.070097 0.512006 0.823926
O O9 0.826525 0.312464 0.513220
O O10 0.000000 0.000000 0.500000
O O11 0.375311 0.303933 0.914662
O O12 0.500000 0.000000 0.000000
O O13 0.388511 0.957641 0.902487
O O14 0.974669 0.786123 0.395150
O O15 0.692496 0.750698 0.690641
O O16 0.000000 0.500000 0.500000
O O17 0.371988 0.341720 0.081215
O O18 0.317296 0.629399 0.949635
#
# Coordination Sequence:
#
# PCOD9098231 Si02
#       8
#     2   2   2   2   2   2   2   2
#     4  10  20  39  64  92 123 165 219 266 324 395
#     4  11  21  38  69  97 133 176 223 277 335 402
#     4  11  22  40  64 101 134 167 218 285 334 398
#     4  10  20  36  64  91 121 172 224 264 320 405
#     4  12  24  41  63  96 134 167 212 278 342 394
#     4  10  20  39  64  94 130 176 226 272 328 405
#     4  10  21  36  62  92 126 165 210 271 330 385
#     4  10  22  40  62  95 132 173 225 274 334 400
#
# _framework density 26.823492000000002
#
# number of rings (size 3 to 8) (size 9 to 14) (size 15 to 20)
#    0.000    1.500    1.250    6.000    0.000    2.000 
#    2.250    0.625    2.750    3.750    0.000    0.000 
#    0.000    0.000    0.000    0.000    0.000    0.000 
#
# Total GULP energy -89160.321078 kJ/mol
# GULP energy per Si atom -5572.520067 kJ/mol
# Density = 2.676244 g / cm^3
# Si number density = 26.823492 Si / 1000 Ang^3
#
#
#
# Elastic Constant Matrix: (Units=GPa)
#
#
# Indices 1 2 3 4 5 6 
#
# 1 118.5992 63.7506 27.2400 14.2031 5.3737 23.0142
# 2 63.7506 172.6414 45.4863 34.9318 19.1119 34.7139
# 3 27.2400 45.4863 88.6220 29.0395 -8.7236 15.2701
# 4 14.2031 34.9318 29.0395 39.3424 16.8221 9.6516
# 5 5.3737 19.1119 -8.7236 16.8221 30.2582 11.7181
# 6 23.0142 34.7139 15.2701 9.6516 11.7181 59.5359
#
#
#
# Elastic Compliance Matrix: (Units=1/GPa)
#
#
# Indices 1 2 3 4 5 6 
#
# 1 0.010888 -0.003378 -0.001367 0.000423 0.000356 -0.002027
# 2 -0.003378 0.009160 -0.002678 -0.002906 -0.003494 -0.002190
# 3 -0.001367 -0.002678 0.024273 -0.024225 0.024336 -0.004999
# 4 0.000423 -0.002906 -0.024225 0.062294 -0.042158 0.005943
# 5 0.000356 -0.003494 0.024336 -0.042158 0.070019 -0.011289
# 6 -0.002027 -0.002190 -0.004999 0.005943 -0.011289 0.021398
#
#
# Mechanical properties :
#
#
# Convention : Reuss Voigt Hill
#
# Bulk Modulus (GPa) = 33.92579 72.53516 53.23048
# Shear Modulus (GPa) = 22.45145 42.05303 32.25224
#
# Velocity S-wave (km/s) = 2.89625 3.96380 3.47131
# Velocity P-wave (km/s) = 4.88463 6.93176 5.99620
#
# Compressibility (1/GPa) = 0.02947610
#
# Stress axis : x y z
#
# Youngs Moduli (GPa) = 91.84413 109.16710 41.19753
#
# Poissons Ratio (x) = 0.36872 0.05633
# Poissons Ratio (y) = 0.31021 0.11032
# Poissons Ratio (z) = 0.12558 0.29233
#
# Static dielectric constant tensor:
#      x y z
#    x 2.351550 -0.236960 -0.113930 
#    y -0.236960 2.510880 0.033170 
#    z -0.113930 0.033170 2.232990 
# 
# From -- ./inp_files/494789.got.cif
#   From: 2010.05.17/outbox.cif.g08.bks.cpg/sg2_248_cif.got.tgz:494789.got - 2010.06.03 11:33:40.
