data_PCOD9098191
_publ_section_title
;
Structure prediction by ZEFSAII (Michael W. Deem and Ramdas Pophale) SiO2 
 PCOD9098191
Probable space group: P -1
;
_chemical_formula_sum "Si O2"
_cell_formula_units_Z 16
_cell_length_a 14.268624
_cell_length_b 10.251396
_cell_length_c 8.399256
_cell_angle_alpha 102.864411
_cell_angle_beta 140.896083
_cell_angle_gamma 89.208765
_cell_volume 729.773759
_symmetry_space_group_name_H-M "P -1"
_symmetry_group_IT_number 2
_symmetry_cell_setting 'triclinic'
loop_
_space_group_symop_operation_xyz
x,y,z
-x,-y,-z
loop_
_atom_site_type_symbol
_atom_site_label
_atom_site_fract_x
_atom_site_fract_y
_atom_site_fract_z
Si Si1 0.114917 0.313829 0.073353
Si Si2 0.773505 0.880869 0.580507
Si Si3 0.965388 0.957159 0.260728
Si Si4 0.616637 0.641824 0.130408
Si Si5 0.897629 0.535735 0.587478
Si Si6 0.780580 0.339745 0.125973
Si Si7 0.362386 0.456330 0.186938
Si Si8 0.316166 0.964859 0.223360
O O1 0.195174 0.223707 0.271578
O O2 0.084796 0.424160 0.192838
O O3 0.217238 0.396165 0.089680
O O4 0.002713 0.188395 0.793208
O O5 0.921424 0.931437 0.675184
O O6 0.625423 0.787266 0.266749
O O7 0.745145 0.011669 0.673944
O O8 0.000000 0.000000 0.500000
O O9 0.785106 0.952577 0.991880
O O10 0.784953 0.619635 0.383047
O O11 0.500000 0.500000 0.000000
O O12 0.603456 0.649773 0.926354
O O13 0.817500 0.381830 0.371448
O O14 0.061779 0.589856 0.738446
O O15 0.659449 0.416180 0.912991
O O16 0.732058 0.183359 0.964557
O O17 0.500000 0.500000 0.500000
O O18 0.500000 0.000000 0.500000
#
# Coordination Sequence:
#
# PCOD9098191 Si02
#       8
#     2   2   2   2   2   2   2   2
#     4  10  20  37  64  92 123 162 222 260 321 375
#     4  10  21  41  67  92 125 174 219 261 325 399
#     4  11  23  42  71  96 128 175 227 273 316 401
#     4  10  20  36  64  87 121 159 215 263 312 381
#     4   9  19  37  61  85 118 162 212 263 310 381
#     4  10  22  39  61  90 130 165 215 264 329 378
#     4  11  23  36  59  92 126 162 208 272 313 380
#     4  11  24  40  67  96 136 176 213 269 335 404
#
# _framework density 21.924603999999999
#
# number of rings (size 3 to 8) (size 9 to 14) (size 15 to 20)
#    0.000    1.750    0.000    6.000    7.000    2.500 
#    0.000    1.875    0.000    0.000    0.000    0.000 
#    0.000    0.000    0.000    0.000    0.000    0.000 
#
# Total GULP energy -89088.049051 kJ/mol
# GULP energy per Si atom -5568.003066 kJ/mol
# Density = 2.187470 g / cm^3
# Si number density = 21.924604 Si / 1000 Ang^3
#
#
#
# Elastic Constant Matrix: (Units=GPa)
#
#
# Indices 1 2 3 4 5 6 
#
# 1 122.1604 28.7804 54.4316 10.7697 -39.7025 -6.5258
# 2 28.7804 61.0499 39.9920 13.6023 -17.5260 -9.3774
# 3 54.4316 39.9920 151.2255 17.7921 -36.3834 -19.5427
# 4 10.7697 13.6023 17.7921 42.6318 -20.2984 -10.6713
# 5 -39.7025 -17.5260 -36.3834 -20.2984 57.8209 9.7431
# 6 -6.5258 -9.3774 -19.5427 -10.6713 9.7431 23.8547
#
#
#
# Elastic Compliance Matrix: (Units=1/GPa)
#
#
# Indices 1 2 3 4 5 6 
#
# 1 0.011804 -0.002751 -0.002336 0.001599 0.006662 -0.001771
# 2 -0.002751 0.021551 -0.003801 -0.003666 0.000500 0.002762
# 3 -0.002336 -0.003801 0.009683 0.000207 0.002596 0.004832
# 4 0.001599 -0.003666 0.000207 0.030914 0.009429 0.009144
# 5 0.006662 0.000500 0.002596 0.009429 0.027443 -0.002846
# 6 -0.001771 0.002762 0.004832 0.009144 -0.002846 0.051733
#
#
# Mechanical properties :
#
#
# Convention : Reuss Voigt Hill
#
# Bulk Modulus (GPa) = 39.58193 64.53820 52.06006
# Shear Modulus (GPa) = 27.88249 38.94361 33.41305
#
# Velocity S-wave (km/s) = 3.57002 4.21913 3.90808
# Velocity P-wave (km/s) = 5.92336 7.29624 6.64535
#
# Compressibility (1/GPa) = 0.02526406
#
# Stress axis : x y z
#
# Youngs Moduli (GPa) = 84.71588 46.40173 103.27380
#
# Poissons Ratio (x) = 0.12764 0.24121
# Poissons Ratio (y) = 0.23303 0.39252
# Poissons Ratio (z) = 0.19786 0.17636
#
# Static dielectric constant tensor:
#      x y z
#    x 1.775490 -0.139700 -0.061800 
#    y -0.139700 1.863750 0.034570 
#    z -0.061800 0.034570 1.847270 
# 
# From -- ./inp_files/308225.got.cif
#   From: 2010.05.17/outbox.cif.g08.bks.cpg/sg2_155_cif.got.tgz:308225.got - 2010.06.03 11:33:40.
