data_PCOD9098939
_publ_section_title
;
Structure prediction by ZEFSAII (Michael W. Deem and Ramdas Pophale) SiO2 
 PCOD9098939
Probable space group: P -1
;
_chemical_formula_sum "Si O2"
_cell_formula_units_Z 14
_cell_length_a 7.486503
_cell_length_b 13.630178
_cell_length_c 8.253536
_cell_angle_alpha 61.536654
_cell_angle_beta 93.058601
_cell_angle_gamma 100.638034
_cell_volume 727.095950
_symmetry_space_group_name_H-M "P -1"
_symmetry_group_IT_number 2
_symmetry_cell_setting 'triclinic'
loop_
_space_group_symop_operation_xyz
x,y,z
-x,-y,-z
loop_
_atom_site_type_symbol
_atom_site_label
_atom_site_fract_x
_atom_site_fract_y
_atom_site_fract_z
Si Si1 0.594244 0.122378 0.973786
Si Si2 0.826123 0.971871 0.631416
Si Si3 0.995230 0.155337 0.988888
Si Si4 0.541697 0.767328 0.808524
Si Si5 0.154980 0.376222 0.997054
Si Si6 0.177248 0.811072 0.355865
Si Si7 0.834382 0.365662 0.250495
O O1 0.660006 0.193636 0.758961
O O2 0.788144 0.112833 0.070427
O O3 0.492175 0.184743 0.051258
O O4 0.500000 0.000000 0.000000
O O5 0.660136 0.876165 0.636456
O O6 0.667608 0.671730 0.900508
O O7 0.769864 0.088959 0.590126
O O8 0.000000 0.000000 0.500000
O O9 0.977545 0.150589 0.797519
O O10 0.113898 0.085470 0.155252
O O11 0.061416 0.286804 0.929753
O O12 0.348839 0.711357 0.768468
O O13 0.005104 0.366236 0.139676
O O14 0.194857 0.505325 0.839131
O O15 0.121859 0.693336 0.535502
#
# Coordination Sequence:
#
# PCOD9098939 Si02
#       7
#     2   2   2   2   2   2   2
#     4  10  20  37  58  86 120 161 193 241 307 357
#     4  11  22  36  61  92 119 156 202 250 304 365
#     4   9  20  38  56  83 120 157 196 245 294 356
#     4  11  21  40  62  87 123 157 202 247 304 360
#     4  10  22  40  65  86 121 161 204 252 300 348
#     4  10  21  35  59  86 122 156 201 243 305 357
#     4  11  22  40  62  92 120 159 204 251 301 355
#
# _framework density 19.254678999999999
#
# number of rings (size 3 to 8) (size 9 to 14) (size 15 to 20)
#    0.857    0.857    2.857    2.571    0.000    2.286 
#    0.000    3.571    0.000    0.000    0.000    0.000 
#    0.000    0.000    0.000    0.000    0.000    0.000 
#
# Total GULP energy -77987.974933 kJ/mol
# GULP energy per Si atom -5570.569638 kJ/mol
# Density = 1.921085 g / cm^3
# Si number density = 19.254679 Si / 1000 Ang^3
#
#
#
# Elastic Constant Matrix: (Units=GPa)
#
#
# Indices 1 2 3 4 5 6 
#
# 1 84.5084 18.3395 16.9280 -4.4358 1.4313 5.9244
# 2 18.3395 93.6198 29.8477 -13.9427 -2.6854 5.4995
# 3 16.9280 29.8477 78.2993 -19.1243 -8.3824 12.4550
# 4 -4.4358 -13.9427 -19.1243 22.0831 1.7229 -0.8602
# 5 1.4313 -2.6854 -8.3824 1.7229 29.0998 -2.2517
# 6 5.9244 5.4995 12.4550 -0.8602 -2.2517 27.8605
#
#
#
# Elastic Compliance Matrix: (Units=1/GPa)
#
#
# Indices 1 2 3 4 5 6 
#
# 1 0.012761 -0.001846 -0.002043 -0.000316 -0.001489 -0.001566
# 2 -0.001846 0.012831 -0.003194 0.004940 0.000019 -0.000558
# 3 -0.002043 -0.003194 0.019291 0.013700 0.004025 -0.006811
# 4 -0.000316 0.004940 0.013700 0.059967 0.000470 -0.005143
# 5 -0.001489 0.000019 0.004025 0.000470 0.035680 0.001412
# 6 -0.001566 -0.000558 -0.006811 -0.005143 0.001412 0.039336
#
#
# Mechanical properties :
#
#
# Convention : Reuss Voigt Hill
#
# Bulk Modulus (GPa) = 32.55583 42.96201 37.75892
# Shear Modulus (GPa) = 24.47711 28.56284 26.51997
#
# Velocity S-wave (km/s) = 3.56930 3.85570 3.71526
# Velocity P-wave (km/s) = 5.82505 6.49483 6.16904
#
# Compressibility (1/GPa) = 0.03071647
#
# Stress axis : x y z
#
# Youngs Moduli (GPa) = 78.36116 77.93779 51.83692
#
# Poissons Ratio (x) = 0.14391 0.10588
# Poissons Ratio (y) = 0.14469 0.16559
# Poissons Ratio (z) = 0.16006 0.24897
#
# Static dielectric constant tensor:
#      x y z
#    x 1.723940 0.007370 0.013150 
#    y 0.007370 1.678940 0.004780 
#    z 0.013150 0.004780 1.678410 
# 
# From -- ./inp_files/167964.got.cif
#   From: 2010.05.17/outbox.cif.g08.bks.cpg/sg2_84_cif.got.tgz:167964.got - 2010.06.03 11:33:40.
