data_PCOD9098751
_publ_section_title
;
Structure prediction by ZEFSAII (Michael W. Deem and Ramdas Pophale) SiO2 
 PCOD9098751
Probable space group: P -1
;
_chemical_formula_sum "Si O2"
_cell_formula_units_Z 14
_cell_length_a 11.817115
_cell_length_b 18.210547
_cell_length_c 7.164883
_cell_angle_alpha 98.256359
_cell_angle_beta 77.702082
_cell_angle_gamma 39.536690
_cell_volume 833.255190
_symmetry_space_group_name_H-M "P -1"
_symmetry_group_IT_number 2
_symmetry_cell_setting 'triclinic'
loop_
_space_group_symop_operation_xyz
x,y,z
-x,-y,-z
loop_
_atom_site_type_symbol
_atom_site_label
_atom_site_fract_x
_atom_site_fract_y
_atom_site_fract_z
Si Si1 0.117417 0.825594 0.484239
Si Si2 0.100609 0.543409 0.117992
Si Si3 0.313887 0.316336 0.681492
Si Si4 0.395925 0.340828 0.260363
Si Si5 0.683108 0.134739 0.756047
Si Si6 0.628503 0.362704 0.321197
Si Si7 0.253559 0.630156 0.088338
O O1 0.238228 0.827569 0.335866
O O2 0.232616 0.747900 0.608469
O O3 0.138675 0.741145 0.321033
O O4 0.883234 0.976984 0.649014
O O5 0.194695 0.458069 0.243347
O O6 0.169359 0.591769 0.102779
O O7 0.856548 0.657821 0.239558
O O8 0.207746 0.442496 0.872343
O O9 0.359330 0.315293 0.453257
O O10 0.520581 0.190627 0.680983
O O11 0.478142 0.378785 0.300812
O O12 0.564946 0.212465 0.019580
O O13 0.500000 0.500000 0.500000
O O14 0.763873 0.322581 0.089808
O O15 0.500000 0.500000 0.000000
#
# Coordination Sequence:
#
# PCOD9098751 Si02
#       7
#     2   2   2   2   2   2   2
#     4  11  22  37  54  84 113 145 186 227 275 326
#     4  10  21  35  57  84 112 144 183 227 277 326
#     4  10  20  37  57  81 111 147 185 227 271 324
#     4  11  19  34  56  84 111 143 183 229 275 325
#     4  10  22  37  56  79 114 148 186 228 267 329
#     4  12  21  31  57  84 112 140 175 229 283 324
#     4  12  20  36  56  82 114 141 177 230 282 328
#
# _framework density 16.801576000000001
#
# number of rings (size 3 to 8) (size 9 to 14) (size 15 to 20)
#    0.000    1.143    5.714    2.143    0.000    1.714 
#    0.000    0.714    0.000    1.714    0.000    0.000 
#    0.000    0.000    0.000    0.000    0.000    0.000 
#
# Total GULP energy -78188.489316 kJ/mol
# GULP energy per Si atom -5584.892094 kJ/mol
# Density = 1.676333 g / cm^3
# Si number density = 16.801576 Si / 1000 Ang^3
#
#
#
# Elastic Constant Matrix: (Units=GPa)
#
#
# Indices 1 2 3 4 5 6 
#
# 1 110.8013 31.9744 28.4468 9.4496 -0.8024 -6.9056
# 2 31.9744 78.2067 35.2060 -0.2231 -3.3697 -9.5412
# 3 28.4468 35.2060 90.1099 -17.4667 2.7865 -9.2501
# 4 9.4496 -0.2231 -17.4667 26.4715 0.2897 -1.2430
# 5 -0.8024 -3.3697 2.7865 0.2897 20.7291 1.3121
# 6 -6.9056 -9.5412 -9.2501 -1.2430 1.3121 23.8567
#
#
#
# Elastic Compliance Matrix: (Units=1/GPa)
#
#
# Indices 1 2 3 4 5 6 
#
# 1 0.011407 -0.002958 -0.003694 -0.006525 0.000528 0.000318
# 2 -0.002958 0.017291 -0.006103 -0.002704 0.003341 0.003368
# 3 -0.003694 -0.006103 0.017779 0.013244 -0.003982 0.004292
# 4 -0.006525 -0.002704 0.013244 0.049090 -0.003469 0.004913
# 5 0.000528 0.003341 -0.003982 -0.003469 0.049576 -0.002962
# 6 0.000318 0.003368 0.004292 0.004913 -0.002962 0.045439
#
#
# Mechanical properties :
#
#
# Convention : Reuss Voigt Hill
#
# Bulk Modulus (GPa) = 47.69572 52.26358 49.97965
# Shear Modulus (GPa) = 22.41328 26.44419 24.42873
#
# Velocity S-wave (km/s) = 3.65636 3.97156 3.81721
# Velocity P-wave (km/s) = 6.80254 7.22530 7.01710
#
# Compressibility (1/GPa) = 0.02096624
#
# Stress axis : x y z
#
# Youngs Moduli (GPa) = 87.66320 57.83477 56.24548
#
# Poissons Ratio (x) = 0.17107 0.20778
# Poissons Ratio (y) = 0.25931 0.34329
# Poissons Ratio (z) = 0.32384 0.35299
#
# Static dielectric constant tensor:
#      x y z
#    x 1.559740 -0.015530 0.006070 
#    y -0.015530 1.557480 -0.012810 
#    z 0.006070 -0.012810 1.567610 
# 
# From -- ./inp_files/65658.got.cif
#   From: 2010.05.17/outbox.cif.g08.bks.cpg/sg2_33_cif.got.tgz:65658.got - 2010.06.03 11:33:40.
