data_PCOD9098610
_publ_section_title
;
Structure prediction by ZEFSAII (Michael W. Deem and Ramdas Pophale) SiO2 
 PCOD9098610
Probable space group: P -1
;
_chemical_formula_sum "Si O2"
_cell_formula_units_Z 13
_cell_length_a 6.269541
_cell_length_b 22.553653
_cell_length_c 5.581079
_cell_angle_alpha 69.642528
_cell_angle_beta 124.633828
_cell_angle_gamma 128.553294
_cell_volume 507.770329
_symmetry_space_group_name_H-M "P -1"
_symmetry_group_IT_number 2
_symmetry_cell_setting 'triclinic'
loop_
_space_group_symop_operation_xyz
x,y,z
-x,-y,-z
loop_
_atom_site_type_symbol
_atom_site_label
_atom_site_fract_x
_atom_site_fract_y
_atom_site_fract_z
Si Si1 0.000000 0.500000 0.500000
Si Si2 0.609826 0.207462 0.520365
Si Si3 0.548769 0.247629 0.924928
Si Si4 0.581591 0.585200 0.970318
Si Si5 0.872481 0.104902 0.727664
Si Si6 0.924152 0.063083 0.318971
Si Si7 0.595647 0.625863 0.434320
O O1 0.759118 0.430745 0.257418
O O2 0.745978 0.449758 0.621705
O O3 0.717413 0.246595 0.792762
O O4 0.749688 0.158076 0.626134
O O5 0.239091 0.147559 0.386001
O O6 0.682591 0.259546 0.261710
O O7 0.437136 0.303781 0.721315
O O8 0.246299 0.160847 0.871262
O O9 0.763882 0.630890 0.785518
O O10 0.500000 0.500000 0.000000
O O11 0.710216 0.612660 0.275619
O O12 0.764344 0.066975 0.452485
O O13 0.786226 0.053095 0.979919
O O14 0.000000 0.000000 0.500000
#
# Coordination Sequence:
#
# PCOD9098610 Si02
#       7
#     1   2   2   2   2   2   2
#     4   8  22  34  58  74 110 136 174 226 280 310
#     4  10  21  38  58  80 113 149 180 225 271 317
#     4  10  21  39  54  80 112 144 186 226 269 323
#     4  10  20  37  54  77 108 136 172 226 278 320
#     4  10  21  38  56  81 116 144 185 224 266 323
#     4  10  21  36  59  85 114 145 180 227 269 316
#     4  10  20  38  55  77 109 138 179 227 270 325
#
# _framework density 25.602125000000001
#
# number of rings (size 3 to 8) (size 9 to 14) (size 15 to 20)
#    0.923    1.231    0.000    3.231    0.000    1.231 
#    5.538    0.000    0.000    0.000    0.000    0.000 
#    0.000    0.000    0.000    0.000    0.000    0.000 
#
# Total GULP energy -72371.769311 kJ/mol
# GULP energy per Si atom -5567.059178 kJ/mol
# Density = 2.554385 g / cm^3
# Si number density = 25.602125 Si / 1000 Ang^3
#
#
#
# Elastic Constant Matrix: (Units=GPa)
#
#
# Indices 1 2 3 4 5 6 
#
# 1 81.8096 39.7348 74.3551 6.0266 -54.1258 -9.7508
# 2 39.7348 96.3873 89.5389 11.2027 -31.1691 -15.5699
# 3 74.3551 89.5389 274.3577 5.5411 -69.5158 -34.0471
# 4 6.0266 11.2027 5.5411 63.6480 -2.8813 -2.8879
# 5 -54.1258 -31.1691 -69.5158 -2.8813 52.6062 -2.2881
# 6 -9.7508 -15.5699 -34.0471 -2.8879 -2.2881 71.9066
#
#
#
# Elastic Compliance Matrix: (Units=1/GPa)
#
#
# Indices 1 2 3 4 5 6 
#
# 1 0.042622 -0.003571 0.001759 -0.001228 0.044308 0.007200
# 2 -0.003571 0.016142 -0.003987 -0.002083 0.000554 0.001057
# 3 0.001759 -0.003987 0.007125 0.000462 0.009020 0.003054
# 4 -0.001228 -0.002083 0.000462 0.016119 -0.000995 0.000217
# 5 0.044308 0.000554 0.009020 -0.000995 0.077349 0.012821
# 6 0.007200 0.001057 0.003054 0.000217 0.012821 0.016975
#
#
# Mechanical properties :
#
#
# Convention : Reuss Voigt Hill
#
# Bulk Modulus (GPa) = 18.41892 95.53469 56.97680
# Shear Modulus (GPa) = 24.26872 54.22720 39.24796
#
# Velocity S-wave (km/s) = 3.08217 4.60725 3.91960
# Velocity P-wave (km/s) = 4.45828 8.10546 6.54120
#
# Compressibility (1/GPa) = 0.05429200
#
# Stress axis : x y z
#
# Youngs Moduli (GPa) = 23.46189 61.94848 140.35964
#
# Poissons Ratio (x) = 0.22121 -0.24690
# Poissons Ratio (y) = 0.08378 0.55959
# Poissons Ratio (z) = -0.04127 0.24698
#
# Static dielectric constant tensor:
#      x y z
#    x 2.178980 0.126420 0.048370 
#    y 0.126420 2.016100 0.072040 
#    z 0.048370 0.072040 2.078350 
# 
# From -- ./inp_files/8767.got.cif
#   From: 2010.05.17/outbox.cif.g08.bks.cpg/sg2_5_cif.got.tgz:8767.got - 2010.06.03 11:33:40.
