data_PCOD9098996
_publ_section_title
;
Structure prediction by ZEFSAII (Michael W. Deem and Ramdas Pophale) SiO2 
 PCOD9098996
Probable space group: P -1
;
_chemical_formula_sum "Si O2"
_cell_formula_units_Z 16
_cell_length_a 6.683320
_cell_length_b 18.298140
_cell_length_c 18.605499
_cell_angle_alpha 151.423131
_cell_angle_beta 134.555083
_cell_angle_gamma 50.680215
_cell_volume 774.517865
_symmetry_space_group_name_H-M "P -1"
_symmetry_group_IT_number 2
_symmetry_cell_setting 'triclinic'
loop_
_space_group_symop_operation_xyz
x,y,z
-x,-y,-z
loop_
_atom_site_type_symbol
_atom_site_label
_atom_site_fract_x
_atom_site_fract_y
_atom_site_fract_z
Si Si1 0.405921 0.956880 0.742748
Si Si2 0.333170 0.456558 0.197715
Si Si3 0.138566 0.796026 0.409702
Si Si4 0.333897 0.535138 0.560761
Si Si5 0.021390 0.241242 0.262519
Si Si6 0.973472 0.836113 0.084941
Si Si7 0.730133 0.223740 0.032023
Si Si8 0.449628 0.034477 0.601144
O O1 0.196190 0.862962 0.561484
O O2 0.694802 0.856171 0.735521
O O3 0.256542 0.027645 0.837034
O O4 0.494182 0.106687 0.850995
O O5 0.198362 0.614935 0.271995
O O6 0.473648 0.478953 0.331188
O O7 0.578431 0.389247 0.148142
O O8 0.123833 0.318717 0.035783
O O9 0.820824 0.848286 0.355185
O O10 0.355778 0.881436 0.486513
O O11 0.500000 0.500000 0.500000
O O12 0.115280 0.402138 0.393554
O O13 0.171096 0.701991 0.669929
O O14 0.837714 0.172752 0.094276
O O15 0.267053 0.893869 0.237634
O O16 0.021085 0.794995 0.978071
O O17 0.500000 0.000000 0.500000
#
# Coordination Sequence:
#
# PCOD9098996 Si02
#       8
#     2   2   2   2   2   2   2   2
#     4  11  21  39  63  91 127 167 214 258 315 375
#     4  10  23  41  63  94 132 166 209 260 319 376
#     4  11  23  43  68  94 123 163 211 267 320 380
#     4  10  20  37  58  90 134 171 211 259 301 364
#     4  10  21  36  58  90 129 170 215 254 306 370
#     4  11  23  41  65  92 129 167 208 265 318 380
#     4  10  22  40  60  92 132 170 204 262 317 367
#     4  11  24  44  69  94 122 160 213 269 325 380
#
# _framework density 20.658013
#
# number of rings (size 3 to 8) (size 9 to 14) (size 15 to 20)
#    0.000    1.500    3.750    1.125    0.000    3.000 
#    2.250    1.250    0.000    0.000    0.000    0.000 
#    0.000    0.000    0.000    0.000    0.000    0.000 
#
# Total GULP energy -89279.753425 kJ/mol
# GULP energy per Si atom -5579.984589 kJ/mol
# Density = 2.061099 g / cm^3
# Si number density = 20.658013 Si / 1000 Ang^3
#
#
#
# Elastic Constant Matrix: (Units=GPa)
#
#
# Indices 1 2 3 4 5 6 
#
# 1 130.9366 32.7857 44.7090 13.2764 -32.0633 -18.1110
# 2 32.7857 94.6870 39.2888 19.6861 -10.8653 -31.3383
# 3 44.7090 39.2888 83.5665 8.6762 -8.7487 -11.0463
# 4 13.2764 19.6861 8.6762 34.8084 -9.9984 -0.2072
# 5 -32.0633 -10.8653 -8.7487 -9.9984 44.1707 -2.1203
# 6 -18.1110 -31.3383 -11.0463 -0.2072 -2.1203 23.2578
#
#
#
# Elastic Compliance Matrix: (Units=1/GPa)
#
#
# Indices 1 2 3 4 5 6 
#
# 1 0.013125 0.004255 -0.005862 -0.003178 0.009365 0.013995
# 2 0.004255 0.029456 -0.008714 -0.013753 0.007387 0.039415
# 3 -0.005862 -0.008714 0.017620 0.001898 -0.002872 -0.008182
# 4 -0.003178 -0.013753 0.001898 0.037791 0.002301 -0.019558
# 5 0.009365 0.007387 -0.002872 0.002301 0.032111 0.018831
# 6 0.013995 0.039415 -0.008182 -0.019558 0.018831 0.104660
#
#
# Mechanical properties :
#
#
# Convention : Reuss Voigt Hill
#
# Bulk Modulus (GPa) = 25.27837 60.30637 42.79237
# Shear Modulus (GPa) = 18.61571 33.27449 25.94510
#
# Velocity S-wave (km/s) = 3.00515 4.01774 3.54776
# Velocity P-wave (km/s) = 4.92995 7.12595 6.12713
#
# Compressibility (1/GPa) = 0.03955952
#
# Stress axis : x y z
#
# Youngs Moduli (GPa) = 76.19125 33.94939 56.75283
#
# Poissons Ratio (x) = -0.14446 0.33269
# Poissons Ratio (y) = -0.32421 0.49453
# Poissons Ratio (z) = 0.44665 0.29583
#
# Static dielectric constant tensor:
#      x y z
#    x 1.801400 -0.014580 -0.034230 
#    y -0.014580 1.737440 -0.007370 
#    z -0.034230 -0.007370 1.775410 
# 
# From -- ./inp_files/37894.got.cif
#   From: 2010.05.17/outbox.cif.g08.bks.cpg/sg2_19_cif.got.tgz:37894.got - 2010.06.03 11:33:40.
