data_PCOD9098454
_publ_section_title
;
Structure prediction by ZEFSAII (Michael W. Deem and Ramdas Pophale) SiO2 
 PCOD9098454
Probable space group: P -1
;
_chemical_formula_sum "Si O2"
_cell_formula_units_Z 16
_cell_length_a 12.662357
_cell_length_b 9.190313
_cell_length_c 19.466016
_cell_angle_alpha 130.526217
_cell_angle_beta 28.349822
_cell_angle_gamma 127.631138
_cell_volume 812.914566
_symmetry_space_group_name_H-M "P -1"
_symmetry_group_IT_number 2
_symmetry_cell_setting 'triclinic'
loop_
_space_group_symop_operation_xyz
x,y,z
-x,-y,-z
loop_
_atom_site_type_symbol
_atom_site_label
_atom_site_fract_x
_atom_site_fract_y
_atom_site_fract_z
Si Si1 0.845451 0.062692 0.298030
Si Si2 0.856745 0.324918 0.567291
Si Si3 0.524017 0.292875 0.623717
Si Si4 0.232399 0.633675 0.896971
Si Si5 0.494356 0.619718 0.110756
Si Si6 0.855609 0.945573 0.743522
Si Si7 0.391167 0.725346 0.982396
Si Si8 0.159675 0.013969 0.979398
O O1 0.706125 0.241872 0.448018
O O2 0.964045 0.019628 0.288401
O O3 0.675399 0.878112 0.319239
O O4 0.022411 0.091857 0.145325
O O5 0.643680 0.281701 0.625413
O O6 0.754117 0.373954 0.713898
O O7 0.000000 0.500000 0.500000
O O8 0.017471 0.154944 0.420197
O O9 0.423840 0.493422 0.731571
O O10 0.213552 0.799768 0.903279
O O11 0.290830 0.736531 0.967602
O O12 0.000000 0.500000 0.000000
O O13 0.620642 0.833879 0.104579
O O14 0.500000 0.500000 0.000000
O O15 0.624879 0.490595 0.048635
O O16 0.738846 0.136485 0.852865
O O17 0.651379 0.803809 0.849245
O O18 0.000000 0.000000 0.000000
#
# Coordination Sequence:
#
# PCOD9098454 Si02
#       8
#     2   2   2   2   2   2   2   2
#     4  10  20  38  61  96 124 165 207 275 324 381
#     4  11  21  40  65  93 125 174 225 265 314 393
#     4  10  20  36  66  94 120 158 234 267 302 375
#     4  12  21  39  66  95 123 169 231 265 311 396
#     4  12  26  41  62  98 140 172 208 275 346 383
#     4  10  20  36  68  91 120 158 231 272 303 368
#     4  11  21  39  64  94 121 169 227 264 312 397
#     4  12  25  41  63  95 138 172 207 273 348 387
#
# _framework density 19.682265999999998
#
# number of rings (size 3 to 8) (size 9 to 14) (size 15 to 20)
#    0.000    1.000    5.000    2.250    3.500    0.000 
#    0.000    2.500    0.000    0.000    0.000    0.000 
#    0.000    0.000    0.000    0.000    0.000    0.000 
#
# Total GULP energy -89340.429228 kJ/mol
# GULP energy per Si atom -5583.776827 kJ/mol
# Density = 1.963747 g / cm^3
# Si number density = 19.682266 Si / 1000 Ang^3
#
#
#
# Elastic Constant Matrix: (Units=GPa)
#
#
# Indices 1 2 3 4 5 6 
#
# 1 52.0450 8.9046 4.4612 -0.4444 -3.5046 8.7822
# 2 8.9046 103.0203 43.1285 14.2396 -9.8662 -6.3534
# 3 4.4612 43.1285 162.1550 32.4926 8.6375 -7.2713
# 4 -0.4444 14.2396 32.4926 44.6267 2.2161 -13.0385
# 5 -3.5046 -9.8662 8.6375 2.2161 32.4014 0.5772
# 6 8.7822 -6.3534 -7.2713 -13.0385 0.5772 35.3435
#
#
#
# Elastic Compliance Matrix: (Units=1/GPa)
#
#
# Indices 1 2 3 4 5 6 
#
# 1 0.020644 -0.001712 -0.000314 -0.000822 0.001955 -0.005837
# 2 -0.001712 0.011787 -0.002967 -0.001441 0.004270 0.001333
# 3 -0.000314 -0.002967 0.008081 -0.004975 -0.002741 -0.000583
# 4 -0.000822 -0.001441 -0.004975 0.029412 -0.001388 0.009795
# 5 0.001955 0.004270 -0.002741 -0.001388 0.033224 -0.001337
# 6 -0.005837 0.001333 -0.000583 0.009795 -0.001337 0.033499
#
#
# Mechanical properties :
#
#
# Convention : Reuss Voigt Hill
#
# Bulk Modulus (GPa) = 32.75833 47.80099 40.27966
# Shear Modulus (GPa) = 31.88608 39.85606 35.87107
#
# Velocity S-wave (km/s) = 4.02934 4.50485 4.27371
# Velocity P-wave (km/s) = 6.19089 7.16919 6.69793
#
# Compressibility (1/GPa) = 0.03052659
#
# Stress axis : x y z
#
# Youngs Moduli (GPa) = 48.44122 84.83857 123.74116
#
# Poissons Ratio (x) = 0.14525 0.03882
# Poissons Ratio (y) = 0.08293 0.36713
# Poissons Ratio (z) = 0.01520 0.25171
#
# Static dielectric constant tensor:
#      x y z
#    x 1.737380 0.081440 -0.060660 
#    y 0.081440 1.819950 -0.080880 
#    z -0.060660 -0.080880 1.842320 
# 
# From -- ./inp_files/566126.got.cif
#   From: 2010.05.17/outbox.cif.g08.bks.cpg/sg2_284_cif.got.tgz:566126.got - 2010.06.03 11:33:40.
