data_PCOD9098966
_publ_section_title
;
Structure prediction by ZEFSAII (Michael W. Deem and Ramdas Pophale) SiO2 
 PCOD9098966
Probable space group: P -1
;
_chemical_formula_sum "Si O2"
_cell_formula_units_Z 16
_cell_length_a 15.093214
_cell_length_b 7.608742
_cell_length_c 13.002135
_cell_angle_alpha 84.132346
_cell_angle_beta 141.755355
_cell_angle_gamma 112.339468
_cell_volume 803.124766
_symmetry_space_group_name_H-M "P -1"
_symmetry_group_IT_number 2
_symmetry_cell_setting 'triclinic'
loop_
_space_group_symop_operation_xyz
x,y,z
-x,-y,-z
loop_
_atom_site_type_symbol
_atom_site_label
_atom_site_fract_x
_atom_site_fract_y
_atom_site_fract_z
Si Si1 0.332923 0.507212 0.850680
Si Si2 0.753349 0.812058 0.542493
Si Si3 0.976813 0.775561 0.296283
Si Si4 0.691041 0.235175 0.358888
Si Si5 0.523790 0.216802 0.843965
Si Si6 0.838471 0.476346 0.994617
Si Si7 0.858512 0.542893 0.778967
Si Si8 0.353105 0.900299 0.451703
O O1 0.171143 0.307524 0.752741
O O2 0.304347 0.585706 0.712273
O O3 0.500000 0.500000 0.000000
O O4 0.374952 0.670488 0.970093
O O5 0.620530 0.741580 0.333491
O O6 0.769197 0.636272 0.624258
O O7 0.700250 0.938314 0.565724
O O8 0.930335 0.984659 0.653251
O O9 0.125788 0.735814 0.469025
O O10 0.904056 0.646387 0.133239
O O11 0.620457 0.193838 0.412809
O O12 0.570476 0.021859 0.208837
O O13 0.658368 0.301465 0.871005
O O14 0.843833 0.577063 0.883725
O O15 0.957554 0.379009 0.097188
O O16 0.784436 0.301223 0.715290
O O17 0.500000 0.000000 0.500000
#
# Coordination Sequence:
#
# PCOD9098966 Si02
#       8
#     2   2   2   2   2   2   2   2
#     4  11  23  36  60  90 118 149 201 257 296 348
#     4  10  22  40  62  89 117 164 200 245 291 369
#     4   9  20  43  57  81 121 159 198 243 303 353
#     4  10  20  40  61  82 113 166 197 234 305 360
#     4   9  21  39  59  82 123 150 201 246 307 346
#     4  10  20  37  58  88 120 160 193 255 294 358
#     4  11  21  36  63  87 122 159 208 234 304 351
#     4  10  21  39  60  90 124 155 202 242 292 359
#
# _framework density 19.922184999999999
#
# number of rings (size 3 to 8) (size 9 to 14) (size 15 to 20)
#    0.000    2.250    2.500    2.250    1.750    3.500 
#    2.250    2.500    0.000    0.000    0.000    0.000 
#    0.000    0.000    0.000    0.000    0.000    0.000 
#
# Total GULP energy -89188.530003 kJ/mol
# GULP energy per Si atom -5574.283125 kJ/mol
# Density = 1.987684 g / cm^3
# Si number density = 19.922185 Si / 1000 Ang^3
#
#
#
# Elastic Constant Matrix: (Units=GPa)
#
#
# Indices 1 2 3 4 5 6 
#
# 1 73.1818 30.2993 7.5363 -0.3781 12.1331 34.3135
# 2 30.2993 54.2379 15.9918 -4.1753 14.8587 11.8507
# 3 7.5363 15.9918 45.7331 10.2337 9.3602 10.9516
# 4 -0.3781 -4.1753 10.2337 36.1509 6.3162 2.4337
# 5 12.1331 14.8587 9.3602 6.3162 23.4558 9.9733
# 6 34.3135 11.8507 10.9516 2.4337 9.9733 28.7441
#
#
#
# Elastic Compliance Matrix: (Units=1/GPa)
#
#
# Indices 1 2 3 4 5 6 
#
# 1 0.041264 -0.017565 0.009965 -0.002385 0.006853 -0.047990
# 2 -0.017565 0.033200 -0.011183 0.008647 -0.016900 0.016674
# 3 0.009965 -0.011183 0.030420 -0.008543 -0.000224 -0.018075
# 4 -0.002385 0.008647 -0.008543 0.032767 -0.011211 0.003652
# 5 0.006853 -0.016900 -0.000224 -0.011211 0.062147 -0.021741
# 6 -0.047990 0.016674 -0.018075 0.003652 -0.021741 0.099325
#
#
# Mechanical properties :
#
#
# Convention : Reuss Voigt Hill
#
# Bulk Modulus (GPa) = 14.85489 31.20084 23.02787
# Shear Modulus (GPa) = 13.92259 25.62520 19.77390
#
# Velocity S-wave (km/s) = 2.64644 3.59034 3.15390
# Velocity P-wave (km/s) = 4.10010 5.73435 4.98466
#
# Compressibility (1/GPa) = 0.06731788
#
# Stress axis : x y z
#
# Youngs Moduli (GPa) = 24.23418 30.12080 32.87291
#
# Poissons Ratio (x) = 0.52908 -0.32759
# Poissons Ratio (y) = 0.42568 0.36763
# Poissons Ratio (z) = -0.24150 0.33685
#
# Static dielectric constant tensor:
#      x y z
#    x 1.792080 -0.016830 -0.028450 
#    y -0.016830 1.687100 0.024510 
#    z -0.028450 0.024510 1.736230 
# 
# From -- ./inp_files/328429.got.cif
#   From: 2010.05.17/outbox.cif.g08.bks.cpg/sg2_165_cif.got.tgz:328429.got - 2010.06.03 11:33:40.
