data_PCOD9098099
_publ_section_title
;
Structure prediction by ZEFSAII (Michael W. Deem and Ramdas Pophale) SiO2 
 PCOD9098099
Probable space group: P -1
;
_chemical_formula_sum "Si O2"
_cell_formula_units_Z 14
_cell_length_a 8.956863
_cell_length_b 20.493444
_cell_length_c 7.681734
_cell_angle_alpha 55.789341
_cell_angle_beta 33.715173
_cell_angle_gamma 57.105477
_cell_volume 638.445432
_symmetry_space_group_name_H-M "P -1"
_symmetry_group_IT_number 2
_symmetry_cell_setting 'triclinic'
loop_
_space_group_symop_operation_xyz
x,y,z
-x,-y,-z
loop_
_atom_site_type_symbol
_atom_site_label
_atom_site_fract_x
_atom_site_fract_y
_atom_site_fract_z
Si Si1 0.532738 0.568832 0.001229
Si Si2 0.964342 0.268095 0.319930
Si Si3 0.049104 0.568529 0.716643
Si Si4 0.251682 0.731228 0.851824
Si Si5 0.694558 0.826854 0.374867
Si Si6 0.739396 0.999167 0.130910
Si Si7 0.513999 0.171580 0.026141
O O1 0.353747 0.557653 0.362206
O O2 0.500000 0.500000 0.000000
O O3 0.843416 0.566686 0.758388
O O4 0.411644 0.654235 0.908518
O O5 0.842240 0.290469 0.215259
O O6 0.019300 0.346245 0.249976
O O7 0.244366 0.205433 0.128504
O O8 0.739621 0.227829 0.699963
O O9 0.000000 0.500000 0.000000
O O10 0.454724 0.796211 0.546539
O O11 0.978516 0.768154 0.163531
O O12 0.592509 0.826166 0.674709
O O13 0.751164 0.915912 0.143449
O O14 0.660370 0.081315 0.978799
O O15 0.500000 0.000000 0.500000
O O16 0.000000 0.000000 0.000000
#
# Coordination Sequence:
#
# PCOD9098099 Si02
#       7
#     2   2   2   2   2   2   2
#     4  12  26  45  69  96 127 165 208 258 313 373
#     4  12  25  42  63  94 131 168 208 257 313 374
#     4  12  26  45  69  96 127 165 208 258 313 373
#     4  12  25  42  63  94 131 168 208 257 313 374
#     4  11  22  41  66  93 124 167 216 262 311 371
#     4  10  20  36  63  94 123 160 213 266 311 368
#     4  11  22  41  66  93 124 167 216 262 311 371
#
# _framework density 21.928265
#
# number of rings (size 3 to 8) (size 9 to 14) (size 15 to 20)
#    0.000    0.571    0.000   11.143    0.000    2.286 
#    0.000    4.286    0.000    0.000    0.000    0.000 
#    0.000    0.000    0.000    0.000    0.000    0.000 
#
# Total GULP energy -78410.381869 kJ/mol
# GULP energy per Si atom -5600.741562 kJ/mol
# Density = 2.187836 g / cm^3
# Si number density = 21.928265 Si / 1000 Ang^3
#
#
#
# Elastic Constant Matrix: (Units=GPa)
#
#
# Indices 1 2 3 4 5 6 
#
# 1 70.2124 15.7358 8.2720 -9.6587 -17.0056 4.0309
# 2 15.7358 113.3247 33.1160 -17.1125 -2.2207 3.0097
# 3 8.2720 33.1160 98.6683 -5.8356 -20.4214 -4.5946
# 4 -9.6587 -17.1125 -5.8356 37.5514 -3.7653 -5.3485
# 5 -17.0056 -2.2207 -20.4214 -3.7653 44.0598 -0.0810
# 6 4.0309 3.0097 -4.5946 -5.3485 -0.0810 31.4084
#
#
#
# Elastic Compliance Matrix: (Units=1/GPa)
#
#
# Indices 1 2 3 4 5 6 
#
# 1 0.016936 -0.001796 0.000873 0.004235 0.007211 -0.001134
# 2 -0.001796 0.010642 -0.003552 0.003586 -0.001498 -0.000702
# 3 0.000873 -0.003552 0.012739 0.001545 0.006199 0.002371
# 4 0.004235 0.003586 0.001545 0.030766 0.005169 0.004591
# 5 0.007211 -0.001498 0.006199 0.005169 0.028721 0.001079
# 6 -0.001134 -0.000702 0.002371 0.004591 0.001079 0.033183
#
#
# Mechanical properties :
#
#
# Convention : Reuss Voigt Hill
#
# Bulk Modulus (GPa) = 31.88024 44.05034 37.96529
# Shear Modulus (GPa) = 32.81008 37.60935 35.20972
#
# Velocity S-wave (km/s) = 3.87233 4.14588 4.01144
# Velocity P-wave (km/s) = 5.87905 6.56123 6.22949
#
# Compressibility (1/GPa) = 0.03136739
#
# Stress axis : x y z
#
# Youngs Moduli (GPa) = 59.04479 93.96490 78.50152
#
# Poissons Ratio (x) = 0.16875 -0.06853
# Poissons Ratio (y) = 0.10604 0.27883
# Poissons Ratio (z) = -0.05154 0.33376
#
# Static dielectric constant tensor:
#      x y z
#    x 1.794480 0.001270 0.021290 
#    y 0.001270 1.821090 -0.018390 
#    z 0.021290 -0.018390 1.773430 
# 
# From -- ./inp_files/223107.got.cif
#   From: 2010.05.17/outbox.cif.g08.bks.cpg/sg2_112_cif.got.tgz:223107.got - 2010.06.03 11:33:40.
