data_PCOD9098057
_publ_section_title
;
Structure prediction by ZEFSAII (Michael W. Deem and Ramdas Pophale) SiO2 
 PCOD9098057
Probable space group: P -1
;
_chemical_formula_sum "Si O2"
_cell_formula_units_Z 14
_cell_length_a 8.431262
_cell_length_b 14.100691
_cell_length_c 14.233632
_cell_angle_alpha 151.817260
_cell_angle_beta 107.659943
_cell_angle_gamma 90.422126
_cell_volume 603.111365
_symmetry_space_group_name_H-M "P -1"
_symmetry_group_IT_number 2
_symmetry_cell_setting 'triclinic'
loop_
_space_group_symop_operation_xyz
x,y,z
-x,-y,-z
loop_
_atom_site_type_symbol
_atom_site_label
_atom_site_fract_x
_atom_site_fract_y
_atom_site_fract_z
Si Si1 0.860423 0.169423 0.610741
Si Si2 0.843500 0.745941 0.812240
Si Si3 0.922811 0.465162 0.347556
Si Si4 0.470067 0.746780 0.805951
Si Si5 0.965795 0.095425 0.375958
Si Si6 0.396577 0.296586 0.720835
Si Si7 0.176617 0.399268 0.025183
O O1 0.895262 0.427916 0.822275
O O2 0.818361 0.046063 0.393917
O O3 0.683020 0.968962 0.477273
O O4 0.069596 0.257657 0.782362
O O5 0.688446 0.783012 0.874240
O O6 0.677150 0.492934 0.499640
O O7 0.001667 0.683105 0.819638
O O8 0.000000 0.000000 0.000000
O O9 0.673727 0.331222 0.194515
O O10 0.031693 0.734852 0.553814
O O11 0.000000 0.500000 0.500000
O O12 0.500000 0.000000 0.000000
O O13 0.198218 0.257333 0.603866
O O14 0.905458 0.820823 0.107191
O O15 0.575214 0.404980 0.769855
O O16 0.500000 0.500000 0.000000
#
# Coordination Sequence:
#
# PCOD9098057 Si02
#       7
#     2   2   2   2   2   2   2
#     4  10  20  36  63  91 124 161 204 250 317 386
#     4  10  20  39  67  90 117 165 219 270 333 380
#     4  10  23  45  64  88 132 178 214 274 324 367
#     4  10  20  39  65  93 117 159 223 270 325 389
#     4  11  22  41  58  92 126 161 214 255 310 384
#     4  11  18  37  65  90 125 162 196 255 321 381
#     4  10  20  38  63  91 125 163 199 259 317 381
#
# _framework density 23.212961
#
# number of rings (size 3 to 8) (size 9 to 14) (size 15 to 20)
#    0.000    1.714    4.286    1.286    0.000    0.000 
#   12.857    0.000    0.000    0.000    0.000    0.000 
#    0.000    0.000    0.000    0.000    0.000    0.000 
#
# Total GULP energy -78043.864799 kJ/mol
# GULP energy per Si atom -5574.561771 kJ/mol
# Density = 2.316013 g / cm^3
# Si number density = 23.212961 Si / 1000 Ang^3
#
#
#
# Elastic Constant Matrix: (Units=GPa)
#
#
# Indices 1 2 3 4 5 6 
#
# 1 167.7610 52.2057 33.1868 19.9027 -3.8647 2.0297
# 2 52.2057 125.8717 49.4918 39.7537 -17.1522 -26.9391
# 3 33.1868 49.4918 110.7625 36.6577 -11.8889 -11.8036
# 4 19.9027 39.7537 36.6577 47.0208 -6.5896 -8.8817
# 5 -3.8647 -17.1522 -11.8889 -6.5896 41.3579 11.6694
# 6 2.0297 -26.9391 -11.8036 -8.8817 11.6694 29.1502
#
#
#
# Elastic Compliance Matrix: (Units=1/GPa)
#
#
# Indices 1 2 3 4 5 6 
#
# 1 0.007316 -0.003474 -0.001032 -0.000137 0.000117 -0.004226
# 2 -0.003474 0.014906 -0.001890 -0.007513 0.001154 0.010501
# 3 -0.001032 -0.001890 0.012971 -0.007755 0.001432 0.000641
# 4 -0.000137 -0.007513 -0.007755 0.033761 -0.000044 0.000230
# 5 0.000117 0.001154 0.001432 -0.000044 0.027749 -0.009484
# 6 -0.004226 0.010501 0.000641 0.000230 -0.009484 0.048430
#
#
# Mechanical properties :
#
#
# Convention : Reuss Voigt Hill
#
# Bulk Modulus (GPa) = 44.64215 74.90707 59.77461
# Shear Modulus (GPa) = 30.23111 41.47318 35.85214
#
# Velocity S-wave (km/s) = 3.61271 4.23145 3.93426
# Velocity P-wave (km/s) = 6.05603 7.49754 6.81501
#
# Compressibility (1/GPa) = 0.02240036
#
# Stress axis : x y z
#
# Youngs Moduli (GPa) = 136.68329 67.08670 77.09521
#
# Poissons Ratio (x) = 0.23305 0.07960
# Poissons Ratio (y) = 0.47482 0.14572
# Poissons Ratio (z) = 0.14112 0.12681
#
# Static dielectric constant tensor:
#      x y z
#    x 1.978220 0.046870 -0.007910 
#    y 0.046870 1.890230 -0.051850 
#    z -0.007910 -0.051850 1.935280 
# 
# From -- ./inp_files/505855.got.cif
#   From: 2010.05.17/outbox.cif.g08.bks.cpg/sg2_253_cif.got.tgz:505855.got - 2010.06.03 11:33:40.
