data_PCOD9098879
_publ_section_title
;
Structure prediction by ZEFSAII (Michael W. Deem and Ramdas Pophale) SiO2 
 PCOD9098879
Probable space group: P -1
;
_chemical_formula_sum "Si O2"
_cell_formula_units_Z 16
_cell_length_a 8.720107
_cell_length_b 13.957667
_cell_length_c 7.160364
_cell_angle_alpha 105.443408
_cell_angle_beta 86.133140
_cell_angle_gamma 95.499223
_cell_volume 835.373391
_symmetry_space_group_name_H-M "P -1"
_symmetry_group_IT_number 2
_symmetry_cell_setting 'triclinic'
loop_
_space_group_symop_operation_xyz
x,y,z
-x,-y,-z
loop_
_atom_site_type_symbol
_atom_site_label
_atom_site_fract_x
_atom_site_fract_y
_atom_site_fract_z
Si Si1 0.404248 0.776278 0.580697
Si Si2 0.328870 0.447082 0.011920
Si Si3 0.675010 0.721578 0.773728
Si Si4 0.819897 0.410767 0.606937
Si Si5 0.826378 0.580131 0.392035
Si Si6 0.374229 0.080590 0.567193
Si Si7 0.795854 0.043015 0.192824
Si Si8 0.845717 0.928788 0.773412
O O1 0.506029 0.746269 0.732508
O O2 0.296442 0.685288 0.462868
O O3 0.527596 0.816523 0.433528
O O4 0.302333 0.865048 0.699836
O O5 0.329974 0.343606 0.072431
O O6 0.234723 0.519666 0.186684
O O7 0.500000 0.500000 0.000000
O O8 0.250737 0.430886 0.808818
O O9 0.739390 0.653619 0.569109
O O10 0.784712 0.823604 0.817593
O O11 0.819392 0.475381 0.449773
O O12 0.993261 0.383935 0.617101
O O13 0.247780 0.065048 0.406522
O O14 0.500000 0.000000 0.500000
O O15 0.286437 0.055245 0.752416
O O16 0.970595 0.064271 0.261202
O O17 0.805871 0.017695 0.960775
#
# Coordination Sequence:
#
# PCOD9098879 Si02
#       8
#     2   2   2   2   2   2   2   2
#     4  10  20  37  58  82 113 149 185 231 281 329
#     4  11  22  37  59  86 114 148 187 228 278 335
#     4  10  22  37  57  83 113 147 187 231 279 331
#     4  10  21  38  59  83 114 149 187 229 278 330
#     4  10  21  39  59  82 115 149 185 232 277 329
#     4   9  20  36  56  81 111 144 183 230 278 328
#     4  10  21  38  59  82 112 147 188 232 280 332
#     4  10  21  38  59  83 111 149 188 231 280 331
#
# _framework density 19.153110000000002
#
# number of rings (size 3 to 8) (size 9 to 14) (size 15 to 20)
#    0.000    2.000    0.000    3.000    0.000    9.500 
#    0.000   11.250    0.000    0.000    0.000    0.000 
#    0.000    0.000    0.000    0.000    0.000    0.000 
#
# Total GULP energy -89341.077063 kJ/mol
# GULP energy per Si atom -5583.817316 kJ/mol
# Density = 1.910952 g / cm^3
# Si number density = 19.153110 Si / 1000 Ang^3
#
#
#
# Elastic Constant Matrix: (Units=GPa)
#
#
# Indices 1 2 3 4 5 6 
#
# 1 123.5292 35.6295 45.6897 -5.8426 5.1562 8.0440
# 2 35.6295 68.1395 28.7853 0.6374 11.2793 3.7897
# 3 45.6897 28.7853 79.4741 -13.2136 3.1242 -2.4111
# 4 -5.8426 0.6374 -13.2136 23.2107 -0.1659 3.0643
# 5 5.1562 11.2793 3.1242 -0.1659 20.7013 4.6694
# 6 8.0440 3.7897 -2.4111 3.0643 4.6694 29.4364
#
#
#
# Elastic Compliance Matrix: (Units=1/GPa)
#
#
# Indices 1 2 3 4 5 6 
#
# 1 0.011271 -0.003624 -0.005226 0.000388 0.000679 -0.003190
# 2 -0.003624 0.020659 -0.005837 -0.004852 -0.009480 -0.000138
# 3 -0.005226 -0.005837 0.019320 0.009507 0.001055 0.002605
# 4 0.000388 -0.004852 0.009507 0.049302 0.002461 -0.004225
# 5 0.000679 -0.009480 0.001055 0.002461 0.054933 -0.007848
# 6 -0.003190 -0.000138 0.002605 -0.004225 -0.007848 0.036759
#
#
# Mechanical properties :
#
#
# Convention : Reuss Voigt Hill
#
# Bulk Modulus (GPa) = 45.71538 54.59465 50.15501
# Shear Modulus (GPa) = 21.84245 25.40557 23.62401
#
# Velocity S-wave (km/s) = 3.38066 3.64599 3.51583
# Velocity P-wave (km/s) = 6.25769 6.80372 6.53641
#
# Compressibility (1/GPa) = 0.02187448
#
# Stress axis : x y z
#
# Youngs Moduli (GPa) = 88.72056 48.40419 51.76071
#
# Poissons Ratio (x) = 0.17544 0.27051
# Poissons Ratio (y) = 0.32157 0.30214
# Poissons Ratio (z) = 0.46366 0.28255
#
# Static dielectric constant tensor:
#      x y z
#    x 1.647370 0.000630 -0.017880 
#    y 0.000630 1.673460 -0.012940 
#    z -0.017880 -0.012940 1.633960 
# 
# From -- ./inp_files/39895.got.cif
#   From: 2010.05.17/outbox.cif.g08.bks.cpg/sg2_20_cif.got.tgz:39895.got - 2010.06.03 11:33:40.
