data_PCOD9098079
_publ_section_title
;
Structure prediction by ZEFSAII (Michael W. Deem and Ramdas Pophale) SiO2 
 PCOD9098079
Probable space group: P -1
;
_chemical_formula_sum "Si O2"
_cell_formula_units_Z 16
_cell_length_a 7.282952
_cell_length_b 11.701778
_cell_length_c 12.161318
_cell_angle_alpha 74.822471
_cell_angle_beta 110.188256
_cell_angle_gamma 59.601167
_cell_volume 706.648533
_symmetry_space_group_name_H-M "P -1"
_symmetry_group_IT_number 2
_symmetry_cell_setting 'triclinic'
loop_
_space_group_symop_operation_xyz
x,y,z
-x,-y,-z
loop_
_atom_site_type_symbol
_atom_site_label
_atom_site_fract_x
_atom_site_fract_y
_atom_site_fract_z
Si Si1 0.783336 0.768892 0.618523
Si Si2 0.616343 0.225740 0.320716
Si Si3 0.089178 0.099375 0.011200
Si Si4 0.812233 0.542723 0.348467
Si Si5 0.648424 0.436269 0.780681
Si Si6 0.996968 0.909882 0.365712
Si Si7 0.685773 0.014991 0.685394
Si Si8 0.880988 0.754325 0.220909
O O1 0.594117 0.768421 0.658162
O O2 0.841711 0.864051 0.674693
O O3 0.024401 0.598667 0.669683
O O4 0.604223 0.872322 0.450399
O O5 0.477984 0.404431 0.221111
O O6 0.847238 0.164707 0.469545
O O7 0.744875 0.091646 0.289317
O O8 0.828208 0.280827 0.931993
O O9 0.204238 0.117976 0.922339
O O10 0.277351 0.035114 0.169523
O O11 0.000000 0.000000 0.000000
O O12 0.567301 0.559601 0.322283
O O13 0.000000 0.500000 0.500000
O O14 0.722779 0.701250 0.233638
O O15 0.846108 0.401821 0.735417
O O16 0.935693 0.809916 0.324913
O O17 0.189926 0.905634 0.326695
#
# Coordination Sequence:
#
# PCOD9098079 Si02
#       8
#     2   2   2   2   2   2   2   2
#     4  10  22  39  65  99 135 168 219 288 332 391
#     4  10  20  39  62  93 132 174 218 272 344 387
#     4  10  21  43  69  91 133 188 221 268 339 399
#     4  12  25  39  67 104 134 170 232 276 339 398
#     4  10  23  42  68  91 132 177 222 271 333 399
#     4  10  20  36  63  92 132 173 217 276 333 400
#     4  10  20  39  68  92 130 179 219 271 340 394
#     4  10  23  42  66  96 135 177 222 278 339 391
#
# _framework density 22.642092000000002
#
# number of rings (size 3 to 8) (size 9 to 14) (size 15 to 20)
#    0.750    1.000    2.500    1.500    5.250    5.000 
#    0.000    6.875    0.000    0.000    0.000    0.000 
#    0.000    0.000    0.000    0.000    0.000    0.000 
#
# Total GULP energy -89464.656926 kJ/mol
# GULP energy per Si atom -5591.541058 kJ/mol
# Density = 2.259056 g / cm^3
# Si number density = 22.642092 Si / 1000 Ang^3
#
#
#
# Elastic Constant Matrix: (Units=GPa)
#
#
# Indices 1 2 3 4 5 6 
#
# 1 58.0038 0.8027 1.9105 -3.7592 -0.5270 7.2378
# 2 0.8027 109.3847 -6.1810 -25.5454 3.3234 5.7650
# 3 1.9105 -6.1810 53.9186 -6.4998 -9.6030 8.4007
# 4 -3.7592 -25.5454 -6.4998 31.4794 3.5825 -4.0156
# 5 -0.5270 3.3234 -9.6030 3.5825 26.5989 -5.2030
# 6 7.2378 5.7650 8.4007 -4.0156 -5.2030 34.4694
#
#
#
# Elastic Compliance Matrix: (Units=1/GPa)
#
#
# Indices 1 2 3 4 5 6 
#
# 1 0.017833 0.000629 0.000172 0.002279 -0.000700 -0.003732
# 2 0.000629 0.011827 0.002441 0.010203 -0.002324 -0.001867
# 3 0.000172 0.002441 0.021121 0.005175 0.005823 -0.004110
# 4 0.002279 0.010203 0.005175 0.042034 -0.004883 0.000714
# 5 -0.000700 -0.002324 0.005823 -0.004883 0.041575 0.004823
# 6 -0.003732 -0.001867 -0.004110 0.000714 0.004823 0.031920
#
#
# Mechanical properties :
#
#
# Convention : Reuss Voigt Hill
#
# Bulk Modulus (GPa) = 17.46299 23.81906 20.64102
# Shear Modulus (GPa) = 27.94607 33.49455 30.72031
#
# Velocity S-wave (km/s) = 3.51701 3.85035 3.68744
# Velocity P-wave (km/s) = 4.92156 5.50541 5.22165
#
# Compressibility (1/GPa) = 0.05726396
#
# Stress axis : x y z
#
# Youngs Moduli (GPa) = 56.07612 84.55159 47.34531
#
# Poissons Ratio (x) = -0.05319 -0.00813
# Poissons Ratio (y) = -0.03528 -0.11555
# Poissons Ratio (z) = -0.00963 -0.20635
#
# Static dielectric constant tensor:
#      x y z
#    x 1.866030 -0.016780 -0.008790 
#    y -0.016780 1.838130 -0.041550 
#    z -0.008790 -0.041550 1.827770 
# 
# From -- ./inp_files/387388.got.cif
#   From: 2010.05.17/outbox.cif.g08.bks.cpg/sg2_194_cif.got.tgz:387388.got - 2010.06.03 11:33:40.
