data_PCOD9098061
_publ_section_title
;
Structure prediction by ZEFSAII (Michael W. Deem and Ramdas Pophale) SiO2 
 PCOD9098061
Probable space group: P -1
;
_chemical_formula_sum "Si O2"
_cell_formula_units_Z 16
_cell_length_a 7.753303
_cell_length_b 11.614226
_cell_length_c 18.724925
_cell_angle_alpha 28.018148
_cell_angle_beta 86.982904
_cell_angle_gamma 99.777825
_cell_volume 701.877678
_symmetry_space_group_name_H-M "P -1"
_symmetry_group_IT_number 2
_symmetry_cell_setting 'triclinic'
loop_
_space_group_symop_operation_xyz
x,y,z
-x,-y,-z
loop_
_atom_site_type_symbol
_atom_site_label
_atom_site_fract_x
_atom_site_fract_y
_atom_site_fract_z
Si Si1 0.212500 0.405371 0.481027
Si Si2 0.544554 0.184607 0.326804
Si Si3 0.597601 0.834742 0.810419
Si Si4 0.350372 0.219301 0.945634
Si Si5 0.591681 0.873564 0.161103
Si Si6 0.215060 0.739670 0.942860
Si Si7 0.059597 0.841090 0.262409
Si Si8 0.085140 0.827708 0.747742
O O1 0.437893 0.603539 0.353887
O O2 0.100938 0.589483 0.374464
O O3 0.152953 0.294207 0.623906
O O4 0.138193 0.147651 0.569375
O O5 0.400090 0.077482 0.319986
O O6 0.557811 0.476654 0.189664
O O7 0.749758 0.221283 0.269555
O O8 0.500000 0.000000 0.500000
O O9 0.433715 0.880784 0.830775
O O10 0.793782 0.994566 0.764118
O O11 0.500000 0.500000 0.000000
O O12 0.346649 0.223907 0.858296
O O13 0.475313 0.054120 0.049306
O O14 0.143612 0.052140 0.080177
O O15 0.776060 0.090403 0.081253
O O16 0.094533 0.772280 0.862427
O O17 0.123240 0.413217 0.139517
#
# Coordination Sequence:
#
# PCOD9098061 Si02
#       8
#     2   2   2   2   2   2   2   2
#     4  10  20  37  58  91 125 147 203 260 307 344
#     4  11  23  39  57  90 130 162 198 252 315 363
#     4  11  18  36  65  87 115 158 211 248 291 366
#     4  10  20  37  63  86 121 163 199 249 309 370
#     4  10  20  39  63  88 118 160 204 255 307 359
#     4  10  20  37  57  89 111 164 212 233 301 369
#     4  10  20  36  63  92 115 157 209 258 298 356
#     4  10  23  36  60  83 124 162 199 252 298 368
#
# _framework density 22.795995000000001
#
# number of rings (size 3 to 8) (size 9 to 14) (size 15 to 20)
#    0.000    1.750    3.750    1.500    3.500    0.500 
#    2.250    5.625    0.000    9.750    0.000    0.000 
#    0.000    0.000    0.000    0.000    0.000    0.000 
#
# Total GULP energy -89322.795413 kJ/mol
# GULP energy per Si atom -5582.674713 kJ/mol
# Density = 2.274411 g / cm^3
# Si number density = 22.795995 Si / 1000 Ang^3
#
#
#
# Elastic Constant Matrix: (Units=GPa)
#
#
# Indices 1 2 3 4 5 6 
#
# 1 67.0863 36.9454 26.3907 2.0684 -11.4927 -12.0672
# 2 36.9454 158.3701 59.5033 -7.2197 -20.1780 -18.2119
# 3 26.3907 59.5033 126.7418 -8.3618 -13.1336 -6.7487
# 4 2.0684 -7.2197 -8.3618 41.0823 -8.1361 3.5224
# 5 -11.4927 -20.1780 -13.1336 -8.1361 28.1258 -3.2126
# 6 -12.0672 -18.2119 -6.7487 3.5224 -3.2126 19.8953
#
#
#
# Elastic Compliance Matrix: (Units=1/GPa)
#
#
# Indices 1 2 3 4 5 6 
#
# 1 0.019902 -0.001783 -0.002110 -0.001358 0.006738 0.011052
# 2 -0.001783 0.009541 -0.002976 0.001735 0.006064 0.007316
# 3 -0.002110 -0.002976 0.010068 0.002130 0.002252 -0.000602
# 4 -0.001358 0.001735 0.002130 0.027152 0.009331 -0.001814
# 5 0.006738 0.006064 0.002252 0.009331 0.048300 0.016549
# 6 0.011052 0.007316 -0.000602 -0.001814 0.016549 0.066452
#
#
# Mechanical properties :
#
#
# Convention : Reuss Voigt Hill
#
# Bulk Modulus (GPa) = 38.79783 66.43079 52.61431
# Shear Modulus (GPa) = 24.54062 33.11128 28.82595
#
# Velocity S-wave (km/s) = 3.28461 3.81531 3.55986
# Velocity P-wave (km/s) = 5.60727 6.97234 6.32673
#
# Compressibility (1/GPa) = 0.02577464
#
# Stress axis : x y z
#
# Youngs Moduli (GPa) = 50.24603 104.80762 99.32077
#
# Poissons Ratio (x) = 0.18682 0.20958
# Poissons Ratio (y) = 0.08956 0.29557
# Poissons Ratio (z) = 0.10603 0.31190
#
# Static dielectric constant tensor:
#      x y z
#    x 1.937910 -0.003370 0.043860 
#    y -0.003370 1.853780 -0.004670 
#    z 0.043860 -0.004670 1.884990 
# 
# From -- ./inp_files/314093.got.cif
#   From: 2010.05.17/outbox.cif.g08.bks.cpg/sg2_158_cif.got.tgz:314093.got - 2010.06.03 11:33:40.
