data_PCOD9098402
_publ_section_title
;
Structure prediction by ZEFSAII (Michael W. Deem and Ramdas Pophale) SiO2 
 PCOD9098402
Probable space group: P -1
;
_chemical_formula_sum "Si O2"
_cell_formula_units_Z 15
_cell_length_a 5.373402
_cell_length_b 26.023614
_cell_length_c 8.777567
_cell_angle_alpha 32.377427
_cell_angle_beta 70.109269
_cell_angle_gamma 78.035627
_cell_volume 610.205936
_symmetry_space_group_name_H-M "P -1"
_symmetry_group_IT_number 2
_symmetry_cell_setting 'triclinic'
loop_
_space_group_symop_operation_xyz
x,y,z
-x,-y,-z
loop_
_atom_site_type_symbol
_atom_site_label
_atom_site_fract_x
_atom_site_fract_y
_atom_site_fract_z
Si Si1 0.426334 0.079939 0.106778
Si Si2 0.993528 0.942032 0.990546
Si Si3 0.542690 0.631063 0.554768
Si Si4 0.373739 0.252028 0.481785
Si Si5 0.000000 0.500000 0.000000
Si Si6 0.002955 0.543484 0.558655
Si Si7 0.728813 0.249533 0.128850
Si Si8 0.718000 0.816111 0.841729
O O1 0.218097 0.024272 0.168468
O O2 0.507146 0.183345 0.743132
O O3 0.278068 0.102106 0.235326
O O4 0.704621 0.044427 0.165797
O O5 0.879527 0.826637 0.321212
O O6 0.000000 0.000000 0.000000
O O7 0.685305 0.662069 0.611035
O O8 0.701675 0.550478 0.656705
O O9 0.605370 0.718951 0.204360
O O10 0.237351 0.592014 0.745528
O O11 0.575134 0.279766 0.233104
O O12 0.894529 0.506208 0.190443
O O13 0.000000 0.500000 0.500000
O O14 0.159556 0.653590 0.232048
O O15 0.502428 0.180947 0.250278
O O16 0.988388 0.199296 0.236360
#
# Coordination Sequence:
#
# PCOD9098402 Si02
#       8
#     2   2   2   2   1   2   2   2
#     4   9  20  36  62  92 120 164 207 253 314 379
#     4  10  20  36  65  96 126 159 209 264 313 379
#     4  10  22  43  59  89 118 167 212 268 312 387
#     4   9  23  37  65  91 122 163 215 265 313 379
#     4  12  22  40  64  86 124 168 212 266 328 380
#     4  11  25  42  58  90 126 166 216 269 330 384
#     4  11  22  40  60  91 124 161 214 263 318 378
#     4  10  21  39  62  87 121 168 207 258 315 375
#
# _framework density 24.581865000000001
#
# number of rings (size 3 to 8) (size 9 to 14) (size 15 to 20)
#    0.800    1.067    1.333    2.400    3.733    0.533 
#    7.200    0.000    0.000    4.800    0.000    0.000 
#    0.000    0.000    0.000    0.000    0.000    0.000 
#
# Total GULP energy -83552.916578 kJ/mol
# GULP energy per Si atom -5570.194439 kJ/mol
# Density = 2.452592 g / cm^3
# Si number density = 24.581865 Si / 1000 Ang^3
#
#
#
# Elastic Constant Matrix: (Units=GPa)
#
#
# Indices 1 2 3 4 5 6 
#
# 1 142.7196 47.2908 26.1634 7.0928 -30.8317 12.9479
# 2 47.2908 155.0938 19.9123 21.1641 -23.4302 26.7347
# 3 26.1634 19.9123 93.2912 17.0103 -3.0126 -6.1610
# 4 7.0928 21.1641 17.0103 29.8261 5.6001 -4.2625
# 5 -30.8317 -23.4302 -3.0126 5.6001 28.9895 6.4143
# 6 12.9479 26.7347 -6.1610 -4.2625 6.4143 32.8404
#
#
#
# Elastic Compliance Matrix: (Units=1/GPa)
#
#
# Indices 1 2 3 4 5 6 
#
# 1 0.012496 0.003143 -0.002683 -0.009358 0.020271 -0.013162
# 2 0.003143 0.015435 -0.001448 -0.018379 0.023892 -0.021128
# 3 -0.002683 -0.001448 0.012803 -0.004439 -0.002859 0.004621
# 4 -0.009358 -0.018379 -0.004439 0.064907 -0.045583 0.035146
# 5 0.020271 0.023892 -0.002859 -0.045583 0.095499 -0.052547
# 6 -0.013162 -0.021128 0.004621 0.035146 -0.052547 0.068531
#
#
# Mechanical properties :
#
#
# Convention : Reuss Voigt Hill
#
# Bulk Modulus (GPa) = 25.80336 64.20420 45.00378
# Shear Modulus (GPa) = 17.57052 38.18040 27.87546
#
# Velocity S-wave (km/s) = 2.67643 3.94533 3.37112
# Velocity P-wave (km/s) = 4.48004 6.85051 5.78793
#
# Compressibility (1/GPa) = 0.03875464
#
# Stress axis : x y z
#
# Youngs Moduli (GPa) = 80.02802 64.78926 78.10645
#
# Poissons Ratio (x) = -0.20361 0.20960
# Poissons Ratio (y) = -0.25149 0.11313
# Poissons Ratio (z) = 0.21475 0.09384
#
# Static dielectric constant tensor:
#      x y z
#    x 1.993040 -0.022720 0.086260 
#    y -0.022720 1.986420 -0.075810 
#    z 0.086260 -0.075810 1.984580 
# 
# From -- ./inp_files/142228.got.cif
#   From: 2010.05.17/outbox.cif.g08.bks.cpg/sg2_72_cif.got.tgz:142228.got - 2010.06.03 11:33:40.
