data_PCOD9098398
_publ_section_title
;
Structure prediction by ZEFSAII (Michael W. Deem and Ramdas Pophale) SiO2 
 PCOD9098398
Probable space group: P -1
;
_chemical_formula_sum "Si O2"
_cell_formula_units_Z 14
_cell_length_a 11.718644
_cell_length_b 12.109206
_cell_length_c 15.447886
_cell_angle_alpha 41.938686
_cell_angle_beta 27.699187
_cell_angle_gamma 48.222796
_cell_volume 680.799443
_symmetry_space_group_name_H-M "P -1"
_symmetry_group_IT_number 2
_symmetry_cell_setting 'triclinic'
loop_
_space_group_symop_operation_xyz
x,y,z
-x,-y,-z
loop_
_atom_site_type_symbol
_atom_site_label
_atom_site_fract_x
_atom_site_fract_y
_atom_site_fract_z
Si Si1 0.780236 0.529287 0.264752
Si Si2 0.609155 0.178328 0.851312
Si Si3 0.901520 0.728123 0.908709
Si Si4 0.120638 0.590126 0.162031
Si Si5 0.961887 0.940847 0.463477
Si Si6 0.622964 0.730826 0.731591
Si Si7 0.000734 0.694559 0.359879
O O1 0.500000 0.500000 0.500000
O O2 0.892798 0.388885 0.206281
O O3 0.945962 0.536958 0.234066
O O4 0.833928 0.690487 0.075474
O O5 0.755261 0.218324 0.817972
O O6 0.365352 0.293278 0.945188
O O7 0.827023 0.196706 0.623437
O O8 0.500000 0.000000 0.000000
O O9 0.991010 0.910711 0.721087
O O10 0.254915 0.432907 0.210128
O O11 0.983790 0.692401 0.269965
O O12 0.344382 0.699605 0.916540
O O13 0.693465 0.872394 0.669008
O O14 0.000000 0.000000 0.500000
O O15 0.772391 0.769791 0.521797
O O16 0.000000 0.500000 0.500000
#
# Coordination Sequence:
#
# PCOD9098398 Si02
#       7
#     2   2   2   2   2   2   2
#     4  11  26  41  62  86 126 175 211 247 298 384
#     4   9  20  36  60  91 125 153 199 262 316 359
#     4  10  24  41  60  89 126 163 211 254 306 367
#     4  10  21  36  59  90 120 157 208 248 311 368
#     4  10  20  36  65  96 121 158 200 263 318 365
#     4   9  20  35  59  92 119 149 197 267 314 352
#     4   9  19  31  55  88 121 150 187 260 311 352
#
# _framework density 20.564059
#
# number of rings (size 3 to 8) (size 9 to 14) (size 15 to 20)
#    0.000    2.286    0.000    0.857   18.000    1.143 
#    0.000    0.714    0.000   10.286    0.000    0.000 
#    0.000    0.000    0.000    0.000    0.000    0.000 
#
# Total GULP energy -77956.792029 kJ/mol
# GULP energy per Si atom -5568.342288 kJ/mol
# Density = 2.051725 g / cm^3
# Si number density = 20.564059 Si / 1000 Ang^3
#
#
#
# Elastic Constant Matrix: (Units=GPa)
#
#
# Indices 1 2 3 4 5 6 
#
# 1 78.6523 12.2880 50.0379 6.4509 -0.0219 17.8770
# 2 12.2880 38.4139 27.9317 3.1185 1.6610 10.2789
# 3 50.0379 27.9317 130.7436 9.4736 -9.5894 0.6482
# 4 6.4509 3.1185 9.4736 31.2709 3.6518 -3.4684
# 5 -0.0219 1.6610 -9.5894 3.6518 33.6067 0.3594
# 6 17.8770 10.2789 0.6482 -3.4684 0.3594 26.1951
#
#
#
# Elastic Compliance Matrix: (Units=1/GPa)
#
#
# Indices 1 2 3 4 5 6 
#
# 1 0.022084 0.004660 -0.009248 -0.003858 -0.002252 -0.017151
# 2 0.004660 0.036692 -0.009596 -0.003209 -0.004011 -0.017711
# 3 -0.009248 -0.009596 0.013556 -0.000681 0.004308 0.009592
# 4 -0.003858 -0.003209 -0.000681 0.034706 -0.003901 0.008558
# 5 -0.002252 -0.004011 0.004308 -0.003901 0.031584 0.002054
# 6 -0.017151 -0.017711 0.009592 0.008558 0.002054 0.057697
#
#
# Mechanical properties :
#
#
# Convention : Reuss Voigt Hill
#
# Bulk Modulus (GPa) = 22.74612 47.59165 35.16889
# Shear Modulus (GPa) = 20.89072 28.71801 24.80437
#
# Velocity S-wave (km/s) = 3.19075 3.74105 3.47681
# Velocity P-wave (km/s) = 4.96585 6.46947 5.76687
#
# Compressibility (1/GPa) = 0.04396355
#
# Stress axis : x y z
#
# Youngs Moduli (GPa) = 45.28231 27.25381 73.76941
#
# Poissons Ratio (x) = -0.12700 0.68222
# Poissons Ratio (y) = -0.21102 0.70790
# Poissons Ratio (z) = 0.41877 0.26153
#
# Static dielectric constant tensor:
#      x y z
#    x 1.736470 -0.040820 0.011650 
#    y -0.040820 1.826650 -0.015710 
#    z 0.011650 -0.015710 1.795180 
# 
# From -- ./inp_files/433524.got.cif
#   From: 2010.05.17/outbox.cif.g08.bks.cpg/sg2_217_cif.got.tgz:433524.got - 2010.06.03 11:33:40.
