data_PCOD9098620
_publ_section_title
;
Structure prediction by ZEFSAII (Michael W. Deem and Ramdas Pophale) SiO2 
 PCOD9098620
Probable space group: P -1
;
_chemical_formula_sum "Si O2"
_cell_formula_units_Z 16
_cell_length_a 18.608659
_cell_length_b 6.523818
_cell_length_c 19.564123
_cell_angle_alpha 131.852507
_cell_angle_beta 155.065440
_cell_angle_gamma 47.872187
_cell_volume 729.288221
_symmetry_space_group_name_H-M "P -1"
_symmetry_group_IT_number 2
_symmetry_cell_setting 'triclinic'
loop_
_space_group_symop_operation_xyz
x,y,z
-x,-y,-z
loop_
_atom_site_type_symbol
_atom_site_label
_atom_site_fract_x
_atom_site_fract_y
_atom_site_fract_z
Si Si1 0.884991 0.183404 0.776688
Si Si2 0.788454 0.879279 0.514051
Si Si3 0.826510 0.466585 0.931709
Si Si4 0.591698 0.895524 0.985228
Si Si5 0.243399 0.737970 0.637268
Si Si6 0.982887 0.176444 0.417366
Si Si7 0.183238 0.666819 0.953907
Si Si8 0.564878 0.050818 0.854027
O O1 0.816634 0.290321 0.815686
O O2 0.746784 0.118751 0.588588
O O3 0.012649 0.876206 0.825866
O O4 0.999886 0.401334 0.896731
O O5 0.805750 0.561791 0.485773
O O6 0.633463 0.905766 0.331236
O O7 0.962847 0.922433 0.634462
O O8 0.667136 0.732818 0.858218
O O9 0.824658 0.300140 0.963645
O O10 0.443161 0.731824 0.792002
O O11 0.592634 0.111252 0.971632
O O12 0.773731 0.669162 0.097170
O O13 0.500000 0.000000 0.000000
O O14 0.197117 0.804334 0.692779
O O15 0.123265 0.983443 0.544799
O O16 0.000000 0.500000 0.500000
O O17 0.338973 0.765863 0.070859
#
# Coordination Sequence:
#
# PCOD9098620 Si02
#       8
#     2   2   2   2   2   2   2   2
#     4  10  22  39  64  93 118 157 206 256 306 367
#     4  11  21  37  61  89 125 158 198 252 312 358
#     4   9  21  42  64  88 121 158 205 254 305 365
#     4  11  23  37  61  86 118 166 209 243 298 365
#     4  10  20  37  54  84 120 161 204 245 300 356
#     4   9  20  35  57  80 121 162 194 251 297 348
#     4  10  21  41  61  86 123 160 200 254 305 361
#     4  10  21  40  62  88 125 159 199 257 304 367
#
# _framework density 21.939201000000001
#
# number of rings (size 3 to 8) (size 9 to 14) (size 15 to 20)
#    0.000    2.000    2.500    0.375    0.000    8.000 
#    0.000    0.625    0.000    0.000    0.000    0.000 
#    0.000    0.000    0.000    0.000    0.000    0.000 
#
# Total GULP energy -89246.467096 kJ/mol
# GULP energy per Si atom -5577.904193 kJ/mol
# Density = 2.188927 g / cm^3
# Si number density = 21.939201 Si / 1000 Ang^3
#
#
#
# Elastic Constant Matrix: (Units=GPa)
#
#
# Indices 1 2 3 4 5 6 
#
# 1 155.7414 20.4854 23.1138 13.6310 -20.7789 16.4798
# 2 20.4854 62.8886 16.6006 -9.4381 -12.2853 14.3826
# 3 23.1138 16.6006 28.1649 4.9071 -12.0409 5.8574
# 4 13.6310 -9.4381 4.9071 26.8885 -6.6075 -6.0578
# 5 -20.7789 -12.2853 -12.0409 -6.6075 41.7836 4.9825
# 6 16.4798 14.3826 5.8574 -6.0578 4.9825 38.7837
#
#
#
# Elastic Compliance Matrix: (Units=1/GPa)
#
#
# Indices 1 2 3 4 5 6 
#
# 1 0.008140 -0.001020 -0.003590 -0.004001 0.002496 -0.003484
# 2 -0.001020 0.023118 -0.011218 0.010779 0.005413 -0.005457
# 3 -0.003590 -0.011218 0.051632 -0.010496 0.008716 -0.004871
# 4 -0.004001 0.010779 -0.010496 0.047501 0.004943 0.006072
# 5 0.002496 0.005413 0.008716 0.004943 0.030964 -0.007590
# 6 -0.003484 -0.005457 -0.004871 0.006072 -0.007590 0.031947
#
#
# Mechanical properties :
#
#
# Convention : Reuss Voigt Hill
#
# Bulk Modulus (GPa) = 19.51867 40.79939 30.15903
# Shear Modulus (GPa) = 20.65822 33.93083 27.29453
#
# Velocity S-wave (km/s) = 3.07190 3.93693 3.53100
# Velocity P-wave (km/s) = 4.63661 6.26920 5.51366
#
# Compressibility (1/GPa) = 0.05123299
#
# Stress axis : x y z
#
# Youngs Moduli (GPa) = 122.85478 43.25697 19.36799
#
# Poissons Ratio (x) = 0.04411 0.06953
# Poissons Ratio (y) = 0.12528 0.21727
# Poissons Ratio (z) = 0.44107 0.48526
#
# Static dielectric constant tensor:
#      x y z
#    x 1.854640 0.031600 -0.028730 
#    y 0.031600 1.821000 -0.001660 
#    z -0.028730 -0.001660 1.863180 
# 
# From -- ./inp_files/38747.got.cif
#   From: 2010.05.17/outbox.cif.g08.bks.cpg/sg2_20_cif.got.tgz:38747.got - 2010.06.03 11:33:40.
