data_PCOD9098081
_publ_section_title
;
Structure prediction by ZEFSAII (Michael W. Deem and Ramdas Pophale) SiO2 
 PCOD9098081
Probable space group: P -1
;
_chemical_formula_sum "Si O2"
_cell_formula_units_Z 16
_cell_length_a 15.449806
_cell_length_b 11.910200
_cell_length_c 14.632363
_cell_angle_alpha 37.654645
_cell_angle_beta 31.641801
_cell_angle_gamma 59.065570
_cell_volume 747.733352
_symmetry_space_group_name_H-M "P -1"
_symmetry_group_IT_number 2
_symmetry_cell_setting 'triclinic'
loop_
_space_group_symop_operation_xyz
x,y,z
-x,-y,-z
loop_
_atom_site_type_symbol
_atom_site_label
_atom_site_fract_x
_atom_site_fract_y
_atom_site_fract_z
Si Si1 0.419896 0.614632 0.212704
Si Si2 0.604337 0.775844 0.610675
Si Si3 0.316051 0.080782 0.357630
Si Si4 0.567788 0.879630 0.309574
Si Si5 0.248755 0.813522 0.880823
Si Si6 0.097378 0.031493 0.189632
Si Si7 0.567691 0.576600 0.285014
Si Si8 0.054962 0.590264 0.496159
O O1 0.348700 0.383406 0.381438
O O2 0.432932 0.609534 0.313575
O O3 0.276053 0.684865 0.257116
O O4 0.622357 0.778822 0.879921
O O5 0.600690 0.758142 0.734472
O O6 0.403606 0.739392 0.777081
O O7 0.747753 0.025898 0.301172
O O8 0.423988 0.944985 0.350597
O O9 0.090049 0.947864 0.661245
O O10 0.439940 0.634391 0.610307
O O11 0.666859 0.035825 0.203870
O O12 0.750621 0.912380 0.065809
O O13 0.053046 0.609702 0.211455
O O14 0.012781 0.778011 0.436707
O O15 0.235811 0.202424 0.029418
O O16 0.500000 0.500000 0.500000
O O17 0.000000 0.500000 0.500000
#
# Coordination Sequence:
#
# PCOD9098081 Si02
#       8
#     2   2   2   2   2   2   2   2
#     4  12  23  41  69  97 136 183 218 276 339 395
#     4  10  21  37  61  99 131 169 217 274 338 404
#     4  11  23  40  69  99 132 176 221 277 343 396
#     4  10  20  45  65  95 137 172 221 279 329 392
#     4  10  20  36  63  92 137 170 206 274 343 393
#     4  11  23  43  66  94 134 174 227 275 324 395
#     4  10  25  45  70  93 134 184 227 277 327 394
#     4  12  22  38  66 101 134 171 221 279 337 397
#
# _framework density 21.398002000000002
#
# number of rings (size 3 to 8) (size 9 to 14) (size 15 to 20)
#    0.000    1.250    3.750    2.625    0.000    4.000 
#    0.000    0.000    0.000    0.000    0.000    0.000 
#    0.000    0.000    0.000    0.000    0.000    0.000 
#
# Total GULP energy -89182.980800 kJ/mol
# GULP energy per Si atom -5573.936300 kJ/mol
# Density = 2.134930 g / cm^3
# Si number density = 21.398002 Si / 1000 Ang^3
#
#
#
# Elastic Constant Matrix: (Units=GPa)
#
#
# Indices 1 2 3 4 5 6 
#
# 1 95.2881 8.5220 20.5552 7.3789 -0.0043 4.1075
# 2 8.5220 35.9654 34.4444 -2.5079 -3.8288 -2.6947
# 3 20.5552 34.4444 81.4584 3.5733 -7.5198 -1.8858
# 4 7.3789 -2.5079 3.5733 38.7351 -0.1624 -2.2341
# 5 -0.0043 -3.8288 -7.5198 -0.1624 25.9190 0.7053
# 6 4.1075 -2.6947 -1.8858 -2.2341 0.7053 23.6767
#
#
#
# Elastic Compliance Matrix: (Units=1/GPa)
#
#
# Indices 1 2 3 4 5 6 
#
# 1 0.011389 -0.000544 -0.002682 -0.002101 -0.000804 -0.002426
# 2 -0.000544 0.048155 -0.020251 0.005350 0.001151 0.004433
# 3 -0.002682 -0.020251 0.021941 -0.002837 0.003368 -0.000460
# 4 -0.002101 0.005350 -0.002837 0.027015 0.000047 0.003295
# 5 -0.000804 0.001151 0.003368 0.000047 0.039747 -0.000641
# 6 -0.002426 0.004433 -0.000460 0.003295 -0.000641 0.043454
#
#
# Mechanical properties :
#
#
# Convention : Reuss Voigt Hill
#
# Bulk Modulus (GPa) = 28.95899 37.75057 33.35478
# Shear Modulus (GPa) = 19.98681 27.61220 23.79950
#
# Velocity S-wave (km/s) = 3.05954 3.59613 3.33863
# Velocity P-wave (km/s) = 5.10332 5.90959 5.52119
#
# Compressibility (1/GPa) = 0.03453159
#
# Stress axis : x y z
#
# Youngs Moduli (GPa) = 87.80487 20.76606 45.57711
#
# Poissons Ratio (x) = 0.01129 0.12225
# Poissons Ratio (y) = 0.04773 0.92298
# Poissons Ratio (z) = 0.23551 0.42053
#
# Static dielectric constant tensor:
#      x y z
#    x 1.816570 0.030750 0.055020 
#    y 0.030750 1.842660 0.033780 
#    z 0.055020 0.033780 1.833070 
# 
# From -- ./inp_files/281660.got.cif
#   From: 2010.05.17/outbox.cif.g08.bks.cpg/sg2_141_cif.got.tgz:281660.got - 2010.06.03 11:33:40.
