data_PCOD9098972
_publ_section_title
;
Structure prediction by ZEFSAII (Michael W. Deem and Ramdas Pophale) SiO2 
 PCOD9098972
Probable space group: P -1
;
_chemical_formula_sum "Si O2"
_cell_formula_units_Z 16
_cell_length_a 8.082945
_cell_length_b 9.159344
_cell_length_c 15.585017
_cell_angle_alpha 34.045908
_cell_angle_beta 76.694509
_cell_angle_gamma 74.170536
_cell_volume 621.463831
_symmetry_space_group_name_H-M "P -1"
_symmetry_group_IT_number 2
_symmetry_cell_setting 'triclinic'
loop_
_space_group_symop_operation_xyz
x,y,z
-x,-y,-z
loop_
_atom_site_type_symbol
_atom_site_label
_atom_site_fract_x
_atom_site_fract_y
_atom_site_fract_z
Si Si1 0.830779 0.981310 0.869604
Si Si2 0.434040 0.225620 0.111442
Si Si3 0.244113 0.112998 0.357207
Si Si4 0.489814 0.645225 0.698547
Si Si5 0.091620 0.195715 0.630770
Si Si6 0.397238 0.477220 0.437532
Si Si7 0.354068 0.916924 0.995481
Si Si8 0.107983 0.810356 0.662461
O O1 0.724224 0.255305 0.709826
O O2 0.809768 0.974698 0.978823
O O3 0.021802 0.014136 0.800255
O O4 0.732885 0.768125 0.935956
O O5 0.359429 0.098470 0.266268
O O6 0.500000 0.500000 0.000000
O O7 0.588031 0.044693 0.127751
O O8 0.377482 0.154585 0.395854
O O9 0.067576 0.318161 0.259487
O O10 0.156334 0.883645 0.524110
O O11 0.483799 0.584830 0.628593
O O12 0.605322 0.397197 0.851160
O O13 0.295652 0.682959 0.736564
O O14 0.286721 0.242401 0.579242
O O15 0.000000 0.500000 0.500000
O O16 0.055660 0.051555 0.617435
O O17 0.500000 0.500000 0.500000
O O18 0.500000 0.000000 0.000000
#
# Coordination Sequence:
#
# PCOD9098972 Si02
#       8
#     2   2   2   2   2   2   2   2
#     4   9  20  38  61  85 125 166 216 257 319 391
#     4  11  20  35  65  94 118 172 226 260 313 393
#     4  11  23  39  65  96 133 170 211 266 340 388
#     4  11  22  41  64  97 131 168 215 275 328 390
#     4  10  20  37  58  88 129 170 205 258 328 392
#     4  10  22  36  58  92 128 167 207 260 332 396
#     4   9  20  40  64  89 123 174 218 263 322 384
#     4  11  24  39  64 100 135 166 211 276 333 396
#
# _framework density 25.745667999999998
#
# number of rings (size 3 to 8) (size 9 to 14) (size 15 to 20)
#    0.000    1.750    3.750    0.375    1.750    1.000 
#    0.000    0.625    0.000    0.750    0.000    0.000 
#    0.000    0.000    0.000    0.000    0.000    0.000 
#
# Total GULP energy -89121.455610 kJ/mol
# GULP energy per Si atom -5570.090976 kJ/mol
# Density = 2.568707 g / cm^3
# Si number density = 25.745668 Si / 1000 Ang^3
#
#
#
# Elastic Constant Matrix: (Units=GPa)
#
#
# Indices 1 2 3 4 5 6 
#
# 1 126.5670 30.6288 21.4799 0.4044 -29.2906 3.3027
# 2 30.6288 112.2525 42.8037 31.6381 -14.7121 3.9737
# 3 21.4799 42.8037 122.7237 38.4306 -37.9998 -5.7153
# 4 0.4044 31.6381 38.4306 48.9796 -1.2290 -7.6229
# 5 -29.2906 -14.7121 -37.9998 -1.2290 29.4646 4.7636
# 6 3.3027 3.9737 -5.7153 -7.6229 4.7636 27.2108
#
#
#
# Elastic Compliance Matrix: (Units=1/GPa)
#
#
# Indices 1 2 3 4 5 6 
#
# 1 0.011604 -0.001765 0.004490 -0.002664 0.016968 -0.003924
# 2 -0.001765 0.012722 -0.000078 -0.008794 0.004937 -0.004988
# 3 0.004490 -0.000078 0.024219 -0.019195 0.036011 -0.007128
# 4 -0.002664 -0.008794 -0.019195 0.042737 -0.032475 0.015233
# 5 0.016968 0.004937 0.036011 -0.032475 0.101942 -0.022161
# 6 -0.003924 -0.004988 -0.007128 0.015233 -0.022161 0.044605
#
#
# Mechanical properties :
#
#
# Convention : Reuss Voigt Hill
#
# Bulk Modulus (GPa) = 18.57392 61.26311 39.91851
# Shear Modulus (GPa) = 19.96165 38.90639 29.43402
#
# Velocity S-wave (km/s) = 2.78751 3.89161 3.38488
# Velocity P-wave (km/s) = 4.19409 6.63626 5.55114
#
# Compressibility (1/GPa) = 0.05383893
#
# Stress axis : x y z
#
# Youngs Moduli (GPa) = 86.17980 78.60371 41.28974
#
# Poissons Ratio (x) = 0.13871 -0.18538
# Poissons Ratio (y) = 0.15208 0.00322
# Poissons Ratio (z) = -0.38692 0.00613
#
# Static dielectric constant tensor:
#      x y z
#    x 2.166770 -0.029860 0.019650 
#    y -0.029860 2.214050 -0.258190 
#    z 0.019650 -0.258190 2.428480 
# 
# From -- ./inp_files/494355.got.cif
#   From: 2010.05.17/outbox.cif.g08.bks.cpg/sg2_248_cif.got.tgz:494355.got - 2010.06.03 11:33:40.
