data_PCOD9098796
_publ_section_title
;
Structure prediction by ZEFSAII (Michael W. Deem and Ramdas Pophale) SiO2 
 PCOD9098796
Probable space group: P -1
;
_chemical_formula_sum "Si O2"
_cell_formula_units_Z 16
_cell_length_a 15.723118
_cell_length_b 9.220262
_cell_length_c 20.252495
_cell_angle_alpha 49.658896
_cell_angle_beta 18.345895
_cell_angle_gamma 49.465500
_cell_volume 696.629484
_symmetry_space_group_name_H-M "P -1"
_symmetry_group_IT_number 2
_symmetry_cell_setting 'triclinic'
loop_
_space_group_symop_operation_xyz
x,y,z
-x,-y,-z
loop_
_atom_site_type_symbol
_atom_site_label
_atom_site_fract_x
_atom_site_fract_y
_atom_site_fract_z
Si Si1 0.028533 0.379613 0.118657
Si Si2 0.320556 0.975729 0.056672
Si Si3 0.302847 0.852208 0.951591
Si Si4 0.874666 0.709536 0.500288
Si Si5 0.923558 0.841904 0.651075
Si Si6 0.093058 0.422467 0.630012
Si Si7 0.961870 0.746184 0.997330
Si Si8 0.367513 0.622016 0.472596
O O1 0.123889 0.586363 0.973412
O O2 0.770953 0.413715 0.346238
O O3 0.240627 0.207456 0.044034
O O4 0.946224 0.296976 0.133116
O O5 0.377104 0.095552 0.118822
O O6 0.100922 0.855796 0.287232
O O7 0.339512 0.918106 0.981115
O O8 0.594580 0.793682 0.719105
O O9 0.103900 0.026621 0.010733
O O10 0.131042 0.677472 0.136941
O O11 0.812904 0.680811 0.476476
O O12 0.000000 0.500000 0.500000
O O13 0.945371 0.637266 0.658525
O O14 0.160713 0.799426 0.542339
O O15 0.000000 0.000000 0.500000
O O16 0.328530 0.454035 0.499025
O O17 0.660400 0.683140 0.239992
#
# Coordination Sequence:
#
# PCOD9098796 Si02
#       8
#     2   2   2   2   2   2   2   2
#     4  10  21  38  63  89 113 154 203 252 296 343
#     4  10  21  37  58  92 118 151 207 241 285 358
#     4  10  20  39  61  83 120 157 200 246 287 351
#     4  11  21  35  61  84 119 167 202 229 293 356
#     4  10  20  37  57  85 128 157 183 241 299 352
#     4   9  23  38  54  90 126 151 195 245 292 359
#     4  10  21  40  66  87 111 154 210 248 290 356
#     4  10  22  38  57  87 127 152 188 250 302 342
#
# _framework density 22.967735000000001
#
# number of rings (size 3 to 8) (size 9 to 14) (size 15 to 20)
#    0.750    1.250    0.000    4.125    0.000    4.500 
#    0.000    0.625    0.000   15.750    0.000    0.000 
#    0.000    0.000    0.000    0.000    0.000    0.000 
#
# Total GULP energy -89354.072451 kJ/mol
# GULP energy per Si atom -5584.629528 kJ/mol
# Density = 2.291546 g / cm^3
# Si number density = 22.967735 Si / 1000 Ang^3
#
#
#
# Elastic Constant Matrix: (Units=GPa)
#
#
# Indices 1 2 3 4 5 6 
#
# 1 45.7227 21.0681 42.2005 -5.0182 14.6964 -13.2934
# 2 21.0681 143.3657 52.0201 -14.4064 4.5182 -28.2243
# 3 42.2005 52.0201 146.3863 -5.9450 20.8574 2.5780
# 4 -5.0182 -14.4064 -5.9450 39.9089 -0.3109 6.7834
# 5 14.6964 4.5182 20.8574 -0.3109 33.8108 1.5372
# 6 -13.2934 -28.2243 2.5780 6.7834 1.5372 38.7362
#
#
#
# Elastic Compliance Matrix: (Units=1/GPa)
#
#
# Indices 1 2 3 4 5 6 
#
# 1 0.039082 0.001568 -0.010414 0.001206 -0.011466 0.015491
# 2 0.001568 0.009916 -0.004059 0.001864 0.000164 0.007700
# 3 -0.010414 -0.004059 0.011667 0.000185 -0.001796 -0.007269
# 4 0.001206 0.001864 0.000185 0.026388 -0.000516 -0.002840
# 5 -0.011466 0.000164 -0.001796 -0.000516 0.035870 -0.005029
# 6 0.015491 0.007700 -0.007269 -0.002840 -0.005029 0.037923
#
#
# Mechanical properties :
#
#
# Convention : Reuss Voigt Hill
#
# Bulk Modulus (GPa) = 28.69050 62.89468 45.79259
# Shear Modulus (GPa) = 25.21761 37.17025 31.19393
#
# Velocity S-wave (km/s) = 3.31714 4.02726 3.68932
# Velocity P-wave (km/s) = 5.21440 7.00489 6.17489
#
# Compressibility (1/GPa) = 0.03485474
#
# Stress axis : x y z
#
# Youngs Moduli (GPa) = 25.58727 100.85135 85.71061
#
# Poissons Ratio (x) = -0.15811 0.89257
# Poissons Ratio (y) = -0.04011 0.34789
# Poissons Ratio (z) = 0.26646 0.40934
#
# Static dielectric constant tensor:
#      x y z
#    x 1.954710 0.000210 0.010280 
#    y 0.000210 1.922520 0.016560 
#    z 0.010280 0.016560 1.829440 
# 
# From -- ./inp_files/599733.got.cif
#   From: 2010.05.17/outbox.cif.g08.bks.cpg/sg2_300_cif.got.tgz:599733.got - 2010.06.03 11:33:40.
