data_PCOD9098303
_publ_section_title
;
Structure prediction by ZEFSAII (Michael W. Deem and Ramdas Pophale) SiO2 
 PCOD9098303
Probable space group: P -1
;
_chemical_formula_sum "Si O2"
_cell_formula_units_Z 16
_cell_length_a 12.226221
_cell_length_b 15.678736
_cell_length_c 8.072112
_cell_angle_alpha 85.726557
_cell_angle_beta 86.497206
_cell_angle_gamma 151.021034
_cell_volume 721.602768
_symmetry_space_group_name_H-M "P -1"
_symmetry_group_IT_number 2
_symmetry_cell_setting 'triclinic'
loop_
_space_group_symop_operation_xyz
x,y,z
-x,-y,-z
loop_
_atom_site_type_symbol
_atom_site_label
_atom_site_fract_x
_atom_site_fract_y
_atom_site_fract_z
Si Si1 0.288158 0.266653 0.409884
Si Si2 0.261634 0.862536 0.135027
Si Si3 0.786973 0.952323 0.390483
Si Si4 0.106610 0.527801 0.826695
Si Si5 0.915182 0.092676 0.988317
Si Si6 0.472502 0.285324 0.082154
Si Si7 0.493486 0.089153 0.409427
Si Si8 0.440106 0.410425 0.845335
O O1 0.339794 0.249691 0.237869
O O2 0.437629 0.455230 0.335022
O O3 0.017936 0.107324 0.461674
O O4 0.329078 0.222051 0.551958
O O5 0.098796 0.667963 0.212575
O O6 0.341896 0.967585 0.276022
O O7 0.110591 0.823336 0.041158
O O8 0.500000 0.000000 0.000000
O O9 0.877944 0.035658 0.187061
O O10 0.625548 0.918594 0.469657
O O11 0.302928 0.598012 0.866431
O O12 0.249240 0.696974 0.686817
O O13 0.000000 0.500000 0.000000
O O14 0.161630 0.227263 0.881263
O O15 0.704274 0.908826 0.930063
O O16 0.522439 0.373341 0.897270
O O17 0.500000 0.000000 0.500000
O O18 0.500000 0.500000 0.000000
#
# Coordination Sequence:
#
# PCOD9098303 Si02
#       8
#     2   2   2   2   2   2   2   2
#     4  10  21  41  64  91 141 182 223 283 346 397
#     4  12  24  46  75 101 128 183 239 283 345 414
#     4  11  23  39  65  98 142 180 214 288 356 400
#     4  12  25  45  76 101 135 182 237 291 336 417
#     4  12  22  38  72  97 134 186 234 278 342 410
#     4  11  21  42  67 100 137 178 239 282 333 411
#     4  12  27  48  70 103 144 178 224 295 357 411
#     4  10  20  36  64  96 127 184 231 279 322 404
#
# _framework density 22.172863
#
# number of rings (size 3 to 8) (size 9 to 14) (size 15 to 20)
#    0.000    0.750    6.250    2.625    0.000    0.500 
#    0.000    1.875    0.000    0.000    0.000    0.000 
#    0.000    0.000    0.000    0.000    0.000    0.000 
#
# Total GULP energy -89428.182658 kJ/mol
# GULP energy per Si atom -5589.261416 kJ/mol
# Density = 2.212240 g / cm^3
# Si number density = 22.172863 Si / 1000 Ang^3
#
#
#
# Elastic Constant Matrix: (Units=GPa)
#
#
# Indices 1 2 3 4 5 6 
#
# 1 103.5426 9.0030 34.9696 -28.3071 22.2172 -6.7537
# 2 9.0030 116.0965 23.2369 -32.1005 12.5935 -15.2509
# 3 34.9696 23.2369 89.1230 -35.3724 32.8237 -7.4594
# 4 -28.3071 -32.1005 -35.3724 44.1383 -6.1623 9.9152
# 5 22.2172 12.5935 32.8237 -6.1623 48.7136 -12.1065
# 6 -6.7537 -15.2509 -7.4594 9.9152 -12.1065 32.9687
#
#
#
# Elastic Compliance Matrix: (Units=1/GPa)
#
#
# Indices 1 2 3 4 5 6 
#
# 1 0.013193 0.002035 0.000038 0.009465 -0.005690 -0.001284
# 2 0.002035 0.011519 0.001503 0.010016 -0.003178 0.001906
# 3 0.000038 0.001503 0.023496 0.019015 -0.015139 -0.005259
# 4 0.009465 0.010016 0.019015 0.051375 -0.015799 -0.010378
# 5 -0.005690 -0.003178 -0.015139 -0.015799 0.035018 0.011549
# 6 -0.001284 0.001906 -0.005259 -0.010378 0.011549 0.037123
#
#
# Mechanical properties :
#
#
# Convention : Reuss Voigt Hill
#
# Bulk Modulus (GPa) = 18.06317 49.24234 33.65275
# Shear Modulus (GPa) = 27.31858 41.26762 34.29310
#
# Velocity S-wave (km/s) = 3.51390 4.31882 3.93698
# Velocity P-wave (km/s) = 4.96261 6.86485 5.98973
#
# Compressibility (1/GPa) = 0.05536126
#
# Stress axis : x y z
#
# Youngs Moduli (GPa) = 75.79711 86.81066 42.55991
#
# Poissons Ratio (x) = -0.17667 -0.00161
# Poissons Ratio (y) = -0.15426 -0.06398
# Poissons Ratio (z) = -0.00286 -0.13050
#
# Static dielectric constant tensor:
#      x y z
#    x 1.868130 -0.012140 0.030200 
#    y -0.012140 1.827960 0.045150 
#    z 0.030200 0.045150 1.789590 
# 
# From -- ./inp_files/272939.got.cif
#   From: 2010.05.17/outbox.cif.g08.bks.cpg/sg2_137_cif.got.tgz:272939.got - 2010.06.03 11:33:40.
