data_PCOD9098629
_publ_section_title
;
Structure prediction by ZEFSAII (Michael W. Deem and Ramdas Pophale) SiO2 
 PCOD9098629
Probable space group: P -1
;
_chemical_formula_sum "Si O2"
_cell_formula_units_Z 16
_cell_length_a 11.481362
_cell_length_b 22.438625
_cell_length_c 15.951434
_cell_angle_alpha 15.630176
_cell_angle_beta 43.637296
_cell_angle_gamma 42.285134
_cell_volume 743.512442
_symmetry_space_group_name_H-M "P -1"
_symmetry_group_IT_number 2
_symmetry_cell_setting 'triclinic'
loop_
_space_group_symop_operation_xyz
x,y,z
-x,-y,-z
loop_
_atom_site_type_symbol
_atom_site_label
_atom_site_fract_x
_atom_site_fract_y
_atom_site_fract_z
Si Si1 0.963266 0.331159 0.818770
Si Si2 0.746205 0.207888 0.741714
Si Si3 0.574155 0.837677 0.358366
Si Si4 0.519273 0.466101 0.659571
Si Si5 0.026861 0.451055 0.305767
Si Si6 0.408184 0.308507 0.270272
Si Si7 0.745875 0.816837 0.021132
Si Si8 0.601169 0.315655 0.999266
O O1 0.917226 0.500241 0.694736
O O2 0.807525 0.219421 0.024365
O O3 0.000000 0.500000 0.500000
O O4 0.120651 0.143322 0.031583
O O5 0.603466 0.305082 0.757225
O O6 0.668065 0.375488 0.479140
O O7 0.931139 0.245989 0.621837
O O8 0.723499 0.954162 0.087304
O O9 0.579049 0.850206 0.439966
O O10 0.587172 0.581772 0.668921
O O11 0.394579 0.981047 0.218362
O O12 0.528305 0.327006 0.928496
O O13 0.645550 0.643742 0.353117
O O14 0.205325 0.411806 0.216273
O O15 0.868581 0.674917 0.076324
O O16 0.500000 0.500000 0.000000
O O17 0.505436 0.219360 0.254826
#
# Coordination Sequence:
#
# PCOD9098629 Si02
#       8
#     2   2   2   2   2   2   2   2
#     4  10  16  31  52  78 102 136 168 213 263 311
#     4   9  18  32  54  80 103 133 174 220 267 307
#     4  10  19  32  53  84 105 132 178 225 257 299
#     4   9  17  33  53  76 105 140 169 212 272 319
#     4   9  17  33  51  74 105 144 173 202 265 331
#     4  10  19  35  50  73 109 149 172 204 266 319
#     4   8  16  28  50  78  98 130 173 213 254 301
#     4  11  20  35  54  78 107 141 176 214 262 314
#
# _framework density 21.519479
#
# number of rings (size 3 to 8) (size 9 to 14) (size 15 to 20)
#    0.750    1.750    3.750    0.750    0.000    2.500 
#    0.000    6.875    0.000    0.000    0.000    0.000 
#    0.000    0.000    0.000    0.000    0.000    0.000 
#
# Total GULP energy -89134.164055 kJ/mol
# GULP energy per Si atom -5570.885253 kJ/mol
# Density = 2.147050 g / cm^3
# Si number density = 21.519479 Si / 1000 Ang^3
#
#
#
# Elastic Constant Matrix: (Units=GPa)
#
#
# Indices 1 2 3 4 5 6 
#
# 1 78.2766 13.3882 18.9060 7.2399 10.7157 -0.2108
# 2 13.3882 50.0329 7.6295 13.5477 -3.0695 5.1813
# 3 18.9060 7.6295 40.1956 -4.0912 0.0987 -7.3843
# 4 7.2399 13.5477 -4.0912 25.6597 -2.4162 1.6992
# 5 10.7157 -3.0695 0.0987 -2.4162 22.5389 7.9614
# 6 -0.2108 5.1813 -7.3843 1.6992 7.9614 30.7816
#
#
#
# Elastic Compliance Matrix: (Units=1/GPa)
#
#
# Indices 1 2 3 4 5 6 
#
# 1 0.016905 -0.002541 -0.007756 -0.005652 -0.009465 0.001443
# 2 -0.002541 0.026259 -0.006382 -0.013175 0.005779 -0.006736
# 3 -0.007756 -0.006382 0.032238 0.010264 0.000974 0.007936
# 4 -0.005652 -0.013175 0.010264 0.049708 0.006060 0.000330
# 5 -0.009465 0.005779 0.000974 0.006060 0.055800 -0.015571
# 6 0.001443 -0.006736 0.007936 0.000330 -0.015571 0.039543
#
#
# Mechanical properties :
#
#
# Convention : Reuss Voigt Hill
#
# Bulk Modulus (GPa) = 23.78376 27.59470 25.68923
# Shear Modulus (GPa) = 18.66878 24.36814 21.51846
#
# Velocity S-wave (km/s) = 2.94858 3.36873 3.16563
# Velocity P-wave (km/s) = 4.76113 5.28981 5.03242
#
# Compressibility (1/GPa) = 0.04204550
#
# Stress axis : x y z
#
# Youngs Moduli (GPa) = 59.15257 38.08165 31.01912
#
# Poissons Ratio (x) = 0.09675 0.24059
# Poissons Ratio (y) = 0.15028 0.19796
# Poissons Ratio (z) = 0.45880 0.24303
#
# Static dielectric constant tensor:
#      x y z
#    x 1.812170 -0.001440 -0.007310 
#    y -0.001440 1.889420 -0.046190 
#    z -0.007310 -0.046190 1.787980 
# 
# From -- ./inp_files/523711.got.cif
#   From: 2010.05.17/outbox.cif.g08.bks.cpg/sg2_262_cif.got.tgz:523711.got - 2010.06.03 11:33:40.
