data_PCOD9098676
_publ_section_title
;
Structure prediction by ZEFSAII (Michael W. Deem and Ramdas Pophale) SiO2 
 PCOD9098676
Probable space group: P -1
;
_chemical_formula_sum "Si O2"
_cell_formula_units_Z 11
_cell_length_a 6.749385
_cell_length_b 14.354099
_cell_length_c 6.491882
_cell_angle_alpha 44.867151
_cell_angle_beta 112.376377
_cell_angle_gamma 121.417791
_cell_volume 378.580103
_symmetry_space_group_name_H-M "P -1"
_symmetry_group_IT_number 2
_symmetry_cell_setting 'triclinic'
loop_
_space_group_symop_operation_xyz
x,y,z
-x,-y,-z
loop_
_atom_site_type_symbol
_atom_site_label
_atom_site_fract_x
_atom_site_fract_y
_atom_site_fract_z
Si Si1 0.368609 0.138193 0.078946
Si Si2 0.500000 0.000000 0.000000
Si Si3 0.492911 0.592566 0.599788
Si Si4 0.755977 0.827091 0.607953
Si Si5 0.141694 0.749718 0.688966
Si Si6 0.892653 0.524334 0.655111
O O1 0.334332 0.005655 0.125992
O O2 0.195970 0.149771 0.166296
O O3 0.600464 0.170114 0.254404
O O4 0.437419 0.267545 0.740175
O O5 0.652196 0.937629 0.306317
O O6 0.567431 0.665299 0.737462
O O7 0.224395 0.505230 0.572004
O O8 0.666604 0.521559 0.702835
O O9 0.978814 0.830950 0.564431
O O10 0.085521 0.679375 0.548619
O O11 0.058571 0.606323 0.025141
#
# Coordination Sequence:
#
# PCOD9098676 Si02
#       6
#     2   1   2   2   2   2
#     4  10  20  37  56  78 105 138 176 220 265 311
#     4  10  22  40  58  74 104 138 174 226 278 312
#     4   8  16  32  54  78 112 144 170 208 256 308
#     4  10  20  37  56  78 105 138 176 220 265 311
#     4   9  18  33  56  80 108 141 176 213 254 308
#     4   8  14  32  52  76 116 144 164 212 254 298
#
# _framework density 29.055937
#
# number of rings (size 3 to 8) (size 9 to 14) (size 15 to 20)
#    0.000    2.909    0.000    0.545    0.000    0.727 
#    0.000   52.727    0.000    0.000    0.000    0.000 
#    0.000    0.000    0.000    0.000    0.000    0.000 
#
# Total GULP energy -61365.110062 kJ/mol
# GULP energy per Si atom -5578.646369 kJ/mol
# Density = 2.898980 g / cm^3
# Si number density = 29.055937 Si / 1000 Ang^3
#
#
#
# Elastic Constant Matrix: (Units=GPa)
#
#
# Indices 1 2 3 4 5 6 
#
# 1 82.1440 11.6328 22.4755 3.1768 9.8751 -18.3069
# 2 11.6328 175.1639 -7.5365 10.2889 -20.5467 -14.4634
# 3 22.4755 -7.5365 89.3793 6.3339 14.7129 -9.0545
# 4 3.1768 10.2889 6.3339 42.2173 -11.0689 -3.8894
# 5 9.8751 -20.5467 14.7129 -11.0689 49.8572 13.5554
# 6 -18.3069 -14.4634 -9.0545 -3.8894 13.5554 60.6614
#
#
#
# Elastic Compliance Matrix: (Units=1/GPa)
#
#
# Indices 1 2 3 4 5 6 
#
# 1 0.014587 -0.001114 -0.002545 -0.001093 -0.004091 0.004601
# 2 -0.001114 0.006174 0.000563 -0.000860 0.002227 0.000667
# 3 -0.002545 0.000563 0.012994 -0.002829 -0.004293 0.002084
# 4 -0.001093 -0.000860 -0.002829 0.026088 0.006701 -0.000782
# 5 -0.004091 0.002227 -0.004293 0.006701 0.026392 -0.006812
# 6 0.004601 0.000667 0.002084 -0.000782 -0.006812 0.019816
#
#
# Mechanical properties :
#
#
# Convention : Reuss Voigt Hill
#
# Bulk Modulus (GPa) = 36.28148 44.42566 40.35357
# Shear Modulus (GPa) = 41.17556 51.88821 46.53189
#
# Velocity S-wave (km/s) = 3.76854 4.23046 4.00616
# Velocity P-wave (km/s) = 5.60801 6.25982 5.94285
#
# Compressibility (1/GPa) = 0.02756227
#
# Stress axis : x y z
#
# Youngs Moduli (GPa) = 68.55277 161.97174 76.95899
#
# Poissons Ratio (x) = 0.18044 0.19587
# Poissons Ratio (y) = 0.07637 -0.04331
# Poissons Ratio (z) = 0.17448 -0.09115
#
# Static dielectric constant tensor:
#      x y z
#    x 2.333350 0.039170 -0.085820 
#    y 0.039170 2.468480 -0.106470 
#    z -0.085820 -0.106470 2.271560 
# 
# From -- ./inp_files/133904.got.cif
#   From: 2010.05.17/outbox.cif.g08.bks.cpg/sg2_67_cif.got.tgz:133904.got - 2010.06.03 11:33:40.
