data_PCOD9098814
_publ_section_title
;
Structure prediction by ZEFSAII (Michael W. Deem and Ramdas Pophale) SiO2 
 PCOD9098814
Probable space group: P -1
;
_chemical_formula_sum "Si O2"
_cell_formula_units_Z 14
_cell_length_a 17.724442
_cell_length_b 16.689488
_cell_length_c 8.047694
_cell_angle_alpha 77.854532
_cell_angle_beta 70.764761
_cell_angle_gamma 17.978294
_cell_volume 649.021730
_symmetry_space_group_name_H-M "P -1"
_symmetry_group_IT_number 2
_symmetry_cell_setting 'triclinic'
loop_
_space_group_symop_operation_xyz
x,y,z
-x,-y,-z
loop_
_atom_site_type_symbol
_atom_site_label
_atom_site_fract_x
_atom_site_fract_y
_atom_site_fract_z
Si Si1 0.114209 0.839521 0.643714
Si Si2 0.273981 0.279046 0.453752
Si Si3 0.563542 0.383240 0.264387
Si Si4 0.023848 0.666463 0.688242
Si Si5 0.537843 0.719549 0.223596
Si Si6 0.413647 0.704820 0.063648
Si Si7 0.463995 0.943888 0.982917
O O1 0.386054 0.539069 0.490585
O O2 0.153543 0.869441 0.745882
O O3 0.000000 0.000000 0.500000
O O4 0.907090 0.977397 0.806549
O O5 0.420460 0.170831 0.233384
O O6 0.000000 0.500000 0.500000
O O7 0.172411 0.453603 0.562329
O O8 0.500000 0.000000 0.500000
O O9 0.489947 0.542491 0.161098
O O10 0.543978 0.339205 0.146250
O O11 0.257139 0.490167 0.682927
O O12 0.784357 0.953081 0.644870
O O13 0.839173 0.794609 0.895364
O O14 0.553139 0.637424 0.102452
O O15 0.616496 0.730340 0.083341
O O16 0.500000 0.000000 0.000000
#
# Coordination Sequence:
#
# PCOD9098814 Si02
#       7
#     2   2   2   2   2   2   2
#     4   9  18  35  56  89 115 152 198 252 305 351
#     4  12  23  37  67  93 113 156 205 252 305 366
#     4   9  19  35  62  84 119 151 207 253 292 367
#     4  10  23  43  57  91 125 157 203 248 310 360
#     4  10  24  42  61  86 130 164 197 256 310 361
#     4  10  20  37  57  88 114 163 201 246 309 357
#     4  10  22  41  64  87 123 157 201 256 301 364
#
# _framework density 21.570927000000001
#
# number of rings (size 3 to 8) (size 9 to 14) (size 15 to 20)
#    0.857    1.143    1.429    2.143    4.000    1.143 
#    2.571    0.000    0.000    0.000    0.000    0.000 
#    0.000    0.000    0.000    0.000    0.000    0.000 
#
# Total GULP energy -77967.480632 kJ/mol
# GULP energy per Si atom -5569.105759 kJ/mol
# Density = 2.152183 g / cm^3
# Si number density = 21.570927 Si / 1000 Ang^3
#
#
#
# Elastic Constant Matrix: (Units=GPa)
#
#
# Indices 1 2 3 4 5 6 
#
# 1 122.2432 34.9854 13.6881 7.6323 30.0525 -22.0779
# 2 34.9854 109.6430 11.9641 7.4911 18.8045 -23.9118
# 3 13.6881 11.9641 90.5806 15.1182 22.6431 -10.1368
# 4 7.6323 7.4911 15.1182 19.1709 -0.2004 2.2216
# 5 30.0525 18.8045 22.6431 -0.2004 36.6048 -5.7653
# 6 -22.0779 -23.9118 -10.1368 2.2216 -5.7653 40.2078
#
#
#
# Elastic Compliance Matrix: (Units=1/GPa)
#
#
# Indices 1 2 3 4 5 6 
#
# 1 0.012176 -0.000556 0.002818 -0.007655 -0.010555 0.005975
# 2 -0.000556 0.012063 0.001859 -0.006816 -0.005844 0.006875
# 3 0.002818 0.001859 0.016933 -0.016027 -0.012893 0.005959
# 4 -0.007655 -0.006816 -0.016027 0.072290 0.017935 -0.013720
# 5 -0.010555 -0.005844 -0.012893 0.017935 0.045970 -0.006921
# 6 0.005975 0.006875 0.005959 -0.013720 -0.006921 0.033508
#
#
# Mechanical properties :
#
#
# Convention : Reuss Voigt Hill
#
# Bulk Modulus (GPa) = 20.23745 49.30465 34.77105
# Shear Modulus (GPa) = 24.85464 36.65199 30.75331
#
# Velocity S-wave (km/s) = 3.39813 4.12653 3.77992
# Velocity P-wave (km/s) = 4.97982 6.75359 5.93336
#
# Compressibility (1/GPa) = 0.04941333
#
# Stress axis : x y z
#
# Youngs Moduli (GPa) = 82.12891 82.90050 59.05558
#
# Poissons Ratio (x) = 0.04612 -0.16644
# Poissons Ratio (y) = 0.04569 -0.10977
# Poissons Ratio (z) = -0.23147 -0.15409
#
# Static dielectric constant tensor:
#      x y z
#    x 9.030370 2.021260 -5.535710 
#    y 2.021260 2.479670 -1.519670 
#    z -5.535710 -1.519670 6.026430 
# 
# From -- ./inp_files/336521.got.cif
#   From: 2010.05.17/outbox.cif.g08.bks.cpg/sg2_169_cif.got.tgz:336521.got - 2010.06.03 11:33:40.
