data_PCOD9098244
_publ_section_title
;
Structure prediction by ZEFSAII (Michael W. Deem and Ramdas Pophale) SiO2 
 PCOD9098244
Probable space group: P -1
;
_chemical_formula_sum "Si O2"
_cell_formula_units_Z 14
_cell_length_a 12.248637
_cell_length_b 8.976672
_cell_length_c 15.969331
_cell_angle_alpha 148.461043
_cell_angle_beta 47.889968
_cell_angle_gamma 120.363568
_cell_volume 671.427929
_symmetry_space_group_name_H-M "P -1"
_symmetry_group_IT_number 2
_symmetry_cell_setting 'triclinic'
loop_
_space_group_symop_operation_xyz
x,y,z
-x,-y,-z
loop_
_atom_site_type_symbol
_atom_site_label
_atom_site_fract_x
_atom_site_fract_y
_atom_site_fract_z
Si Si1 0.059960 0.643326 0.903102
Si Si2 0.432580 0.372248 0.053322
Si Si3 0.126159 0.573265 0.531727
Si Si4 0.851825 0.815642 0.241888
Si Si5 0.552995 0.667232 0.292803
Si Si6 0.115472 0.236831 0.113248
Si Si7 0.438331 0.188896 0.203651
O O1 0.128608 0.314615 0.736519
O O2 0.928564 0.671474 0.915281
O O3 0.998770 0.754894 0.079425
O O4 0.151754 0.886891 0.938914
O O5 0.476804 0.550589 0.195686
O O6 0.255905 0.369900 0.136967
O O7 0.500000 0.500000 0.000000
O O8 0.513053 0.038425 0.858075
O O9 0.262687 0.311107 0.347640
O O10 0.000000 0.500000 0.500000
O O11 0.035689 0.662319 0.706689
O O12 0.190974 0.840482 0.584315
O O13 0.729588 0.650063 0.183373
O O14 0.519216 0.466143 0.290610
O O15 0.500000 0.000000 0.500000
O O16 0.500000 0.000000 0.000000
#
# Coordination Sequence:
#
# PCOD9098244 Si02
#       7
#     2   2   2   2   2   2   2
#     4   9  20  39  64  93 124 165 204 260 322 380
#     4  11  24  42  66  93 128 172 213 262 324 386
#     4  11  22  38  60  92 124 164 212 261 312 373
#     4  10  20  36  64  92 121 162 210 255 315 384
#     4  11  21  39  65  91 125 163 212 260 314 379
#     4  10  21  40  64  91 131 164 208 264 318 374
#     4  10  22  41  62  89 126 169 211 258 317 376
#
# _framework density 20.851082000000002
#
# number of rings (size 3 to 8) (size 9 to 14) (size 15 to 20)
#    0.000    1.714    1.429    3.429    0.000    6.857 
#    2.571    2.143    0.000    0.000    0.000    0.000 
#    0.000    0.000    0.000    0.000    0.000    0.000 
#
# Total GULP energy -78038.143049 kJ/mol
# GULP energy per Si atom -5574.153075 kJ/mol
# Density = 2.080362 g / cm^3
# Si number density = 20.851082 Si / 1000 Ang^3
#
#
#
# Elastic Constant Matrix: (Units=GPa)
#
#
# Indices 1 2 3 4 5 6 
#
# 1 122.6733 70.6714 32.4252 11.6225 0.8867 9.3927
# 2 70.6714 154.3140 41.7926 20.8976 -8.8325 -13.7069
# 3 32.4252 41.7926 76.2545 13.8003 -19.9147 -8.0871
# 4 11.6225 20.8976 13.8003 27.6263 5.4571 -2.1455
# 5 0.8867 -8.8325 -19.9147 5.4571 31.6133 2.3025
# 6 9.3927 -13.7069 -8.0871 -2.1455 2.3025 47.1887
#
#
#
# Elastic Compliance Matrix: (Units=1/GPa)
#
#
# Indices 1 2 3 4 5 6 
#
# 1 0.012722 -0.005529 -0.004338 0.001543 -0.004566 -0.004589
# 2 -0.005529 0.010579 -0.001347 -0.005303 0.002918 0.003559
# 3 -0.004338 -0.001347 0.021973 -0.010912 0.015252 0.002997
# 4 0.001543 -0.005303 -0.010912 0.048249 -0.016676 -0.000710
# 5 -0.004566 0.002918 0.015252 -0.016676 0.044959 0.001418
# 6 -0.004589 0.003559 0.002997 -0.000710 0.001418 0.023551
#
#
# Mechanical properties :
#
#
# Convention : Reuss Voigt Hill
#
# Bulk Modulus (GPa) = 43.77364 71.44669 57.61017
# Shear Modulus (GPa) = 26.03129 35.17585 30.60357
#
# Velocity S-wave (km/s) = 3.53716 4.11177 3.83524
# Velocity P-wave (km/s) = 6.14174 7.54200 6.87760
#
# Compressibility (1/GPa) = 0.02284480
#
# Stress axis : x y z
#
# Youngs Moduli (GPa) = 78.60466 94.52852 45.51062
#
# Poissons Ratio (x) = 0.52269 0.19740
# Poissons Ratio (y) = 0.43464 0.06132
# Poissons Ratio (z) = 0.34095 0.12737
#
# Static dielectric constant tensor:
#      x y z
#    x 1.791620 -0.027430 -0.051050 
#    y -0.027430 1.816920 0.004320 
#    z -0.051050 0.004320 1.847220 
# 
# From -- ./inp_files/333649.got.cif
#   From: 2010.05.17/outbox.cif.g08.bks.cpg/sg2_167_cif.got.tgz:333649.got - 2010.06.03 11:33:40.
