data_PCOD9098397
_publ_section_title
;
Structure prediction by ZEFSAII (Michael W. Deem and Ramdas Pophale) SiO2 
 PCOD9098397
Probable space group: P -1
;
_chemical_formula_sum "Si O2"
_cell_formula_units_Z 16
_cell_length_a 6.959053
_cell_length_b 20.244380
_cell_length_c 12.708012
_cell_angle_alpha 156.433708
_cell_angle_beta 123.399719
_cell_angle_gamma 61.696358
_cell_volume 595.090630
_symmetry_space_group_name_H-M "P -1"
_symmetry_group_IT_number 2
_symmetry_cell_setting 'triclinic'
loop_
_space_group_symop_operation_xyz
x,y,z
-x,-y,-z
loop_
_atom_site_type_symbol
_atom_site_label
_atom_site_fract_x
_atom_site_fract_y
_atom_site_fract_z
Si Si1 0.606007 0.024510 0.384661
Si Si2 0.228914 0.371521 0.481390
Si Si3 0.865646 0.623145 0.763978
Si Si4 0.881323 0.548357 0.873144
Si Si5 0.066102 0.751651 0.419919
Si Si6 0.401370 0.609286 0.039987
Si Si7 0.908656 0.014392 0.640631
Si Si8 0.556922 0.914918 0.782691
O O1 0.444873 0.972625 0.158952
O O2 0.680853 0.951173 0.412905
O O3 0.864066 0.031942 0.422423
O O4 0.517263 0.199769 0.646595
O O5 0.285528 0.347279 0.341202
O O6 0.411502 0.513190 0.792845
O O7 0.242698 0.204153 0.307859
O O8 0.985658 0.452291 0.532504
O O9 0.738789 0.606904 0.815405
O O10 0.052950 0.786795 0.051190
O O11 0.131604 0.600728 0.974262
O O12 0.896981 0.355230 0.621931
O O13 0.901130 0.642388 0.128452
O O14 0.328695 0.786015 0.509081
O O15 0.955332 0.926723 0.637661
O O16 0.500000 0.500000 0.000000
O O17 0.500000 0.000000 0.000000
#
# Coordination Sequence:
#
# PCOD9098397 Si02
#       8
#     2   2   2   2   2   2   2   2
#     4  10  17  28  50  80  99 132 177 217 259 295
#     4  10  19  30  51  79 103 135 180 218 262 305
#     4  10  19  32  53  81 103 139 179 222 261 309
#     4  10  18  34  53  82 107 138 175 220 264 319
#     4  10  20  32  54  81 108 140 177 213 273 313
#     4  11  17  32  55  81 104 133 177 225 256 308
#     4  10  16  31  51  77 107 131 177 222 252 311
#     4  11  20  33  51  80 111 138 176 224 263 314
#
# _framework density 26.886661
#
# number of rings (size 3 to 8) (size 9 to 14) (size 15 to 20)
#    0.000    1.750    6.250    2.250    0.000    0.000 
#    0.000    0.625    0.000   21.000    3.250    0.000 
#    0.000    0.000    0.000    0.000    0.000    0.000 
#
# Total GULP energy -89139.994130 kJ/mol
# GULP energy per Si atom -5571.249633 kJ/mol
# Density = 2.682547 g / cm^3
# Si number density = 26.886661 Si / 1000 Ang^3
#
#
#
# Elastic Constant Matrix: (Units=GPa)
#
#
# Indices 1 2 3 4 5 6 
#
# 1 44.0299 -9.7917 -4.3710 3.0324 0.0695 3.2403
# 2 -9.7917 185.3972 44.2392 0.0264 -16.7047 5.1652
# 3 -4.3710 44.2392 75.0452 -3.9210 -28.5739 2.7748
# 4 3.0324 0.0264 -3.9210 60.3775 1.3463 -13.0008
# 5 0.0695 -16.7047 -28.5739 1.3463 27.0101 3.1609
# 6 3.2403 5.1652 2.7748 -13.0008 3.1609 24.0933
#
#
#
# Elastic Compliance Matrix: (Units=1/GPa)
#
#
# Indices 1 2 3 4 5 6 
#
# 1 0.023753 0.001227 0.002165 -0.002308 0.003740 -0.005443
# 2 0.001227 0.006375 -0.003488 -0.000631 0.000461 -0.001531
# 3 0.002165 -0.003488 0.025385 -0.000310 0.025407 -0.005968
# 4 -0.002308 -0.000631 -0.000310 0.019136 -0.002977 0.011198
# 5 0.003740 0.000461 0.025407 -0.002977 0.065938 -0.013785
# 6 -0.005443 -0.001531 -0.005968 0.011198 -0.013785 0.051104
#
#
# Mechanical properties :
#
#
# Convention : Reuss Voigt Hill
#
# Bulk Modulus (GPa) = 18.07594 40.51392 29.29493
# Shear Modulus (GPa) = 23.77291 40.58922 32.18106
#
# Velocity S-wave (km/s) = 2.97676 3.88963 3.46340
# Velocity P-wave (km/s) = 4.30725 5.93914 5.18776
#
# Compressibility (1/GPa) = 0.05532216
#
# Stress axis : x y z
#
# Youngs Moduli (GPa) = 42.09946 156.86094 39.39262
#
# Poissons Ratio (x) = -0.19245 -0.08528
# Poissons Ratio (y) = -0.05165 0.13739
# Poissons Ratio (z) = -0.09114 0.54707
#
# Static dielectric constant tensor:
#      x y z
#    x 2.156910 0.047740 -0.012450 
#    y 0.047740 2.558450 -0.174750 
#    z -0.012450 -0.174750 2.218590 
# 
# From -- ./inp_files/524242.got.cif
#   From: 2010.05.17/outbox.cif.g08.bks.cpg/sg2_263_cif.got.tgz:524242.got - 2010.06.03 11:33:40.
