data_PCOD9098532
_publ_section_title
;
Structure prediction by ZEFSAII (Michael W. Deem and Ramdas Pophale) SiO2 
 PCOD9098532
Probable space group: P -1
;
_chemical_formula_sum "Si O2"
_cell_formula_units_Z 16
_cell_length_a 8.985818
_cell_length_b 8.946065
_cell_length_c 8.722549
_cell_angle_alpha 73.581741
_cell_angle_beta 98.714682
_cell_angle_gamma 102.584367
_cell_volume 653.400113
_symmetry_space_group_name_H-M "P -1"
_symmetry_group_IT_number 2
_symmetry_cell_setting 'triclinic'
loop_
_space_group_symop_operation_xyz
x,y,z
-x,-y,-z
loop_
_atom_site_type_symbol
_atom_site_label
_atom_site_fract_x
_atom_site_fract_y
_atom_site_fract_z
Si Si1 0.758661 0.336626 0.989861
Si Si2 0.026813 0.666969 0.539660
Si Si3 0.722879 0.631072 0.077495
Si Si4 0.013257 0.215228 0.180464
Si Si5 0.641938 0.838523 0.771810
Si Si6 0.181589 0.134642 0.727872
Si Si7 0.654963 0.311809 0.318301
Si Si8 0.470469 0.883430 0.177204
O O1 0.775288 0.520775 0.984900
O O2 0.693248 0.257725 0.166646
O O3 0.922179 0.285532 0.009137
O O4 0.644749 0.273045 0.853617
O O5 0.994035 0.662328 0.717069
O O6 0.912293 0.773012 0.426507
O O7 0.000000 0.500000 0.500000
O O8 0.210374 0.727604 0.543526
O O9 0.827330 0.778656 0.134431
O O10 0.670392 0.501528 0.239899
O O11 0.601096 0.714637 0.945837
O O12 0.182072 0.172997 0.217758
O O13 0.904950 0.044704 0.238904
O O14 0.517186 0.767007 0.646797
O O15 0.614693 0.012673 0.754124
O O16 0.364229 0.144844 0.731516
O O17 0.500000 0.000000 0.000000
#
# Coordination Sequence:
#
# PCOD9098532 Si02
#       8
#     2   2   2   2   2   2   2   2
#     4   9  19  36  58  88 123 154 210 237 297 362
#     4  11  22  45  70  86 114 160 218 251 287 369
#     4  10  20  36  68  90 119 160 210 246 300 363
#     4  11  24  40  58  96 126 158 197 252 317 351
#     4  12  23  37  62  92 134 156 192 261 307 358
#     4  12  22  39  67  90 117 167 210 244 297 367
#     4   9  19  38  62  90 115 159 208 245 290 360
#     4  12  19  36  60  90 123 160 204 239 297 372
#
# _framework density 24.487293000000001
#
# number of rings (size 3 to 8) (size 9 to 14) (size 15 to 20)
#    0.750    0.500    5.000    1.500    1.750    2.500 
#    0.000    4.375    0.000    0.000    0.000    0.000 
#    0.000    0.000    0.000    0.000    0.000    0.000 
#
# Total GULP energy -89249.947060 kJ/mol
# GULP energy per Si atom -5578.121691 kJ/mol
# Density = 2.443156 g / cm^3
# Si number density = 24.487293 Si / 1000 Ang^3
#
#
#
# Elastic Constant Matrix: (Units=GPa)
#
#
# Indices 1 2 3 4 5 6 
#
# 1 161.8997 66.2670 62.5643 9.4458 63.3356 -15.5137
# 2 66.2670 123.5350 31.5204 9.5692 15.6366 -23.7440
# 3 62.5643 31.5204 92.3104 -0.8367 53.2575 -1.3439
# 4 9.4458 9.5692 -0.8367 35.3756 -2.6198 14.5020
# 5 63.3356 15.6366 53.2575 -2.6198 56.5465 -0.9102
# 6 -15.5137 -23.7440 -1.3439 14.5020 -0.9102 30.5725
#
#
#
# Elastic Compliance Matrix: (Units=1/GPa)
#
#
# Indices 1 2 3 4 5 6 
#
# 1 0.015481 -0.004394 0.001046 -0.007241 -0.017327 0.007408
# 2 -0.004394 0.013802 -0.004784 -0.007112 0.005471 0.011816
# 3 0.001046 -0.004784 0.025472 0.001228 -0.023836 -0.003357
# 4 -0.007241 -0.007112 0.001228 0.045378 0.010534 -0.030355
# 5 -0.017327 0.005471 -0.023836 0.010534 0.058374 -0.008850
# 6 0.007408 0.011816 -0.003357 -0.030355 -0.008850 0.059633
#
#
# Mechanical properties :
#
#
# Convention : Reuss Voigt Hill
#
# Bulk Modulus (GPa) = 25.97871 77.60537 51.79204
# Shear Modulus (GPa) = 20.22385 38.99181 29.60783
#
# Velocity S-wave (km/s) = 2.87695 3.99473 3.48100
# Velocity P-wave (km/s) = 4.65488 7.28272 6.11171
#
# Compressibility (1/GPa) = 0.03849306
#
# Stress axis : x y z
#
# Youngs Moduli (GPa) = 64.59444 72.45472 39.25929
#
# Poissons Ratio (x) = 0.31833 -0.04108
# Poissons Ratio (y) = 0.28380 0.18780
# Poissons Ratio (z) = -0.06759 0.34659
#
# Static dielectric constant tensor:
#      x y z
#    x 2.084430 0.050270 -0.072840 
#    y 0.050270 1.943380 0.003150 
#    z -0.072840 0.003150 2.046930 
# 
# From -- ./inp_files/378883.got.cif
#   From: 2010.05.17/outbox.cif.g08.bks.cpg/sg2_190_cif.got.tgz:378883.got - 2010.06.03 11:33:40.
