data_PCOD9098802
_publ_section_title
;
Structure prediction by ZEFSAII (Michael W. Deem and Ramdas Pophale) SiO2 
 PCOD9098802
Probable space group: P -1
;
_chemical_formula_sum "Si O2"
_cell_formula_units_Z 14
_cell_length_a 10.940241
_cell_length_b 9.474079
_cell_length_c 9.469282
_cell_angle_alpha 84.917274
_cell_angle_beta 75.039358
_cell_angle_gamma 40.133147
_cell_volume 601.786827
_symmetry_space_group_name_H-M "P -1"
_symmetry_group_IT_number 2
_symmetry_cell_setting 'triclinic'
loop_
_space_group_symop_operation_xyz
x,y,z
-x,-y,-z
loop_
_atom_site_type_symbol
_atom_site_label
_atom_site_fract_x
_atom_site_fract_y
_atom_site_fract_z
Si Si1 0.551351 0.893111 0.679557
Si Si2 0.320652 0.612574 0.850513
Si Si3 0.923213 0.882570 0.793314
Si Si4 0.856676 0.431207 0.484465
Si Si5 0.750860 0.940092 0.450246
Si Si6 0.698926 0.253756 0.588513
Si Si7 0.530819 0.236396 0.044836
O O1 0.692665 0.686518 0.546177
O O2 0.621082 0.991340 0.617940
O O3 0.565539 0.806631 0.832791
O O4 0.334490 0.047222 0.669148
O O5 0.474981 0.444030 0.694259
O O6 0.386095 0.709019 0.883667
O O7 0.094600 0.797361 0.850295
O O8 0.375680 0.449272 0.969214
O O9 0.030143 0.666805 0.689891
O O10 0.841848 0.065983 0.685112
O O11 0.724797 0.013712 0.924315
O O12 0.760592 0.360026 0.533434
O O13 0.025786 0.296519 0.564778
O O14 0.729761 0.126427 0.456134
#
# Coordination Sequence:
#
# PCOD9098802 Si02
#       7
#     2   2   2   2   2   2   2
#     4  11  23  40  62  86 120 158 190 238 297 347
#     4  10  20  37  57  86 122 151 194 242 287 344
#     4  10  21  35  57  87 119 150 189 248 289 339
#     4  11  22  38  63  89 115 153 199 245 288 339
#     4  10  23  39  60  90 120 150 195 243 291 348
#     4  10  21  37  61  92 114 150 200 246 287 338
#     4  10  22  36  55  87 119 154 195 234 291 348
#
# _framework density 23.264050000000001
#
# number of rings (size 3 to 8) (size 9 to 14) (size 15 to 20)
#    0.000    1.714    1.429    3.429    4.000    2.286 
#    0.000    6.429    0.000    7.714    0.000    0.000 
#    0.000    0.000    0.000    0.000    0.000    0.000 
#
# Total GULP energy -78332.003781 kJ/mol
# GULP energy per Si atom -5595.143127 kJ/mol
# Density = 2.321110 g / cm^3
# Si number density = 23.264050 Si / 1000 Ang^3
#
#
#
# Elastic Constant Matrix: (Units=GPa)
#
#
# Indices 1 2 3 4 5 6 
#
# 1 67.4821 23.3290 -1.3979 -17.2231 -1.2300 -3.9522
# 2 23.3290 85.5887 22.5802 -6.5148 2.4646 -15.8604
# 3 -1.3979 22.5802 65.6902 2.9682 -11.9228 4.0504
# 4 -17.2231 -6.5148 2.9682 38.0708 -0.2235 12.6188
# 5 -1.2300 2.4646 -11.9228 -0.2235 26.8898 -13.4010
# 6 -3.9522 -15.8604 4.0504 12.6188 -13.4010 29.7556
#
#
#
# Elastic Compliance Matrix: (Units=1/GPa)
#
#
# Indices 1 2 3 4 5 6 
#
# 1 0.018943 -0.005989 0.002386 0.008913 0.000213 -0.004685
# 2 -0.005989 0.016664 -0.006265 -0.002810 0.000576 0.010391
# 3 0.002386 -0.006265 0.019089 -0.000963 0.008435 -0.001414
# 4 0.008913 -0.002810 -0.000963 0.036412 -0.009343 -0.019832
# 5 0.000213 0.000576 0.008435 -0.009343 0.054642 0.027758
# 6 -0.004685 0.010391 -0.001414 -0.019832 0.027758 0.059628
#
#
# Mechanical properties :
#
#
# Convention : Reuss Voigt Hill
#
# Bulk Modulus (GPa) = 28.60282 34.19816 31.40049
# Shear Modulus (GPa) = 21.11807 30.55988 25.83898
#
# Velocity S-wave (km/s) = 3.01617 3.62831 3.33631
# Velocity P-wave (km/s) = 4.94482 5.68197 5.32616
#
# Compressibility (1/GPa) = 0.03496159
#
# Stress axis : x y z
#
# Youngs Moduli (GPa) = 52.79047 60.01005 52.38707
#
# Poissons Ratio (x) = 0.35938 -0.12502
# Poissons Ratio (y) = 0.31615 0.32818
# Poissons Ratio (z) = -0.12598 0.37594
#
# Static dielectric constant tensor:
#      x y z
#    x 1.884810 -0.016080 0.023440 
#    y -0.016080 1.856800 -0.010430 
#    z 0.023440 -0.010430 1.902620 
# 
# From -- ./inp_files/253483.got.cif
#   From: 2010.05.17/outbox.cif.g08.bks.cpg/sg2_127_cif.got.tgz:253483.got - 2010.06.03 11:33:40.
