data_PCOD9098185
_publ_section_title
;
Structure prediction by ZEFSAII (Michael W. Deem and Ramdas Pophale) SiO2 
 PCOD9098185
Probable space group: P -1
;
_chemical_formula_sum "Si O2"
_cell_formula_units_Z 16
_cell_length_a 14.890873
_cell_length_b 9.941222
_cell_length_c 27.881258
_cell_angle_alpha 36.298982
_cell_angle_beta 161.685715
_cell_angle_gamma 141.193286
_cell_volume 765.560992
_symmetry_space_group_name_H-M "P -1"
_symmetry_group_IT_number 2
_symmetry_cell_setting 'triclinic'
loop_
_space_group_symop_operation_xyz
x,y,z
-x,-y,-z
loop_
_atom_site_type_symbol
_atom_site_label
_atom_site_fract_x
_atom_site_fract_y
_atom_site_fract_z
Si Si1 0.702366 0.016736 0.028729
Si Si2 0.438965 0.823553 0.768414
Si Si3 0.778423 0.719405 0.467374
Si Si4 0.663667 0.345767 0.591757
Si Si5 0.827254 0.474624 0.469616
Si Si6 0.387783 0.075336 0.369474
Si Si7 0.385441 0.354947 0.829450
Si Si8 0.707666 0.723993 0.029517
O O1 0.582744 0.799802 0.062856
O O2 0.632844 0.937515 0.962623
O O3 0.042683 0.058734 0.197692
O O4 0.554013 0.237586 0.907069
O O5 0.471093 0.622414 0.804281
O O6 0.110390 0.773883 0.635336
O O7 0.422130 0.088007 0.671093
O O8 0.665725 0.787150 0.935141
O O9 0.688170 0.481940 0.514929
O O10 0.782036 0.688911 0.420138
O O11 0.500000 0.500000 0.500000
O O12 0.974573 0.321476 0.779374
O O13 0.523115 0.099234 0.576520
O O14 0.531677 0.323637 0.358773
O O15 0.000000 0.500000 0.500000
O O16 0.049637 0.336598 0.652908
O O17 0.500000 0.000000 0.500000
O O18 0.500000 0.500000 0.000000
#
# Coordination Sequence:
#
# PCOD9098185 Si02
#       8
#     2   2   2   2   2   2   2   2
#     4  10  21  35  61  90 126 160 211 266 307 361
#     4  10  20  36  64  86 128 164 198 265 319 362
#     4  10  21  40  61  92 129 163 206 264 322 370
#     4  11  24  39  64  96 125 162 216 259 314 383
#     4  11  23  39  65  94 121 164 219 256 313 388
#     4  11  20  41  64  87 126 169 205 265 318 360
#     4  10  20  37  57  95 120 158 216 256 304 378
#     4  11  19  37  61  91 122 164 213 255 304 377
#
# _framework density 20.899706999999999
#
# number of rings (size 3 to 8) (size 9 to 14) (size 15 to 20)
#    0.000    1.500    5.000    1.500    1.750    5.000 
#    0.000    1.250    0.000    0.000    0.000    0.000 
#    0.000    0.000    0.000    0.000    0.000    0.000 
#
# Total GULP energy -89259.506543 kJ/mol
# GULP energy per Si atom -5578.719159 kJ/mol
# Density = 2.085214 g / cm^3
# Si number density = 20.899707 Si / 1000 Ang^3
#
#
#
# Elastic Constant Matrix: (Units=GPa)
#
#
# Indices 1 2 3 4 5 6 
#
# 1 59.7563 28.9395 12.9132 0.0280 6.9260 -25.2118
# 2 28.9395 114.2857 49.1128 -2.4372 6.1551 -33.4912
# 3 12.9132 49.1128 59.8823 -4.7560 -0.6186 -21.2658
# 4 0.0280 -2.4372 -4.7560 38.2636 -6.0927 5.1547
# 5 6.9260 6.1551 -0.6186 -6.0927 22.5573 -9.0455
# 6 -25.2118 -33.4912 -21.2658 5.1547 -9.0455 39.7041
#
#
#
# Elastic Compliance Matrix: (Units=1/GPa)
#
#
# Indices 1 2 3 4 5 6 
#
# 1 0.023558 -0.002727 0.001779 -0.002041 -0.001570 0.013519
# 2 -0.002727 0.015606 -0.010323 -0.001336 -0.001792 0.005668
# 3 0.001779 -0.010323 0.028225 0.002829 0.007357 0.008849
# 4 -0.002041 -0.001336 0.002829 0.027977 0.007489 -0.002834
# 5 -0.001570 -0.001792 0.007357 0.007489 0.052508 0.012422
# 6 0.013519 0.005668 0.008849 -0.002834 0.012422 0.046489
#
#
# Mechanical properties :
#
#
# Convention : Reuss Voigt Hill
#
# Bulk Modulus (GPa) = 22.29807 46.20615 34.25211
# Shear Modulus (GPa) = 21.56539 29.63558 25.60049
#
# Velocity S-wave (km/s) = 3.21573 3.76971 3.50368
# Velocity P-wave (km/s) = 4.94774 6.41125 5.72644
#
# Compressibility (1/GPa) = 0.04484694
#
# Stress axis : x y z
#
# Youngs Moduli (GPa) = 42.44925 64.07908 35.42955
#
# Poissons Ratio (x) = 0.17476 -0.06304
# Poissons Ratio (y) = 0.11577 0.36573
# Poissons Ratio (z) = -0.07553 0.66147
#
# Static dielectric constant tensor:
#      x y z
#    x 1.811790 0.030550 -0.008690 
#    y 0.030550 1.859430 -0.031460 
#    z -0.008690 -0.031460 1.720410 
# 
# From -- ./inp_files/619192.got.cif
#   From: 2010.05.17/outbox.cif.g08.bks.cpg/sg2_310_cif.got.tgz:619192.got - 2010.06.03 11:33:40.
