data_PCOD9098522
_publ_section_title
;
Structure prediction by ZEFSAII (Michael W. Deem and Ramdas Pophale) SiO2 
 PCOD9098522
Probable space group: P -1
;
_chemical_formula_sum "Si O2"
_cell_formula_units_Z 16
_cell_length_a 17.033914
_cell_length_b 9.218493
_cell_length_c 11.228372
_cell_angle_alpha 136.546353
_cell_angle_beta 58.870059
_cell_angle_gamma 87.550917
_cell_volume 730.925044
_symmetry_space_group_name_H-M "P -1"
_symmetry_group_IT_number 2
_symmetry_cell_setting 'triclinic'
loop_
_space_group_symop_operation_xyz
x,y,z
-x,-y,-z
loop_
_atom_site_type_symbol
_atom_site_label
_atom_site_fract_x
_atom_site_fract_y
_atom_site_fract_z
Si Si1 0.634110 0.760382 0.549044
Si Si2 0.742152 0.296542 0.392801
Si Si3 0.064592 0.931893 0.721637
Si Si4 0.332283 0.645391 0.903914
Si Si5 0.903391 0.577881 0.227281
Si Si6 0.122794 0.138716 0.183009
Si Si7 0.518452 0.577002 0.902336
Si Si8 0.872034 0.096540 0.610142
O O1 0.660435 0.579509 0.538531
O O2 0.604130 0.631433 0.397575
O O3 0.766665 0.681743 0.369039
O O4 0.521999 0.113816 0.865467
O O5 0.842732 0.286739 0.375546
O O6 0.660013 0.330084 0.584527
O O7 0.808912 0.008346 0.086417
O O8 0.138829 0.847567 0.488781
O O9 0.948635 0.966530 0.801736
O O10 0.995736 0.252807 0.017793
O O11 0.425597 0.625992 0.904062
O O12 0.246711 0.643503 0.060471
O O13 0.240131 0.945898 0.072252
O O14 0.877478 0.835355 0.469464
O O15 0.000000 0.500000 0.000000
O O16 0.000000 0.500000 0.500000
O O17 0.500000 0.500000 0.000000
O O18 0.000000 0.000000 0.500000
#
# Coordination Sequence:
#
# PCOD9098522 Si02
#       8
#     2   2   2   2   2   2   2   2
#     4  11  24  47  71 101 137 189 239 295 360 419
#     4  11  26  45  68 101 142 191 237 289 356 429
#     4  11  22  40  65 101 142 179 235 284 365 432
#     4  11  23  45  73  99 144 181 236 294 349 425
#     4  10  20  36  67  99 136 184 221 294 362 419
#     4  11  25  42  67 109 142 178 232 291 361 430
#     4  12  28  50  72 101 137 191 252 295 351 419
#     4  11  20  37  63 105 136 180 230 287 365 421
#
# _framework density 21.890070999999999
#
# number of rings (size 3 to 8) (size 9 to 14) (size 15 to 20)
#    0.000    1.000    5.000    2.250    5.250    2.500 
#    4.500    0.000    0.000    0.000    0.000    0.000 
#    0.000    0.000    0.000    0.000    0.000    0.000 
#
# Total GULP energy -89248.667668 kJ/mol
# GULP energy per Si atom -5578.041729 kJ/mol
# Density = 2.184025 g / cm^3
# Si number density = 21.890071 Si / 1000 Ang^3
#
#
#
# Elastic Constant Matrix: (Units=GPa)
#
#
# Indices 1 2 3 4 5 6 
#
# 1 97.8551 24.4463 5.1390 10.7148 17.6595 -26.2129
# 2 24.4463 75.8330 37.9544 -8.6569 18.7433 -11.1448
# 3 5.1390 37.9544 96.9937 -4.0993 25.3399 -17.1837
# 4 10.7148 -8.6569 -4.0993 39.2857 9.2386 4.7604
# 5 17.6595 18.7433 25.3399 9.2386 31.0641 -6.4848
# 6 -26.2129 -11.1448 -17.1837 4.7604 -6.4848 33.2312
#
#
#
# Elastic Compliance Matrix: (Units=1/GPa)
#
#
# Indices 1 2 3 4 5 6 
#
# 1 0.016393 -0.004822 0.004698 -0.005277 -0.005886 0.013351
# 2 -0.004822 0.019838 -0.005797 0.007069 -0.007135 -0.002553
# 3 0.004698 -0.005797 0.016791 0.000908 -0.011454 0.008080
# 4 -0.005277 0.007069 0.000908 0.032787 -0.013566 -0.008666
# 5 -0.005886 -0.007135 -0.011454 -0.013566 0.053084 -0.000657
# 6 0.013351 -0.002553 0.008080 -0.008666 -0.000657 0.045059
#
#
# Mechanical properties :
#
#
# Convention : Reuss Voigt Hill
#
# Bulk Modulus (GPa) = 24.28201 45.08456 34.68328
# Shear Modulus (GPa) = 23.86414 34.25902 29.06158
#
# Velocity S-wave (km/s) = 3.30537 3.96036 3.64760
# Velocity P-wave (km/s) = 5.06795 6.44618 5.79816
#
# Compressibility (1/GPa) = 0.04118276
#
# Stress axis : x y z
#
# Youngs Moduli (GPa) = 60.99984 50.40867 59.55411
#
# Poissons Ratio (x) = 0.24305 -0.27980
# Poissons Ratio (y) = 0.29412 0.34521
# Poissons Ratio (z) = -0.28659 0.29220
#
# Static dielectric constant tensor:
#      x y z
#    x 1.862320 0.003610 -0.072360 
#    y 0.003610 1.805380 -0.011490 
#    z -0.072360 -0.011490 1.991870 
# 
# From -- ./inp_files/462566.got.cif
#   From: 2010.05.17/outbox.cif.g08.bks.cpg/sg2_232_cif.got.tgz:462566.got - 2010.06.03 11:33:40.
