data_PCOD9098665
_publ_section_title
;
Structure prediction by ZEFSAII (Michael W. Deem and Ramdas Pophale) SiO2 
 PCOD9098665
Probable space group: P -1
;
_chemical_formula_sum "Si O2"
_cell_formula_units_Z 14
_cell_length_a 16.148449
_cell_length_b 11.118728
_cell_length_c 18.285625
_cell_angle_alpha 25.370735
_cell_angle_beta 149.602292
_cell_angle_gamma 151.621341
_cell_volume 630.759335
_symmetry_space_group_name_H-M "P -1"
_symmetry_group_IT_number 2
_symmetry_cell_setting 'triclinic'
loop_
_space_group_symop_operation_xyz
x,y,z
-x,-y,-z
loop_
_atom_site_type_symbol
_atom_site_label
_atom_site_fract_x
_atom_site_fract_y
_atom_site_fract_z
Si Si1 0.713215 0.722947 0.685989
Si Si2 0.707960 0.226708 0.128852
Si Si3 0.047724 0.240512 0.582694
Si Si4 0.091326 0.572473 0.285906
Si Si5 0.361228 0.423148 0.503545
Si Si6 0.289138 0.942100 0.365881
Si Si7 0.295791 0.922929 0.963256
O O1 0.498434 0.614644 0.568894
O O2 0.739648 0.801815 0.748806
O O3 0.744194 0.425178 0.848953
O O4 0.839786 0.027407 0.567071
O O5 0.710758 0.130540 0.099658
O O6 0.893262 0.522159 0.135897
O O7 0.710589 0.940521 0.333816
O O8 0.499746 0.179189 0.004296
O O9 0.066341 0.298822 0.477169
O O10 0.156547 0.605598 0.489154
O O11 0.152025 0.052728 0.797010
O O12 0.202010 0.528023 0.326539
O O13 0.212585 0.882268 0.257407
O O14 0.500000 0.500000 0.500000
O O15 0.500000 0.000000 0.500000
#
# Coordination Sequence:
#
# PCOD9098665 Si02
#       7
#     2   2   2   2   2   2   2
#     4  11  21  38  60  97 118 157 200 241 305 358
#     4  10  20  37  55  89 117 159 192 243 304 349
#     4  10  21  38  64  89 119 158 199 252 289 359
#     4  10  21  37  62  83 120 158 204 240 297 348
#     4  11  21  33  58  91 123 147 202 258 291 344
#     4  10  21  39  63  86 120 162 204 243 290 355
#     4  10  22  36  64  87 129 153 192 252 304 358
#
# _framework density 22.195468999999999
#
# number of rings (size 3 to 8) (size 9 to 14) (size 15 to 20)
#    0.857    0.857    2.857    2.143    6.000    0.000 
#    0.000    0.714    0.000    0.857    0.000    0.000 
#    0.000    0.000    0.000    0.000    0.000    0.000 
#
# Total GULP energy -78018.230330 kJ/mol
# GULP energy per Si atom -5572.730738 kJ/mol
# Density = 2.214495 g / cm^3
# Si number density = 22.195469 Si / 1000 Ang^3
#
#
#
# Elastic Constant Matrix: (Units=GPa)
#
#
# Indices 1 2 3 4 5 6 
#
# 1 57.0412 16.6522 6.8283 2.3688 -7.1119 -8.0168
# 2 16.6522 109.8507 34.0534 34.8347 6.9965 9.5061
# 3 6.8283 34.0534 53.4825 10.9562 8.9766 -4.9277
# 4 2.3688 34.8347 10.9562 39.2989 3.2182 -5.6375
# 5 -7.1119 6.9965 8.9766 3.2182 26.3391 0.1782
# 6 -8.0168 9.5061 -4.9277 -5.6375 0.1782 27.7453
#
#
#
# Elastic Compliance Matrix: (Units=1/GPa)
#
#
# Indices 1 2 3 4 5 6 
#
# 1 0.021165 -0.005821 -0.000257 0.004694 0.006715 0.008975
# 2 -0.005821 0.018998 -0.009079 -0.015696 -0.001518 -0.012983
# 3 -0.000257 -0.009079 0.025888 0.002584 -0.006852 0.008203
# 4 0.004694 -0.015696 0.002584 0.040613 -0.000511 0.015448
# 5 0.006715 -0.001518 -0.006852 -0.000511 0.042574 0.000866
# 6 0.008975 -0.012983 0.008203 0.015448 0.000866 0.047674
#
#
# Mechanical properties :
#
#
# Convention : Reuss Voigt Hill
#
# Bulk Modulus (GPa) = 27.98343 37.27136 32.62740
# Shear Modulus (GPa) = 20.90837 29.53270 25.22053
#
# Velocity S-wave (km/s) = 3.07255 3.65166 3.37455
# Velocity P-wave (km/s) = 5.02220 5.88288 5.46950
#
# Compressibility (1/GPa) = 0.03573543
#
# Stress axis : x y z
#
# Youngs Moduli (GPa) = 47.24763 52.63826 38.62823
#
# Poissons Ratio (x) = 0.30643 0.00994
# Poissons Ratio (y) = 0.27505 0.35070
# Poissons Ratio (z) = 0.01215 0.47790
#
# Static dielectric constant tensor:
#      x y z
#    x 1.822580 -0.016540 -0.044610 
#    y -0.016540 1.889880 0.009070 
#    z -0.044610 0.009070 1.828270 
# 
# From -- ./inp_files/575832.got.cif
#   From: 2010.05.17/outbox.cif.g08.bks.cpg/sg2_288_cif.got.tgz:575832.got - 2010.06.03 11:33:40.
