data_PCOD9098819
_publ_section_title
;
Structure prediction by ZEFSAII (Michael W. Deem and Ramdas Pophale) SiO2 
 PCOD9098819
Probable space group: P -1
;
_chemical_formula_sum "Si O2"
_cell_formula_units_Z 16
_cell_length_a 15.189108
_cell_length_b 18.116360
_cell_length_c 8.135875
_cell_angle_alpha 100.531002
_cell_angle_beta 125.835916
_cell_angle_gamma 34.496407
_cell_volume 778.626905
_symmetry_space_group_name_H-M "P -1"
_symmetry_group_IT_number 2
_symmetry_cell_setting 'triclinic'
loop_
_space_group_symop_operation_xyz
x,y,z
-x,-y,-z
loop_
_atom_site_type_symbol
_atom_site_label
_atom_site_fract_x
_atom_site_fract_y
_atom_site_fract_z
Si Si1 0.070793 0.900556 0.188592
Si Si2 0.767954 0.616448 0.184355
Si Si3 0.036661 0.310835 0.262367
Si Si4 0.427387 0.493990 0.072441
Si Si5 0.633378 0.237886 0.029617
Si Si6 0.463337 0.432248 0.592997
Si Si7 0.069951 0.183672 0.948345
Si Si8 0.465706 0.093451 0.891601
O O1 0.979504 0.870548 0.063754
O O2 0.370018 0.708273 0.425320
O O3 0.907073 0.037487 0.210603
O O4 0.000000 0.000000 0.000000
O O5 0.874115 0.487841 0.122670
O O6 0.563985 0.702307 0.110514
O O7 0.630660 0.777911 0.048244
O O8 0.000000 0.500000 0.500000
O O9 0.257765 0.201333 0.573799
O O10 0.841698 0.377632 0.171929
O O11 0.134023 0.201287 0.172676
O O12 0.439222 0.543797 0.255427
O O13 0.500000 0.500000 0.000000
O O14 0.624269 0.304633 0.192390
O O15 0.523510 0.346208 0.787911
O O16 0.176324 0.624511 0.320210
O O17 0.283334 0.044714 0.988771
O O18 0.500000 0.000000 0.000000
#
# Coordination Sequence:
#
# PCOD9098819 Si02
#       8
#     2   2   2   2   2   2   2   2
#     4  10  20  37  57  88 123 162 200 242 307 361
#     4   9  19  38  63  82 117 156 208 244 303 355
#     4  10  22  41  63  86 123 166 202 249 310 362
#     4   9  18  33  60  87 119 153 202 239 301 358
#     4   9  18  36  58  86 118 163 196 247 301 361
#     4  10  21  35  61  90 121 158 202 243 307 363
#     4  12  23  40  64  90 128 159 204 255 306 364
#     4  11  25  42  65  91 119 159 211 258 302 361
#
# _framework density 20.548994
#
# number of rings (size 3 to 8) (size 9 to 14) (size 15 to 20)
#    0.000    2.000    2.500    0.750    7.000    0.000 
#    0.000    5.000    0.000    0.000    0.000    0.000 
#    0.000    0.000    0.000    0.000    0.000    0.000 
#
# Total GULP energy -89153.751649 kJ/mol
# GULP energy per Si atom -5572.109478 kJ/mol
# Density = 2.050222 g / cm^3
# Si number density = 20.548994 Si / 1000 Ang^3
#
#
#
# Elastic Constant Matrix: (Units=GPa)
#
#
# Indices 1 2 3 4 5 6 
#
# 1 74.1792 23.9109 11.9577 -12.3958 -6.1257 17.8838
# 2 23.9109 130.8815 19.6957 -21.8023 -9.2303 7.2473
# 3 11.9577 19.6957 54.5725 -23.7249 0.7644 4.5568
# 4 -12.3958 -21.8023 -23.7249 28.7165 -0.9381 -0.1020
# 5 -6.1257 -9.2303 0.7644 -0.9381 29.2896 -8.7109
# 6 17.8838 7.2473 4.5568 -0.1020 -8.7109 37.1541
#
#
#
# Elastic Compliance Matrix: (Units=1/GPa)
#
#
# Indices 1 2 3 4 5 6 
#
# 1 0.016925 -0.001588 0.000220 0.006287 0.000969 -0.007620
# 2 -0.001588 0.009207 -0.000320 0.006127 0.002670 -0.000350
# 3 0.000220 -0.000320 0.029088 0.023832 -0.001188 -0.003824
# 4 0.006287 0.006127 0.023832 0.061944 0.002723 -0.006336
# 5 0.000969 0.002670 -0.001188 0.002723 0.037684 0.008001
# 6 -0.007620 -0.000350 -0.003824 -0.006336 0.008001 0.032978
#
#
# Mechanical properties :
#
#
# Convention : Reuss Voigt Hill
#
# Bulk Modulus (GPa) = 19.28794 41.19575 30.24185
# Shear Modulus (GPa) = 23.98294 32.63663 28.30979
#
# Velocity S-wave (km/s) = 3.42001 3.98959 3.71573
# Velocity P-wave (km/s) = 5.00020 6.42756 5.75828
#
# Compressibility (1/GPa) = 0.05184587
#
# Stress axis : x y z
#
# Youngs Moduli (GPa) = 59.08529 108.61426 34.37848
#
# Poissons Ratio (x) = 0.17244 -0.00758
# Poissons Ratio (y) = 0.09380 0.01099
# Poissons Ratio (z) = -0.01303 0.03472
#
# Static dielectric constant tensor:
#      x y z
#    x 1.743120 0.020490 -0.004110 
#    y 0.020490 1.834290 -0.013770 
#    z -0.004110 -0.013770 1.768320 
# 
# From -- ./inp_files/317708.got.cif
#   From: 2010.05.17/outbox.cif.g08.bks.cpg/sg2_159_cif.got.tgz:317708.got - 2010.06.03 11:33:40.
