data_PCOD9098310
_publ_section_title
;
Structure prediction by ZEFSAII (Michael W. Deem and Ramdas Pophale) SiO2 
 PCOD9098310
Probable space group: P -1
;
_chemical_formula_sum "Si O2"
_cell_formula_units_Z 15
_cell_length_a 15.919456
_cell_length_b 5.309638
_cell_length_c 9.774355
_cell_angle_alpha 106.591465
_cell_angle_beta 128.641159
_cell_angle_gamma 61.341851
_cell_volume 566.145690
_symmetry_space_group_name_H-M "P -1"
_symmetry_group_IT_number 2
_symmetry_cell_setting 'triclinic'
loop_
_space_group_symop_operation_xyz
x,y,z
-x,-y,-z
loop_
_atom_site_type_symbol
_atom_site_label
_atom_site_fract_x
_atom_site_fract_y
_atom_site_fract_z
Si Si1 0.984688 0.300446 0.334721
Si Si2 0.628111 0.025147 0.250875
Si Si3 0.732766 0.456870 0.162273
Si Si4 0.819189 0.251471 0.517316
Si Si5 0.293092 0.676900 0.312463
Si Si6 0.067678 0.212366 0.112338
Si Si7 0.504958 0.853290 0.628015
Si Si8 0.500000 0.500000 0.000000
O O1 0.848814 0.366402 0.178493
O O2 0.000000 0.500000 0.500000
O O3 0.048475 0.328783 0.266118
O O4 0.046085 0.964141 0.382648
O O5 0.751518 0.035304 0.414172
O O6 0.552491 0.933319 0.270963
O O7 0.653928 0.792030 0.123770
O O8 0.546621 0.336514 0.165374
O O9 0.780717 0.420101 0.363765
O O10 0.637074 0.325253 0.046024
O O11 0.775791 0.398585 0.643213
O O12 0.403613 0.728035 0.496114
O O13 0.365170 0.391535 0.254288
O O14 0.203071 0.974780 0.199584
O O15 0.000000 0.500000 0.000000
O O16 0.000000 0.000000 0.000000
O O17 0.500000 0.000000 0.500000
#
# Coordination Sequence:
#
# PCOD9098310 Si02
#       8
#     2   2   2   2   2   2   2   1
#     4  11  23  44  74 110 133 187 253 302 361 440
#     4  10  20  38  58  88 127 170 219 287 358 413
#     4  11  21  38  64  94 133 173 232 295 362 428
#     4   9  19  37  63  94 127 162 226 304 352 403
#     4   9  21  40  62  94 134 180 234 294 365 437
#     4  11  28  51  73 108 157 200 241 308 392 454
#     4  10  20  36  64  97 123 172 241 299 358 423
#     4  10  24  40  54  82 134 178 212 272 362 434
#
# _framework density 26.494948000000001
#
# number of rings (size 3 to 8) (size 9 to 14) (size 15 to 20)
#    0.000    1.867    1.333    1.600    1.867    5.333 
#    2.400    0.000    0.000    0.000    0.000    0.000 
#    0.000    0.000    0.000    0.000    0.000    0.000 
#
# Total GULP energy -83538.842820 kJ/mol
# GULP energy per Si atom -5569.256188 kJ/mol
# Density = 2.643464 g / cm^3
# Si number density = 26.494948 Si / 1000 Ang^3
#
#
#
# Elastic Constant Matrix: (Units=GPa)
#
#
# Indices 1 2 3 4 5 6 
#
# 1 103.6791 34.1743 22.0209 -21.8835 10.8591 -22.4914
# 2 34.1743 123.4593 40.9521 -35.2295 3.4253 -13.8306
# 3 22.0209 40.9521 113.7089 -39.6821 7.6748 -7.1172
# 4 -21.8835 -35.2295 -39.6821 44.4068 3.8070 5.4262
# 5 10.8591 3.4253 7.6748 3.8070 47.0460 -16.3927
# 6 -22.4914 -13.8306 -7.1172 5.4262 -16.3927 48.4929
#
#
#
# Elastic Compliance Matrix: (Units=1/GPa)
#
#
# Indices 1 2 3 4 5 6 
#
# 1 0.012165 -0.001634 0.000166 0.004480 -0.001634 0.004147
# 2 -0.001634 0.011033 -0.001202 0.006734 -0.000302 0.001357
# 3 0.000166 -0.001202 0.013367 0.011442 -0.003301 -0.000700
# 4 0.004480 0.006734 0.011442 0.041074 -0.007184 -0.001347
# 5 -0.001634 -0.000302 -0.003301 -0.007184 0.025608 0.008132
# 6 0.004147 0.001357 -0.000700 -0.001347 0.008132 0.025729
#
#
# Mechanical properties :
#
#
# Convention : Reuss Voigt Hill
#
# Bulk Modulus (GPa) = 32.02603 59.46021 45.74312
# Shear Modulus (GPa) = 34.54874 44.23582 39.39228
#
# Velocity S-wave (km/s) = 3.61498 4.09050 3.86007
# Velocity P-wave (km/s) = 5.43488 6.69331 6.09665
#
# Compressibility (1/GPa) = 0.03122460
#
# Stress axis : x y z
#
# Youngs Moduli (GPa) = 82.20431 90.64062 74.81119
#
# Poissons Ratio (x) = 0.14811 -0.01241
# Poissons Ratio (y) = 0.13433 0.08990
# Poissons Ratio (z) = -0.01364 0.10893
#
# Static dielectric constant tensor:
#      x y z
#    x 2.105800 -0.145800 -0.054500 
#    y -0.145800 2.016270 0.081830 
#    z -0.054500 0.081830 2.245290 
# 
# From -- ./inp_files/441962.got.cif
#   From: 2010.05.17/outbox.cif.g08.bks.cpg/sg2_221_cif.got.tgz:441962.got - 2010.06.03 11:33:40.
