data_PCOD9098110
_publ_section_title
;
Structure prediction by ZEFSAII (Michael W. Deem and Ramdas Pophale) SiO2 
 PCOD9098110
Probable space group: P -1
;
_chemical_formula_sum "Si O2"
_cell_formula_units_Z 15
_cell_length_a 17.789028
_cell_length_b 8.408457
_cell_length_c 10.732488
_cell_angle_alpha 59.351141
_cell_angle_beta 27.561064
_cell_angle_gamma 69.736392
_cell_volume 616.132701
_symmetry_space_group_name_H-M "P -1"
_symmetry_group_IT_number 2
_symmetry_cell_setting 'triclinic'
loop_
_space_group_symop_operation_xyz
x,y,z
-x,-y,-z
loop_
_atom_site_type_symbol
_atom_site_label
_atom_site_fract_x
_atom_site_fract_y
_atom_site_fract_z
Si Si1 0.398434 0.198073 0.472943
Si Si2 0.589267 0.734194 0.121860
Si Si3 0.000000 0.500000 0.000000
Si Si4 0.681908 0.125098 0.945484
Si Si5 0.011050 0.057277 0.106508
Si Si6 0.060551 0.720624 0.279351
Si Si7 0.343656 0.629824 0.753413
Si Si8 0.354266 0.572972 0.315173
O O1 0.502351 0.070294 0.303368
O O2 0.512581 0.288851 0.386435
O O3 0.389012 0.367978 0.324493
O O4 0.210407 0.104404 0.827348
O O5 0.427739 0.669663 0.479443
O O6 0.702493 0.596794 0.056321
O O7 0.511810 0.695440 0.114319
O O8 0.682567 0.951998 0.923871
O O9 0.812738 0.475422 0.335664
O O10 0.958534 0.251198 0.138977
O O11 0.827406 0.174321 0.812587
O O12 0.688977 0.315413 0.782399
O O13 0.938605 0.852478 0.366295
O O14 0.000000 0.000000 0.000000
O O15 0.000000 0.500000 0.500000
O O16 0.182266 0.705340 0.989068
#
# Coordination Sequence:
#
# PCOD9098110 Si02
#       8
#     2   2   1   2   2   2   2   2
#     4   9  20  40  64  91 123 170 220 268 325 389
#     4  10  20  36  63  95 121 164 216 268 329 387
#     4  10  26  44  64  96 136 178 232 264 334 404
#     4  11  22  39  64  94 129 164 218 278 334 390
#     4  11  25  45  70  97 131 184 228 272 334 405
#     4  11  26  43  65  96 134 173 219 273 338 399
#     4   9  20  40  64  91 126 164 213 271 322 398
#     4  10  22  38  60  94 132 169 211 273 330 397
#
# _framework density 24.345405
#
# number of rings (size 3 to 8) (size 9 to 14) (size 15 to 20)
#    0.000    1.867    0.000    2.400    7.467    4.267 
#    0.000    1.333    0.000    0.000    0.000    0.000 
#    0.000    0.000    0.000    0.000    0.000    0.000 
#
# Total GULP energy -83586.309854 kJ/mol
# GULP energy per Si atom -5572.420657 kJ/mol
# Density = 2.428999 g / cm^3
# Si number density = 24.345405 Si / 1000 Ang^3
#
#
#
# Elastic Constant Matrix: (Units=GPa)
#
#
# Indices 1 2 3 4 5 6 
#
# 1 75.0687 24.8949 -2.4057 -14.7513 16.7532 -22.9208
# 2 24.8949 167.2379 17.3273 -18.9815 6.4738 -11.2297
# 3 -2.4057 17.3273 37.8878 -6.1285 -9.1092 -2.9668
# 4 -14.7513 -18.9815 -6.1285 40.9886 -10.6137 15.1544
# 5 16.7532 6.4738 -9.1092 -10.6137 18.5228 -9.0596
# 6 -22.9208 -11.2297 -2.9668 15.1544 -9.0596 28.9556
#
#
#
# Elastic Compliance Matrix: (Units=1/GPa)
#
#
# Indices 1 2 3 4 5 6 
#
# 1 0.020116 -0.001837 -0.000172 -0.001302 -0.012537 0.011953
# 2 -0.001837 0.006832 -0.003403 0.001786 -0.001676 -0.000612
# 3 -0.000172 -0.003403 0.036343 0.008495 0.027180 0.006326
# 4 -0.001302 0.001786 0.008495 0.035429 0.019155 -0.012017
# 5 -0.012537 -0.001676 0.027180 0.019155 0.096275 0.012308
# 6 0.011953 -0.000612 0.006326 -0.012017 0.012308 0.054548
#
#
# Mechanical properties :
#
#
# Convention : Reuss Voigt Hill
#
# Bulk Modulus (GPa) = 19.05885 39.98081 29.51983
# Shear Modulus (GPa) = 17.99497 33.71858 25.85678
#
# Velocity S-wave (km/s) = 2.72169 3.72561 3.26249
# Velocity P-wave (km/s) = 4.20978 5.91311 5.13260
#
# Compressibility (1/GPa) = 0.05246907
#
# Stress axis : x y z
#
# Youngs Moduli (GPa) = 49.71105 146.36975 27.51534
#
# Poissons Ratio (x) = 0.26882 0.00472
# Poissons Ratio (y) = 0.09130 0.09364
# Poissons Ratio (z) = 0.00853 0.49811
#
# Static dielectric constant tensor:
#      x y z
#    x 1.881860 -0.008540 0.057350 
#    y -0.008540 1.990430 -0.088440 
#    z 0.057350 -0.088440 2.017140 
# 
# From -- ./inp_files/175285.got.cif
#   From: 2010.05.17/outbox.cif.g08.bks.cpg/sg2_88_cif.got.tgz:175285.got - 2010.06.03 11:33:40.
