data_PCOD9098847
_publ_section_title
;
Structure prediction by ZEFSAII (Michael W. Deem and Ramdas Pophale) SiO2 
 PCOD9098847
Probable space group: P -1
;
_chemical_formula_sum "Si O2"
_cell_formula_units_Z 16
_cell_length_a 7.619524
_cell_length_b 20.362395
_cell_length_c 11.882941
_cell_angle_alpha 48.833065
_cell_angle_beta 53.744285
_cell_angle_gamma 38.998009
_cell_volume 860.908960
_symmetry_space_group_name_H-M "P -1"
_symmetry_group_IT_number 2
_symmetry_cell_setting 'triclinic'
loop_
_space_group_symop_operation_xyz
x,y,z
-x,-y,-z
loop_
_atom_site_type_symbol
_atom_site_label
_atom_site_fract_x
_atom_site_fract_y
_atom_site_fract_z
Si Si1 0.684299 0.296605 0.969277
Si Si2 0.207753 0.342100 0.961989
Si Si3 0.111804 0.698352 0.715541
Si Si4 0.495580 0.898490 0.634141
Si Si5 0.604222 0.241473 0.301762
Si Si6 0.235640 0.889477 0.966812
Si Si7 0.672935 0.486107 0.651999
Si Si8 0.018571 0.462546 0.351400
O O1 0.733925 0.378915 0.810054
O O2 0.707086 0.270386 0.121197
O O3 0.865127 0.179129 0.963460
O O4 0.362767 0.352627 0.993829
O O5 0.123208 0.434511 0.798296
O O6 0.464277 0.211743 0.972135
O O7 0.954334 0.351072 0.100211
O O8 0.229090 0.758898 0.655987
O O9 0.343557 0.594749 0.664575
O O10 0.817064 0.788269 0.663619
O O11 0.373366 0.866088 0.619648
O O12 0.322006 0.920735 0.787862
O O13 0.500000 0.000000 0.500000
O O14 0.272069 0.344878 0.330651
O O15 0.000000 0.000000 0.000000
O O16 0.796592 0.462090 0.506949
O O17 0.825084 0.517916 0.637238
#
# Coordination Sequence:
#
# PCOD9098847 Si02
#       8
#     2   2   2   2   2   2   2   2
#     4   9  19  33  55  81 102 142 182 220 259 321
#     4   9  19  33  55  81 102 142 182 220 259 321
#     4  10  20  37  58  78 109 146 178 220 267 319
#     4  10  22  37  56  81 105 138 186 226 261 322
#     4  10  20  37  58  78 109 146 178 220 267 319
#     4   8  18  35  52  75 105 136 176 228 265 306
#     4  10  21  34  50  80 115 141 175 221 270 323
#     4  10  21  34  50  80 115 141 175 221 270 323
#
# _framework density 18.585007000000001
#
# number of rings (size 3 to 8) (size 9 to 14) (size 15 to 20)
#    0.750    1.750    1.250    1.500    1.750    6.000 
#    0.000    0.000    0.000   18.750    0.000    0.000 
#    0.000    0.000    0.000    0.000    0.000    0.000 
#
# Total GULP energy -89098.130572 kJ/mol
# GULP energy per Si atom -5568.633161 kJ/mol
# Density = 1.854271 g / cm^3
# Si number density = 18.585007 Si / 1000 Ang^3
#
#
#
# Elastic Constant Matrix: (Units=GPa)
#
#
# Indices 1 2 3 4 5 6 
#
# 1 35.9773 6.3176 2.3416 6.4707 -9.7975 10.6199
# 2 6.3176 87.0991 34.9998 20.3955 -20.8281 16.6553
# 3 2.3416 34.9998 64.7374 -6.7970 -25.2253 14.4235
# 4 6.4707 20.3955 -6.7970 23.6189 2.1734 -5.7869
# 5 -9.7975 -20.8281 -25.2253 2.1734 24.7352 -5.4143
# 6 10.6199 16.6553 14.4235 -5.7869 -5.4143 23.5511
#
#
#
# Elastic Compliance Matrix: (Units=1/GPa)
#
#
# Indices 1 2 3 4 5 6 
#
# 1 0.062741 0.028145 0.008411 -0.057379 0.049919 -0.055970
# 2 0.028145 0.045212 -0.007094 -0.063845 0.037206 -0.047454
# 3 0.008411 -0.007094 0.033165 0.008177 0.028140 -0.010609
# 4 -0.057379 -0.063845 0.008177 0.142497 -0.061657 0.086855
# 5 0.049919 0.037206 0.028140 -0.061657 0.113586 -0.055093
# 6 -0.055970 -0.047454 -0.010609 0.086855 -0.055093 0.116432
#
#
# Mechanical properties :
#
#
# Convention : Reuss Voigt Hill
#
# Bulk Modulus (GPa) = 4.99894 30.57021 17.78457
# Shear Modulus (GPa) = 9.58975 23.99136 16.79055
#
# Velocity S-wave (km/s) = 2.27401 3.59681 3.00900
# Velocity P-wave (km/s) = 3.09685 5.80809 4.65427
#
# Compressibility (1/GPa) = 0.20004245
#
# Stress axis : x y z
#
# Youngs Moduli (GPa) = 15.93852 22.11797 30.15202
#
# Poissons Ratio (x) = -0.62252 -0.25361
# Poissons Ratio (y) = -0.44859 0.21391
# Poissons Ratio (z) = -0.13406 0.15691
#
# Static dielectric constant tensor:
#      x y z
#    x 1.687570 0.006810 -0.011700 
#    y 0.006810 1.647690 -0.002800 
#    z -0.011700 -0.002800 1.647310 
# 
# From -- ./inp_files/218637.got.cif
#   From: 2010.05.17/outbox.cif.g08.bks.cpg/sg2_110_cif.got.tgz:218637.got - 2010.06.03 11:33:40.
