data_PCOD9098718
_publ_section_title
;
Structure prediction by ZEFSAII (Michael W. Deem and Ramdas Pophale) SiO2 
 PCOD9098718
Probable space group: P -1
;
_chemical_formula_sum "Si O2"
_cell_formula_units_Z 13
_cell_length_a 14.477116
_cell_length_b 11.773106
_cell_length_c 14.107928
_cell_angle_alpha 27.735976
_cell_angle_beta 31.681504
_cell_angle_gamma 29.172193
_cell_volume 512.091977
_symmetry_space_group_name_H-M "P -1"
_symmetry_group_IT_number 2
_symmetry_cell_setting 'triclinic'
loop_
_space_group_symop_operation_xyz
x,y,z
-x,-y,-z
loop_
_atom_site_type_symbol
_atom_site_label
_atom_site_fract_x
_atom_site_fract_y
_atom_site_fract_z
Si Si1 0.198348 0.381544 0.979891
Si Si2 0.429935 0.280564 0.684807
Si Si3 0.334492 0.803150 0.623218
Si Si4 0.252324 0.562297 0.356254
Si Si5 0.500000 0.500000 0.000000
Si Si6 0.181370 0.046915 0.771258
Si Si7 0.968502 0.249509 0.411329
O O1 0.369950 0.173872 0.909634
O O2 0.238986 0.631254 0.786972
O O3 0.000000 0.500000 0.000000
O O4 0.158738 0.279379 0.189895
O O5 0.500000 0.500000 0.500000
O O6 0.587512 0.080763 0.616557
O O7 0.225485 0.468867 0.665155
O O8 0.537162 0.573891 0.668845
O O9 0.200949 0.012978 0.665652
O O10 0.173190 0.337343 0.586242
O O11 0.086026 0.790524 0.404895
O O12 0.313933 0.622149 0.155502
O O13 0.384286 0.798408 0.824189
O O14 0.000000 0.000000 0.000000
O O15 0.000000 0.000000 0.500000
#
# Coordination Sequence:
#
# PCOD9098718 Si02
#       7
#     2   2   2   2   1   2   2
#     4   9  17  33  59  86 120 163 217 260 321 403
#     4   8  16  33  55  80 114 154 203 253 315 390
#     4   9  17  35  62  88 125 169 209 272 338 391
#     4  10  22  43  64  95 141 175 224 285 337 401
#     4  10  22  44  68  98 136 180 234 266 344 404
#     4  11  23  42  71  99 138 178 224 287 341 399
#     4  10  20  37  56  87 128 160 212 272 330 385
#
# _framework density 25.386064000000001
#
# number of rings (size 3 to 8) (size 9 to 14) (size 15 to 20)
#    0.000    2.462    0.000    2.769    0.000    0.615 
#   22.154    6.923   23.692    0.000    0.000    0.000 
#    0.000    0.000    0.000    0.000    0.000    0.000 
#
# Total GULP energy -72368.980923 kJ/mol
# GULP energy per Si atom -5566.844686 kJ/mol
# Density = 2.532828 g / cm^3
# Si number density = 25.386064 Si / 1000 Ang^3
#
#
#
# Elastic Constant Matrix: (Units=GPa)
#
#
# Indices 1 2 3 4 5 6 
#
# 1 118.5654 43.6495 59.0842 10.0472 17.9424 17.1643
# 2 43.6495 105.7770 61.4957 37.6723 25.0798 43.0287
# 3 59.0842 61.4957 115.1947 46.1309 25.0413 21.2304
# 4 10.0472 37.6723 46.1309 48.6000 14.6028 21.2380
# 5 17.9424 25.0798 25.0413 14.6028 61.0170 5.6993
# 6 17.1643 43.0287 21.2304 21.2380 5.6993 48.9464
#
#
#
# Elastic Compliance Matrix: (Units=1/GPa)
#
#
# Indices 1 2 3 4 5 6 
#
# 1 0.013177 -0.002375 -0.008040 0.008225 -0.001337 -0.002458
# 2 -0.002375 0.021226 -0.005229 -0.004055 -0.003661 -0.013373
# 3 -0.008040 -0.005229 0.021509 -0.016865 -0.000791 0.005497
# 4 0.008225 -0.004055 -0.016865 0.043626 -0.003285 -0.010551
# 5 -0.001337 -0.003661 -0.000791 -0.003285 0.019096 0.003232
# 6 -0.002458 -0.013373 0.005497 -0.010551 0.003232 0.034866
#
#
# Mechanical properties :
#
#
# Convention : Reuss Voigt Hill
#
# Bulk Modulus (GPa) = 40.61223 74.22179 57.41701
# Shear Modulus (GPa) = 25.90732 43.39986 34.65359
#
# Velocity S-wave (km/s) = 3.19804 4.13921 3.69868
# Velocity P-wave (km/s) = 5.44695 7.22113 6.39586
#
# Compressibility (1/GPa) = 0.02462313
#
# Stress axis : x y z
#
# Youngs Moduli (GPa) = 75.89190 47.11208 46.49195
#
# Poissons Ratio (x) = 0.11190 0.37382
# Poissons Ratio (y) = 0.18025 0.24309
# Poissons Ratio (z) = 0.61021 0.24633
#
# Static dielectric constant tensor:
#      x y z
#    x 2.041500 -0.041850 0.140340 
#    y -0.041850 2.042840 0.027880 
#    z 0.140340 0.027880 2.373780 
# 
# From -- ./inp_files/531458.got.cif
#   From: 2010.05.17/outbox.cif.g08.bks.cpg/sg2_266_cif.got.tgz:531458.got - 2010.06.03 11:33:40.
