data_PCOD9098147
_publ_section_title
;
Structure prediction by ZEFSAII (Michael W. Deem and Ramdas Pophale) SiO2 
 PCOD9098147
Probable space group: P -1
;
_chemical_formula_sum "Si O2"
_cell_formula_units_Z 16
_cell_length_a 21.430853
_cell_length_b 17.389665
_cell_length_c 10.729470
_cell_angle_alpha 32.046266
_cell_angle_beta 30.829587
_cell_angle_gamma 21.343819
_cell_volume 720.919088
_symmetry_space_group_name_H-M "P -1"
_symmetry_group_IT_number 2
_symmetry_cell_setting 'triclinic'
loop_
_space_group_symop_operation_xyz
x,y,z
-x,-y,-z
loop_
_atom_site_type_symbol
_atom_site_label
_atom_site_fract_x
_atom_site_fract_y
_atom_site_fract_z
Si Si1 0.544630 0.292634 0.184246
Si Si2 0.026066 0.134813 0.714633
Si Si3 0.079223 0.211809 0.761896
Si Si4 0.536654 0.118711 0.199211
Si Si5 0.810513 0.479811 0.412311
Si Si6 0.703240 0.884301 0.811252
Si Si7 0.876602 0.737029 0.993950
Si Si8 0.770970 0.632830 0.806476
O O1 0.491915 0.284149 0.147918
O O2 0.409030 0.331149 0.461813
O O3 0.756050 0.050815 0.160433
O O4 0.500000 0.500000 0.000000
O O5 0.971099 0.285005 0.717804
O O6 0.227396 0.019131 0.489789
O O7 0.895173 0.274418 0.629707
O O8 0.000000 0.000000 0.000000
O O9 0.171956 0.286503 0.495430
O O10 0.915811 0.372692 0.918807
O O11 0.420093 0.239442 0.105960
O O12 0.500000 0.000000 0.500000
O O13 0.749423 0.927576 0.051508
O O14 0.921766 0.384907 0.222186
O O15 0.873516 0.568130 0.256647
O O16 0.772676 0.826196 0.914231
O O17 0.780393 0.703541 0.824852
O O18 0.500000 0.000000 0.000000
#
# Coordination Sequence:
#
# PCOD9098147 Si02
#       8
#     2   2   2   2   2   2   2   2
#     4  12  25  40  62  95 133 179 223 272 332 406
#     4  10  21  37  60  91 130 175 216 269 337 409
#     4  10  21  35  59  93 130 165 223 280 325 384
#     4  12  21  38  67  95 132 168 230 277 333 397
#     4  10  21  39  62  96 132 174 221 273 342 395
#     4  10  20  37  65  98 135 167 223 280 341 394
#     4  10  21  37  66  98 130 172 220 283 334 395
#     4  10  20  36  63  99 126 166 221 289 332 380
#
# _framework density 22.193892999999999
#
# number of rings (size 3 to 8) (size 9 to 14) (size 15 to 20)
#    0.000    1.500    3.750    1.500    1.750    4.000 
#    0.000    0.625    0.000    3.750    0.000    0.000 
#    0.000    0.000    0.000    0.000    0.000    0.000 
#
# Total GULP energy -89091.980387 kJ/mol
# GULP energy per Si atom -5568.248774 kJ/mol
# Density = 2.214338 g / cm^3
# Si number density = 22.193893 Si / 1000 Ang^3
#
#
#
# Elastic Constant Matrix: (Units=GPa)
#
#
# Indices 1 2 3 4 5 6 
#
# 1 82.5148 31.3520 27.6922 0.0145 1.6329 -0.9062
# 2 31.3520 157.9355 56.7757 13.5959 -6.0075 14.8034
# 3 27.6922 56.7757 110.1940 0.3367 0.1965 2.7449
# 4 0.0145 13.5959 0.3367 37.2491 -1.2886 2.9050
# 5 1.6329 -6.0075 0.1965 -1.2886 26.8370 -4.2335
# 6 -0.9062 14.8034 2.7449 2.9050 -4.2335 40.1251
#
#
#
# Elastic Compliance Matrix: (Units=1/GPa)
#
#
# Indices 1 2 3 4 5 6 
#
# 1 0.013746 -0.002055 -0.002422 0.000646 -0.001078 0.001074
# 2 -0.002055 0.008690 -0.003890 -0.002878 0.001548 -0.002615
# 3 -0.002422 -0.003890 0.011675 0.001259 -0.000682 0.000419
# 4 0.000646 -0.002878 0.001259 0.027979 0.000496 -0.000983
# 5 -0.001078 0.001548 -0.000682 0.000496 0.038247 0.003451
# 6 0.001074 -0.002615 0.000419 -0.000983 0.003451 0.026318
#
#
# Mechanical properties :
#
#
# Convention : Reuss Voigt Hill
#
# Bulk Modulus (GPa) = 57.55048 64.69825 61.12436
# Shear Modulus (GPa) = 33.51654 36.49719 35.00686
#
# Velocity S-wave (km/s) = 3.89031 4.05961 3.97586
# Velocity P-wave (km/s) = 6.79458 7.15462 6.97692
#
# Compressibility (1/GPa) = 0.01737605
#
# Stress axis : x y z
#
# Youngs Moduli (GPa) = 72.74911 115.07942 85.65591
#
# Poissons Ratio (x) = 0.23651 0.20748
# Poissons Ratio (y) = 0.14951 0.33316
# Poissons Ratio (z) = 0.17622 0.44761
#
# Static dielectric constant tensor:
#      x y z
#    x 1.919390 -0.083160 0.042560 
#    y -0.083160 1.953630 0.027110 
#    z 0.042560 0.027110 1.865500 
# 
# From -- ./inp_files/475418.got.cif
#   From: 2010.05.17/outbox.cif.g08.bks.cpg/sg2_238_cif.got.tgz:475418.got - 2010.06.03 11:33:40.
