data_PCOD9098764
_publ_section_title
;
Structure prediction by ZEFSAII (Michael W. Deem and Ramdas Pophale) SiO2 
 PCOD9098764
Probable space group: P -1
;
_chemical_formula_sum "Si O2"
_cell_formula_units_Z 13
_cell_length_a 13.045127
_cell_length_b 17.299815
_cell_length_c 17.523076
_cell_angle_alpha 156.247864
_cell_angle_beta 21.563525
_cell_angle_gamma 157.730366
_cell_volume 506.624714
_symmetry_space_group_name_H-M "P -1"
_symmetry_group_IT_number 2
_symmetry_cell_setting 'triclinic'
loop_
_space_group_symop_operation_xyz
x,y,z
-x,-y,-z
loop_
_atom_site_type_symbol
_atom_site_label
_atom_site_fract_x
_atom_site_fract_y
_atom_site_fract_z
Si Si1 0.000000 0.000000 0.500000
Si Si2 0.083758 0.243363 0.082323
Si Si3 0.507929 0.843321 0.788503
Si Si4 0.762888 0.306158 0.649711
Si Si5 0.122469 0.345564 0.570413
Si Si6 0.694407 0.522345 0.211148
Si Si7 0.215406 0.252375 0.172573
O O1 0.634734 0.985333 0.753703
O O2 0.817526 0.778555 0.367917
O O3 0.021372 0.425698 0.252640
O O4 0.171407 0.316610 0.176020
O O5 0.407780 0.259390 0.837944
O O6 0.823442 0.988640 0.026566
O O7 0.221785 0.590385 0.753493
O O8 0.827619 0.802961 0.534118
O O9 0.500000 0.000000 0.000000
O O10 0.803734 0.229345 0.635979
O O11 0.918989 0.229378 0.408133
O O12 0.405583 0.388822 0.352533
O O13 0.534599 0.424504 0.151702
O O14 0.000000 0.500000 0.000000
#
# Coordination Sequence:
#
# PCOD9098764 Si02
#       7
#     1   2   2   2   2   2   2
#     4  10  22  36  56  86 112 150 198 232 284 358
#     4  10  22  39  64  89 118 163 205 245 305 358
#     4  10  20  37  57  82 117 154 192 240 298 352
#     4  10  21  40  60  87 121 155 202 253 297 354
#     4   9  21  37  57  86 120 154 197 247 294 359
#     4  10  21  38  60  88 122 157 196 246 302 357
#     4  10  22  40  61  89 122 158 201 252 300 357
#
# _framework density 25.660018999999998
#
# number of rings (size 3 to 8) (size 9 to 14) (size 15 to 20)
#    0.000    2.154    0.000    1.846    0.000   11.077 
#    0.000    9.231    0.000    0.000    0.000    0.000 
#    0.000    0.000    0.000    0.000    0.000    0.000 
#
# Total GULP energy -72512.880330 kJ/mol
# GULP energy per Si atom -5577.913872 kJ/mol
# Density = 2.560162 g / cm^3
# Si number density = 25.660019 Si / 1000 Ang^3
#
#
#
# Elastic Constant Matrix: (Units=GPa)
#
#
# Indices 1 2 3 4 5 6 
#
# 1 123.4993 29.6289 46.2076 11.0256 9.7740 17.6013
# 2 29.6289 104.0156 42.9110 18.2503 20.9021 6.3093
# 3 46.2076 42.9110 118.0239 7.6320 35.0694 14.3784
# 4 11.0256 18.2503 7.6320 43.6781 -5.4111 13.6776
# 5 9.7740 20.9021 35.0694 -5.4111 37.4566 5.1631
# 6 17.6013 6.3093 14.3784 13.6776 5.1631 28.5674
#
#
#
# Elastic Compliance Matrix: (Units=1/GPa)
#
#
# Indices 1 2 3 4 5 6 
#
# 1 0.010299 -0.001752 -0.003539 0.000570 0.002358 -0.004876
# 2 -0.001752 0.013250 -0.002288 -0.006591 -0.006242 0.003588
# 3 -0.003539 -0.002288 0.014326 -0.001476 -0.011178 -0.001798
# 4 0.000570 -0.006591 -0.001476 0.032112 0.011706 -0.015643
# 5 0.002358 -0.006242 -0.011178 0.011706 0.042796 -0.007787
# 6 -0.004876 0.003588 -0.001798 -0.015643 -0.007787 0.047019
#
#
# Mechanical properties :
#
#
# Convention : Reuss Voigt Hill
#
# Bulk Modulus (GPa) = 44.01694 64.78153 54.39923
# Shear Modulus (GPa) = 27.39268 37.05983 32.22626
#
# Velocity S-wave (km/s) = 3.27084 3.80447 3.54770
# Velocity P-wave (km/s) = 5.60854 6.67829 6.16665
#
# Compressibility (1/GPa) = 0.02271853
#
# Stress axis : x y z
#
# Youngs Moduli (GPa) = 97.09678 75.47260 69.80284
#
# Poissons Ratio (x) = 0.13221 0.24700
# Poissons Ratio (y) = 0.17009 0.15970
# Poissons Ratio (z) = 0.34358 0.17267
#
# Static dielectric constant tensor:
#      x y z
#    x 2.822600 -0.815320 -0.029120 
#    y -0.815320 2.962750 -0.061770 
#    z -0.029120 -0.061770 2.043780 
# 
# From -- ./inp_files/132404.got.cif
#   From: 2010.05.17/outbox.cif.g08.bks.cpg/sg2_67_cif.got.tgz:132404.got - 2010.06.03 11:33:40.
