data_PCOD9098658
_publ_section_title
;
Structure prediction by ZEFSAII (Michael W. Deem and Ramdas Pophale) SiO2 
 PCOD9098658
Probable space group: P -1
;
_chemical_formula_sum "Si O2"
_cell_formula_units_Z 16
_cell_length_a 10.075516
_cell_length_b 8.954658
_cell_length_c 17.362995
_cell_angle_alpha 96.455049
_cell_angle_beta 139.066963
_cell_angle_gamma 107.789994
_cell_volume 816.059567
_symmetry_space_group_name_H-M "P -1"
_symmetry_group_IT_number 2
_symmetry_cell_setting 'triclinic'
loop_
_space_group_symop_operation_xyz
x,y,z
-x,-y,-z
loop_
_atom_site_type_symbol
_atom_site_label
_atom_site_fract_x
_atom_site_fract_y
_atom_site_fract_z
Si Si1 0.793946 0.286189 0.589695
Si Si2 0.984402 0.912121 0.872355
Si Si3 0.867713 0.573639 0.397494
Si Si4 0.422557 0.174142 0.186364
Si Si5 0.056909 0.118542 0.438070
Si Si6 0.393355 0.042931 0.668338
Si Si7 0.245654 0.906146 0.283266
Si Si8 0.195617 0.360005 0.361522
O O1 0.501596 0.117137 0.428762
O O2 0.831008 0.221028 0.683185
O O3 0.860679 0.491571 0.637628
O O4 0.971702 0.313373 0.599956
O O5 0.767108 0.830238 0.837231
O O6 0.917356 0.752502 0.773913
O O7 0.961233 0.063822 0.829399
O O8 0.251665 0.018623 0.038148
O O9 0.604023 0.383078 0.246379
O O10 0.000000 0.500000 0.500000
O O11 0.847780 0.706579 0.452618
O O12 0.582819 0.117888 0.298083
O O13 0.096862 0.204304 0.376161
O O14 0.766382 0.959230 0.328924
O O15 0.234559 0.056144 0.531419
O O16 0.670764 0.164942 0.755439
O O17 0.500000 0.500000 0.500000
#
# Coordination Sequence:
#
# PCOD9098658 Si02
#       8
#     2   2   2   2   2   2   2   2
#     4  11  21  33  58  87 119 148 191 244 293 334
#     4  10  22  39  61  85 117 158 193 234 286 356
#     4  12  19  38  59  86 114 155 198 242 279 342
#     4  10  21  41  62  82 116 159 199 227 292 349
#     4  11  22  32  58  89 118 145 194 244 293 333
#     4  10  20  37  55  87 115 153 191 243 288 339
#     4  10  20  37  56  86 118 151 189 242 293 340
#     4  12  21  34  55  92 117 146 193 243 289 340
#
# _framework density 19.606411000000001
#
# number of rings (size 3 to 8) (size 9 to 14) (size 15 to 20)
#    0.000    1.250    5.000    2.250    1.750    0.000 
#    0.000    4.375    0.000    5.250    0.000    0.000 
#    0.000    0.000    0.000    0.000    0.000    0.000 
#
# Total GULP energy -89073.664155 kJ/mol
# GULP energy per Si atom -5567.104010 kJ/mol
# Density = 1.956179 g / cm^3
# Si number density = 19.606411 Si / 1000 Ang^3
#
#
#
# Elastic Constant Matrix: (Units=GPa)
#
#
# Indices 1 2 3 4 5 6 
#
# 1 65.8783 32.3376 32.6852 7.0136 -16.9860 3.0135
# 2 32.3376 103.2262 35.2605 -4.7016 -2.5454 11.7768
# 3 32.6852 35.2605 71.0085 8.0548 -14.4472 -1.1449
# 4 7.0136 -4.7016 8.0548 18.2322 -5.0518 -3.0119
# 5 -16.9860 -2.5454 -14.4472 -5.0518 23.2656 -1.7477
# 6 3.0135 11.7768 -1.1449 -3.0119 -1.7477 46.4152
#
#
#
# Elastic Compliance Matrix: (Units=1/GPa)
#
#
# Indices 1 2 3 4 5 6 
#
# 1 0.024467 -0.005795 -0.005187 -0.005054 0.012904 -0.000088
# 2 -0.005795 0.014173 -0.006266 0.006646 -0.005364 -0.003145
# 3 -0.005187 -0.006266 0.021992 -0.006766 0.007889 0.002327
# 4 -0.005054 0.006646 -0.006766 0.063890 0.006925 0.002881
# 5 0.012904 -0.005364 0.007889 0.006925 0.058472 0.003369
# 6 -0.000088 -0.003145 0.002327 0.002881 0.003369 0.022720
#
#
# Mechanical properties :
#
#
# Convention : Reuss Voigt Hill
#
# Bulk Modulus (GPa) = 38.26308 48.96441 43.61375
# Shear Modulus (GPa) = 20.08664 26.90458 23.49561
#
# Velocity S-wave (km/s) = 3.20424 3.70839 3.46549
# Velocity P-wave (km/s) = 5.76607 6.58514 6.18917
#
# Compressibility (1/GPa) = 0.02613485
#
# Stress axis : x y z
#
# Youngs Moduli (GPa) = 40.87171 70.55913 45.47024
#
# Poissons Ratio (x) = 0.40887 0.23587
# Poissons Ratio (y) = 0.23684 0.28493
# Poissons Ratio (z) = 0.21202 0.44215
#
# Static dielectric constant tensor:
#      x y z
#    x 1.748720 -0.013690 -0.012860 
#    y -0.013690 1.700310 0.019450 
#    z -0.012860 0.019450 1.716090 
# 
# From -- ./inp_files/557329.got.cif
#   From: 2010.05.17/outbox.cif.g08.bks.cpg/sg2_279_cif.got.tgz:557329.got - 2010.06.03 11:33:40.
