data_PCOD9098432
_publ_section_title
;
Structure prediction by ZEFSAII (Michael W. Deem and Ramdas Pophale) SiO2 
 PCOD9098432
Probable space group: P -1
;
_chemical_formula_sum "Si O2"
_cell_formula_units_Z 16
_cell_length_a 14.981952
_cell_length_b 13.841307
_cell_length_c 11.807389
_cell_angle_alpha 47.153575
_cell_angle_beta 143.645076
_cell_angle_gamma 152.334900
_cell_volume 668.967425
_symmetry_space_group_name_H-M "P -1"
_symmetry_group_IT_number 2
_symmetry_cell_setting 'triclinic'
loop_
_space_group_symop_operation_xyz
x,y,z
-x,-y,-z
loop_
_atom_site_type_symbol
_atom_site_label
_atom_site_fract_x
_atom_site_fract_y
_atom_site_fract_z
Si Si1 0.770188 0.660190 0.693596
Si Si2 0.561376 0.411129 0.068047
Si Si3 0.763998 0.468915 0.646739
Si Si4 0.511381 0.292677 0.878660
Si Si5 0.832405 0.284890 0.282369
Si Si6 0.723671 0.912935 0.425746
Si Si7 0.474142 0.786145 0.602423
Si Si8 0.119991 0.742118 0.389954
O O1 0.500000 0.500000 0.500000
O O2 0.870660 0.653191 0.691974
O O3 0.843571 0.859851 0.638542
O O4 0.725338 0.527809 0.855205
O O5 0.435103 0.315669 0.894854
O O6 0.482103 0.242583 0.206658
O O7 0.849219 0.593796 0.199015
O O8 0.500000 0.500000 0.000000
O O9 0.550310 0.260106 0.668088
O O10 0.625724 0.391888 0.445344
O O11 0.986320 0.539483 0.769299
O O12 0.596676 0.207168 0.076190
O O13 0.312556 0.139476 0.702494
O O14 0.886776 0.333068 0.433502
O O15 0.836295 0.130539 0.390195
O O16 0.273302 0.762386 0.439175
O O17 0.713282 0.015501 0.616939
#
# Coordination Sequence:
#
# PCOD9098432 Si02
#       8
#     2   2   2   2   2   2   2   2
#     4   8  20  39  61  85 124 172 204 256 330 384
#     4  12  26  40  68  95 135 174 212 273 328 393
#     4  10  20  36  66  88 120 167 213 261 323 380
#     4  10  22  41  62  94 134 163 215 273 324 381
#     4  12  21  38  67  98 123 163 229 269 317 393
#     4  10  23  41  63  89 130 171 208 267 328 391
#     4  11  22  42  67  92 130 169 223 266 321 395
#     4  11  24  41  65  99 127 176 219 265 332 388
#
# _framework density 23.917459999999998
#
# number of rings (size 3 to 8) (size 9 to 14) (size 15 to 20)
#    0.000    1.750    3.750    1.500    5.250    3.000 
#    0.000    2.500    0.000    0.000    0.000    0.000 
#    0.000    0.000    0.000    0.000    0.000    0.000 
#
# Total GULP energy -89187.494199 kJ/mol
# GULP energy per Si atom -5574.218387 kJ/mol
# Density = 2.386302 g / cm^3
# Si number density = 23.917460 Si / 1000 Ang^3
#
#
#
# Elastic Constant Matrix: (Units=GPa)
#
#
# Indices 1 2 3 4 5 6 
#
# 1 119.9005 16.6436 18.4961 -12.7602 -19.7760 -6.7306
# 2 16.6436 84.3238 13.7217 -11.1631 6.1965 2.0490
# 3 18.4961 13.7217 47.2301 -14.8243 -9.7839 -8.1174
# 4 -12.7602 -11.1631 -14.8243 19.5494 -1.8417 10.2119
# 5 -19.7760 6.1965 -9.7839 -1.8417 33.0804 -1.3355
# 6 -6.7306 2.0490 -8.1174 10.2119 -1.3355 45.7966
#
#
#
# Elastic Compliance Matrix: (Units=1/GPa)
#
#
# Indices 1 2 3 4 5 6 
#
# 1 0.010411 -0.001733 -0.000164 0.006110 0.006857 0.000416
# 2 -0.001733 0.013798 -0.002954 0.005543 -0.004297 -0.002757
# 3 -0.000164 -0.002954 0.031732 0.022812 0.011150 0.000971
# 4 0.006110 0.005543 0.022812 0.084001 0.013487 -0.013644
# 5 0.006857 -0.004297 0.011150 0.013487 0.039235 0.001313
# 6 0.000416 -0.002757 0.000971 -0.013644 0.001313 0.025273
#
#
# Mechanical properties :
#
#
# Convention : Reuss Voigt Hill
#
# Bulk Modulus (GPa) = 21.62709 38.79747 30.21228
# Shear Modulus (GPa) = 21.78021 33.19150 27.48585
#
# Velocity S-wave (km/s) = 3.02096 3.72930 3.39366
# Velocity P-wave (km/s) = 4.60763 5.89916 5.29294
#
# Compressibility (1/GPa) = 0.04623830
#
# Stress axis : x y z
#
# Youngs Moduli (GPa) = 96.05551 72.47166 31.51393
#
# Poissons Ratio (x) = 0.12562 0.00516
# Poissons Ratio (y) = 0.16650 0.09310
# Poissons Ratio (z) = 0.01573 0.21411
#
# Static dielectric constant tensor:
#      x y z
#    x 2.064540 -0.057830 -0.006270 
#    y -0.057830 2.052960 -0.001560 
#    z -0.006270 -0.001560 1.902670 
# 
# From -- ./inp_files/455568.got.cif
#   From: 2010.05.17/outbox.cif.g08.bks.cpg/sg2_228_cif.got.tgz:455568.got - 2010.06.03 11:33:40.
