data_PCOD9098091
_publ_section_title
;
Structure prediction by ZEFSAII (Michael W. Deem and Ramdas Pophale) SiO2 
 PCOD9098091
Probable space group: P -1
;
_chemical_formula_sum "Si O2"
_cell_formula_units_Z 15
_cell_length_a 11.179591
_cell_length_b 9.735444
_cell_length_c 8.295440
_cell_angle_alpha 74.734906
_cell_angle_beta 89.382014
_cell_angle_gamma 43.754600
_cell_volume 580.180542
_symmetry_space_group_name_H-M "P -1"
_symmetry_group_IT_number 2
_symmetry_cell_setting 'triclinic'
loop_
_space_group_symop_operation_xyz
x,y,z
-x,-y,-z
loop_
_atom_site_type_symbol
_atom_site_label
_atom_site_fract_x
_atom_site_fract_y
_atom_site_fract_z
Si Si1 0.500000 0.000000 0.000000
Si Si2 0.774800 0.245965 0.724721
Si Si3 0.591874 0.437031 0.193278
Si Si4 0.031643 0.157382 0.014562
Si Si5 0.896238 0.399117 0.492838
Si Si6 0.834704 0.504934 0.123767
Si Si7 0.255364 0.986517 0.769892
Si Si8 0.433591 0.101951 0.645915
O O1 0.301099 0.245849 0.947301
O O2 0.534770 0.078001 0.804671
O O3 0.566827 0.412028 0.719754
O O4 0.870629 0.236346 0.882754
O O5 0.807572 0.323081 0.551541
O O6 0.903195 0.994267 0.787714
O O7 0.715876 0.465004 0.160921
O O8 0.696882 0.192240 0.281911
O O9 0.500000 0.500000 0.000000
O O10 0.202955 0.992640 0.948025
O O11 0.955970 0.373836 0.006977
O O12 0.952375 0.396291 0.315461
O O13 0.741440 0.647913 0.463165
O O14 0.079871 0.225575 0.640358
O O15 0.407285 0.971688 0.780771
O O16 0.500000 0.000000 0.500000
#
# Coordination Sequence:
#
# PCOD9098091 Si02
#       8
#     1   2   2   2   2   2   2   2
#     4  10  26  44  66  98 130 170 224 266 326 396
#     4  10  20  37  61  96 125 162 217 263 319 396
#     4  12  20  35  66  95 122 165 220 269 324 381
#     4  10  20  36  63  93 127 168 208 265 328 377
#     4  10  24  42  59  93 134 169 219 263 335 391
#     4  11  23  42  62  92 134 172 211 279 324 389
#     4  11  23  40  67  97 125 173 224 264 325 404
#     4  11  24  46  70  94 132 176 218 277 329 390
#
# _framework density 25.854022000000001
#
# number of rings (size 3 to 8) (size 9 to 14) (size 15 to 20)
#    0.000    1.333    2.667    3.600    3.733    2.667 
#    2.400    1.333    0.000    0.000    0.000    0.000 
#    0.000    0.000    0.000    0.000    0.000    0.000 
#
# Total GULP energy -83595.899109 kJ/mol
# GULP energy per Si atom -5573.059941 kJ/mol
# Density = 2.579518 g / cm^3
# Si number density = 25.854022 Si / 1000 Ang^3
#
#
#
# Elastic Constant Matrix: (Units=GPa)
#
#
# Indices 1 2 3 4 5 6 
#
# 1 62.0115 -4.3080 -12.1346 -11.8437 -7.9339 -2.6467
# 2 -4.3080 142.4242 34.3861 -4.3446 -4.1214 19.6147
# 3 -12.1346 34.3861 101.2692 -23.4127 1.2059 -4.3126
# 4 -11.8437 -4.3446 -23.4127 36.5751 0.7524 -8.6602
# 5 -7.9339 -4.1214 1.2059 0.7524 27.2411 -0.8267
# 6 -2.6467 19.6147 -4.3126 -8.6602 -0.8267 34.0630
#
#
#
# Elastic Compliance Matrix: (Units=1/GPa)
#
#
# Indices 1 2 3 4 5 6 
#
# 1 0.020233 -0.001043 0.005572 0.011276 0.005355 0.005875
# 2 -0.001043 0.008849 -0.004256 -0.003598 0.001122 -0.006603
# 3 0.005572 -0.004256 0.015350 0.013050 0.000186 0.008150
# 4 0.011276 -0.003598 0.013050 0.042548 0.001456 0.015453
# 5 0.005355 0.001122 0.000186 0.001456 0.038424 0.001096
# 6 0.005875 -0.006603 0.008150 0.015453 0.001096 0.038603
#
#
# Mechanical properties :
#
#
# Convention : Reuss Voigt Hill
#
# Bulk Modulus (GPa) = 22.23352 37.95466 30.09409
# Shear Modulus (GPa) = 28.01831 38.75993 33.38912
#
# Velocity S-wave (km/s) = 3.29555 3.87613 3.59757
# Velocity P-wave (km/s) = 4.80616 5.89447 5.37791
#
# Compressibility (1/GPa) = 0.04497714
#
# Stress axis : x y z
#
# Youngs Moduli (GPa) = 49.42316 113.00139 65.14863
#
# Poissons Ratio (x) = 0.11792 -0.36301
# Poissons Ratio (y) = 0.05157 0.27729
# Poissons Ratio (z) = -0.27539 0.48096
#
# Static dielectric constant tensor:
#      x y z
#    x 2.049030 -0.023190 -0.181780 
#    y -0.023190 1.950500 -0.012270 
#    z -0.181780 -0.012270 1.962810 
# 
# From -- ./inp_files/256110.got.cif
#   From: 2010.05.17/outbox.cif.g08.bks.cpg/sg2_129_cif.got.tgz:256110.got - 2010.06.03 11:33:40.
