data_PCOD9098070
_publ_section_title
;
Structure prediction by ZEFSAII (Michael W. Deem and Ramdas Pophale) SiO2 
 PCOD9098070
Probable space group: P -1
;
_chemical_formula_sum "Si O2"
_cell_formula_units_Z 16
_cell_length_a 19.454836
_cell_length_b 15.800790
_cell_length_c 8.794853
_cell_angle_alpha 33.247004
_cell_angle_beta 143.065261
_cell_angle_gamma 142.941060
_cell_volume 818.939830
_symmetry_space_group_name_H-M "P -1"
_symmetry_group_IT_number 2
_symmetry_cell_setting 'triclinic'
loop_
_space_group_symop_operation_xyz
x,y,z
-x,-y,-z
loop_
_atom_site_type_symbol
_atom_site_label
_atom_site_fract_x
_atom_site_fract_y
_atom_site_fract_z
Si Si1 0.732240 0.810511 0.802959
Si Si2 0.550454 0.891594 0.145277
Si Si3 0.702643 0.148974 0.798043
Si Si4 0.272381 0.518644 0.806356
Si Si5 0.115958 0.653640 0.906109
Si Si6 0.784009 0.076734 0.737188
Si Si7 0.974667 0.765406 0.248832
Si Si8 0.296650 0.646140 0.981248
O O1 0.666114 0.874560 0.460001
O O2 0.725904 0.897961 0.818564
O O3 0.678147 0.608623 0.997705
O O4 0.878319 0.853892 0.966177
O O5 0.436079 0.715517 0.185663
O O6 0.500000 0.000000 0.000000
O O7 0.591176 0.993775 0.907653
O O8 0.671884 0.297984 0.443641
O O9 0.760919 0.080072 0.868990
O O10 0.795571 0.238683 0.965636
O O11 0.122130 0.429378 0.650374
O O12 0.285475 0.524078 0.003551
O O13 0.197217 0.593087 0.022441
O O14 0.059282 0.764842 0.542129
O O15 0.000000 0.500000 0.000000
O O16 0.726048 0.197224 0.371402
O O17 0.930638 0.161311 0.831272
#
# Coordination Sequence:
#
# PCOD9098070 Si02
#       8
#     2   2   2   2   2   2   2   2
#     4  10  21  42  62  87 123 172 193 250 315 360
#     4  12  22  43  65  84 123 163 216 246 293 370
#     4  11  23  38  63  97 116 164 208 252 293 361
#     4   9  22  39  61  91 123 154 205 245 314 350
#     4  11  19  34  62  94 125 150 201 256 302 356
#     4  10  20  36  63  92 122 162 204 242 309 371
#     4   9  20  37  61  87 131 158 198 245 315 364
#     4  10  22  38  63  89 117 171 202 246 303 362
#
# _framework density 19.537454
#
# number of rings (size 3 to 8) (size 9 to 14) (size 15 to 20)
#    0.750    1.000    3.750    1.125    1.750    4.000 
#    0.000    5.625    0.000    0.000    0.000    0.000 
#    0.000    0.000    0.000    0.000    0.000    0.000 
#
# Total GULP energy -89175.576336 kJ/mol
# GULP energy per Si atom -5573.473521 kJ/mol
# Density = 1.949299 g / cm^3
# Si number density = 19.537454 Si / 1000 Ang^3
#
#
#
# Elastic Constant Matrix: (Units=GPa)
#
#
# Indices 1 2 3 4 5 6 
#
# 1 87.7227 -8.7144 12.6930 -9.4121 -18.1296 6.1346
# 2 -8.7144 25.1959 -8.7466 -6.1459 -6.3934 0.0461
# 3 12.6930 -8.7466 42.0459 -7.7242 2.4033 7.1218
# 4 -9.4121 -6.1459 -7.7242 27.6330 -3.6138 2.6294
# 5 -18.1296 -6.3934 2.4033 -3.6138 19.3281 0.3250
# 6 6.1346 0.0461 7.1218 2.6294 0.3250 32.3225
#
#
#
# Elastic Compliance Matrix: (Units=1/GPa)
#
#
# Indices 1 2 3 4 5 6 
#
# 1 0.021429 0.018505 -0.000480 0.015641 0.029299 -0.005555
# 2 0.018505 0.070509 0.014194 0.032804 0.045215 -0.009863
# 3 -0.000480 0.014194 0.030322 0.012585 0.002956 -0.007664
# 4 0.015641 0.032804 0.012585 0.057936 0.034972 -0.010853
# 5 0.029299 0.045215 0.002956 0.034972 0.100518 -0.010132
# 6 -0.005555 -0.009863 -0.007664 -0.010853 -0.010132 0.034680
#
#
# Mechanical properties :
#
#
# Convention : Reuss Voigt Hill
#
# Bulk Modulus (GPa) = 5.35625 16.15874 10.75749
# Shear Modulus (GPa) = 15.96472 26.50555 21.23514
#
# Velocity S-wave (km/s) = 2.86166 3.68727 3.30038
# Velocity P-wave (km/s) = 3.69679 5.13971 4.47676
#
# Compressibility (1/GPa) = 0.18669791
#
# Stress axis : x y z
#
# Youngs Moduli (GPa) = 46.66573 14.18250 32.97898
#
# Poissons Ratio (x) = -0.26244 0.01584
# Poissons Ratio (y) = -0.86353 -0.46811
# Poissons Ratio (z) = 0.02241 -0.20131
#
# Static dielectric constant tensor:
#      x y z
#    x 1.677280 0.001250 -0.000820 
#    y 0.001250 1.764240 -0.013660 
#    z -0.000820 -0.013660 1.689480 
# 
# From -- ./inp_files/334676.got.cif
#   From: 2010.05.17/outbox.cif.g08.bks.cpg/sg2_168_cif.got.tgz:334676.got - 2010.06.03 11:33:40.
