data_PCOD9098490
_publ_section_title
;
Structure prediction by ZEFSAII (Michael W. Deem and Ramdas Pophale) SiO2 
 PCOD9098490
Probable space group: P -1
;
_chemical_formula_sum "Si O2"
_cell_formula_units_Z 16
_cell_length_a 18.202106
_cell_length_b 16.316082
_cell_length_c 5.403486
_cell_angle_alpha 104.086845
_cell_angle_beta 85.112196
_cell_angle_gamma 149.627997
_cell_volume 761.085722
_symmetry_space_group_name_H-M "P -1"
_symmetry_group_IT_number 2
_symmetry_cell_setting 'triclinic'
loop_
_space_group_symop_operation_xyz
x,y,z
-x,-y,-z
loop_
_atom_site_type_symbol
_atom_site_label
_atom_site_fract_x
_atom_site_fract_y
_atom_site_fract_z
Si Si1 0.246985 0.127490 0.548660
Si Si2 0.834601 0.410626 0.838361
Si Si3 0.980869 0.209798 0.374837
Si Si4 0.870719 0.939991 0.968952
Si Si5 0.834513 0.208355 0.111144
Si Si6 0.642147 0.083907 0.460511
Si Si7 0.407490 0.126493 0.390265
Si Si8 0.266092 0.594409 0.640667
O O1 0.104835 0.921812 0.475320
O O2 0.239004 0.170127 0.840494
O O3 0.384394 0.200050 0.530133
O O4 0.217002 0.151291 0.330523
O O5 0.772624 0.253672 0.718885
O O6 0.766800 0.388007 0.593501
O O7 0.013379 0.600314 0.901465
O O8 0.776115 0.395259 0.094353
O O9 0.151375 0.401424 0.522185
O O10 0.899595 0.215282 0.323188
O O11 0.952635 0.113216 0.096560
O O12 0.000000 0.000000 0.000000
O O13 0.716203 0.156440 0.222653
O O14 0.734478 0.045949 0.856903
O O15 0.500000 0.000000 0.500000
O O16 0.595453 0.942023 0.431841
O O17 0.562011 0.263031 0.304495
#
# Coordination Sequence:
#
# PCOD9098490 Si02
#       8
#     2   2   2   2   2   2   2   2
#     4  10  20  37  62  93 119 161 198 243 296 370
#     4  11  26  42  59  87 120 161 218 261 313 351
#     4   9  21  39  63  89 121 155 208 237 306 359
#     4  10  20  36  66  98 122 148 195 250 297 355
#     4  11  23  41  62  86 119 166 211 263 305 365
#     4  12  24  40  58  88 123 165 209 269 319 351
#     4  12  23  39  64  85 127 163 212 252 312 362
#     4  11  25  40  62  88 123 165 204 259 303 366
#
# _framework density 21.022601000000002
#
# number of rings (size 3 to 8) (size 9 to 14) (size 15 to 20)
#    0.750    0.500    3.750    2.250    5.250    1.500 
#    0.000    0.000    0.000    1.500    0.000    0.000 
#    0.000    0.000    0.000    0.000    0.000    0.000 
#
# Total GULP energy -89276.403136 kJ/mol
# GULP energy per Si atom -5579.775196 kJ/mol
# Density = 2.097475 g / cm^3
# Si number density = 21.022601 Si / 1000 Ang^3
#
#
#
# Elastic Constant Matrix: (Units=GPa)
#
#
# Indices 1 2 3 4 5 6 
#
# 1 84.6629 12.8859 14.8840 -24.5301 8.7801 25.4761
# 2 12.8859 82.3599 15.6772 -16.3874 -5.5621 28.8825
# 3 14.8840 15.6772 92.2952 -32.1068 8.6887 9.2812
# 4 -24.5301 -16.3874 -32.1068 37.9796 2.2946 -6.3618
# 5 8.7801 -5.5621 8.6887 2.2946 25.2062 -5.0709
# 6 25.4761 28.8825 9.2812 -6.3618 -5.0709 27.1159
#
#
#
# Elastic Compliance Matrix: (Units=1/GPa)
#
#
# Indices 1 2 3 4 5 6 
#
# 1 0.032303 0.013045 0.009005 0.027948 -0.023093 -0.045088
# 2 0.013045 0.025682 0.004378 0.017286 -0.009782 -0.038884
# 3 0.009005 0.004378 0.019410 0.022088 -0.014346 -0.017268
# 4 0.027948 0.017286 0.022088 0.065136 -0.027949 -0.042175
# 5 -0.023093 -0.009782 -0.014346 -0.027949 0.061490 0.041968
# 6 -0.045088 -0.038884 -0.017268 -0.042175 0.041968 0.124522
#
#
# Mechanical properties :
#
#
# Convention : Reuss Voigt Hill
#
# Bulk Modulus (GPa) = 7.67747 38.46801 23.07274
# Shear Modulus (GPa) = 15.66892 32.45174 24.06033
#
# Velocity S-wave (km/s) = 2.73305 3.93321 3.38671
# Velocity P-wave (km/s) = 3.69044 6.24219 5.12759
#
# Compressibility (1/GPa) = 0.13025123
#
# Stress axis : x y z
#
# Youngs Moduli (GPa) = 30.95696 38.93730 51.52075
#
# Poissons Ratio (x) = -0.50793 -0.46395
# Poissons Ratio (y) = -0.40383 -0.22557
# Poissons Ratio (z) = -0.27877 -0.17048
#
# Static dielectric constant tensor:
#      x y z
#    x 1.795230 -0.012540 0.020410 
#    y -0.012540 1.762440 -0.039490 
#    z 0.020410 -0.039490 1.828590 
# 
# From -- ./inp_files/111669.got.cif
#   From: 2010.05.17/outbox.cif.g08.bks.cpg/sg2_56_cif.got.tgz:111669.got - 2010.06.03 11:33:40.
