data_PCOD9098642
_publ_section_title
;
Structure prediction by ZEFSAII (Michael W. Deem and Ramdas Pophale) SiO2 
 PCOD9098642
Probable space group: P -1
;
_chemical_formula_sum "Si O2"
_cell_formula_units_Z 14
_cell_length_a 13.558094
_cell_length_b 9.009327
_cell_length_c 17.088064
_cell_angle_alpha 86.341916
_cell_angle_beta 24.288256
_cell_angle_gamma 96.400798
_cell_volume 780.225930
_symmetry_space_group_name_H-M "P -1"
_symmetry_group_IT_number 2
_symmetry_cell_setting 'triclinic'
loop_
_space_group_symop_operation_xyz
x,y,z
-x,-y,-z
loop_
_atom_site_type_symbol
_atom_site_label
_atom_site_fract_x
_atom_site_fract_y
_atom_site_fract_z
Si Si1 0.117186 0.189514 0.096173
Si Si2 0.979960 0.855644 0.135879
Si Si3 0.396896 0.769380 0.553195
Si Si4 0.523243 0.523069 0.733633
Si Si5 0.897032 0.556194 0.319252
Si Si6 0.219342 0.680414 0.857201
Si Si7 0.388006 0.464747 0.996016
O O1 0.250753 0.271706 0.078921
O O2 0.810331 0.156827 0.324039
O O3 0.276242 0.343215 0.918334
O O4 0.143300 0.031816 0.049760
O O5 0.702018 0.853954 0.309414
O O6 0.936214 0.720510 0.239747
O O7 0.102237 0.796971 0.977349
O O8 0.281106 0.590523 0.604056
O O9 0.372297 0.752455 0.664825
O O10 0.744922 0.535590 0.511625
O O11 0.407407 0.649561 0.785046
O O12 0.596100 0.542156 0.772040
O O13 0.164683 0.532983 0.141055
O O14 0.000000 0.500000 0.000000
O O15 0.500000 0.500000 0.000000
#
# Coordination Sequence:
#
# PCOD9098642 Si02
#       7
#     2   2   2   2   2   2   2
#     4   9  22  38  49  85 114 137 183 231 272 310
#     4  12  21  33  55  79 118 147 177 228 265 309
#     4  11  21  34  53  80 114 158 182 208 260 335
#     4  10  20  37  55  81 109 139 189 220 265 334
#     4  11  20  35  61  81 106 149 189 213 264 329
#     4  12  18  34  53  77 111 153 192 208 254 326
#     4   9  20  42  63  78 104 140 183 231 276 329
#
# _framework density 17.943521
#
# number of rings (size 3 to 8) (size 9 to 14) (size 15 to 20)
#    0.857    0.571    5.714    1.714    0.000    1.143 
#    5.143    0.714    0.000    0.857    0.000    0.000 
#    0.000    0.000    0.000    0.000    0.000    0.000 
#
# Total GULP energy -78031.429249 kJ/mol
# GULP energy per Si atom -5573.673518 kJ/mol
# Density = 1.790268 g / cm^3
# Si number density = 17.943521 Si / 1000 Ang^3
#
#
#
# Elastic Constant Matrix: (Units=GPa)
#
#
# Indices 1 2 3 4 5 6 
#
# 1 96.6156 28.5783 15.1036 5.1120 18.3915 29.1095
# 2 28.5783 94.8953 17.4185 14.3954 4.7729 19.0103
# 3 15.1036 17.4185 66.2785 26.3174 19.2031 9.8085
# 4 5.1120 14.3954 26.3174 23.5522 10.8650 5.9644
# 5 18.3915 4.7729 19.2031 10.8650 22.2576 5.4430
# 6 29.1095 19.0103 9.8085 5.9644 5.4430 14.9242
#
#
#
# Elastic Compliance Matrix: (Units=1/GPa)
#
#
# Indices 1 2 3 4 5 6 
#
# 1 0.032170 0.001594 0.001118 0.016462 -0.020086 -0.064766
# 2 0.001594 0.014999 0.000216 -0.005935 0.003364 -0.021212
# 3 0.001118 0.000216 0.029751 -0.026240 -0.012090 -0.007112
# 4 0.016462 -0.005935 -0.026240 0.092872 -0.026529 -0.034744
# 5 -0.020086 0.003364 -0.012090 -0.026529 0.078080 0.024963
# 6 -0.064766 -0.021212 -0.007112 -0.034744 0.024963 0.229805
#
#
# Mechanical properties :
#
#
# Convention : Reuss Voigt Hill
#
# Bulk Modulus (GPa) = 12.08088 42.22115 27.15101
# Shear Modulus (GPa) = 10.01176 25.25938 17.63557
#
# Velocity S-wave (km/s) = 2.36468 3.75602 3.13843
# Velocity P-wave (km/s) = 3.76868 6.51087 5.31951
#
# Compressibility (1/GPa) = 0.08277545
#
# Stress axis : x y z
#
# Youngs Moduli (GPa) = 31.08487 66.67276 33.61221
#
# Poissons Ratio (x) = -0.10629 -0.03757
# Poissons Ratio (y) = -0.04956 -0.00725
# Poissons Ratio (z) = -0.03475 -0.01439
#
# Static dielectric constant tensor:
#      x y z
#    x 1.606660 -0.003740 0.006580 
#    y -0.003740 1.634840 0.005690 
#    z 0.006580 0.005690 1.637940 
# 
# From -- ./inp_files/264807.got.cif
#   From: 2010.05.17/outbox.cif.g08.bks.cpg/sg2_133_cif.got.tgz:264807.got - 2010.06.03 11:33:40.
