data_PCOD9098163
_publ_section_title
;
Structure prediction by ZEFSAII (Michael W. Deem and Ramdas Pophale) SiO2 
 PCOD9098163
Probable space group: P -1
;
_chemical_formula_sum "Si O2"
_cell_formula_units_Z 15
_cell_length_a 11.060472
_cell_length_b 8.970241
_cell_length_c 9.830040
_cell_angle_alpha 122.013282
_cell_angle_beta 110.392509
_cell_angle_gamma 50.110422
_cell_volume 634.466389
_symmetry_space_group_name_H-M "P -1"
_symmetry_group_IT_number 2
_symmetry_cell_setting 'triclinic'
loop_
_space_group_symop_operation_xyz
x,y,z
-x,-y,-z
loop_
_atom_site_type_symbol
_atom_site_label
_atom_site_fract_x
_atom_site_fract_y
_atom_site_fract_z
Si Si1 0.500000 0.500000 0.500000
Si Si2 0.744235 0.011790 0.381145
Si Si3 0.212258 0.521916 0.255130
Si Si4 0.898027 0.405090 0.445264
Si Si5 0.882749 0.079214 0.715645
Si Si6 0.370558 0.215291 0.630513
Si Si7 0.602761 0.244053 0.902951
Si Si8 0.678539 0.936693 0.023370
O O1 0.581743 0.247396 0.442978
O O2 0.378479 0.493032 0.336205
O O3 0.856330 0.045420 0.530881
O O4 0.750661 0.827583 0.377496
O O5 0.751582 0.955748 0.200066
O O6 0.130948 0.584131 0.400599
O O7 0.116417 0.711107 0.197441
O O8 0.231982 0.305730 0.112704
O O9 0.724917 0.568826 0.390008
O O10 0.000000 0.500000 0.500000
O O11 0.976931 0.162963 0.305074
O O12 0.735235 0.152702 0.792833
O O13 0.467453 0.216666 0.791964
O O14 0.500000 0.000000 0.500000
O O15 0.676711 0.100595 0.996574
O O16 0.500000 0.500000 0.000000
O O17 0.500000 0.000000 0.000000
#
# Coordination Sequence:
#
# PCOD9098163 Si02
#       8
#     1   2   2   2   2   2   2   2
#     4  10  20  36  64 104 132 172 232 290 332 410
#     4  11  22  37  66  96 137 178 230 278 347 414
#     4  11  24  40  69  99 140 181 236 285 354 410
#     4  12  24  44  72 101 140 189 234 290 348 425
#     4  11  25  46  68 100 140 183 239 280 354 426
#     4  12  22  41  70 103 133 179 239 284 344 412
#     4  12  26  42  70 109 140 179 231 302 351 409
#     4  12  22  39  64 103 142 177 223 294 358 400
#
# _framework density 23.641914
#
# number of rings (size 3 to 8) (size 9 to 14) (size 15 to 20)
#    0.000    0.533    5.333    3.600    3.733    1.067 
#    0.000    1.333    0.000    1.600    0.000    0.000 
#    0.000    0.000    0.000    0.000    0.000    0.000 
#
# Total GULP energy -83536.447771 kJ/mol
# GULP energy per Si atom -5569.096518 kJ/mol
# Density = 2.358810 g / cm^3
# Si number density = 23.641914 Si / 1000 Ang^3
#
#
#
# Elastic Constant Matrix: (Units=GPa)
#
#
# Indices 1 2 3 4 5 6 
#
# 1 66.7945 31.1442 17.4418 -4.2944 -22.8556 8.4804
# 2 31.1442 214.5818 48.1484 20.5755 -23.3989 6.2646
# 3 17.4418 48.1484 91.6208 13.5463 -11.7000 9.3319
# 4 -4.2944 20.5755 13.5463 37.4426 4.4029 1.7744
# 5 -22.8556 -23.3989 -11.7000 4.4029 26.1014 -0.0241
# 6 8.4804 6.2646 9.3319 1.7744 -0.0241 41.7889
#
#
#
# Elastic Compliance Matrix: (Units=1/GPa)
#
#
# Indices 1 2 3 4 5 6 
#
# 1 0.022594 -0.001081 -0.001269 0.001733 0.017950 -0.004203
# 2 -0.001081 0.006012 -0.001944 -0.003203 0.004112 -0.000110
# 3 -0.001269 -0.001944 0.013557 -0.004338 0.003953 -0.002292
# 4 0.001733 -0.003203 -0.004338 0.031255 -0.008571 -0.000235
# 5 0.017950 0.004112 0.003953 -0.008571 0.060930 -0.004743
# 6 -0.004203 -0.000110 -0.002292 -0.000235 -0.004743 0.025318
#
#
# Mechanical properties :
#
#
# Convention : Reuss Voigt Hill
#
# Bulk Modulus (GPa) = 29.78321 62.94066 46.36193
# Shear Modulus (GPa) = 27.86369 39.48412 33.67390
#
# Velocity S-wave (km/s) = 3.43676 4.09111 3.77812
# Velocity P-wave (km/s) = 5.32667 6.99975 6.21972
#
# Compressibility (1/GPa) = 0.03357597
#
# Stress axis : x y z
#
# Youngs Moduli (GPa) = 44.25998 166.33645 73.76055
#
# Poissons Ratio (x) = 0.17973 0.09361
# Poissons Ratio (y) = 0.04782 0.14338
# Poissons Ratio (z) = 0.05617 0.32334
#
# Static dielectric constant tensor:
#      x y z
#    x 1.961050 -0.007510 -0.019590 
#    y -0.007510 2.021730 0.071390 
#    z -0.019590 0.071390 1.891080 
# 
# From -- ./inp_files/245583.got.cif
#   From: 2010.05.17/outbox.cif.g08.bks.cpg/sg2_123_cif.got.tgz:245583.got - 2010.06.03 11:33:40.
