data_PCOD9098427
_publ_section_title
;
Structure prediction by ZEFSAII (Michael W. Deem and Ramdas Pophale) SiO2 
 PCOD9098427
Probable space group: P -1
;
_chemical_formula_sum "Si O2"
_cell_formula_units_Z 13
_cell_length_a 14.734146
_cell_length_b 15.400562
_cell_length_c 5.033593
_cell_angle_alpha 120.765682
_cell_angle_beta 54.624031
_cell_angle_gamma 148.852870
_cell_volume 481.360104
_symmetry_space_group_name_H-M "P -1"
_symmetry_group_IT_number 2
_symmetry_cell_setting 'triclinic'
loop_
_space_group_symop_operation_xyz
x,y,z
-x,-y,-z
loop_
_atom_site_type_symbol
_atom_site_label
_atom_site_fract_x
_atom_site_fract_y
_atom_site_fract_z
Si Si1 0.874424 0.633798 0.091714
Si Si2 0.500000 0.000000 0.500000
Si Si3 0.499044 0.599910 0.321029
Si Si4 0.907890 0.878210 0.216982
Si Si5 0.830849 0.386242 0.895107
Si Si6 0.500855 0.197674 0.549369
Si Si7 0.778562 0.141998 0.774271
O O1 0.679461 0.519775 0.378252
O O2 0.923952 0.765917 0.027968
O O3 0.031384 0.744404 0.227109
O O4 0.869604 0.509128 0.822499
O O5 0.475267 0.858035 0.333630
O O6 0.360901 0.912179 0.858288
O O7 0.690113 0.744541 0.380180
O O8 0.502614 0.687650 0.223274
O O9 0.500000 0.500000 0.000000
O O10 0.000000 0.000000 0.500000
O O11 0.000000 0.000000 0.000000
O O12 0.786330 0.234627 0.673182
O O13 0.662156 0.301350 0.225451
O O14 0.000000 0.500000 0.000000
O O15 0.313614 0.020990 0.456958
#
# Coordination Sequence:
#
# PCOD9098427 Si02
#       7
#     2   1   2   2   2   2   2
#     4  10  22  43  70 103 149 198 243 322 386 458
#     4  10  20  36  66 104 138 178 250 304 378 444
#     4  11  25  49  74 108 155 202 261 319 393 457
#     4  12  27  48  78 110 150 205 268 321 381 467
#     4   8  16  34  63  92 133 179 231 299 376 453
#     4  10  21  39  67  98 139 192 244 312 375 457
#     4  10  20  40  69 102 143 190 251 304 387 460
#
# _framework density 27.006810000000002
#
# number of rings (size 3 to 8) (size 9 to 14) (size 15 to 20)
#    0.000    1.846    0.000    4.154    2.154    0.000 
#   11.077    0.000    0.000   18.462    0.000    0.000 
#    0.000    0.000    0.000    0.000    0.000    0.000 
#
# Total GULP energy -72633.917077 kJ/mol
# GULP energy per Si atom -5587.224391 kJ/mol
# Density = 2.694534 g / cm^3
# Si number density = 27.006810 Si / 1000 Ang^3
#
#
#
# Elastic Constant Matrix: (Units=GPa)
#
#
# Indices 1 2 3 4 5 6 
#
# 1 176.7030 87.5122 44.3651 -11.6627 -6.5640 -45.5358
# 2 87.5122 185.4705 68.2450 -7.7562 -15.3068 -40.1614
# 3 44.3651 68.2450 100.1731 -16.2520 6.4089 -8.4215
# 4 -11.6627 -7.7562 -16.2520 48.6173 -3.0566 -26.2151
# 5 -6.5640 -15.3068 6.4089 -3.0566 40.3165 5.2272
# 6 -45.5358 -40.1614 -8.4215 -26.2151 5.2272 103.5329
#
#
#
# Elastic Compliance Matrix: (Units=1/GPa)
#
#
# Indices 1 2 3 4 5 6 
#
# 1 0.008305 -0.002636 -0.001146 0.002975 0.000335 0.003273
# 2 -0.002636 0.009274 -0.005160 0.000396 0.003691 0.001932
# 3 -0.001146 -0.005160 0.014822 0.003481 -0.004211 -0.000206
# 4 0.002975 0.000396 0.003481 0.027201 0.001031 0.008580
# 5 0.000335 0.003691 -0.004211 0.001031 0.026990 0.000135
# 6 0.003273 0.001932 -0.000206 0.008580 0.000135 0.013997
#
#
# Mechanical properties :
#
#
# Convention : Reuss Voigt Hill
#
# Bulk Modulus (GPa) = 68.88377 95.84345 82.36361
# Shear Modulus (GPa) = 40.54797 55.97495 48.26146
#
# Velocity S-wave (km/s) = 3.87899 4.55755 4.23189
# Velocity P-wave (km/s) = 6.75452 7.95366 7.37849
#
# Compressibility (1/GPa) = 0.01451721
#
# Stress axis : x y z
#
# Youngs Moduli (GPa) = 120.41489 107.83127 67.46582
#
# Poissons Ratio (x) = 0.28426 0.07730
# Poissons Ratio (y) = 0.31743 0.34812
# Poissons Ratio (z) = 0.13796 0.55640
#
# Static dielectric constant tensor:
#      x y z
#    x 2.181380 -0.073480 0.032250 
#    y -0.073480 1.923760 -0.028810 
#    z 0.032250 -0.028810 2.121420 
# 
# From -- ./inp_files/98553.got.cif
#   From: 2010.05.17/outbox.cif.g08.bks.cpg/sg2_50_cif.got.tgz:98553.got - 2010.06.03 11:33:40.
