data_PCOD9098054
_publ_section_title
;
Structure prediction by ZEFSAII (Michael W. Deem and Ramdas Pophale) SiO2 
 PCOD9098054
Probable space group: P -1
;
_chemical_formula_sum "Si O2"
_cell_formula_units_Z 14
_cell_length_a 10.161538
_cell_length_b 11.205295
_cell_length_c 12.825930
_cell_angle_alpha 54.295158
_cell_angle_beta 34.518490
_cell_angle_gamma 60.778783
_cell_volume 671.928144
_symmetry_space_group_name_H-M "P -1"
_symmetry_group_IT_number 2
_symmetry_cell_setting 'triclinic'
loop_
_space_group_symop_operation_xyz
x,y,z
-x,-y,-z
loop_
_atom_site_type_symbol
_atom_site_label
_atom_site_fract_x
_atom_site_fract_y
_atom_site_fract_z
Si Si1 0.481094 0.831767 0.555137
Si Si2 0.080715 0.165868 0.878689
Si Si3 0.028679 0.888999 0.441517
Si Si4 0.744793 0.665747 0.638583
Si Si5 0.481851 0.824099 0.090552
Si Si6 0.802933 0.335798 0.808277
Si Si7 0.037357 0.162253 0.151930
O O1 0.677828 0.813563 0.348828
O O2 0.541476 0.729180 0.666607
O O3 0.232183 0.792082 0.690031
O O4 0.500000 0.000000 0.500000
O O5 0.892609 0.271477 0.891313
O O6 0.101638 0.181134 0.980129
O O7 0.000000 0.000000 0.000000
O O8 0.273637 0.798130 0.323761
O O9 0.817769 0.778796 0.623170
O O10 0.025891 0.993766 0.287176
O O11 0.000000 0.000000 0.500000
O O12 0.713224 0.502682 0.783427
O O13 0.970467 0.664738 0.415105
O O14 0.381457 0.766355 0.077239
O O15 0.744833 0.767526 0.966187
O O16 0.500000 0.000000 0.000000
#
# Coordination Sequence:
#
# PCOD9098054 Si02
#       7
#     2   2   2   2   2   2   2
#     4  11  20  36  61  91 122 157 204 254 306 355
#     4  11  20  35  65  87 119 159 206 259 300 356
#     4  10  20  36  63  91 122 162 202 254 308 358
#     4   9  18  37  63  90 121 155 213 248 296 377
#     4   9  19  36  58  85 123 156 201 248 301 363
#     4   9  19  38  64  89 115 166 204 251 307 355
#     4  11  22  37  57  91 122 155 205 249 304 362
#
# _framework density 20.835560999999998
#
# number of rings (size 3 to 8) (size 9 to 14) (size 15 to 20)
#    0.000    2.000    2.857    2.571    2.000    0.000 
#    5.143    1.429    3.143    3.429    0.000    0.000 
#    0.000    0.000    0.000    0.000    0.000    0.000 
#
# Total GULP energy -78080.522070 kJ/mol
# GULP energy per Si atom -5577.180148 kJ/mol
# Density = 2.078814 g / cm^3
# Si number density = 20.835561 Si / 1000 Ang^3
#
#
#
# Elastic Constant Matrix: (Units=GPa)
#
#
# Indices 1 2 3 4 5 6 
#
# 1 134.9864 51.7723 54.4292 -0.6078 -16.6066 -16.0578
# 2 51.7723 76.1383 28.8149 -14.9793 6.7229 -14.5863
# 3 54.4292 28.8149 103.1814 23.2263 -8.2921 -7.9054
# 4 -0.6078 -14.9793 23.2263 27.6255 -8.4354 2.0484
# 5 -16.6066 6.7229 -8.2921 -8.4354 44.4203 4.8788
# 6 -16.0578 -14.5863 -7.9054 2.0484 4.8788 33.8335
#
#
#
# Elastic Compliance Matrix: (Units=1/GPa)
#
#
# Indices 1 2 3 4 5 6 
#
# 1 0.012660 -0.006541 -0.004868 0.002302 0.005122 0.001173
# 2 -0.006541 0.025719 -0.007845 0.018467 -0.004926 0.005743
# 3 -0.004868 -0.007845 0.019038 -0.020692 -0.001025 0.000156
# 4 0.002302 0.018467 -0.020692 0.065784 0.006777 -0.000740
# 5 0.005122 -0.004926 -0.001025 0.006777 0.026729 -0.004197
# 6 0.001173 0.005743 0.000156 -0.000740 -0.004197 0.033276
#
#
# Mechanical properties :
#
#
# Convention : Reuss Voigt Hill
#
# Bulk Modulus (GPa) = 52.88575 64.92655 58.90615
# Shear Modulus (GPa) = 21.92831 33.12849 27.52840
#
# Velocity S-wave (km/s) = 3.24766 3.99180 3.63881
# Velocity P-wave (km/s) = 6.28495 7.24397 6.78143
#
# Compressibility (1/GPa) = 0.01890869
#
# Stress axis : x y z
#
# Youngs Moduli (GPa) = 78.99020 38.88212 52.52659
#
# Poissons Ratio (x) = 0.25431 0.25572
# Poissons Ratio (y) = 0.51664 0.41207
# Poissons Ratio (z) = 0.38455 0.30503
#
# Static dielectric constant tensor:
#      x y z
#    x 1.781710 -0.011050 -0.030820 
#    y -0.011050 1.758090 0.047900 
#    z -0.030820 0.047900 1.827090 
# 
# From -- ./inp_files/254663.got.cif
#   From: 2010.05.17/outbox.cif.g08.bks.cpg/sg2_128_cif.got.tgz:254663.got - 2010.06.03 11:33:40.
