data_PCOD9098124
_publ_section_title
;
Structure prediction by ZEFSAII (Michael W. Deem and Ramdas Pophale) SiO2 
 PCOD9098124
Probable space group: P -1
;
_chemical_formula_sum "Si O2"
_cell_formula_units_Z 14
_cell_length_a 7.951990
_cell_length_b 9.270291
_cell_length_c 14.106672
_cell_angle_alpha 51.711063
_cell_angle_beta 100.787494
_cell_angle_gamma 128.874457
_cell_volume 599.821089
_symmetry_space_group_name_H-M "P -1"
_symmetry_group_IT_number 2
_symmetry_cell_setting 'triclinic'
loop_
_space_group_symop_operation_xyz
x,y,z
-x,-y,-z
loop_
_atom_site_type_symbol
_atom_site_label
_atom_site_fract_x
_atom_site_fract_y
_atom_site_fract_z
Si Si1 0.261973 0.741761 0.931052
Si Si2 0.220972 0.891652 0.524130
Si Si3 0.542023 0.736219 0.271403
Si Si4 0.662703 0.545260 0.822086
Si Si5 0.580725 0.877600 0.745125
Si Si6 0.094236 0.612606 0.359629
Si Si7 0.133930 0.064340 0.612518
O O1 0.367923 0.795118 0.816055
O O2 0.317780 0.988731 0.866209
O O3 0.375180 0.672956 0.040321
O O4 0.000000 0.500000 0.000000
O O5 0.108587 0.609609 0.638050
O O6 0.004715 0.863582 0.474623
O O7 0.394915 0.026873 0.398710
O O8 0.280977 0.053869 0.556236
O O9 0.455729 0.547893 0.254709
O O10 0.320841 0.664967 0.329133
O O11 0.705939 0.762042 0.355446
O O12 0.573964 0.654945 0.826686
O O13 0.931589 0.781940 0.738794
O O14 0.806481 0.110673 0.731101
O O15 0.000000 0.500000 0.500000
#
# Coordination Sequence:
#
# PCOD9098124 Si02
#       7
#     2   2   2   2   2   2   2
#     4  11  22  41  66  89 124 161 209 260 305 363
#     4   9  18  38  62  91 129 158 200 251 306 365
#     4  11  22  38  65  92 120 166 209 247 313 364
#     4  11  21  41  66  90 126 161 207 256 308 360
#     4   9  21  38  65  91 123 166 200 255 311 359
#     4   9  18  37  59  87 125 162 200 245 304 365
#     4  10  20  36  63  96 123 160 203 252 302 367
#
# _framework density 23.340295000000001
#
# number of rings (size 3 to 8) (size 9 to 14) (size 15 to 20)
#    0.000    2.000    2.857    0.857    0.000    0.571 
#    0.000    8.571   25.143    0.000    0.000    0.000 
#    0.000    0.000    0.000    0.000    0.000    0.000 
#
# Total GULP energy -78244.275376 kJ/mol
# GULP energy per Si atom -5588.876813 kJ/mol
# Density = 2.328717 g / cm^3
# Si number density = 23.340295 Si / 1000 Ang^3
#
#
#
# Elastic Constant Matrix: (Units=GPa)
#
#
# Indices 1 2 3 4 5 6 
#
# 1 48.9500 34.2122 6.8522 -0.4449 -13.2742 -7.8258
# 2 34.2122 140.2469 24.7502 -0.9080 -8.5542 0.6885
# 3 6.8522 24.7502 81.2633 -14.9460 -7.7859 4.3812
# 4 -0.4449 -0.9080 -14.9460 40.6898 1.9167 -0.1449
# 5 -13.2742 -8.5542 -7.7859 1.9167 43.6879 -0.6325
# 6 -7.8258 0.6885 4.3812 -0.1449 -0.6325 32.7114
#
#
#
# Elastic Compliance Matrix: (Units=1/GPa)
#
#
# Indices 1 2 3 4 5 6 
#
# 1 0.028033 -0.006404 -0.000124 -0.000203 0.007352 0.006999
# 2 -0.006404 0.009071 -0.002330 -0.000701 -0.000575 -0.001425
# 3 -0.000124 -0.002330 0.014231 0.005083 0.001793 -0.001829
# 4 -0.000203 -0.000701 0.005083 0.026445 -0.000462 -0.000606
# 5 0.007352 -0.000575 0.001793 -0.000462 0.025380 0.002020
# 6 0.006999 -0.001425 -0.001829 -0.000606 0.002020 0.032556
#
#
# Mechanical properties :
#
#
# Convention : Reuss Voigt Hill
#
# Bulk Modulus (GPa) = 29.74432 44.67661 37.21047
# Shear Modulus (GPa) = 30.36969 37.06085 33.71527
#
# Velocity S-wave (km/s) = 3.61109 3.98910 3.80479
# Velocity P-wave (km/s) = 5.49163 6.35612 5.93962
#
# Compressibility (1/GPa) = 0.03361986
#
# Stress axis : x y z
#
# Youngs Moduli (GPa) = 35.67238 110.24083 70.26905
#
# Poissons Ratio (x) = 0.70597 0.00869
# Poissons Ratio (y) = 0.22844 0.16373
# Poissons Ratio (z) = 0.00441 0.25686
#
# Static dielectric constant tensor:
#      x y z
#    x 1.944760 0.023040 0.041630 
#    y 0.023040 1.918620 0.001390 
#    z 0.041630 0.001390 1.907870 
# 
# From -- ./inp_files/461256.got.cif
#   From: 2010.05.17/outbox.cif.g08.bks.cpg/sg2_231_cif.got.tgz:461256.got - 2010.06.03 11:33:40.
