data_PCOD9098544
_publ_section_title
;
Structure prediction by ZEFSAII (Michael W. Deem and Ramdas Pophale) SiO2 
 PCOD9098544
Probable space group: P -1
;
_chemical_formula_sum "Si O2"
_cell_formula_units_Z 15
_cell_length_a 11.705866
_cell_length_b 10.603705
_cell_length_c 5.309270
_cell_angle_alpha 67.023885
_cell_angle_beta 74.607728
_cell_angle_gamma 62.993920
_cell_volume 537.443142
_symmetry_space_group_name_H-M "P -1"
_symmetry_group_IT_number 2
_symmetry_cell_setting 'triclinic'
loop_
_space_group_symop_operation_xyz
x,y,z
-x,-y,-z
loop_
_atom_site_type_symbol
_atom_site_label
_atom_site_fract_x
_atom_site_fract_y
_atom_site_fract_z
Si Si1 0.237568 0.947487 0.767094
Si Si2 0.853394 0.568679 0.622614
Si Si3 0.958895 0.861419 0.608274
Si Si4 0.500000 0.500000 0.000000
Si Si5 0.816027 0.292325 0.729210
Si Si6 0.487528 0.193675 0.057960
Si Si7 0.225496 0.244433 0.979270
Si Si8 0.610828 0.298307 0.514537
O O1 0.284958 0.845494 0.567497
O O2 0.138629 0.102513 0.600169
O O3 0.162521 0.862703 0.029889
O O4 0.372049 0.929612 0.838445
O O5 0.820469 0.424159 0.785004
O O6 0.839981 0.636022 0.855121
O O7 0.000000 0.500000 0.500000
O O8 0.776720 0.677199 0.349780
O O9 0.872578 0.840814 0.899677
O O10 0.090460 0.729620 0.545683
O O11 0.000000 0.000000 0.500000
O O12 0.469130 0.336609 0.134570
O O13 0.415930 0.565330 0.754827
O O14 0.666772 0.344517 0.699194
O O15 0.505958 0.246669 0.727174
O O16 0.364259 0.154307 0.108184
#
# Coordination Sequence:
#
# PCOD9098544 Si02
#       8
#     2   2   2   1   2   2   2   2
#     4  10  24  43  74 101 142 193 247 304 358 439
#     4  12  28  48  74 113 154 191 243 304 386 444
#     4  12  26  48  76 104 141 197 258 304 368 439
#     4  10  20  36  68  94 142 184 238 288 362 438
#     4  11  24  43  74 105 147 187 247 307 371 438
#     4  10  24  42  65 104 144 189 243 294 374 433
#     4  12  30  48  76 112 153 198 240 313 372 445
#     4  10  21  39  63 105 137 192 234 298 359 430
#
# _framework density 27.909929000000002
#
# number of rings (size 3 to 8) (size 9 to 14) (size 15 to 20)
#    0.000    1.067    2.667    2.000   13.067    1.600 
#    0.000    0.667    0.000    0.000    0.000    0.000 
#    0.000    0.000    0.000    0.000    0.000    0.000 
#
# Total GULP energy -83732.992864 kJ/mol
# GULP energy per Si atom -5582.199524 kJ/mol
# Density = 2.784640 g / cm^3
# Si number density = 27.909929 Si / 1000 Ang^3
#
#
#
# Elastic Constant Matrix: (Units=GPa)
#
#
# Indices 1 2 3 4 5 6 
#
# 1 132.8383 29.8081 3.7319 -2.3885 -17.7415 -2.0968
# 2 29.8081 55.1464 2.0488 2.3752 0.0827 24.2492
# 3 3.7319 2.0488 100.9690 1.7292 5.0989 8.3732
# 4 -2.3885 2.3752 1.7292 33.8260 -7.3023 6.4824
# 5 -17.7415 0.0827 5.0989 -7.3023 44.4340 -0.1641
# 6 -2.0968 24.2492 8.3732 6.4824 -0.1641 42.4398
#
#
#
# Elastic Compliance Matrix: (Units=1/GPa)
#
#
# Indices 1 2 3 4 5 6 
#
# 1 0.009898 -0.007466 -0.000846 0.001284 0.004292 0.004742
# 2 -0.007466 0.029925 0.001304 0.000002 -0.003251 -0.017738
# 3 -0.000846 0.001304 0.010225 -0.000497 -0.001605 -0.002735
# 4 0.001284 0.000002 -0.000497 0.031824 0.005782 -0.004678
# 5 0.004292 -0.003251 -0.001605 0.005782 0.025365 0.001601
# 6 0.004742 -0.017738 -0.002735 -0.004678 0.001601 0.035192
#
#
# Mechanical properties :
#
#
# Convention : Reuss Voigt Hill
#
# Bulk Modulus (GPa) = 27.75334 40.01460 33.88397
# Shear Modulus (GPa) = 29.68118 41.03095 35.35606
#
# Velocity S-wave (km/s) = 3.26462 3.83837 3.56306
# Velocity P-wave (km/s) = 4.91689 5.83201 5.39389
#
# Compressibility (1/GPa) = 0.03603169
#
# Stress axis : x y z
#
# Youngs Moduli (GPa) = 101.02914 33.41688 97.79751
#
# Poissons Ratio (x) = 0.24948 0.08277
# Poissons Ratio (y) = 0.75426 -0.12751
# Poissons Ratio (z) = 0.08551 -0.04357
#
# Static dielectric constant tensor:
#      x y z
#    x 2.100540 0.271100 0.151640 
#    y 0.271100 1.712610 -0.351860 
#    z 0.151640 -0.351860 1.959570 
# 
# From -- ./inp_files/65467.got.cif
#   From: 2010.05.17/outbox.cif.g08.bks.cpg/sg2_33_cif.got.tgz:65467.got - 2010.06.03 11:33:40.
