data_PCOD9098798
_publ_section_title
;
Structure prediction by ZEFSAII (Michael W. Deem and Ramdas Pophale) SiO2 
 PCOD9098798
Probable space group: P -1
;
_chemical_formula_sum "Si O2"
_cell_formula_units_Z 16
_cell_length_a 5.223934
_cell_length_b 16.420833
_cell_length_c 7.952960
_cell_angle_alpha 92.539293
_cell_angle_beta 82.667484
_cell_angle_gamma 107.522014
_cell_volume 645.229091
_symmetry_space_group_name_H-M "P -1"
_symmetry_group_IT_number 2
_symmetry_cell_setting 'triclinic'
loop_
_space_group_symop_operation_xyz
x,y,z
-x,-y,-z
loop_
_atom_site_type_symbol
_atom_site_label
_atom_site_fract_x
_atom_site_fract_y
_atom_site_fract_z
Si Si1 0.952852 0.787448 0.257615
Si Si2 0.792965 0.223755 0.222883
Si Si3 0.978890 0.022777 0.804058
Si Si4 0.419486 0.720581 0.076334
Si Si5 0.654570 0.623530 0.829984
Si Si6 0.706459 0.475457 0.608702
Si Si7 0.576624 0.035179 0.188709
Si Si8 0.488539 0.298771 0.486619
O O1 0.074628 0.887605 0.225460
O O2 0.807552 0.758438 0.444087
O O3 0.690744 0.764834 0.157068
O O4 0.157658 0.733917 0.190865
O O5 0.584571 0.228889 0.093048
O O6 0.797838 0.127638 0.195269
O O7 0.677536 0.242416 0.412700
O O8 0.062756 0.300844 0.168997
O O9 0.280374 0.024011 0.726370
O O10 0.716733 0.958166 0.733072
O O11 0.000000 0.000000 0.000000
O O12 0.455354 0.631508 0.997001
O O13 0.710233 0.534446 0.776262
O O14 0.524493 0.648116 0.674383
O O15 0.500000 0.500000 0.500000
O O16 0.605116 0.372713 0.622193
O O17 0.000000 0.500000 0.500000
O O18 0.500000 0.000000 0.000000
#
# Coordination Sequence:
#
# PCOD9098798 Si02
#       8
#     2   2   2   2   2   2   2   2
#     4  12  24  42  64  95 134 170 216 268 337 382
#     4  11  21  41  68  97 125 168 226 268 316 390
#     4  10  20  37  57  86 118 166 211 259 307 381
#     4  11  23  38  65  94 126 173 216 265 314 394
#     4  10  22  41  70  96 127 170 223 268 313 392
#     4  10  20  40  65  97 127 170 218 260 316 389
#     4  10  21  34  59  89 120 156 212 270 309 364
#     4  10  25  40  68  98 132 171 212 273 329 386
#
# _framework density 24.797391999999999
#
# number of rings (size 3 to 8) (size 9 to 14) (size 15 to 20)
#    0.000    1.500    2.500    3.750    5.250    0.000 
#    0.000    2.500    0.000    0.000    0.000    0.000 
#    0.000    0.000    0.000    0.000    0.000    0.000 
#
# Total GULP energy -89253.717213 kJ/mol
# GULP energy per Si atom -5578.357326 kJ/mol
# Density = 2.474095 g / cm^3
# Si number density = 24.797392 Si / 1000 Ang^3
#
#
#
# Elastic Constant Matrix: (Units=GPa)
#
#
# Indices 1 2 3 4 5 6 
#
# 1 176.2826 26.2262 16.5389 9.7322 -17.6925 -2.8798
# 2 26.2262 126.7739 27.8738 14.9246 -14.2867 -2.6520
# 3 16.5389 27.8738 71.1539 10.9923 -24.4883 -11.4500
# 4 9.7322 14.9246 10.9923 29.0931 1.8295 -9.1155
# 5 -17.6925 -14.2867 -24.4883 1.8295 38.5140 9.3267
# 6 -2.8798 -2.6520 -11.4500 -9.1155 9.3267 31.5718
#
#
#
# Elastic Compliance Matrix: (Units=1/GPa)
#
#
# Indices 1 2 3 4 5 6 
#
# 1 0.006176 -0.000716 0.000039 -0.002209 0.002941 -0.000989
# 2 -0.000716 0.009293 -0.002306 -0.004468 0.002376 -0.002113
# 3 0.000039 -0.002306 0.020416 -0.006770 0.012054 0.001699
# 4 -0.002209 -0.004468 -0.006770 0.045013 -0.012416 0.013632
# 5 0.002941 0.002376 0.012054 -0.012416 0.038932 -0.010246
# 6 -0.000989 -0.002113 0.001699 0.013632 -0.010246 0.038985
#
#
# Mechanical properties :
#
#
# Convention : Reuss Voigt Hill
#
# Bulk Modulus (GPa) = 33.42281 57.27649 45.34965
# Shear Modulus (GPa) = 28.61171 40.07390 34.34280
#
# Velocity S-wave (km/s) = 3.40048 4.02438 3.72551
# Velocity P-wave (km/s) = 5.37822 6.68895 6.06908
#
# Compressibility (1/GPa) = 0.02991969
#
# Stress axis : x y z
#
# Youngs Moduli (GPa) = 161.90476 107.61187 48.98142
#
# Poissons Ratio (x) = 0.07700 -0.00190
# Poissons Ratio (y) = 0.11585 0.11295
# Poissons Ratio (z) = -0.00630 0.24816
#
# Static dielectric constant tensor:
#      x y z
#    x 2.036210 -0.019360 -0.123160 
#    y -0.019360 2.022250 0.048470 
#    z -0.123160 0.048470 2.143730 
# 
# From -- ./inp_files/139121.got.cif
#   From: 2010.05.17/outbox.cif.g08.bks.cpg/sg2_70_cif.got.tgz:139121.got - 2010.06.03 11:33:40.
