data_PCOD9098145
_publ_section_title
;
Structure prediction by ZEFSAII (Michael W. Deem and Ramdas Pophale) SiO2 
 PCOD9098145
Probable space group: P -1
;
_chemical_formula_sum "Si O2"
_cell_formula_units_Z 12
_cell_length_a 11.296396
_cell_length_b 4.929841
_cell_length_c 9.323082
_cell_angle_alpha 77.383922
_cell_angle_beta 102.417693
_cell_angle_gamma 66.941595
_cell_volume 439.283975
_symmetry_space_group_name_H-M "P -1"
_symmetry_group_IT_number 2
_symmetry_cell_setting 'triclinic'
loop_
_space_group_symop_operation_xyz
x,y,z
-x,-y,-z
loop_
_atom_site_type_symbol
_atom_site_label
_atom_site_fract_x
_atom_site_fract_y
_atom_site_fract_z
Si Si1 0.336809 0.417130 0.356590
Si Si2 0.022296 0.748413 0.152763
Si Si3 0.035776 0.756757 0.704690
Si Si4 0.305441 0.163449 0.791230
Si Si5 0.277151 0.907368 0.517799
Si Si6 0.557000 0.295834 0.894713
O O1 0.411762 0.514972 0.242536
O O2 0.354986 0.072682 0.431429
O O3 0.333309 0.579982 0.488409
O O4 0.181418 0.587082 0.243661
O O5 0.952499 0.956592 0.252251
O O6 0.000000 0.000000 0.000000
O O7 0.175277 0.505806 0.697204
O O8 0.889340 0.904699 0.568049
O O9 0.018432 0.526932 0.842669
O O10 0.305430 0.948820 0.684856
O O11 0.311824 0.006435 0.968479
O O12 0.445274 0.192388 0.825745
O O13 0.500000 0.500000 0.000000
#
# Coordination Sequence:
#
# PCOD9098145 Si02
#       6
#     2   2   2   2   2   2
#     4  10  24  44  68  96 140 170 230 274 327 403
#     4  10  20  36  63  98 131 175 211 272 337 389
#     4  10  22  39  66 101 131 167 217 275 336 397
#     4  11  26  44  69  98 138 178 224 275 333 400
#     4  10  24  45  72 104 130 175 220 282 341 391
#     4  11  28  46  66  97 134 187 227 273 328 397
#
# _framework density 27.317183
#
# number of rings (size 3 to 8) (size 9 to 14) (size 15 to 20)
#    0.000    1.667    0.000    2.000   11.667    2.667 
#    0.000    5.000    0.000    0.000    0.000    0.000 
#    0.000    0.000    0.000    0.000    0.000    0.000 
#
# Total GULP energy -67258.049916 kJ/mol
# GULP energy per Si atom -5604.837493 kJ/mol
# Density = 2.725501 g / cm^3
# Si number density = 27.317183 Si / 1000 Ang^3
#
#
#
# Elastic Constant Matrix: (Units=GPa)
#
#
# Indices 1 2 3 4 5 6 
#
# 1 128.3355 19.8070 36.6951 9.0194 -15.0458 -4.6111
# 2 19.8070 63.6392 -8.2840 0.4096 27.6575 7.7907
# 3 36.6951 -8.2840 107.4941 -13.7537 -0.5286 3.0526
# 4 9.0194 0.4096 -13.7537 44.8315 5.7777 5.6610
# 5 -15.0458 27.6575 -0.5286 5.7777 45.9513 -7.8199
# 6 -4.6111 7.7907 3.0526 5.6610 -7.8199 52.1666
#
#
#
# Elastic Compliance Matrix: (Units=1/GPa)
#
#
# Indices 1 2 3 4 5 6 
#
# 1 0.013808 -0.011718 -0.006650 -0.007223 0.013454 0.006160
# 2 -0.011718 0.033534 0.007991 0.009459 -0.027092 -0.011599
# 3 -0.006650 0.007991 0.013170 0.006978 -0.008492 -0.004582
# 4 -0.007223 0.009459 0.006978 0.028408 -0.012820 -0.007464
# 5 0.013454 -0.027092 -0.008492 -0.012820 0.046383 0.014076
# 6 0.006160 -0.011599 -0.004582 -0.007464 0.014076 0.024634
#
#
# Mechanical properties :
#
#
# Convention : Reuss Voigt Hill
#
# Bulk Modulus (GPa) = 25.15203 43.98943 34.57073
# Shear Modulus (GPa) = 25.78069 45.33994 35.56032
#
# Velocity S-wave (km/s) = 3.07539 4.07843 3.61190
# Velocity P-wave (km/s) = 4.67312 6.19002 5.48427
#
# Compressibility (1/GPa) = 0.03975822
#
# Stress axis : x y z
#
# Youngs Moduli (GPa) = 72.42065 29.82058 75.93122
#
# Poissons Ratio (x) = 0.34944 0.50491
# Poissons Ratio (y) = 0.84863 -0.60675
# Poissons Ratio (z) = 0.48157 -0.23829
#
# Static dielectric constant tensor:
#      x y z
#    x 2.306480 0.074530 -0.093840 
#    y 0.074530 2.214550 -0.125610 
#    z -0.093840 -0.125610 2.141480 
# 
# From -- ./inp_files/64047.got.cif
#   From: 2010.05.17/outbox.cif.g08.bks.cpg/sg2_33_cif.got.tgz:64047.got - 2010.06.03 11:33:40.
