data_PCOD9098086
_publ_section_title
;
Structure prediction by ZEFSAII (Michael W. Deem and Ramdas Pophale) SiO2 
 PCOD9098086
Probable space group: P -1
;
_chemical_formula_sum "Si O2"
_cell_formula_units_Z 16
_cell_length_a 13.708095
_cell_length_b 11.399943
_cell_length_c 8.676324
_cell_angle_alpha 104.206111
_cell_angle_beta 140.284408
_cell_angle_gamma 94.493243
_cell_volume 757.767992
_symmetry_space_group_name_H-M "P -1"
_symmetry_group_IT_number 2
_symmetry_cell_setting 'triclinic'
loop_
_space_group_symop_operation_xyz
x,y,z
-x,-y,-z
loop_
_atom_site_type_symbol
_atom_site_label
_atom_site_fract_x
_atom_site_fract_y
_atom_site_fract_z
Si Si1 0.139718 0.019113 0.805041
Si Si2 0.553940 0.486268 0.813519
Si Si3 0.759076 0.730274 0.790044
Si Si4 0.919560 0.604166 0.145010
Si Si5 0.866466 0.800901 0.605359
Si Si6 0.246745 0.805482 0.794198
Si Si7 0.039135 0.611420 0.717718
Si Si8 0.495327 0.307185 0.990639
O O1 0.262925 0.954748 0.875835
O O2 0.029751 0.924126 0.780101
O O3 0.000000 0.000000 0.500000
O O4 0.228683 0.168198 0.026330
O O5 0.429137 0.382198 0.505946
O O6 0.549334 0.400659 0.932929
O O7 0.744494 0.563468 0.012567
O O8 0.481379 0.591799 0.808797
O O9 0.823119 0.808033 0.732383
O O10 0.881300 0.660577 0.959817
O O11 0.944697 0.468202 0.139588
O O12 0.078020 0.721259 0.460627
O O13 0.704078 0.782435 0.302063
O O14 0.899952 0.668155 0.584276
O O15 0.203008 0.736084 0.889011
O O16 0.397760 0.778186 0.900891
O O17 0.000000 0.500000 0.500000
#
# Coordination Sequence:
#
# PCOD9098086 Si02
#       8
#     2   2   2   2   2   2   2   2
#     4  11  22  44  67  84 117 165 217 244 294 368
#     4  10  21  36  59  92 129 157 192 252 307 370
#     4  11  24  38  62  91 125 164 200 247 310 352
#     4  11  20  36  60  91 126 156 201 241 308 365
#     4  10  23  41  63  90 121 162 202 256 301 356
#     4  10  20  36  65  90 114 163 208 249 288 364
#     4   9  18  32  60  90 118 155 196 244 299 358
#     4  10  20  36  63  93 120 156 202 250 313 349
#
# _framework density 21.114642
#
# number of rings (size 3 to 8) (size 9 to 14) (size 15 to 20)
#    0.000    1.750    2.500    3.000    8.750    0.500 
#    0.000    3.125    2.750    0.000    0.000    0.000 
#    0.000    0.000    0.000    0.000    0.000    0.000 
#
# Total GULP energy -89359.202644 kJ/mol
# GULP energy per Si atom -5584.950165 kJ/mol
# Density = 2.106658 g / cm^3
# Si number density = 21.114642 Si / 1000 Ang^3
#
#
#
# Elastic Constant Matrix: (Units=GPa)
#
#
# Indices 1 2 3 4 5 6 
#
# 1 65.3396 30.0381 38.3873 6.8713 11.5456 -33.4911
# 2 30.0381 104.9770 48.9640 -4.7344 0.0824 -37.4954
# 3 38.3873 48.9640 113.1911 3.5582 -1.5219 -28.5874
# 4 6.8713 -4.7344 3.5582 18.3180 -5.7559 -0.6223
# 5 11.5456 0.0824 -1.5219 -5.7559 27.7720 -4.6799
# 6 -33.4911 -37.4954 -28.5874 -0.6223 -4.6799 49.5769
#
#
#
# Elastic Compliance Matrix: (Units=1/GPa)
#
#
# Indices 1 2 3 4 5 6 
#
# 1 0.031101 -0.001448 -0.005839 -0.014717 -0.013757 0.015064
# 2 -0.001448 0.015184 -0.004087 0.006533 0.003124 0.008526
# 3 -0.005839 -0.004087 0.012798 -0.000331 0.003180 0.000640
# 4 -0.014717 0.006533 -0.000331 0.067988 0.019755 -0.002474
# 5 -0.013757 0.003124 0.003180 0.019755 0.045899 -0.000516
# 6 0.015064 0.008526 0.000640 -0.002474 -0.000516 0.037084
#
#
# Mechanical properties :
#
#
# Convention : Reuss Voigt Hill
#
# Bulk Modulus (GPa) = 27.52235 57.58741 42.55488
# Shear Modulus (GPa) = 20.41542 30.20793 25.31167
#
# Velocity S-wave (km/s) = 3.11285 3.78651 3.46609
# Velocity P-wave (km/s) = 5.09733 6.81541 6.01800
#
# Compressibility (1/GPa) = 0.03633410
#
# Stress axis : x y z
#
# Youngs Moduli (GPa) = 32.15363 65.85882 78.13966
#
# Poissons Ratio (x) = 0.09537 0.45623
# Poissons Ratio (y) = 0.04656 0.31938
# Poissons Ratio (z) = 0.18773 0.26919
#
# Static dielectric constant tensor:
#      x y z
#    x 1.796620 0.034480 -0.021480 
#    y 0.034480 1.805320 -0.024580 
#    z -0.021480 -0.024580 1.756430 
# 
# From -- ./inp_files/308229.got.cif
#   From: 2010.05.17/outbox.cif.g08.bks.cpg/sg2_155_cif.got.tgz:308229.got - 2010.06.03 11:33:40.
