data_PCOD9098389
_publ_section_title
;
Structure prediction by ZEFSAII (Michael W. Deem and Ramdas Pophale) SiO2 
 PCOD9098389
Probable space group: P -1
;
_chemical_formula_sum "Si O2"
_cell_formula_units_Z 16
_cell_length_a 29.379803
_cell_length_b 9.354005
_cell_length_c 12.551440
_cell_angle_alpha 36.067809
_cell_angle_beta 155.519739
_cell_angle_gamma 150.871703
_cell_volume 694.242369
_symmetry_space_group_name_H-M "P -1"
_symmetry_group_IT_number 2
_symmetry_cell_setting 'triclinic'
loop_
_space_group_symop_operation_xyz
x,y,z
-x,-y,-z
loop_
_atom_site_type_symbol
_atom_site_label
_atom_site_fract_x
_atom_site_fract_y
_atom_site_fract_z
Si Si1 0.407076 0.380759 0.004970
Si Si2 0.961420 0.297335 0.702999
Si Si3 0.929581 0.772792 0.237040
Si Si4 0.315114 0.873241 0.254063
Si Si5 0.357842 0.450139 0.253144
Si Si6 0.937995 0.589535 0.903518
Si Si7 0.520037 0.925487 0.811386
Si Si8 0.302891 0.344376 0.443844
O O1 0.398167 0.186607 0.003164
O O2 0.559401 0.553953 0.266627
O O3 0.315860 0.138209 0.043657
O O4 0.402690 0.649167 0.794276
O O5 0.945826 0.555234 0.475052
O O6 0.061801 0.306959 0.821465
O O7 0.002304 0.342190 0.888510
O O8 0.824048 0.970757 0.599548
O O9 0.793355 0.743913 0.996913
O O10 0.047635 0.117216 0.284094
O O11 0.455706 0.998147 0.534250
O O12 0.287963 0.612888 0.274804
O O13 0.207237 0.700266 0.217356
O O14 0.500000 0.500000 0.500000
O O15 0.327799 0.334913 0.379018
O O16 0.391926 0.778275 0.115760
O O17 0.000000 0.500000 0.000000
#
# Coordination Sequence:
#
# PCOD9098389 Si02
#       8
#     2   2   2   2   2   2   2   2
#     4  10  20  36  65  94 126 160 214 281 324 387
#     4  11  24  46  76 102 130 176 239 291 326 398
#     4  11  25  46  74 103 132 179 234 284 337 397
#     4  11  21  39  64  94 129 173 219 272 335 397
#     4  12  24  40  67  95 137 179 215 270 345 410
#     4  12  27  43  67  98 140 180 219 280 350 411
#     4  10  21  37  60  96 126 163 212 268 333 391
#     4  11  19  41  67  95 127 171 228 278 334 390
#
# _framework density 23.046706
#
# number of rings (size 3 to 8) (size 9 to 14) (size 15 to 20)
#    0.000    1.000    5.000    2.625    1.750    1.500 
#    0.000    5.000    0.000    0.000    0.000    0.000 
#    0.000    0.000    0.000    0.000    0.000    0.000 
#
# Total GULP energy -89249.533840 kJ/mol
# GULP energy per Si atom -5578.095865 kJ/mol
# Density = 2.299425 g / cm^3
# Si number density = 23.046706 Si / 1000 Ang^3
#
#
#
# Elastic Constant Matrix: (Units=GPa)
#
#
# Indices 1 2 3 4 5 6 
#
# 1 72.7675 29.9452 26.6152 -3.1717 13.2560 26.5040
# 2 29.9452 143.8621 27.3830 -23.8882 -4.6312 37.9754
# 3 26.6152 27.3830 51.3105 -9.4599 -0.7457 15.9390
# 4 -3.1717 -23.8882 -9.4599 32.5034 14.3336 -5.6620
# 5 13.2560 -4.6312 -0.7457 14.3336 29.9411 3.5141
# 6 26.5040 37.9754 15.9390 -5.6620 3.5141 43.2352
#
#
#
# Elastic Compliance Matrix: (Units=1/GPa)
#
#
# Indices 1 2 3 4 5 6 
#
# 1 0.022173 -0.000682 -0.008114 0.002228 -0.010148 -0.008885
# 2 -0.000682 0.010292 -0.001851 0.005730 -0.000052 -0.007184
# 3 -0.008114 -0.001851 0.026315 0.003971 0.002386 -0.002775
# 4 0.002228 0.005730 0.003971 0.046068 -0.022051 -0.000037
# 5 -0.010148 -0.000052 0.002386 -0.022051 0.048671 -0.001457
# 6 -0.008885 -0.007184 -0.002775 -0.000037 -0.001457 0.036023
#
#
# Mechanical properties :
#
#
# Convention : Reuss Voigt Hill
#
# Bulk Modulus (GPa) = 26.67728 48.42522 37.55125
# Shear Modulus (GPa) = 22.38838 33.40238 27.89538
#
# Velocity S-wave (km/s) = 3.12017 3.81114 3.48283
# Velocity P-wave (km/s) = 4.95793 6.35797 5.70109
#
# Compressibility (1/GPa) = 0.03748508
#
# Stress axis : x y z
#
# Youngs Moduli (GPa) = 45.10010 97.16580 38.00172
#
# Poissons Ratio (x) = 0.06628 0.30834
# Poissons Ratio (y) = 0.03077 0.07035
# Poissons Ratio (z) = 0.36593 0.17987
#
# Static dielectric constant tensor:
#      x y z
#    x 1.907130 0.011190 0.003140 
#    y 0.011190 1.903990 0.020190 
#    z 0.003140 0.020190 1.975830 
# 
# From -- ./inp_files/398683.got.cif
#   From: 2010.05.17/outbox.cif.g08.bks.cpg/sg2_200_cif.got.tgz:398683.got - 2010.06.03 11:33:40.
