data_PCOD9098622
_publ_section_title
;
Structure prediction by ZEFSAII (Michael W. Deem and Ramdas Pophale) SiO2 
 PCOD9098622
Probable space group: P -1
;
_chemical_formula_sum "Si O2"
_cell_formula_units_Z 16
_cell_length_a 8.832788
_cell_length_b 11.025059
_cell_length_c 12.158463
_cell_angle_alpha 62.077356
_cell_angle_beta 66.497134
_cell_angle_gamma 41.296042
_cell_volume 688.178086
_symmetry_space_group_name_H-M "P -1"
_symmetry_group_IT_number 2
_symmetry_cell_setting 'triclinic'
loop_
_space_group_symop_operation_xyz
x,y,z
-x,-y,-z
loop_
_atom_site_type_symbol
_atom_site_label
_atom_site_fract_x
_atom_site_fract_y
_atom_site_fract_z
Si Si1 0.352741 0.944303 0.556915
Si Si2 0.569961 0.523852 0.314828
Si Si3 0.176915 0.502701 0.054271
Si Si4 0.731382 0.828815 0.938426
Si Si5 0.870803 0.341359 0.498072
Si Si6 0.458773 0.875962 0.307326
Si Si7 0.958900 0.589992 0.300850
Si Si8 0.428932 0.430853 0.215767
O O1 0.380601 0.880052 0.449536
O O2 0.445666 0.777146 0.685077
O O3 0.500000 0.000000 0.500000
O O4 0.084583 0.132012 0.568082
O O5 0.802642 0.352684 0.385124
O O6 0.365074 0.554672 0.416373
O O7 0.508761 0.714806 0.285074
O O8 0.556908 0.486916 0.207371
O O9 0.262171 0.337434 0.017058
O O10 0.379699 0.448555 0.092754
O O11 0.031218 0.507761 0.190657
O O12 0.977397 0.715392 0.972715
O O13 0.708006 0.925482 0.791128
O O14 0.500000 0.000000 0.000000
O O15 0.939427 0.461838 0.429305
O O16 0.708914 0.801598 0.281828
O O17 0.165778 0.570497 0.278901
#
# Coordination Sequence:
#
# PCOD9098622 Si02
#       8
#     2   2   2   2   2   2   2   2
#     4  12  22  33  60  92 124 153 205 262 295 359
#     4  10  23  38  56  79 129 168 196 239 301 384
#     4   9  21  37  62  94 115 150 205 264 304 347
#     4  11  19  39  65  88 116 154 210 267 301 346
#     4  10  20  37  54  86 120 168 199 234 304 364
#     4  11  23  37  58  92 117 163 206 242 312 366
#     4   9  18  36  57  85 118 149 205 250 287 358
#     4  10  20  38  56  89 120 161 190 252 304 357
#
# _framework density 23.249794999999999
#
# number of rings (size 3 to 8) (size 9 to 14) (size 15 to 20)
#    0.750    1.000    2.500    3.750    1.750    3.000 
#    2.250    0.625    0.000    0.750    0.000    0.000 
#    0.000    0.000    0.000    0.000    0.000    0.000 
#
# Total GULP energy -89340.167788 kJ/mol
# GULP energy per Si atom -5583.760487 kJ/mol
# Density = 2.319688 g / cm^3
# Si number density = 23.249795 Si / 1000 Ang^3
#
#
#
# Elastic Constant Matrix: (Units=GPa)
#
#
# Indices 1 2 3 4 5 6 
#
# 1 100.9238 25.8235 39.0139 -13.4114 31.8538 5.2733
# 2 25.8235 111.6833 48.1561 -20.0364 20.1321 -7.8592
# 3 39.0139 48.1561 82.5289 -26.8963 28.3154 -9.7360
# 4 -13.4114 -20.0364 -26.8963 45.9091 -8.3483 5.4048
# 5 31.8538 20.1321 28.3154 -8.3483 52.8598 2.7169
# 6 5.2733 -7.8592 -9.7360 5.4048 2.7169 26.1369
#
#
#
# Elastic Compliance Matrix: (Units=1/GPa)
#
#
# Indices 1 2 3 4 5 6 
#
# 1 0.013842 -0.000357 -0.004822 0.000600 -0.005308 -0.004269
# 2 -0.000357 0.012129 -0.005939 0.001356 -0.001077 0.001339
# 3 -0.004822 -0.005939 0.023446 0.007723 -0.006532 0.007003
# 4 0.000600 0.001356 0.007723 0.027251 -0.000588 -0.002410
# 5 -0.005308 -0.001077 -0.006532 -0.000588 0.026153 -0.004283
# 6 -0.004269 0.001339 0.007003 -0.002410 -0.004283 0.043076
#
#
# Mechanical properties :
#
#
# Convention : Reuss Voigt Hill
#
# Bulk Modulus (GPa) = 36.79046 57.90258 47.34652
# Shear Modulus (GPa) = 28.21774 37.12401 32.67088
#
# Velocity S-wave (km/s) = 3.48757 4.00027 3.75268
# Velocity P-wave (km/s) = 5.66355 6.80403 6.25982
#
# Compressibility (1/GPa) = 0.02718096
#
# Stress axis : x y z
#
# Youngs Moduli (GPa) = 72.24392 82.44722 42.65131
#
# Poissons Ratio (x) = 0.02946 0.20566
# Poissons Ratio (y) = 0.02582 0.25330
# Poissons Ratio (z) = 0.34835 0.48964
#
# Static dielectric constant tensor:
#      x y z
#    x 1.919030 0.016820 0.056750 
#    y 0.016820 1.848310 0.058200 
#    z 0.056750 0.058200 1.958700 
# 
# From -- ./inp_files/497871.got.cif
#   From: 2010.05.17/outbox.cif.g08.bks.cpg/sg2_249_cif.got.tgz:497871.got - 2010.06.03 11:33:40.
