data_PCOD9098609
_publ_section_title
;
Structure prediction by ZEFSAII (Michael W. Deem and Ramdas Pophale) SiO2 
 PCOD9098609
Probable space group: P -1
;
_chemical_formula_sum "Si O2"
_cell_formula_units_Z 16
_cell_length_a 6.914994
_cell_length_b 14.974540
_cell_length_c 19.199002
_cell_angle_alpha 160.541989
_cell_angle_beta 63.036366
_cell_angle_gamma 111.464679
_cell_volume 577.412455
_symmetry_space_group_name_H-M "P -1"
_symmetry_group_IT_number 2
_symmetry_cell_setting 'triclinic'
loop_
_space_group_symop_operation_xyz
x,y,z
-x,-y,-z
loop_
_atom_site_type_symbol
_atom_site_label
_atom_site_fract_x
_atom_site_fract_y
_atom_site_fract_z
Si Si1 0.251896 0.889472 0.321849
Si Si2 0.044510 0.058604 0.717868
Si Si3 0.761922 0.319395 0.405592
Si Si4 0.995894 0.813974 0.932298
Si Si5 0.222745 0.470547 0.821740
Si Si6 0.726454 0.671685 0.537500
Si Si7 0.548296 0.529850 0.932191
Si Si8 0.351417 0.528042 0.308230
O O1 0.222215 0.197519 0.579369
O O2 0.048979 0.848375 0.274886
O O3 0.248565 0.723461 0.275589
O O4 0.452626 0.853554 0.199392
O O5 0.876025 0.882116 0.647263
O O6 0.005711 0.324390 0.969416
O O7 0.276898 0.843228 0.524297
O O8 0.802546 0.537494 0.501635
O O9 0.536423 0.238132 0.353804
O O10 0.714014 0.453449 0.587167
O O11 0.944381 0.036456 0.165082
O O12 0.796347 0.646959 0.839464
O O13 0.209751 0.575377 0.711131
O O14 0.000000 0.000000 0.000000
O O15 0.372401 0.430637 0.838490
O O16 0.394943 0.604159 0.845889
O O17 0.500000 0.500000 0.000000
#
# Coordination Sequence:
#
# PCOD9098609 Si02
#       8
#     2   2   2   2   2   2   2   2
#     4   8  17  34  59  80 108 144 177 215 271 328
#     4  10  21  36  50  81 114 140 181 227 270 323
#     4  10  20  37  54  77 105 142 190 232 269 324
#     4   9  20  38  55  73 107 149 182 225 276 318
#     4  11  19  36  61  82 110 146 177 223 277 320
#     4   9  19  36  56  74 108 145 182 230 278 319
#     4   7  17  34  61  86 105 143 181 215 264 335
#     4  11  24  34  54  86 110 141 192 227 270 324
#
# _framework density 27.709826
#
# number of rings (size 3 to 8) (size 9 to 14) (size 15 to 20)
#    0.750    1.750    0.000    1.875    0.000    8.500 
#    0.000   10.625    0.000    7.500    0.000    0.000 
#    0.000    0.000    0.000    0.000    0.000    0.000 
#
# Total GULP energy -89101.583813 kJ/mol
# GULP energy per Si atom -5568.848988 kJ/mol
# Density = 2.764676 g / cm^3
# Si number density = 27.709826 Si / 1000 Ang^3
#
#
#
# Elastic Constant Matrix: (Units=GPa)
#
#
# Indices 1 2 3 4 5 6 
#
# 1 53.0297 20.6034 22.9323 -0.6957 -2.4201 -1.5855
# 2 20.6034 70.2098 22.6059 -1.0167 0.6743 -27.1261
# 3 22.9323 22.6059 171.9772 -9.8345 -2.6936 6.5918
# 4 -0.6957 -1.0167 -9.8345 42.0354 4.4488 4.6631
# 5 -2.4201 0.6743 -2.6936 4.4488 45.8863 -5.0975
# 6 -1.5855 -27.1261 6.5918 4.6631 -5.0975 45.6146
#
#
#
# Elastic Compliance Matrix: (Units=1/GPa)
#
#
# Indices 1 2 3 4 5 6 
#
# 1 0.022417 -0.007176 -0.001913 0.000008 0.000828 -0.003120
# 2 -0.007176 0.022479 -0.002616 -0.001804 0.000843 0.013775
# 3 -0.001913 -0.002616 0.006619 0.001778 -0.000155 -0.002778
# 4 0.000008 -0.001804 0.001778 0.024917 -0.002749 -0.004184
# 5 0.000828 0.000843 -0.000155 -0.002749 0.022453 0.003343
# 6 -0.003120 0.013775 -0.002778 -0.004184 0.003343 0.031209
#
#
# Mechanical properties :
#
#
# Convention : Reuss Voigt Hill
#
# Bulk Modulus (GPa) = 35.57925 47.49997 41.53961
# Shear Modulus (GPa) = 30.69886 41.97894 36.33890
#
# Velocity S-wave (km/s) = 3.33208 3.89646 3.62527
# Velocity P-wave (km/s) = 5.26037 6.11738 5.70499
#
# Compressibility (1/GPa) = 0.02810627
#
# Stress axis : x y z
#
# Youngs Moduli (GPa) = 44.60864 44.48614 151.07126
#
# Poissons Ratio (x) = 0.31922 0.28899
# Poissons Ratio (y) = 0.32010 0.39519
# Poissons Ratio (z) = 0.08533 0.11637
#
# Static dielectric constant tensor:
#      x y z
#    x 1.758110 0.040110 0.231490 
#    y 0.040110 2.162720 -0.118050 
#    z 0.231490 -0.118050 1.824890 
# 
# From -- ./inp_files/590793.got.cif
#   From: 2010.05.17/outbox.cif.g08.bks.cpg/sg2_296_cif.got.tgz:590793.got - 2010.06.03 11:33:40.
