data_PCOD9098030
_publ_section_title
;
Structure prediction by ZEFSAII (Michael W. Deem and Ramdas Pophale) SiO2 
 PCOD9098030
Probable space group: P -1
;
_chemical_formula_sum "Si O2"
_cell_formula_units_Z 12
_cell_length_a 17.964237
_cell_length_b 11.255649
_cell_length_c 13.053853
_cell_angle_alpha 126.813171
_cell_angle_beta 152.252381
_cell_angle_gamma 34.110082
_cell_volume 592.169351
_symmetry_space_group_name_H-M "P -1"
_symmetry_group_IT_number 2
_symmetry_cell_setting 'triclinic'
loop_
_space_group_symop_operation_xyz
x,y,z
-x,-y,-z
loop_
_atom_site_type_symbol
_atom_site_label
_atom_site_fract_x
_atom_site_fract_y
_atom_site_fract_z
Si Si1 0.558690 0.260687 0.356213
Si Si2 0.956687 0.738214 0.539941
Si Si3 0.829875 0.724325 0.150430
Si Si4 0.320260 0.750771 0.269304
Si Si5 0.419509 0.220940 0.557689
Si Si6 0.579035 0.784561 0.203779
O O1 0.440193 0.495778 0.282443
O O2 0.577706 0.265684 0.504570
O O3 0.852190 0.983098 0.541042
O O4 0.363454 0.272257 0.093726
O O5 0.879823 0.726323 0.330153
O O6 0.791194 0.763821 0.434594
O O7 0.267415 0.470982 0.787957
O O8 0.103670 0.481645 0.303390
O O9 0.680699 0.973573 0.047309
O O10 0.436432 0.763790 0.327097
O O11 0.000000 0.000000 0.000000
O O12 0.483281 0.185945 0.737755
O O13 0.500000 0.000000 0.500000
#
# Coordination Sequence:
#
# PCOD9098030 Si02
#       6
#     2   2   2   2   2   2
#     4  10  21  38  60  84 113 154 192 230 284 341
#     4   9  18  35  60  89 114 145 191 235 281 335
#     4  10  20  36  63  89 112 145 192 243 281 329
#     4  11  25  40  56  82 118 157 191 229 285 346
#     4  11  22  36  57  86 115 147 193 240 282 333
#     4   9  18  31  54  86 113 140 181 230 280 328
#
# _framework density 20.264472999999999
#
# number of rings (size 3 to 8) (size 9 to 14) (size 15 to 20)
#    0.000    2.000    0.000    5.000    0.000   10.667 
#    0.000    3.333    0.000   13.000    0.000    0.000 
#    0.000    0.000    0.000    0.000    0.000    0.000 
#
# Total GULP energy -67000.898561 kJ/mol
# GULP energy per Si atom -5583.408213 kJ/mol
# Density = 2.021835 g / cm^3
# Si number density = 20.264473 Si / 1000 Ang^3
#
#
#
# Elastic Constant Matrix: (Units=GPa)
#
#
# Indices 1 2 3 4 5 6 
#
# 1 149.4472 66.9214 30.2135 -17.1176 -9.5724 6.1192
# 2 66.9214 179.3634 37.4862 -41.6652 -2.4431 11.8677
# 3 30.2135 37.4862 41.1813 -22.2800 -12.5440 8.2144
# 4 -17.1176 -41.6652 -22.2800 37.6226 2.6951 -9.9362
# 5 -9.5724 -2.4431 -12.5440 2.6951 20.9386 -8.5081
# 6 6.1192 11.8677 8.2144 -9.9362 -8.5081 25.8915
#
#
#
# Elastic Compliance Matrix: (Units=1/GPa)
#
#
# Indices 1 2 3 4 5 6 
#
# 1 0.008687 -0.002703 -0.004504 -0.001697 0.001341 0.000404
# 2 -0.002703 0.008824 -0.003374 0.006538 -0.003461 -0.000964
# 3 -0.004504 -0.003374 0.050536 0.023367 0.026550 0.004270
# 4 -0.001697 0.006538 0.023367 0.049452 0.013001 0.013241
# 5 0.001341 -0.003461 0.026550 0.013001 0.070770 0.021091
# 6 0.000404 -0.000964 0.004270 0.013241 0.021091 0.049626
#
#
# Mechanical properties :
#
#
# Convention : Reuss Voigt Hill
#
# Bulk Modulus (GPa) = 21.32809 71.02602 46.17705
# Shear Modulus (GPa) = 18.20261 32.58192 25.39226
#
# Velocity S-wave (km/s) = 3.00034 4.01413 3.54368
# Velocity P-wave (km/s) = 4.74873 7.52396 6.29128
#
# Compressibility (1/GPa) = 0.04688653
#
# Stress axis : x y z
#
# Youngs Moduli (GPa) = 115.11497 113.32506 19.78769
#
# Poissons Ratio (x) = 0.30627 0.08912
# Poissons Ratio (y) = 0.31111 0.06677
# Poissons Ratio (z) = 0.51843 0.38240
#
# Static dielectric constant tensor:
#      x y z
#    x 1.690070 0.005450 -0.004400 
#    y 0.005450 1.785230 -0.040130 
#    z -0.004400 -0.040130 1.740370 
# 
# From -- ./inp_files/180514.got.cif
#   From: 2010.05.17/outbox.cif.g08.bks.cpg/sg2_91_cif.got.tgz:180514.got - 2010.06.03 11:33:40.
