data_PCOD9098577
_publ_section_title
;
Structure prediction by ZEFSAII (Michael W. Deem and Ramdas Pophale) SiO2 
 PCOD9098577
Probable space group: P -1
;
_chemical_formula_sum "Si O2"
_cell_formula_units_Z 16
_cell_length_a 11.020173
_cell_length_b 14.138502
_cell_length_c 14.663953
_cell_angle_alpha 138.073544
_cell_angle_beta 61.336869
_cell_angle_gamma 149.264133
_cell_volume 689.491853
_symmetry_space_group_name_H-M "P -1"
_symmetry_group_IT_number 2
_symmetry_cell_setting 'triclinic'
loop_
_space_group_symop_operation_xyz
x,y,z
-x,-y,-z
loop_
_atom_site_type_symbol
_atom_site_label
_atom_site_fract_x
_atom_site_fract_y
_atom_site_fract_z
Si Si1 0.395164 0.315239 0.821702
Si Si2 0.232126 0.795800 0.169480
Si Si3 0.201577 0.756469 0.341006
Si Si4 0.112457 0.219655 0.684656
Si Si5 0.681122 0.368121 0.639648
Si Si6 0.355243 0.708677 0.733580
Si Si7 0.426044 0.356630 0.325319
Si Si8 0.044056 0.267206 0.368785
O O1 0.205195 0.232861 0.757860
O O2 0.646196 0.477878 0.789803
O O3 0.500000 0.500000 0.000000
O O4 0.246772 0.043608 0.719826
O O5 0.317814 0.799999 0.236759
O O6 0.099115 0.836349 0.265602
O O7 0.494657 0.032236 0.181936
O O8 0.000000 0.500000 0.000000
O O9 0.234449 0.688620 0.368726
O O10 0.880534 0.476789 0.242679
O O11 0.374437 0.053209 0.497702
O O12 0.366508 0.479063 0.715489
O O13 0.000000 0.000000 0.500000
O O14 0.881242 0.573500 0.631611
O O15 0.597954 0.825622 0.766665
O O16 0.189701 0.476051 0.549402
O O17 0.500000 0.500000 0.500000
O O18 0.194268 0.248848 0.291736
#
# Coordination Sequence:
#
# PCOD9098577 Si02
#       8
#     2   2   2   2   2   2   2   2
#     4  12  27  44  67 104 146 176 226 301 361 407
#     4  12  27  44  67 104 146 176 226 301 361 407
#     4  11  24  44  69  97 131 182 236 280 338 433
#     4  12  22  46  78 101 136 189 240 287 349 432
#     4  11  24  44  69  97 131 182 236 280 338 433
#     4  11  21  42  69  98 129 180 234 286 346 419
#     4  10  20  36  70 105 127 164 239 301 333 398
#     4  11  21  42  69  98 129 180 234 286 346 419
#
# _framework density 23.205496
#
# number of rings (size 3 to 8) (size 9 to 14) (size 15 to 20)
#    0.000    0.750    5.000    4.500    1.750    2.500 
#    0.000    0.000    0.000    0.000    0.000    0.000 
#    0.000    0.000    0.000    0.000    0.000    0.000 
#
# Total GULP energy -89161.547018 kJ/mol
# GULP energy per Si atom -5572.596689 kJ/mol
# Density = 2.315268 g / cm^3
# Si number density = 23.205496 Si / 1000 Ang^3
#
#
#
# Elastic Constant Matrix: (Units=GPa)
#
#
# Indices 1 2 3 4 5 6 
#
# 1 99.3998 20.7048 8.8333 -7.4373 6.0950 -17.2474
# 2 20.7048 115.3797 6.0166 14.3103 3.2464 -39.1282
# 3 8.8333 6.0166 93.3688 2.7537 8.4678 -17.9634
# 4 -7.4373 14.3103 2.7537 25.7672 -3.6418 -1.0502
# 5 6.0950 3.2464 8.4678 -3.6418 13.6530 -6.4728
# 6 -17.2474 -39.1282 -17.9634 -1.0502 -6.4728 50.5319
#
#
#
# Elastic Compliance Matrix: (Units=1/GPa)
#
#
# Indices 1 2 3 4 5 6 
#
# 1 0.011269 -0.001699 -0.000455 0.004015 -0.002247 0.002164
# 2 -0.001699 0.013248 0.001512 -0.007695 -0.000654 0.009972
# 3 -0.000455 0.001512 0.012183 -0.002995 -0.006395 0.004465
# 4 0.004015 -0.007695 -0.002995 0.046244 0.012782 -0.003055
# 5 -0.002247 -0.000654 -0.006395 0.012782 0.085409 0.007659
# 6 0.002164 0.009972 0.004465 -0.003055 0.007659 0.030754
#
#
# Mechanical properties :
#
#
# Convention : Reuss Voigt Hill
#
# Bulk Modulus (GPa) = 28.23665 42.13976 35.18821
# Shear Modulus (GPa) = 23.56309 36.16333 29.86321
#
# Velocity S-wave (km/s) = 3.19001 3.95193 3.59123
# Velocity P-wave (km/s) = 5.07570 6.24680 5.69145
#
# Compressibility (1/GPa) = 0.03541496
#
# Stress axis : x y z
#
# Youngs Moduli (GPa) = 88.74280 75.48508 82.08078
#
# Poissons Ratio (x) = 0.12827 0.03733
# Poissons Ratio (y) = 0.15079 -0.12410
# Poissons Ratio (z) = 0.04036 -0.11412
#
# Static dielectric constant tensor:
#      x y z
#    x 1.975970 0.022530 0.009630 
#    y 0.022530 1.837080 -0.003090 
#    z 0.009630 -0.003090 2.021390 
# 
# From -- ./inp_files/522503.got.cif
#   From: 2010.05.17/outbox.cif.g08.bks.cpg/sg2_262_cif.got.tgz:522503.got - 2010.06.03 11:33:40.
