data_PCOD9098425
_publ_section_title
;
Structure prediction by ZEFSAII (Michael W. Deem and Ramdas Pophale) SiO2 
 PCOD9098425
Probable space group: P -1
;
_chemical_formula_sum "Si O2"
_cell_formula_units_Z 12
_cell_length_a 12.263319
_cell_length_b 9.725380
_cell_length_c 5.908125
_cell_angle_alpha 98.750796
_cell_angle_beta 79.866804
_cell_angle_gamma 140.291838
_cell_volume 442.995458
_symmetry_space_group_name_H-M "P -1"
_symmetry_group_IT_number 2
_symmetry_cell_setting 'triclinic'
loop_
_space_group_symop_operation_xyz
x,y,z
-x,-y,-z
loop_
_atom_site_type_symbol
_atom_site_label
_atom_site_fract_x
_atom_site_fract_y
_atom_site_fract_z
Si Si1 0.757896 0.926996 0.576669
Si Si2 0.146668 0.594514 0.697466
Si Si3 0.488240 0.608669 0.215471
Si Si4 0.084381 0.805598 0.017356
Si Si5 0.876484 0.661595 0.670957
Si Si6 0.478271 0.825549 0.883296
O O1 0.949319 0.116024 0.452136
O O2 0.637202 0.739542 0.382111
O O3 0.626478 0.929164 0.676472
O O4 0.812367 0.973646 0.839166
O O5 0.166427 0.777366 0.793096
O O6 0.142939 0.521723 0.432427
O O7 0.300789 0.658618 0.774343
O O8 0.977965 0.366530 0.818446
O O9 0.297310 0.425928 0.349595
O O10 0.500000 0.500000 0.000000
O O11 0.485278 0.740699 0.086978
O O12 0.921701 0.715032 0.930394
O O13 0.500000 0.000000 0.000000
#
# Coordination Sequence:
#
# PCOD9098425 Si02
#       6
#     2   2   2   2   2   2
#     4  11  25  44  71 110 140 189 238 298 353 421
#     4  10  20  36  66 103 142 185 222 286 360 419
#     4  12  29  51  73 101 143 195 244 291 355 427
#     4  10  20  39  64 104 146 180 228 289 356 423
#     4  11  23  44  71 103 143 190 237 293 353 427
#     4  12  24  45  72 110 147 180 234 300 356 420
#
# _framework density 27.088311999999998
#
# number of rings (size 3 to 8) (size 9 to 14) (size 15 to 20)
#    0.000    1.000    5.000    1.500    0.000    3.333 
#    0.000    1.667    0.000    0.000    0.000    0.000 
#    0.000    0.000    0.000    0.000    0.000    0.000 
#
# Total GULP energy -66916.589806 kJ/mol
# GULP energy per Si atom -5576.382484 kJ/mol
# Density = 2.702666 g / cm^3
# Si number density = 27.088312 Si / 1000 Ang^3
#
#
#
# Elastic Constant Matrix: (Units=GPa)
#
#
# Indices 1 2 3 4 5 6 
#
# 1 97.6892 58.0114 58.5250 9.2433 20.8199 15.9412
# 2 58.0114 128.2432 67.2667 22.5399 6.8566 38.6031
# 3 58.5250 67.2667 158.5702 56.1754 5.4982 19.5042
# 4 9.2433 22.5399 56.1754 66.7624 13.8897 -2.6351
# 5 20.8199 6.8566 5.4982 13.8897 57.6570 -0.1650
# 6 15.9412 38.6031 19.5042 -2.6351 -0.1650 58.6475
#
#
#
# Elastic Compliance Matrix: (Units=1/GPa)
#
#
# Indices 1 2 3 4 5 6 
#
# 1 0.018287 -0.006134 -0.006335 0.006339 -0.006793 0.001439
# 2 -0.006134 0.014144 -0.001869 -0.002926 0.001396 -0.007149
# 3 -0.006335 -0.001869 0.013269 -0.010517 0.003772 -0.001923
# 4 0.006339 -0.002926 -0.010517 0.025605 -0.007093 0.004831
# 5 -0.006793 0.001396 0.003772 -0.007093 0.020978 -0.000586
# 6 0.001439 -0.007149 -0.001923 0.004831 -0.000586 0.022220
#
#
# Mechanical properties :
#
#
# Convention : Reuss Voigt Hill
#
# Bulk Modulus (GPa) = 58.73414 83.56764 71.15089
# Shear Modulus (GPa) = 33.59044 49.99334 41.79189
#
# Velocity S-wave (km/s) = 3.52523 4.30067 3.93211
# Velocity P-wave (km/s) = 6.18864 7.45507 6.85118
#
# Compressibility (1/GPa) = 0.01702587
#
# Stress axis : x y z
#
# Youngs Moduli (GPa) = 54.68330 70.70122 75.36590
#
# Poissons Ratio (x) = 0.43366 0.47741
# Poissons Ratio (y) = 0.33541 0.14083
# Poissons Ratio (z) = 0.34640 0.13211
#
# Static dielectric constant tensor:
#      x y z
#    x 1.922720 0.232110 -0.094570 
#    y 0.232110 2.177850 0.025810 
#    z -0.094570 0.025810 2.162070 
# 
# From -- ./inp_files/92782.got.cif
#   From: 2010.05.17/outbox.cif.g08.bks.cpg/sg2_47_cif.got.tgz:92782.got - 2010.06.03 11:33:40.
