data_PCOD9098189
_publ_section_title
;
Structure prediction by ZEFSAII (Michael W. Deem and Ramdas Pophale) SiO2 
 PCOD9098189
Probable space group: P -1
;
_chemical_formula_sum "Si O2"
_cell_formula_units_Z 16
_cell_length_a 9.223797
_cell_length_b 11.939556
_cell_length_c 6.788378
_cell_angle_alpha 112.744098
_cell_angle_beta 111.118128
_cell_angle_gamma 99.349312
_cell_volume 602.295190
_symmetry_space_group_name_H-M "P -1"
_symmetry_group_IT_number 2
_symmetry_cell_setting 'triclinic'
loop_
_space_group_symop_operation_xyz
x,y,z
-x,-y,-z
loop_
_atom_site_type_symbol
_atom_site_label
_atom_site_fract_x
_atom_site_fract_y
_atom_site_fract_z
Si Si1 0.158972 0.672054 0.123530
Si Si2 0.894230 0.815646 0.447809
Si Si3 0.459084 0.862959 0.207474
Si Si4 0.673653 0.860219 0.688078
Si Si5 0.677703 0.542338 0.012449
Si Si6 0.756342 0.995770 0.226986
Si Si7 0.114339 0.514342 0.374867
Si Si8 0.520029 0.349086 0.253514
O O1 0.273092 0.807675 0.172089
O O2 0.132507 0.635240 0.317019
O O3 0.255830 0.573893 0.049132
O O4 0.980687 0.612954 0.889565
O O5 0.831692 0.843256 0.648798
O O6 0.807586 0.664957 0.264101
O O7 0.821709 0.890813 0.299406
O O8 0.091726 0.872960 0.573575
O O9 0.572098 0.884638 0.471899
O O10 0.579130 0.986025 0.223744
O O11 0.467554 0.750117 0.981561
O O12 0.733957 0.962752 0.963213
O O13 0.543046 0.733927 0.638484
O O14 0.700766 0.455088 0.436048
O O15 0.623332 0.593766 0.821597
O O16 0.000000 0.500000 0.500000
O O17 0.500000 0.500000 0.000000
#
# Coordination Sequence:
#
# PCOD9098189 Si02
#       8
#     2   2   2   2   2   2   2   2
#     4  11  23  36  56  82 117 149 181 229 279 330
#     4  10  19  32  49  78 122 143 183 225 275 329
#     4  10  17  34  51  81 110 142 185 226 274 326
#     4  10  16  31  50  79 107 148 184 224 272 327
#     4  12  20  37  54  84 122 148 174 227 284 335
#     4   9  18  30  50  77 114 152 178 226 275 328
#     4  11  22  39  54  77 112 151 195 226 264 336
#     4  11  20  33  56  80 113 146 186 220 277 333
#
# _framework density 26.565048999999998
#
# number of rings (size 3 to 8) (size 9 to 14) (size 15 to 20)
#    0.000    1.500    7.500    0.375    0.000    0.500 
#    2.250    0.000    0.000    0.000    0.000    7.000 
#    0.000    0.250    0.000    0.000    0.000    0.000 
#
# Total GULP energy -89527.800351 kJ/mol
# GULP energy per Si atom -5595.487522 kJ/mol
# Density = 2.650459 g / cm^3
# Si number density = 26.565049 Si / 1000 Ang^3
#
#
#
# Elastic Constant Matrix: (Units=GPa)
#
#
# Indices 1 2 3 4 5 6 
#
# 1 122.9989 66.0112 48.8548 10.4212 5.4846 36.7648
# 2 66.0112 128.4025 48.4577 7.0102 1.0818 47.4345
# 3 48.8548 48.4577 152.4589 -7.6517 2.9963 19.6759
# 4 10.4212 7.0102 -7.6517 46.4962 22.1982 2.8072
# 5 5.4846 1.0818 2.9963 22.1982 51.7977 9.9246
# 6 36.7648 47.4345 19.6759 2.8072 9.9246 53.9172
#
#
#
# Elastic Compliance Matrix: (Units=1/GPa)
#
#
# Indices 1 2 3 4 5 6 
#
# 1 0.012664 -0.003810 -0.002438 -0.002851 0.000948 -0.004420
# 2 -0.003810 0.014251 -0.002268 -0.002613 0.003189 -0.009563
# 3 -0.002438 -0.002268 0.008133 0.002931 -0.001580 0.000829
# 4 -0.002851 -0.002613 0.002931 0.028991 -0.013015 0.004060
# 5 0.000948 0.003189 -0.001580 -0.013015 0.026152 -0.007012
# 6 -0.004420 -0.009563 0.000829 0.004060 -0.007012 0.030751
#
#
# Mechanical properties :
#
#
# Convention : Reuss Voigt Hill
#
# Bulk Modulus (GPa) = 55.51118 81.16752 68.33935
# Shear Modulus (GPa) = 34.72717 46.47798 40.60258
#
# Velocity S-wave (km/s) = 3.61951 4.18735 3.91374
# Velocity P-wave (km/s) = 6.19754 7.34841 6.79738
#
# Compressibility (1/GPa) = 0.01801439
#
# Stress axis : x y z
#
# Youngs Moduli (GPa) = 78.96640 70.16889 122.95944
#
# Poissons Ratio (x) = 0.26732 0.29983
# Poissons Ratio (y) = 0.30084 0.27893
# Poissons Ratio (z) = 0.19256 0.15918
#
# Static dielectric constant tensor:
#      x y z
#    x 2.109100 -0.074320 -0.022360 
#    y -0.074320 2.184830 -0.050120 
#    z -0.022360 -0.050120 2.095830 
# 
# From -- ./inp_files/77924.got.cif
#   From: 2010.05.17/outbox.cif.g08.bks.cpg/sg2_39_cif.got.tgz:77924.got - 2010.06.03 11:33:40.
