data_PCOD9098028
_publ_section_title
;
Structure prediction by ZEFSAII (Michael W. Deem and Ramdas Pophale) SiO2 
 PCOD9098028
Probable space group: P -1
;
_chemical_formula_sum "Si O2"
_cell_formula_units_Z 16
_cell_length_a 23.537508
_cell_length_b 7.730758
_cell_length_c 5.985231
_cell_angle_alpha 89.705007
_cell_angle_beta 89.635477
_cell_angle_gamma 39.455954
_cell_volume 692.085669
_symmetry_space_group_name_H-M "P -1"
_symmetry_group_IT_number 2
_symmetry_cell_setting 'triclinic'
loop_
_space_group_symop_operation_xyz
x,y,z
-x,-y,-z
loop_
_atom_site_type_symbol
_atom_site_label
_atom_site_fract_x
_atom_site_fract_y
_atom_site_fract_z
Si Si1 0.852289 0.133346 0.014623
Si Si2 0.083894 0.748526 0.343282
Si Si3 0.414992 0.576972 0.520270
Si Si4 0.278365 0.722773 0.289331
Si Si5 0.573030 0.630038 0.068458
Si Si6 0.002323 0.401002 0.749880
Si Si7 0.256153 0.450930 0.614861
Si Si8 0.447205 0.949529 0.724989
O O1 0.909944 0.128523 0.861314
O O2 0.813322 0.080433 0.846070
O O3 0.777325 0.425133 0.136347
O O4 0.903931 0.920980 0.217665
O O5 0.068890 0.588114 0.261631
O O6 0.175862 0.549317 0.482151
O O7 0.000000 0.000000 0.500000
O O8 0.500000 0.500000 0.500000
O O9 0.323204 0.792749 0.382524
O O10 0.389618 0.606417 0.774185
O O11 0.470906 0.276193 0.440186
O O12 0.273904 0.590701 0.485229
O O13 0.351780 0.496988 0.108156
O O14 0.556103 0.846789 0.195258
O O15 0.483374 0.772335 0.950136
O O16 0.000000 0.500000 0.500000
O O17 0.000000 0.500000 0.000000
O O18 0.350729 0.129502 0.629840
#
# Coordination Sequence:
#
# PCOD9098028 Si02
#       8
#     2   2   2   2   2   2   2   2
#     4  11  23  43  76  97 135 179 239 292 343 429
#     4  11  24  45  76 104 134 185 247 293 348 431
#     4  11  23  39  59  87 137 180 216 267 345 415
#     4  10  21  38  65  96 124 170 229 280 336 396
#     4  10  20  36  63  88 125 166 225 275 329 390
#     4  12  28  48  72 106 148 187 228 291 381 436
#     4  11  22  39  70 100 127 165 239 293 337 393
#     4  10  21  35  62  93 119 163 220 279 322 387
#
# _framework density 23.118525999999999
#
# number of rings (size 3 to 8) (size 9 to 14) (size 15 to 20)
#    0.000    1.250    3.750    1.500    7.000    2.000 
#    2.250    1.250    0.000    0.000    0.000    0.000 
#    0.000    0.000    0.000    0.000    0.000    0.000 
#
# Total GULP energy -89081.239271 kJ/mol
# GULP energy per Si atom -5567.577454 kJ/mol
# Density = 2.306591 g / cm^3
# Si number density = 23.118526 Si / 1000 Ang^3
#
#
#
# Elastic Constant Matrix: (Units=GPa)
#
#
# Indices 1 2 3 4 5 6 
#
# 1 163.7485 18.4299 65.5647 -17.5196 23.2565 -24.3156
# 2 18.4299 39.1512 24.3408 -15.5931 2.3027 -22.3203
# 3 65.5647 24.3408 127.1872 -10.8382 -4.6798 -5.7866
# 4 -17.5196 -15.5931 -10.8382 46.3062 -16.5035 13.6910
# 5 23.2565 2.3027 -4.6798 -16.5035 41.5627 -5.4579
# 6 -24.3156 -22.3203 -5.7866 13.6910 -5.4579 33.9840
#
#
#
# Elastic Compliance Matrix: (Units=1/GPa)
#
#
# Indices 1 2 3 4 5 6 
#
# 1 0.009837 0.003222 -0.005613 -0.000756 -0.005617 0.007601
# 2 0.003222 0.050257 -0.009196 0.007298 0.001350 0.031024
# 3 -0.005613 -0.009196 0.012476 0.001698 0.004697 -0.007861
# 4 -0.000756 0.007298 0.001698 0.029881 0.011329 -0.005677
# 5 -0.005617 0.001350 0.004697 0.011329 0.031923 -0.001770
# 6 0.007601 0.031024 -0.007861 -0.005677 -0.001770 0.055905
#
#
# Mechanical properties :
#
#
# Convention : Reuss Voigt Hill
#
# Bulk Modulus (GPa) = 20.24468 60.75086 40.49777
# Shear Modulus (GPa) = 21.74686 39.15399 30.45043
#
# Velocity S-wave (km/s) = 3.07036 4.11983 3.63318
# Velocity P-wave (km/s) = 4.62011 6.99755 5.92921
#
# Compressibility (1/GPa) = 0.04939570
#
# Stress axis : x y z
#
# Youngs Moduli (GPa) = 101.65299 19.89776 80.15639
#
# Poissons Ratio (x) = -0.06410 0.44992
# Poissons Ratio (y) = -0.32748 0.73709
# Poissons Ratio (z) = 0.57058 0.18297
#
# Static dielectric constant tensor:
#      x y z
#    x 1.995860 0.035390 0.118390 
#    y 0.035390 1.973280 -0.043340 
#    z 0.118390 -0.043340 1.964360 
# 
# From -- ./inp_files/122500.got.cif
#   From: 2010.05.17/outbox.cif.g08.bks.cpg/sg2_62_cif.got.tgz:122500.got - 2010.06.03 11:33:40.
