data_PCOD9098871
_publ_section_title
;
Structure prediction by ZEFSAII (Michael W. Deem and Ramdas Pophale) SiO2 
 PCOD9098871
Probable space group: P -1
;
_chemical_formula_sum "Si O2"
_cell_formula_units_Z 16
_cell_length_a 19.226160
_cell_length_b 11.567245
_cell_length_c 18.843559
_cell_angle_alpha 35.997063
_cell_angle_beta 19.981884
_cell_angle_gamma 34.280033
_cell_volume 795.009533
_symmetry_space_group_name_H-M "P -1"
_symmetry_group_IT_number 2
_symmetry_cell_setting 'triclinic'
loop_
_space_group_symop_operation_xyz
x,y,z
-x,-y,-z
loop_
_atom_site_type_symbol
_atom_site_label
_atom_site_fract_x
_atom_site_fract_y
_atom_site_fract_z
Si Si1 0.556159 0.297634 0.821887
Si Si2 0.506382 0.793697 0.429365
Si Si3 0.521119 0.947968 0.120851
Si Si4 0.194531 0.556998 0.595416
Si Si5 0.204444 0.864565 0.558359
Si Si6 0.118474 0.655461 0.051547
Si Si7 0.138448 0.254055 0.992329
Si Si8 0.720146 0.979102 0.343663
O O1 0.517008 0.172133 0.852425
O O2 0.751183 0.369877 0.570030
O O3 0.339749 0.489348 0.949662
O O4 0.595523 0.136461 0.928615
O O5 0.589559 0.618214 0.496513
O O6 0.381282 0.742573 0.507990
O O7 0.723362 0.810845 0.179166
O O8 0.354237 0.993244 0.517126
O O9 0.308755 0.015279 0.341944
O O10 0.696891 0.785292 0.080934
O O11 0.159831 0.729519 0.603539
O O12 0.996315 0.471337 0.824472
O O13 0.992874 0.904064 0.788422
O O14 0.920344 0.774333 0.234865
O O15 0.189468 0.833687 0.856526
O O16 0.000000 0.500000 0.000000
O O17 0.500000 0.000000 0.500000
#
# Coordination Sequence:
#
# PCOD9098871 Si02
#       8
#     2   2   2   2   2   2   2   2
#     4  10  20  37  58  81 123 158 194 243 288 351
#     4  11  22  34  54  86 123 151 190 241 294 348
#     4   9  22  37  53  87 121 158 196 237 291 349
#     4  11  20  34  57  89 121 152 192 242 293 347
#     4  10  22  35  55  85 122 159 191 233 292 357
#     4  11  22  35  61  84 114 161 196 237 297 349
#     4  11  22  32  56  80 113 156 192 233 290 346
#     4  11  23  39  55  85 122 153 198 250 291 345
#
# _framework density 20.125544999999999
#
# number of rings (size 3 to 8) (size 9 to 14) (size 15 to 20)
#    0.000    1.500    3.750    1.125    5.250    1.000 
#    0.000    3.750    0.000    3.000    0.000   15.750 
#    0.000    0.000    0.000    0.000    0.000    0.000 
#
# Total GULP energy -89118.156518 kJ/mol
# GULP energy per Si atom -5569.884782 kJ/mol
# Density = 2.007974 g / cm^3
# Si number density = 20.125545 Si / 1000 Ang^3
#
#
#
# Elastic Constant Matrix: (Units=GPa)
#
#
# Indices 1 2 3 4 5 6 
#
# 1 54.7155 20.8729 37.2506 -7.7618 13.5992 -3.8260
# 2 20.8729 49.8027 25.3796 4.8301 17.3952 2.8304
# 3 37.2506 25.3796 132.5344 -0.1859 21.3041 12.0533
# 4 -7.7618 4.8301 -0.1859 36.2225 9.8459 8.1498
# 5 13.5992 17.3952 21.3041 9.8459 38.5810 2.3395
# 6 -3.8260 2.8304 12.0533 8.1498 2.3395 18.4960
#
#
#
# Elastic Compliance Matrix: (Units=1/GPa)
#
#
# Indices 1 2 3 4 5 6 
#
# 1 0.028597 -0.008049 -0.006507 0.006482 -0.005068 0.009173
# 2 -0.008049 0.027353 -0.001468 -0.002630 -0.007847 -0.002743
# 3 -0.006507 -0.001468 0.010911 0.001586 -0.002955 -0.008556
# 4 0.006482 -0.002630 0.001586 0.035143 -0.010125 -0.013495
# 5 -0.005068 -0.007847 -0.002955 -0.010125 0.035334 0.002070
# 6 0.009173 -0.002743 -0.008556 -0.013495 0.002070 0.067643
#
#
# Mechanical properties :
#
#
# Convention : Reuss Voigt Hill
#
# Bulk Modulus (GPa) = 28.72573 44.89541 36.81057
# Shear Modulus (GPa) = 20.10988 28.89654 24.50321
#
# Velocity S-wave (km/s) = 3.16448 3.79332 3.49308
# Velocity P-wave (km/s) = 5.25891 6.44530 5.88209
#
# Compressibility (1/GPa) = 0.03481199
#
# Stress axis : x y z
#
# Youngs Moduli (GPa) = 34.96831 36.55919 91.65418
#
# Poissons Ratio (x) = 0.29428 0.59636
# Poissons Ratio (y) = 0.28147 0.13459
# Poissons Ratio (z) = 0.22753 0.05368
#
# Static dielectric constant tensor:
#      x y z
#    x 1.727410 0.015680 0.000110 
#    y 0.015680 1.741280 0.014450 
#    z 0.000110 0.014450 1.834820 
# 
# From -- ./inp_files/575843.got.cif
#   From: 2010.05.17/outbox.cif.g08.bks.cpg/sg2_288_cif.got.tgz:575843.got - 2010.06.03 11:33:40.
