data_PCOD9098739
_publ_section_title
;
Structure prediction by ZEFSAII (Michael W. Deem and Ramdas Pophale) SiO2 
 PCOD9098739
Probable space group: P -1
;
_chemical_formula_sum "Si O2"
_cell_formula_units_Z 16
_cell_length_a 8.666567
_cell_length_b 16.463675
_cell_length_c 7.687788
_cell_angle_alpha 81.032906
_cell_angle_beta 133.798718
_cell_angle_gamma 72.182073
_cell_volume 636.793231
_symmetry_space_group_name_H-M "P -1"
_symmetry_group_IT_number 2
_symmetry_cell_setting 'triclinic'
loop_
_space_group_symop_operation_xyz
x,y,z
-x,-y,-z
loop_
_atom_site_type_symbol
_atom_site_label
_atom_site_fract_x
_atom_site_fract_y
_atom_site_fract_z
Si Si1 0.431265 0.052736 0.115039
Si Si2 0.125254 0.421350 0.878008
Si Si3 0.446419 0.225311 0.619170
Si Si4 0.251256 0.557320 0.153350
Si Si5 0.900145 0.842778 0.667259
Si Si6 0.073407 0.888168 0.130289
Si Si7 0.752340 0.114681 0.231650
Si Si8 0.394482 0.394534 0.754522
O O1 0.130045 0.100596 0.894774
O O2 0.521926 0.127467 0.163369
O O3 0.633292 0.957650 0.425314
O O4 0.500000 0.000000 0.000000
O O5 0.010764 0.382825 0.946577
O O6 0.862587 0.495523 0.533068
O O7 0.345925 0.364531 0.916867
O O8 0.213311 0.482023 0.037686
O O9 0.191578 0.227872 0.407609
O O10 0.396716 0.323235 0.633990
O O11 0.629201 0.137005 0.934416
O O12 0.613931 0.187768 0.585466
O O13 0.500000 0.500000 0.500000
O O14 0.350651 0.605958 0.081022
O O15 0.024416 0.836452 0.949992
O O16 0.103565 0.829879 0.685270
O O17 0.000000 0.000000 0.000000
O O18 0.000000 0.000000 0.500000
#
# Coordination Sequence:
#
# PCOD9098739 Si02
#       8
#     2   2   2   2   2   2   2   2
#     4  11  18  35  58  78 104 142 201 251 296 353
#     4   9  19  38  66  95 123 166 203 243 307 371
#     4  11  22  39  57  87 123 159 202 254 305 367
#     4   9  18  37  66  95 125 157 202 249 295 376
#     4  10  20  37  57  79 110 152 195 249 301 362
#     4  11  22  37  58  81 109 153 203 248 305 361
#     4   9  20  35  57  80 110 151 198 250 300 345
#     4  10  21  37  63  93 127 162 205 249 310 368
#
# _framework density 25.125893999999999
#
# number of rings (size 3 to 8) (size 9 to 14) (size 15 to 20)
#    0.000    2.000    2.500    1.500    0.000    2.000 
#    2.250    0.000    0.000    0.000    0.000    0.000 
#    0.000    0.000    0.000    0.000    0.000    0.000 
#
# Total GULP energy -89237.646208 kJ/mol
# GULP energy per Si atom -5577.352888 kJ/mol
# Density = 2.506871 g / cm^3
# Si number density = 25.125894 Si / 1000 Ang^3
#
#
#
# Elastic Constant Matrix: (Units=GPa)
#
#
# Indices 1 2 3 4 5 6 
#
# 1 263.4584 72.8908 39.0870 9.2682 56.9075 8.1080
# 2 72.8908 55.6516 3.6404 14.7238 23.3905 8.0896
# 3 39.0870 3.6404 81.6729 9.4783 20.8673 1.7190
# 4 9.2682 14.7238 9.4783 34.5532 7.5364 9.3360
# 5 56.9075 23.3905 20.8673 7.5364 49.9072 7.3494
# 6 8.1080 8.0896 1.7190 9.3360 7.3494 48.0416
#
#
#
# Elastic Compliance Matrix: (Units=1/GPa)
#
#
# Indices 1 2 3 4 5 6 
#
# 1 0.007231 -0.008643 -0.002512 0.003158 -0.003661 0.000271
# 2 -0.008643 0.035370 0.005850 -0.012486 -0.007107 -0.001193
# 3 -0.002512 0.005850 0.015170 -0.004956 -0.005577 0.000712
# 4 0.003158 -0.012486 -0.004956 0.036274 -0.000382 -0.005244
# 5 -0.003661 -0.007107 -0.005577 -0.000382 0.030307 -0.002548
# 6 0.000271 -0.001193 0.000712 -0.005244 -0.002548 0.022354
#
#
# Mechanical properties :
#
#
# Convention : Reuss Voigt Hill
#
# Bulk Modulus (GPa) = 21.20394 70.22438 45.71416
# Shear Modulus (GPa) = 28.89562 45.51139 37.20351
#
# Velocity S-wave (km/s) = 3.39489 4.26059 3.85214
# Velocity P-wave (km/s) = 4.88103 7.22587 6.16594
#
# Compressibility (1/GPa) = 0.04716104
#
# Stress axis : x y z
#
# Youngs Moduli (GPa) = 138.29714 28.27264 65.91742
#
# Poissons Ratio (x) = 0.24435 0.16559
# Poissons Ratio (y) = 1.19524 -0.38559
# Poissons Ratio (z) = 0.34741 -0.16538
#
# Static dielectric constant tensor:
#      x y z
#    x 2.115220 -0.004330 -0.023200 
#    y -0.004330 2.005290 -0.030570 
#    z -0.023200 -0.030570 2.082760 
# 
# From -- ./inp_files/215212.got.cif
#   From: 2010.05.17/outbox.cif.g08.bks.cpg/sg2_108_cif.got.tgz:215212.got - 2010.06.03 11:33:40.
