data_PCOD9098650
_publ_section_title
;
Structure prediction by ZEFSAII (Michael W. Deem and Ramdas Pophale) SiO2 
 PCOD9098650
Probable space group: P -1
;
_chemical_formula_sum "Si O2"
_cell_formula_units_Z 16
_cell_length_a 8.660204
_cell_length_b 12.376846
_cell_length_c 12.447851
_cell_angle_alpha 67.275693
_cell_angle_beta 142.086997
_cell_angle_gamma 129.621537
_cell_volume 611.962629
_symmetry_space_group_name_H-M "P -1"
_symmetry_group_IT_number 2
_symmetry_cell_setting 'triclinic'
loop_
_space_group_symop_operation_xyz
x,y,z
-x,-y,-z
loop_
_atom_site_type_symbol
_atom_site_label
_atom_site_fract_x
_atom_site_fract_y
_atom_site_fract_z
Si Si1 0.992142 0.619828 0.668772
Si Si2 0.595145 0.670799 0.048422
Si Si3 0.468646 0.872913 0.297692
Si Si4 0.787781 0.607111 0.788075
Si Si5 0.882932 0.831215 0.919604
Si Si6 0.380923 0.866281 0.617804
Si Si7 0.090012 0.636553 0.355330
Si Si8 0.511716 0.284075 0.810166
O O1 0.196599 0.766228 0.658525
O O2 0.809561 0.629405 0.662450
O O3 0.851385 0.486081 0.560155
O O4 0.229721 0.594274 0.868590
O O5 0.672611 0.768249 0.159365
O O6 0.729128 0.578704 0.179969
O O7 0.747461 0.754554 0.989995
O O8 0.250922 0.723984 0.300564
O O9 0.635132 0.837393 0.315450
O O10 0.633017 0.998647 0.427949
O O11 0.248805 0.905099 0.099500
O O12 0.743324 0.709878 0.796335
O O13 0.561926 0.433899 0.748709
O O14 0.135552 0.664413 0.997121
O O15 0.739075 0.919913 0.791009
O O16 0.229854 0.756496 0.478474
#
# Coordination Sequence:
#
# PCOD9098650 Si02
#       8
#     2   2   2   2   2   2   2   2
#     4  10  20  37  55  84 112 143 184 229 278 319
#     4   9  20  32  59  88 104 141 188 234 263 322
#     4  10  20  39  59  81 109 149 187 224 271 330
#     4   9  17  32  57  84 109 138 184 233 271 318
#     4   9  20  36  57  86 111 143 183 230 275 325
#     4  11  23  37  55  82 118 147 179 226 281 329
#     4  11  21  37  57  82 111 148 188 226 269 325
#     4   9  17  31  57  86 107 137 187 234 268 312
#
# _framework density 26.145388000000001
#
# number of rings (size 3 to 8) (size 9 to 14) (size 15 to 20)
#    0.000    2.250    1.250    1.500    8.750    0.000 
#    0.000   15.000    0.000    0.000    0.000    0.000 
#    0.000    0.000    0.000    0.000    0.000    0.000 
#
# Total GULP energy -89431.700212 kJ/mol
# GULP energy per Si atom -5589.481263 kJ/mol
# Density = 2.608588 g / cm^3
# Si number density = 26.145388 Si / 1000 Ang^3
#
#
#
# Elastic Constant Matrix: (Units=GPa)
#
#
# Indices 1 2 3 4 5 6 
#
# 1 148.8350 44.9248 22.3188 7.0642 -38.3799 -34.3210
# 2 44.9248 112.2787 9.7208 19.9518 -12.7197 -27.8802
# 3 22.3188 9.7208 59.5672 10.8421 -2.3836 -7.4225
# 4 7.0642 19.9518 10.8421 27.2339 -10.8888 -10.3811
# 5 -38.3799 -12.7197 -2.3836 -10.8888 45.8141 7.5979
# 6 -34.3210 -27.8802 -7.4225 -10.3811 7.5979 48.3760
#
#
#
# Elastic Compliance Matrix: (Units=1/GPa)
#
#
# Indices 1 2 3 4 5 6 
#
# 1 0.011689 -0.002998 -0.004008 0.006770 0.009377 0.005930
# 2 -0.002998 0.012112 0.000936 -0.007714 -0.001528 0.003582
# 3 -0.004008 0.000936 0.019594 -0.009373 -0.004199 -0.000650
# 4 0.006770 -0.007714 -0.009373 0.053155 0.014337 0.008074
# 5 0.009377 -0.001528 -0.004199 0.014337 0.031918 0.003191
# 6 0.005930 0.003582 -0.000650 0.008074 0.003191 0.028074
#
#
# Mechanical properties :
#
#
# Convention : Reuss Voigt Hill
#
# Bulk Modulus (GPa) = 31.99620 52.73441 42.36530
# Shear Modulus (GPa) = 27.91700 40.53258 34.22479
#
# Velocity S-wave (km/s) = 3.27120 3.94163 3.62196
# Velocity P-wave (km/s) = 5.15093 6.39755 5.80779
#
# Compressibility (1/GPa) = 0.03125371
#
# Stress axis : x y z
#
# Youngs Moduli (GPa) = 85.54998 82.56247 51.03617
#
# Poissons Ratio (x) = 0.24754 0.20458
# Poissons Ratio (y) = 0.25649 -0.04777
# Poissons Ratio (z) = 0.34293 -0.07728
#
# Static dielectric constant tensor:
#      x y z
#    x 2.045920 -0.036150 0.035700 
#    y -0.036150 2.022200 0.079750 
#    z 0.035700 0.079750 2.268130 
# 
# From -- ./inp_files/181545.got.cif
#   From: 2010.05.17/outbox.cif.g08.bks.cpg/sg2_91_cif.got.tgz:181545.got - 2010.06.03 11:33:40.
