data_PCOD9098913
_publ_section_title
;
Structure prediction by ZEFSAII (Michael W. Deem and Ramdas Pophale) SiO2 
 PCOD9098913
Probable space group: P -1
;
_chemical_formula_sum "Si O2"
_cell_formula_units_Z 16
_cell_length_a 7.275300
_cell_length_b 14.779317
_cell_length_c 14.736382
_cell_angle_alpha 141.190891
_cell_angle_beta 94.559855
_cell_angle_gamma 56.473194
_cell_volume 613.342606
_symmetry_space_group_name_H-M "P -1"
_symmetry_group_IT_number 2
_symmetry_cell_setting 'triclinic'
loop_
_space_group_symop_operation_xyz
x,y,z
-x,-y,-z
loop_
_atom_site_type_symbol
_atom_site_label
_atom_site_fract_x
_atom_site_fract_y
_atom_site_fract_z
Si Si1 0.317192 0.835388 0.721142
Si Si2 0.507601 0.420185 0.633852
Si Si3 0.969555 0.410749 0.820526
Si Si4 0.408834 0.217060 0.140774
Si Si5 0.360185 0.135999 0.879594
Si Si6 0.921216 0.945899 0.368015
Si Si7 0.938310 0.700345 0.460789
Si Si8 0.722265 0.255067 0.961602
O O1 0.547122 0.595866 0.485054
O O2 0.388450 0.804751 0.806107
O O3 0.320528 0.998202 0.808473
O O4 0.982181 0.992860 0.808671
O O5 0.780925 0.364978 0.591898
O O6 0.637184 0.196298 0.508838
O O7 0.291752 0.618690 0.856788
O O8 0.126488 0.309388 0.650391
O O9 0.129601 0.184542 0.703183
O O10 0.623669 0.568884 0.930293
O O11 0.911608 0.618088 0.992024
O O12 0.074488 0.481594 0.351455
O O13 0.500000 0.000000 0.000000
O O14 0.421998 0.199576 0.019332
O O15 0.653219 0.948479 0.684917
O O16 0.158344 0.794850 0.176040
O O17 0.000000 0.000000 0.500000
#
# Coordination Sequence:
#
# PCOD9098913 Si02
#       8
#     2   2   2   2   2   2   2   2
#     4  10  22  38  56  82 118 151 187 234 287 342
#     4  10  22  37  56  89 115 150 189 232 290 330
#     4  10  21  35  60  88 112 148 192 238 275 333
#     4   9  21  38  57  84 111 152 198 230 281 339
#     4  10  21  38  60  83 114 152 193 235 281 332
#     4  11  19  34  61  90 111 147 193 233 278 338
#     4  10  20  37  58  85 112 145 198 237 274 338
#     4  10  21  36  58  84 118 145 185 237 285 332
#
# _framework density 26.086563000000002
#
# number of rings (size 3 to 8) (size 9 to 14) (size 15 to 20)
#    0.000    2.000    2.500    1.875    0.000    6.500 
#    0.000   11.250    0.000    4.500    0.000    0.000 
#    0.000    0.000    0.000    0.000    0.000    0.000 
#
# Total GULP energy -89236.990917 kJ/mol
# GULP energy per Si atom -5577.311932 kJ/mol
# Density = 2.602719 g / cm^3
# Si number density = 26.086563 Si / 1000 Ang^3
#
#
#
# Elastic Constant Matrix: (Units=GPa)
#
#
# Indices 1 2 3 4 5 6 
#
# 1 69.4646 1.3506 28.6265 -16.4955 1.0709 0.4051
# 2 1.3506 61.2870 39.9427 1.2135 12.4622 0.6482
# 3 28.6265 39.9427 204.6562 -29.0250 9.6381 -1.7280
# 4 -16.4955 1.2135 -29.0250 52.5326 -4.5131 16.6988
# 5 1.0709 12.4622 9.6381 -4.5131 45.9197 -5.3221
# 6 0.4051 0.6482 -1.7280 16.6988 -5.3221 29.8534
#
#
#
# Elastic Compliance Matrix: (Units=1/GPa)
#
#
# Indices 1 2 3 4 5 6 
#
# 1 0.016341 0.000701 -0.001709 0.005200 -0.000079 -0.003259
# 2 0.000701 0.020101 -0.004222 -0.003040 -0.004868 0.000142
# 3 -0.001709 -0.004222 0.006448 0.003611 0.000010 -0.001530
# 4 0.005200 -0.003040 0.003611 0.027604 0.000912 -0.015073
# 5 -0.000079 -0.004868 0.000010 0.000912 0.023629 0.003810
# 6 -0.003259 0.000142 -0.001530 -0.015073 0.003810 0.042560
#
#
# Mechanical properties :
#
#
# Convention : Reuss Voigt Hill
#
# Bulk Modulus (GPa) = 30.83424 52.80525 41.81974
# Shear Modulus (GPa) = 31.65487 43.36035 37.50761
#
# Velocity S-wave (km/s) = 3.48725 4.08140 3.79596
# Velocity P-wave (km/s) = 5.29718 6.51895 5.93956
#
# Compressibility (1/GPa) = 0.03243148
#
# Stress axis : x y z
#
# Youngs Moduli (GPa) = 61.19395 49.74791 155.08718
#
# Poissons Ratio (x) = -0.03489 0.26504
# Poissons Ratio (y) = -0.04292 0.65478
# Poissons Ratio (z) = 0.10458 0.21004
#
# Static dielectric constant tensor:
#      x y z
#    x 2.187470 -0.014180 0.083000 
#    y -0.014180 2.122320 -0.011720 
#    z 0.083000 -0.011720 2.052660 
# 
# From -- ./inp_files/504440.got.cif
#   From: 2010.05.17/outbox.cif.g08.bks.cpg/sg2_253_cif.got.tgz:504440.got - 2010.06.03 11:33:40.
