data_PCOD9098785
_publ_section_title
;
Structure prediction by ZEFSAII (Michael W. Deem and Ramdas Pophale) SiO2 
 PCOD9098785
Probable space group: P -1
;
_chemical_formula_sum "Si O2"
_cell_formula_units_Z 16
_cell_length_a 5.358198
_cell_length_b 32.197799
_cell_length_c 5.385243
_cell_angle_alpha 138.248209
_cell_angle_beta 89.069541
_cell_angle_gamma 81.735694
_cell_volume 601.407174
_symmetry_space_group_name_H-M "P -1"
_symmetry_group_IT_number 2
_symmetry_cell_setting 'triclinic'
loop_
_space_group_symop_operation_xyz
x,y,z
-x,-y,-z
loop_
_atom_site_type_symbol
_atom_site_label
_atom_site_fract_x
_atom_site_fract_y
_atom_site_fract_z
Si Si1 0.093778 0.219376 0.379697
Si Si2 0.458781 0.543371 0.446997
Si Si3 0.858734 0.689793 0.602204
Si Si4 0.732769 0.989819 0.757716
Si Si5 0.861826 0.129608 0.658991
Si Si6 0.933208 0.574688 0.405705
Si Si7 0.308307 0.747966 0.090871
Si Si8 0.484668 0.106050 0.984768
O O1 0.197125 0.276798 0.515299
O O2 0.810900 0.248705 0.619582
O O3 0.280159 0.171659 0.354919
O O4 0.058037 0.169133 0.946516
O O5 0.500000 0.500000 0.500000
O O6 0.169024 0.584698 0.612819
O O7 0.500000 0.500000 0.000000
O O8 0.668676 0.585312 0.607656
O O9 0.915469 0.615033 0.333544
O O10 0.600394 0.716063 0.883402
O O11 0.112436 0.712613 0.791600
O O12 0.680296 0.944194 0.328867
O O13 0.975189 0.943295 0.679582
O O14 0.694530 0.060408 0.953838
O O15 0.500000 0.000000 0.000000
O O16 0.743034 0.177551 0.656502
O O17 0.638543 0.126589 0.844258
O O18 0.000000 0.500000 0.000000
#
# Coordination Sequence:
#
# PCOD9098785 Si02
#       8
#     2   2   2   2   2   2   2   2
#     4  10  23  41  64  90 129 174 220 280 339 396
#     4  10  21  42  70 102 142 187 232 282 352 427
#     4  11  24  45  65 100 137 167 235 277 334 419
#     4  10  21  34  54  88 122 163 213 273 336 399
#     4  10  21  38  60  87 126 169 219 279 326 414
#     4  10  22  44  70 101 140 184 224 289 357 422
#     4  11  24  41  68  97 129 179 225 280 342 399
#     4  10  20  37  57  84 125 163 217 271 335 400
#
# _framework density 26.604272000000002
#
# number of rings (size 3 to 8) (size 9 to 14) (size 15 to 20)
#    0.000    1.750    1.250    2.250    1.750    1.500 
#   13.500    0.000    0.000    0.000    0.000    0.000 
#    0.000    0.000    0.000    0.000    0.000    0.000 
#
# Total GULP energy -89468.974373 kJ/mol
# GULP energy per Si atom -5591.810898 kJ/mol
# Density = 2.654372 g / cm^3
# Si number density = 26.604272 Si / 1000 Ang^3
#
#
#
# Elastic Constant Matrix: (Units=GPa)
#
#
# Indices 1 2 3 4 5 6 
#
# 1 132.4132 38.6050 13.1225 2.8841 -11.9824 1.6197
# 2 38.6050 196.9735 46.6788 28.1627 -0.4352 22.9629
# 3 13.1225 46.6788 63.3892 24.7242 -5.5999 7.0804
# 4 2.8841 28.1627 24.7242 48.8969 10.2856 2.4883
# 5 -11.9824 -0.4352 -5.5999 10.2856 33.5397 -8.3641
# 6 1.6197 22.9629 7.0804 2.4883 -8.3641 53.9847
#
#
#
# Elastic Compliance Matrix: (Units=1/GPa)
#
#
# Indices 1 2 3 4 5 6 
#
# 1 0.008344 -0.001659 -0.000291 -0.000112 0.003193 0.000993
# 2 -0.001659 0.006833 -0.003979 -0.001415 -0.001353 -0.002479
# 3 -0.000291 -0.003979 0.023783 -0.011271 0.007331 0.000237
# 4 -0.000112 -0.001415 -0.011271 0.029379 -0.011201 -0.001006
# 5 0.003193 -0.001353 0.007331 -0.011201 0.037037 0.005773
# 6 0.000993 -0.002479 0.000237 -0.001006 0.005773 0.020458
#
#
# Mechanical properties :
#
#
# Convention : Reuss Voigt Hill
#
# Bulk Modulus (GPa) = 36.89765 65.50985 51.20375
# Shear Modulus (GPa) = 34.07689 46.90890 40.49290
#
# Velocity S-wave (km/s) = 3.58282 4.20361 3.90557
# Velocity P-wave (km/s) = 5.56908 6.94534 6.29494
#
# Compressibility (1/GPa) = 0.02710200
#
# Stress axis : x y z
#
# Youngs Moduli (GPa) = 119.84834 146.34081 42.04665
#
# Poissons Ratio (x) = 0.24281 0.01223
# Poissons Ratio (y) = 0.19885 0.16731
# Poissons Ratio (z) = 0.03486 0.58231
#
# Static dielectric constant tensor:
#      x y z
#    x 2.268220 -0.080060 0.056750 
#    y -0.080060 2.113000 -0.029460 
#    z 0.056750 -0.029460 2.036450 
# 
# From -- ./inp_files/15025.got.cif
#   From: 2010.05.17/outbox.cif.g08.bks.cpg/sg2_8_cif.got.tgz:15025.got - 2010.06.03 11:33:40.
