data_PCOD9098171
_publ_section_title
;
Structure prediction by ZEFSAII (Michael W. Deem and Ramdas Pophale) SiO2 
 PCOD9098171
Probable space group: P -1
;
_chemical_formula_sum "Si O2"
_cell_formula_units_Z 16
_cell_length_a 16.940575
_cell_length_b 7.559214
_cell_length_c 9.454219
_cell_angle_alpha 132.936997
_cell_angle_beta 44.232642
_cell_angle_gamma 112.168043
_cell_volume 603.574151
_symmetry_space_group_name_H-M "P -1"
_symmetry_group_IT_number 2
_symmetry_cell_setting 'triclinic'
loop_
_space_group_symop_operation_xyz
x,y,z
-x,-y,-z
loop_
_atom_site_type_symbol
_atom_site_label
_atom_site_fract_x
_atom_site_fract_y
_atom_site_fract_z
Si Si1 0.950730 0.658498 0.474805
Si Si2 0.632561 0.457446 0.980040
Si Si3 0.553369 0.815773 0.959261
Si Si4 0.915887 0.838323 0.943092
Si Si5 0.223800 0.963455 0.236798
Si Si6 0.322919 0.603140 0.684751
Si Si7 0.558285 0.811056 0.495796
Si Si8 0.767915 0.330166 0.469576
O O1 0.937977 0.797434 0.720724
O O2 0.901091 0.849112 0.515752
O O3 0.868350 0.457886 0.470685
O O4 0.069590 0.450797 0.186944
O O5 0.505171 0.406812 0.132783
O O6 0.666003 0.450432 0.771492
O O7 0.726897 0.224520 0.800645
O O8 0.624850 0.712198 0.213101
O O9 0.483070 0.912990 0.246788
O O10 0.681040 0.873519 0.829532
O O11 0.500000 0.000000 0.000000
O O12 0.798470 0.030952 0.248754
O O13 0.000000 0.000000 0.000000
O O14 0.230738 0.779853 0.996767
O O15 0.436022 0.722478 0.607438
O O16 0.361985 0.341525 0.568334
O O17 0.265622 0.587567 0.600800
#
# Coordination Sequence:
#
# PCOD9098171 Si02
#       8
#     2   2   2   2   2   2   2   2
#     4  10  20  36  64  83 104 144 189 227 283 343
#     4  10  22  35  51  83 124 148 180 234 280 312
#     4   9  18  33  55  75 114 154 194 220 257 317
#     4   9  20  40  60  85 110 136 183 235 285 340
#     4   9  18  36  57  81 107 153 197 223 261 336
#     4   9  17  33  54  75 111 148 195 223 262 320
#     4   9  19  34  49  76 112 158 188 224 257 322
#     4  11  22  34  57  87 114 143 182 240 284 325
#
# _framework density 26.508756000000002
#
# number of rings (size 3 to 8) (size 9 to 14) (size 15 to 20)
#    0.000    2.500    1.250    2.250    5.250    1.500 
#    0.000    1.875    0.000    6.750    0.000    0.000 
#    0.000    0.000    0.000    0.000    0.000    0.000 
#
# Total GULP energy -89232.011027 kJ/mol
# GULP energy per Si atom -5577.000689 kJ/mol
# Density = 2.644842 g / cm^3
# Si number density = 26.508756 Si / 1000 Ang^3
#
#
#
# Elastic Constant Matrix: (Units=GPa)
#
#
# Indices 1 2 3 4 5 6 
#
# 1 113.5313 31.3270 18.3604 6.4494 22.7770 -8.1625
# 2 31.3270 34.5865 -4.6163 4.6534 4.9474 -0.8652
# 3 18.3604 -4.6163 139.8357 39.9936 21.1111 1.6323
# 4 6.4494 4.6534 39.9936 35.8288 -7.2780 -1.3268
# 5 22.7770 4.9474 21.1111 -7.2780 44.2055 5.0741
# 6 -8.1625 -0.8652 1.6323 -1.3268 5.0741 50.6860
#
#
#
# Elastic Compliance Matrix: (Units=1/GPa)
#
#
# Indices 1 2 3 4 5 6 
#
# 1 0.013472 -0.011406 -0.001141 -0.000699 -0.005527 0.002547
# 2 -0.011406 0.042355 0.006988 -0.012117 -0.004052 -0.001250
# 3 -0.001141 0.006988 0.014505 -0.018975 -0.010245 -0.000003
# 4 -0.000699 -0.012117 -0.018975 0.054810 0.019832 -0.000259
# 5 -0.005527 -0.004052 -0.010245 0.019832 0.034490 -0.003563
# 6 0.002547 -0.001250 -0.000003 -0.000259 -0.003563 0.020468
#
#
# Mechanical properties :
#
#
# Convention : Reuss Voigt Hill
#
# Bulk Modulus (GPa) = 16.88774 42.01064 29.44919
# Shear Modulus (GPa) = 23.70161 42.33621 33.01891
#
# Velocity S-wave (km/s) = 2.99340 4.00067 3.53311
# Velocity P-wave (km/s) = 4.28156 6.10104 5.27041
#
# Compressibility (1/GPa) = 0.05921455
#
# Stress axis : x y z
#
# Youngs Moduli (GPa) = 74.23036 23.60976 68.93963
#
# Poissons Ratio (x) = 0.26929 0.07865
# Poissons Ratio (y) = 0.84667 -0.48174
# Poissons Ratio (z) = 0.08468 -0.16498
#
# Static dielectric constant tensor:
#      x y z
#    x 2.149540 -0.100250 -0.113000 
#    y -0.100250 2.203310 0.136910 
#    z -0.113000 0.136910 2.220560 
# 
# From -- ./inp_files/329537.got.cif
#   From: 2010.05.17/outbox.cif.g08.bks.cpg/sg2_165_cif.got.tgz:329537.got - 2010.06.03 11:33:40.
