data_PCOD9098094
_publ_section_title
;
Structure prediction by ZEFSAII (Michael W. Deem and Ramdas Pophale) SiO2 
 PCOD9098094
Probable space group: P -1
;
_chemical_formula_sum "Si O2"
_cell_formula_units_Z 14
_cell_length_a 5.102125
_cell_length_b 25.256827
_cell_length_c 13.042236
_cell_angle_alpha 25.349940
_cell_angle_beta 95.434789
_cell_angle_gamma 80.628934
_cell_volume 582.083036
_symmetry_space_group_name_H-M "P -1"
_symmetry_group_IT_number 2
_symmetry_cell_setting 'triclinic'
loop_
_space_group_symop_operation_xyz
x,y,z
-x,-y,-z
loop_
_atom_site_type_symbol
_atom_site_label
_atom_site_fract_x
_atom_site_fract_y
_atom_site_fract_z
Si Si1 0.346654 0.886745 0.033150
Si Si2 0.394497 0.191163 0.032871
Si Si3 0.114913 0.999570 0.359279
Si Si4 0.822407 0.409761 0.952955
Si Si5 0.217615 0.192259 0.518291
Si Si6 0.609305 0.297329 0.446352
Si Si7 0.370780 0.346084 0.951476
O O1 0.596377 0.781242 0.136391
O O2 0.999702 0.978030 0.802729
O O3 0.409665 0.011308 0.847008
O O4 0.336548 0.802716 0.276986
O O5 0.202405 0.118329 0.174355
O O6 0.777031 0.059002 0.298591
O O7 0.292817 0.328824 0.862840
O O8 0.405802 0.829011 0.693457
O O9 0.620187 0.531303 0.821676
O O10 0.583713 0.408786 0.866574
O O11 0.058912 0.434949 0.856487
O O12 0.045244 0.249775 0.300766
O O13 0.423185 0.259152 0.427131
O O14 0.937619 0.257950 0.478646
#
# Coordination Sequence:
#
# PCOD9098094 Si02
#       7
#     2   2   2   2   2   2   2
#     4  10  25  40  68  94 131 157 210 262 312 374
#     4  10  22  36  65  99 128 158 205 259 315 370
#     4  10  20  36  63  93 133 152 208 256 311 351
#     4  12  25  43  65  92 130 165 212 258 303 378
#     4  12  24  44  67  92 122 166 216 262 312 363
#     4  12  27  43  64  93 127 169 211 257 317 364
#     4  12  21  41  66  95 126 169 204 255 314 370
#
# _framework density 24.051551
#
# number of rings (size 3 to 8) (size 9 to 14) (size 15 to 20)
#    0.857    0.000    1.429    6.857    4.000    0.000 
#    0.000    1.429    0.000    0.000    0.000    0.000 
#    0.000    0.000    0.000    0.000    0.000    0.000 
#
# Total GULP energy -78383.885374 kJ/mol
# GULP energy per Si atom -5598.848955 kJ/mol
# Density = 2.399681 g / cm^3
# Si number density = 24.051551 Si / 1000 Ang^3
#
#
#
# Elastic Constant Matrix: (Units=GPa)
#
#
# Indices 1 2 3 4 5 6 
#
# 1 353.7985 294.7577 -41.1894 -858.5321 308.6781 -62.4859
# 2 294.7577 380.6258 -43.3965 -878.5137 315.0335 -73.9857
# 3 -41.1894 -43.3965 57.1429 126.0887 -52.1465 11.0377
# 4 -858.5321 -878.5137 126.0887 2661.5702 -930.4313 228.8178
# 5 308.6781 315.0335 -52.1465 -930.4313 335.6171 -83.3422
# 6 -62.4859 -73.9857 11.0377 228.8178 -83.3422 68.7886
#
#
#
# Elastic Compliance Matrix: (Units=1/GPa)
#
#
# Indices 1 2 3 4 5 6 
#
# 1 0.015500 -0.000542 -0.002317 -0.000155 -0.015684 -0.004617
# 2 -0.000542 0.011957 -0.001146 0.000448 -0.009890 -0.000921
# 3 -0.002317 -0.001146 0.022813 0.005034 0.021184 0.001924
# 4 -0.000155 0.000448 0.005034 0.013353 0.037727 0.000826
# 5 -0.015684 -0.009890 0.021184 0.037727 0.137860 0.013249
# 6 -0.004617 -0.000921 0.001924 0.000826 0.013249 0.022349
#
#
# Mechanical properties :
#
#
# Convention : Reuss Voigt Hill
#
# Bulk Modulus (GPa) = 23.66361 134.65674 79.16017
# Shear Modulus (GPa) = 20.33119 651.95489 336.14304
#
# Velocity S-wave (km/s) = 2.91059 16.48193 11.83481
# Velocity P-wave (km/s) = 4.59950 20.45272 14.82345
#
# Compressibility (1/GPa) = 0.04225898
#
# Stress axis : x y z
#
# Youngs Moduli (GPa) = 64.51731 83.63479 43.83553
#
# Poissons Ratio (x) = 0.04531 0.10158
# Poissons Ratio (y) = 0.03495 0.05023
# Poissons Ratio (z) = 0.14951 0.09583
#
# Static dielectric constant tensor:
#      x y z
#    x 1.866190 0.000760 0.022540 
#    y 0.000760 1.949790 0.025810 
#    z 0.022540 0.025810 1.909410 
# 
# From -- ./inp_files/370995.got.cif
#   From: 2010.05.17/outbox.cif.g08.bks.cpg/sg2_186_cif.got.tgz:370995.got - 2010.06.03 11:33:40.
