data_PCOD9098401
_publ_section_title
;
Structure prediction by ZEFSAII (Michael W. Deem and Ramdas Pophale) SiO2 
 PCOD9098401
Probable space group: P -1
;
_chemical_formula_sum "Si O2"
_cell_formula_units_Z 14
_cell_length_a 7.680536
_cell_length_b 14.300199
_cell_length_c 8.920547
_cell_angle_alpha 139.359278
_cell_angle_beta 103.593563
_cell_angle_gamma 73.307331
_cell_volume 611.018405
_symmetry_space_group_name_H-M "P -1"
_symmetry_group_IT_number 2
_symmetry_cell_setting 'triclinic'
loop_
_space_group_symop_operation_xyz
x,y,z
-x,-y,-z
loop_
_atom_site_type_symbol
_atom_site_label
_atom_site_fract_x
_atom_site_fract_y
_atom_site_fract_z
Si Si1 0.103804 0.395478 0.767236
Si Si2 0.861074 0.345626 0.396132
Si Si3 0.196470 0.305893 0.223182
Si Si4 0.741302 0.165649 0.634714
Si Si5 0.551585 0.291429 0.439198
Si Si6 0.605849 0.443175 0.102422
Si Si7 0.176021 0.169715 0.731322
O O1 0.209795 0.489679 0.795812
O O2 0.230401 0.267615 0.726172
O O3 0.965422 0.329863 0.556279
O O4 0.000000 0.500000 0.000000
O O5 0.813600 0.519392 0.572788
O O6 0.685651 0.274348 0.303752
O O7 0.004922 0.279597 0.220410
O O8 0.362935 0.246590 0.295545
O O9 0.218675 0.239341 0.981969
O O10 0.640710 0.216066 0.517503
O O11 0.955621 0.180051 0.685682
O O12 0.736230 0.998096 0.460882
O O13 0.656605 0.271732 0.881831
O O14 0.509172 0.466493 0.680860
O O15 0.500000 0.500000 0.000000
#
# Coordination Sequence:
#
# PCOD9098401 Si02
#       7
#     2   2   2   2   2   2   2
#     4  12  18  38  67  94 122 170 220 261 318 383
#     4  11  22  40  65  97 131 167 219 272 327 386
#     4  11  24  39  66 100 131 168 219 273 328 385
#     4  10  22  41  65  95 138 171 217 267 329 391
#     4  11  22  42  67  97 131 173 215 275 326 387
#     4  10  20  36  65  96 125 165 221 268 313 381
#     4  11  23  40  67  98 133 175 216 271 326 390
#
# _framework density 22.912566000000002
#
# number of rings (size 3 to 8) (size 9 to 14) (size 15 to 20)
#    0.000    1.143    5.714    1.286    2.000    0.571 
#    0.000    3.571    0.000    0.000    0.000    0.000 
#    0.000    0.000    0.000    0.000    0.000    0.000 
#
# Total GULP energy -78296.262698 kJ/mol
# GULP energy per Si atom -5592.590193 kJ/mol
# Density = 2.286042 g / cm^3
# Si number density = 22.912566 Si / 1000 Ang^3
#
#
#
# Elastic Constant Matrix: (Units=GPa)
#
#
# Indices 1 2 3 4 5 6 
#
# 1 80.3051 22.7947 9.4498 0.4140 -7.0034 -5.6147
# 2 22.7947 121.5833 59.3023 4.2961 -0.2974 -17.6911
# 3 9.4498 59.3023 65.0088 4.1208 2.8450 -13.1874
# 4 0.4140 4.2961 4.1208 42.0017 -4.7901 4.5359
# 5 -7.0034 -0.2974 2.8450 -4.7901 22.9153 -9.2693
# 6 -5.6147 -17.6911 -13.1874 4.5359 -9.2693 32.3946
#
#
#
# Elastic Compliance Matrix: (Units=1/GPa)
#
#
# Indices 1 2 3 4 5 6 
#
# 1 0.013730 -0.002432 0.000520 0.000370 0.005279 0.002722
# 2 -0.002432 0.015728 -0.013373 -0.000369 0.002450 0.003477
# 3 0.000520 -0.013373 0.028564 -0.002147 -0.002377 0.004036
# 4 0.000370 -0.000369 -0.002147 0.024892 0.004252 -0.003280
# 5 0.005279 0.002450 -0.002377 0.004252 0.052866 0.015817
# 6 0.002722 0.003477 0.004036 -0.003280 0.015817 0.039868
#
#
# Mechanical properties :
#
#
# Convention : Reuss Voigt Hill
#
# Bulk Modulus (GPa) = 36.42404 49.99899 43.21151
# Shear Modulus (GPa) = 23.21596 31.15236 27.18416
#
# Velocity S-wave (km/s) = 3.18660 3.69130 3.44820
# Velocity P-wave (km/s) = 5.42869 6.32745 5.89522
#
# Compressibility (1/GPa) = 0.02745439
#
# Stress axis : x y z
#
# Youngs Moduli (GPa) = 72.83124 63.58003 35.00859
#
# Poissons Ratio (x) = 0.15464 -0.01822
# Poissons Ratio (y) = 0.17714 0.46816
# Poissons Ratio (z) = -0.03791 0.85023
#
# Static dielectric constant tensor:
#      x y z
#    x 2.022930 -0.039980 0.003770 
#    y -0.039980 1.864160 -0.001540 
#    z 0.003770 -0.001540 1.823880 
# 
# From -- ./inp_files/204781.got.cif
#   From: 2010.05.17/outbox.cif.g08.bks.cpg/sg2_103_cif.got.tgz:204781.got - 2010.06.03 11:33:40.
