data_PCOD9098848
_publ_section_title
;
Structure prediction by ZEFSAII (Michael W. Deem and Ramdas Pophale) SiO2 
 PCOD9098848
Probable space group: P -1
;
_chemical_formula_sum "Si O2"
_cell_formula_units_Z 14
_cell_length_a 7.639187
_cell_length_b 5.030561
_cell_length_c 16.503183
_cell_angle_alpha 114.525464
_cell_angle_beta 83.992558
_cell_angle_gamma 87.278554
_cell_volume 570.913793
_symmetry_space_group_name_H-M "P -1"
_symmetry_group_IT_number 2
_symmetry_cell_setting 'triclinic'
loop_
_space_group_symop_operation_xyz
x,y,z
-x,-y,-z
loop_
_atom_site_type_symbol
_atom_site_label
_atom_site_fract_x
_atom_site_fract_y
_atom_site_fract_z
Si Si1 0.223681 0.009129 0.637902
Si Si2 0.250636 0.899499 0.433827
Si Si3 0.290993 0.038417 0.177991
Si Si4 0.556348 0.650005 0.599583
Si Si5 0.006211 0.532760 0.667543
Si Si6 0.795330 0.438837 0.993177
Si Si7 0.528433 0.552310 0.879392
O O1 0.267254 0.998289 0.538302
O O2 0.400571 0.891613 0.661326
O O3 0.101021 0.752679 0.633982
O O4 0.137376 0.338940 0.698141
O O5 0.400363 0.625198 0.379477
O O6 0.077844 0.732951 0.407917
O O7 0.278838 0.172107 0.410112
O O8 0.146538 0.266278 0.254237
O O9 0.449281 0.206090 0.157515
O O10 0.200635 0.882885 0.087995
O O11 0.374036 0.763256 0.191706
O O12 0.500000 0.500000 0.500000
O O13 0.660140 0.619608 0.957683
O O14 0.670548 0.456524 0.080727
O O15 0.000000 0.500000 0.000000
#
# Coordination Sequence:
#
# PCOD9098848 Si02
#       7
#     2   2   2   2   2   2   2
#     4  11  21  37  58  82 113 152 204 246 290 344
#     4  11  21  37  58  85 107 157 204 242 296 353
#     4  10  21  40  56  83 125 155 185 237 308 336
#     4  10  20  37  58  78 110 145 194 257 299 339
#     4  12  23  36  59  83 120 154 190 251 290 346
#     4   9  20  38  68  91 115 153 202 235 286 353
#     4   9  20  39  62  88 120 154 192 238 292 345
#
# _framework density 24.522092000000001
#
# number of rings (size 3 to 8) (size 9 to 14) (size 15 to 20)
#    0.857    0.857    0.000    7.286    0.000    0.571 
#    0.000    4.286    0.000    0.000    0.000    0.000 
#    0.000    0.000    0.000    0.000    0.000    0.000 
#
# Total GULP energy -78152.261022 kJ/mol
# GULP energy per Si atom -5582.304359 kJ/mol
# Density = 2.446628 g / cm^3
# Si number density = 24.522092 Si / 1000 Ang^3
#
#
#
# Elastic Constant Matrix: (Units=GPa)
#
#
# Indices 1 2 3 4 5 6 
#
# 1 109.8964 27.2569 27.8198 4.4647 -24.0107 13.6063
# 2 27.2569 144.6738 23.0551 5.3213 -5.7539 19.5598
# 3 27.8198 23.0551 73.6801 23.8261 -13.2189 4.8764
# 4 4.4647 5.3213 23.8261 27.8900 -0.3052 -11.8982
# 5 -24.0107 -5.7539 -13.2189 -0.3052 24.3939 -3.4562
# 6 13.6063 19.5598 4.8764 -11.8982 -3.4562 39.2088
#
#
#
# Elastic Compliance Matrix: (Units=1/GPa)
#
#
# Indices 1 2 3 4 5 6 
#
# 1 0.012633 -0.001201 -0.001804 -0.001437 0.010724 -0.003051
# 2 -0.001201 0.007931 -0.001206 -0.002027 -0.000564 -0.004054
# 3 -0.001804 -0.001206 0.024709 -0.024007 0.009859 -0.008262
# 4 -0.001437 -0.002027 -0.024007 0.067062 -0.010675 0.023905
# 5 0.010724 -0.000564 0.009859 -0.010675 0.056207 -0.002951
# 6 -0.003051 -0.004054 -0.008262 0.023905 -0.002951 0.036608
#
#
# Mechanical properties :
#
#
# Convention : Reuss Voigt Hill
#
# Bulk Modulus (GPa) = 27.13521 53.83486 40.48504
# Shear Modulus (GPa) = 22.13821 34.97309 28.55565
#
# Velocity S-wave (km/s) = 3.00790 3.78059 3.41616
# Velocity P-wave (km/s) = 4.81175 6.40768 5.66619
#
# Compressibility (1/GPa) = 0.03685248
#
# Stress axis : x y z
#
# Youngs Moduli (GPa) = 79.15768 126.09165 40.47075
#
# Poissons Ratio (x) = 0.15141 0.07300
# Poissons Ratio (y) = 0.09505 0.04880
# Poissons Ratio (z) = 0.14278 0.15203
#
# Static dielectric constant tensor:
#      x y z
#    x 2.105020 -0.037840 0.014870 
#    y -0.037840 1.916460 0.019290 
#    z 0.014870 0.019290 1.973240 
# 
# From -- ./inp_files/585018.got.cif
#   From: 2010.05.17/outbox.cif.g08.bks.cpg/sg2_293_cif.got.tgz:585018.got - 2010.06.03 11:33:40.
