data_PCOD9098907
_publ_section_title
;
Structure prediction by ZEFSAII (Michael W. Deem and Ramdas Pophale) SiO2 
 PCOD9098907
Probable space group: P -1
;
_chemical_formula_sum "Si O2"
_cell_formula_units_Z 16
_cell_length_a 13.352351
_cell_length_b 11.114847
_cell_length_c 14.313970
_cell_angle_alpha 31.139860
_cell_angle_beta 55.844708
_cell_angle_gamma 75.042246
_cell_volume 776.619200
_symmetry_space_group_name_H-M "P -1"
_symmetry_group_IT_number 2
_symmetry_cell_setting 'triclinic'
loop_
_space_group_symop_operation_xyz
x,y,z
-x,-y,-z
loop_
_atom_site_type_symbol
_atom_site_label
_atom_site_fract_x
_atom_site_fract_y
_atom_site_fract_z
Si Si1 0.324848 0.503353 0.644755
Si Si2 0.624395 0.947900 0.178825
Si Si3 0.925412 0.683247 0.226890
Si Si4 0.831990 0.832762 0.676503
Si Si5 0.834402 0.340968 0.663575
Si Si6 0.918135 0.182283 0.225946
Si Si7 0.809478 0.267579 0.031457
Si Si8 0.801419 0.843359 0.893759
O O1 0.455819 0.801735 0.357876
O O2 0.345526 0.280486 0.725828
O O3 0.174068 0.435134 0.731775
O O4 0.308613 0.428607 0.812001
O O5 0.721229 0.218009 0.887120
O O6 0.680190 0.029386 0.200284
O O7 0.826959 0.543387 0.460960
O O8 0.052226 0.631389 0.174267
O O9 0.000000 0.000000 0.000000
O O10 0.790033 0.523553 0.885467
O O11 0.767402 0.840687 0.804669
O O12 0.817556 0.987198 0.492021
O O13 0.000000 0.000000 0.500000
O O14 0.000000 0.500000 0.500000
O O15 0.804009 0.087125 0.784611
O O16 0.042700 0.113819 0.200450
O O17 0.842313 0.167122 0.178062
O O18 0.000000 0.500000 0.000000
#
# Coordination Sequence:
#
# PCOD9098907 Si02
#       8
#     2   2   2   2   2   2   2   2
#     4  10  21  40  59  83 122 160 197 241 300 370
#     4  10  23  39  57  84 123 161 193 242 312 356
#     4  12  21  34  59  93 115 154 206 244 289 364
#     4  10  21  35  55  92 123 150 196 260 305 343
#     4  11  22  34  58  88 124 151 193 257 302 347
#     4  11  21  33  59  92 116 153 200 254 302 346
#     4  12  21  36  61  92 118 157 202 248 303 347
#     4  10  20  37  58  84 119 160 191 248 310 349
#
# _framework density 20.602117
#
# number of rings (size 3 to 8) (size 9 to 14) (size 15 to 20)
#    0.000    1.250    6.250    2.250    0.000    0.500 
#    0.000    0.625    0.000    0.750    0.000    0.000 
#    0.000    0.000    0.000    0.000    0.000    0.000 
#
# Total GULP energy -89277.206723 kJ/mol
# GULP energy per Si atom -5579.825420 kJ/mol
# Density = 2.055523 g / cm^3
# Si number density = 20.602117 Si / 1000 Ang^3
#
#
#
# Elastic Constant Matrix: (Units=GPa)
#
#
# Indices 1 2 3 4 5 6 
#
# 1 51.6458 27.6106 45.0082 4.0867 6.3128 24.3579
# 2 27.6106 80.6323 34.4886 9.1125 7.3394 28.5994
# 3 45.0082 34.4886 133.2634 19.9337 11.1345 26.8742
# 4 4.0867 9.1125 19.9337 21.1912 8.0972 11.8861
# 5 6.3128 7.3394 11.1345 8.0972 38.3543 7.2785
# 6 24.3579 28.5994 26.8742 11.8861 7.2785 30.5313
#
#
#
# Elastic Compliance Matrix: (Units=1/GPa)
#
#
# Indices 1 2 3 4 5 6 
#
# 1 0.042538 -0.001139 -0.010732 0.020535 -0.002138 -0.030908
# 2 -0.001139 0.019072 -0.001617 0.003035 -0.000483 -0.016600
# 3 -0.010732 -0.001617 0.012503 -0.010882 0.000121 0.003279
# 4 0.020535 0.003035 -0.010882 0.076821 -0.009964 -0.037179
# 5 -0.002138 -0.000483 0.000121 -0.009964 0.028761 -0.000926
# 6 -0.030908 -0.016600 0.003279 -0.037179 -0.000926 0.084770
#
#
# Mechanical properties :
#
#
# Convention : Reuss Voigt Hill
#
# Bulk Modulus (GPa) = 21.21468 53.30625 37.26046
# Shear Modulus (GPa) = 16.27841 28.57765 22.42803
#
# Velocity S-wave (km/s) = 2.81398 3.72845 3.30301
# Velocity P-wave (km/s) = 4.56921 6.66824 5.71590
#
# Compressibility (1/GPa) = 0.04713717
#
# Stress axis : x y z
#
# Youngs Moduli (GPa) = 23.50844 52.43158 79.97768
#
# Poissons Ratio (x) = 0.05973 0.85831
# Poissons Ratio (y) = 0.02678 0.12935
# Poissons Ratio (z) = 0.25229 0.08480
#
# Static dielectric constant tensor:
#      x y z
#    x 1.631070 -0.150340 0.043970 
#    y -0.150340 1.614800 0.026160 
#    z 0.043970 0.026160 1.784450 
# 
# From -- ./inp_files/530873.got.cif
#   From: 2010.05.17/outbox.cif.g08.bks.cpg/sg2_266_cif.got.tgz:530873.got - 2010.06.03 11:33:40.
