data_PCOD9098732
_publ_section_title
;
Structure prediction by ZEFSAII (Michael W. Deem and Ramdas Pophale) SiO2 
 PCOD9098732
Probable space group: P -1
;
_chemical_formula_sum "Si O2"
_cell_formula_units_Z 10
_cell_length_a 9.631281
_cell_length_b 11.361529
_cell_length_c 7.991696
_cell_angle_alpha 104.389413
_cell_angle_beta 103.239741
_cell_angle_gamma 142.367199
_cell_volume 358.942282
_symmetry_space_group_name_H-M "P -1"
_symmetry_group_IT_number 2
_symmetry_cell_setting 'triclinic'
loop_
_space_group_symop_operation_xyz
x,y,z
-x,-y,-z
loop_
_atom_site_type_symbol
_atom_site_label
_atom_site_fract_x
_atom_site_fract_y
_atom_site_fract_z
Si Si1 0.741261 0.672078 0.973147
Si Si2 0.351877 0.023779 0.585671
Si Si3 0.282292 0.898768 0.154269
Si Si4 0.621055 0.726132 0.514537
Si Si5 0.230563 0.562887 0.624462
O O1 0.929021 0.685723 0.011740
O O2 0.500000 0.500000 0.000000
O O3 0.521943 0.505800 0.687079
O O4 0.034047 0.993266 0.194764
O O5 0.449595 0.063024 0.436334
O O6 0.996988 0.694483 0.413621
O O7 0.618200 0.167034 0.837537
O O8 0.312352 0.136791 0.584983
O O9 0.438073 0.105161 0.127324
O O10 0.335240 0.565778 0.493027
O O11 0.000000 0.500000 0.500000
#
# Coordination Sequence:
#
# PCOD9098732 Si02
#       5
#     2   2   2   2   2
#     4  10  20  37  57  75 104 144 179 214 256 303
#     4   8  14  30  52  80 107 131 168 215 266 313
#     4   8  16  29  52  78 104 137 173 211 259 313
#     4  10  21  35  56  81 104 137 176 215 261 312
#     4   8  14  29  52  79 110 137 164 211 267 314
#
# _framework density 27.859634
#
# number of rings (size 3 to 8) (size 9 to 14) (size 15 to 20)
#    0.000    3.600    0.000    1.800    0.000    0.800 
#    0.000   17.000    0.000   39.600    0.000    0.000 
#    0.000    0.000    0.000    0.000    0.000    0.000 
#
# Total GULP energy -55685.153378 kJ/mol
# GULP energy per Si atom -5568.515338 kJ/mol
# Density = 2.779622 g / cm^3
# Si number density = 27.859634 Si / 1000 Ang^3
#
#
#
# Elastic Constant Matrix: (Units=GPa)
#
#
# Indices 1 2 3 4 5 6 
#
# 1 129.1226 64.2570 42.6804 -4.4840 24.4800 -1.1493
# 2 64.2570 201.6369 54.0422 31.3551 -2.4149 15.3876
# 3 42.6804 54.0422 148.0565 14.7649 -15.1900 11.5152
# 4 -4.4840 31.3551 14.7649 46.6763 6.7259 -9.6836
# 5 24.4800 -2.4149 -15.1900 6.7259 35.7003 -4.5652
# 6 -1.1493 15.3876 11.5152 -9.6836 -4.5652 59.7024
#
#
#
# Elastic Compliance Matrix: (Units=1/GPa)
#
#
# Indices 1 2 3 4 5 6 
#
# 1 0.015095 -0.005308 -0.005036 0.009290 -0.014213 0.003050
# 2 -0.005308 0.008056 0.000087 -0.007321 0.005220 -0.002984
# 3 -0.005036 0.000087 0.009725 -0.005275 0.008307 -0.002215
# 4 0.009290 -0.007321 -0.005275 0.032469 -0.014299 0.007256
# 5 -0.014213 0.005220 0.008307 -0.014299 0.044061 -0.002171
# 6 0.003050 -0.002984 -0.002215 0.007256 -0.002171 0.019016
#
#
# Mechanical properties :
#
#
# Convention : Reuss Voigt Hill
#
# Bulk Modulus (GPa) = 80.89052 88.97504 84.93278
# Shear Modulus (GPa) = 32.66802 49.60489 41.13645
#
# Velocity S-wave (km/s) = 3.42803 4.22421 3.84677
# Velocity P-wave (km/s) = 6.69078 7.46982 7.09101
#
# Compressibility (1/GPa) = 0.01236239
#
# Stress axis : x y z
#
# Youngs Moduli (GPa) = 66.24715 124.12737 102.83192
#
# Poissons Ratio (x) = 0.65891 0.51782
# Poissons Ratio (y) = 0.35166 -0.00897
# Poissons Ratio (z) = 0.33360 -0.01083
#
# Static dielectric constant tensor:
#      x y z
#    x 2.414260 -0.152130 0.040470 
#    y -0.152130 2.302660 0.016380 
#    z 0.040470 0.016380 2.277000 
# 
# From -- ./inp_files/270682.got.cif
#   From: 2010.05.17/outbox.cif.g08.bks.cpg/sg2_136_cif.got.tgz:270682.got - 2010.06.03 11:33:40.
