data_PCOD9098048
_publ_section_title
;
Structure prediction by ZEFSAII (Michael W. Deem and Ramdas Pophale) SiO2 
 PCOD9098048
Probable space group: P -1
;
_chemical_formula_sum "Si O2"
_cell_formula_units_Z 16
_cell_length_a 9.380076
_cell_length_b 22.585577
_cell_length_c 9.266153
_cell_angle_alpha 144.295435
_cell_angle_beta 137.948363
_cell_angle_gamma 42.236608
_cell_volume 718.395460
_symmetry_space_group_name_H-M "P -1"
_symmetry_group_IT_number 2
_symmetry_cell_setting 'triclinic'
loop_
_space_group_symop_operation_xyz
x,y,z
-x,-y,-z
loop_
_atom_site_type_symbol
_atom_site_label
_atom_site_fract_x
_atom_site_fract_y
_atom_site_fract_z
Si Si1 0.402219 0.738319 0.837104
Si Si2 0.384129 0.600986 0.819351
Si Si3 0.254767 0.940881 0.335942
Si Si4 0.064952 0.806966 0.148907
Si Si5 0.704581 0.540596 0.188833
Si Si6 0.217144 0.399086 0.331991
Si Si7 0.450196 0.060192 0.929799
Si Si8 0.848597 0.151663 0.384645
O O1 0.399951 0.644971 0.760177
O O2 0.640172 0.699824 0.855371
O O3 0.204583 0.763564 0.617774
O O4 0.357427 0.845421 0.110869
O O5 0.318804 0.494124 0.560910
O O6 0.180808 0.694678 0.932496
O O7 0.613826 0.588222 0.057926
O O8 0.122967 0.895887 0.270020
O O9 0.433657 0.977747 0.631011
O O10 0.080746 0.049354 0.348309
O O11 0.166778 0.798909 0.369778
O O12 0.796955 0.848256 0.054812
O O13 0.733110 0.617806 0.492128
O O14 0.950279 0.445584 0.187849
O O15 0.500000 0.500000 0.000000
O O16 0.647303 0.104235 0.129219
O O17 0.500000 0.000000 0.000000
#
# Coordination Sequence:
#
# PCOD9098048 Si02
#       8
#     2   2   2   2   2   2   2   2
#     4  11  24  39  59  90 131 167 200 246 316 370
#     4  10  22  40  60  91 126 162 204 251 301 369
#     4  10  21  40  58  89 122 158 204 254 306 368
#     4  10  20  36  63  91 115 155 211 255 304 354
#     4   9  20  40  67  86 116 152 208 262 297 346
#     4  10  21  42  66  91 118 163 207 252 307 360
#     4  11  19  36  64  88 115 156 211 259 299 356
#     4  11  21  38  62  86 125 163 201 257 307 359
#
# _framework density 22.271854000000001
#
# number of rings (size 3 to 8) (size 9 to 14) (size 15 to 20)
#    0.000    1.750    2.500    2.250    0.000    5.000 
#    0.000    6.250    0.000    0.000    0.000    0.000 
#    0.000    0.000    0.000    0.000    0.000    0.000 
#
# Total GULP energy -89501.103098 kJ/mol
# GULP energy per Si atom -5593.818944 kJ/mol
# Density = 2.222116 g / cm^3
# Si number density = 22.271854 Si / 1000 Ang^3
#
#
#
# Elastic Constant Matrix: (Units=GPa)
#
#
# Indices 1 2 3 4 5 6 
#
# 1 78.2569 47.3968 48.4960 -10.1927 -21.0042 6.5473
# 2 47.3968 91.5753 37.6952 -26.6308 -21.5716 10.2722
# 3 48.4960 37.6952 76.1280 -22.7966 -11.2934 -8.0117
# 4 -10.1927 -26.6308 -22.7966 40.0826 -1.4960 -15.9027
# 5 -21.0042 -21.5716 -11.2934 -1.4960 31.9333 3.0690
# 6 6.5473 10.2722 -8.0117 -15.9027 3.0690 50.0668
#
#
#
# Elastic Compliance Matrix: (Units=1/GPa)
#
#
# Indices 1 2 3 4 5 6 
#
# 1 0.031503 -0.009006 -0.019144 -0.012438 0.008225 -0.009790
# 2 -0.009006 0.021140 0.000356 0.012407 0.009036 0.000285
# 3 -0.019144 0.000356 0.032063 0.018977 -0.001437 0.013677
# 4 -0.012438 0.012407 0.018977 0.047781 0.007532 0.016833
# 5 0.008225 0.009036 -0.001437 0.007532 0.043001 -0.003403
# 6 -0.009790 0.000285 0.013677 0.016833 -0.003403 0.028939
#
#
# Mechanical properties :
#
#
# Convention : Reuss Voigt Hill
#
# Bulk Modulus (GPa) = 34.34307 57.01513 45.67910
# Shear Modulus (GPa) = 18.53756 31.90801 25.22279
#
# Velocity S-wave (km/s) = 2.88815 3.78916 3.36891
# Velocity P-wave (km/s) = 5.15512 6.69319 5.97386
#
# Compressibility (1/GPa) = 0.02911796
#
# Stress axis : x y z
#
# Youngs Moduli (GPa) = 31.74267 47.30417 31.18811
#
# Poissons Ratio (x) = 0.42604 0.59706
# Poissons Ratio (y) = 0.28589 -0.01109
# Poissons Ratio (z) = 0.60767 -0.01682
#
# Static dielectric constant tensor:
#      x y z
#    x 1.854790 0.053110 -0.016030 
#    y 0.053110 1.870860 0.004900 
#    z -0.016030 0.004900 1.808380 
# 
# From -- ./inp_files/47505.got.cif
#   From: 2010.05.17/outbox.cif.g08.bks.cpg/sg2_24_cif.got.tgz:47505.got - 2010.06.03 11:33:40.
