data_PCOD9098992
_publ_section_title
;
Structure prediction by ZEFSAII (Michael W. Deem and Ramdas Pophale) SiO2 
 PCOD9098992
Probable space group: P -1
;
_chemical_formula_sum "Si O2"
_cell_formula_units_Z 15
_cell_length_a 11.245360
_cell_length_b 6.912576
_cell_length_c 11.167594
_cell_angle_alpha 65.025868
_cell_angle_beta 130.458757
_cell_angle_gamma 120.244703
_cell_volume 564.573315
_symmetry_space_group_name_H-M "P -1"
_symmetry_group_IT_number 2
_symmetry_cell_setting 'triclinic'
loop_
_space_group_symop_operation_xyz
x,y,z
-x,-y,-z
loop_
_atom_site_type_symbol
_atom_site_label
_atom_site_fract_x
_atom_site_fract_y
_atom_site_fract_z
Si Si1 0.979166 0.535672 0.834322
Si Si2 0.782674 0.826779 0.675911
Si Si3 0.943256 0.174016 0.495372
Si Si4 0.481597 0.647409 0.118041
Si Si5 0.500000 0.000000 0.500000
Si Si6 0.170780 0.235947 0.994976
Si Si7 0.715150 0.075918 0.015990
Si Si8 0.735657 0.391892 0.409393
O O1 0.819592 0.611849 0.697655
O O2 0.015965 0.325400 0.853130
O O3 0.136655 0.760580 0.850095
O O4 0.000000 0.500000 0.000000
O O5 0.816017 0.811838 0.843082
O O6 0.911194 0.045109 0.636661
O O7 0.599150 0.836606 0.547996
O O8 0.776125 0.244012 0.365075
O O9 0.092761 0.407028 0.514066
O O10 0.000000 0.000000 0.500000
O O11 0.328879 0.454827 0.007296
O O12 0.394346 0.764407 0.128340
O O13 0.601264 0.512518 0.268316
O O14 0.592976 0.857415 0.058549
O O15 0.658804 0.217809 0.509774
O O16 0.198272 0.024354 0.003184
#
# Coordination Sequence:
#
# PCOD9098992 Si02
#       8
#     2   2   2   2   1   2   2   2
#     4   9  20  36  56  85 123 157 197 248 297 365
#     4  10  20  39  62  86 126 159 202 260 301 361
#     4  10  23  41  63  90 120 163 216 255 310 371
#     4  10  20  37  58  90 128 157 196 256 309 368
#     4  10  20  40  66  84 120 168 204 258 312 346
#     4  10  20  37  60  91 123 159 201 249 307 371
#     4  10  21  35  59  92 123 160 203 242 313 375
#     4  10  21  41  64  87 124 165 204 264 309 362
#
# _framework density 26.568738
#
# number of rings (size 3 to 8) (size 9 to 14) (size 15 to 20)
#    0.000    2.133    1.333    1.200    0.000    4.267 
#    0.000   14.667    0.000    0.000    0.000    0.000 
#    0.000    0.000    0.000    0.000    0.000    0.000 
#
# Total GULP energy -83524.817317 kJ/mol
# GULP energy per Si atom -5568.321154 kJ/mol
# Density = 2.650827 g / cm^3
# Si number density = 26.568738 Si / 1000 Ang^3
#
#
#
# Elastic Constant Matrix: (Units=GPa)
#
#
# Indices 1 2 3 4 5 6 
#
# 1 195.8570 84.6693 45.4322 -9.3646 38.1938 -20.3793
# 2 84.6693 141.4341 19.9534 -21.8391 16.7496 -14.7705
# 3 45.4322 19.9534 60.8904 -24.9622 32.2981 -19.1967
# 4 -9.3646 -21.8391 -24.9622 25.4665 -11.5760 10.9941
# 5 38.1938 16.7496 32.2981 -11.5760 63.6538 -24.5311
# 6 -20.3793 -14.7705 -19.1967 10.9941 -24.5311 81.7563
#
#
#
# Elastic Compliance Matrix: (Units=1/GPa)
#
#
# Indices 1 2 3 4 5 6 
#
# 1 0.009515 -0.005945 -0.008716 -0.010986 -0.001628 0.000240
# 2 -0.005945 0.011963 0.006577 0.014318 -0.000226 0.000231
# 3 -0.008716 0.006577 0.042769 0.039188 -0.010873 0.000526
# 4 -0.010986 0.014318 0.039188 0.086140 -0.002681 -0.003338
# 5 -0.001628 -0.000226 -0.010873 -0.002681 0.023473 0.004404
# 6 0.000240 0.000231 0.000526 -0.003338 0.004404 0.014227
#
#
# Mechanical properties :
#
#
# Convention : Reuss Voigt Hill
#
# Bulk Modulus (GPa) = 20.79841 77.58792 49.19317
# Shear Modulus (GPa) = 22.69846 50.71710 36.70778
#
# Velocity S-wave (km/s) = 2.92606 4.37384 3.72104
# Velocity P-wave (km/s) = 4.38873 7.40090 6.08417
#
# Compressibility (1/GPa) = 0.04808059
#
# Stress axis : x y z
#
# Youngs Moduli (GPa) = 105.10197 83.59104 23.38143
#
# Poissons Ratio (x) = 0.49693 0.20378
# Poissons Ratio (y) = 0.62481 -0.15379
# Poissons Ratio (z) = 0.91603 -0.54982
#
# Static dielectric constant tensor:
#      x y z
#    x 2.086410 -0.030140 -0.034270 
#    y -0.030140 2.086950 0.027660 
#    z -0.034270 0.027660 2.169750 
# 
# From -- ./inp_files/510211.got.cif
#   From: 2010.05.17/outbox.cif.g08.bks.cpg/sg2_256_cif.got.tgz:510211.got - 2010.06.03 11:33:40.
