data_PCOD9098519
_publ_section_title
;
Structure prediction by ZEFSAII (Michael W. Deem and Ramdas Pophale) SiO2 
 PCOD9098519
Probable space group: P -1
;
_chemical_formula_sum "Si O2"
_cell_formula_units_Z 16
_cell_length_a 9.784250
_cell_length_b 13.837242
_cell_length_c 9.903755
_cell_angle_alpha 133.992428
_cell_angle_beta 93.300780
_cell_angle_gamma 60.410814
_cell_volume 746.480462
_symmetry_space_group_name_H-M "P -1"
_symmetry_group_IT_number 2
_symmetry_cell_setting 'triclinic'
loop_
_space_group_symop_operation_xyz
x,y,z
-x,-y,-z
loop_
_atom_site_type_symbol
_atom_site_label
_atom_site_fract_x
_atom_site_fract_y
_atom_site_fract_z
Si Si1 0.400020 0.941963 0.015274
Si Si2 0.184201 0.891981 0.753183
Si Si3 0.854853 0.980149 0.518842
Si Si4 0.238194 0.370271 0.137681
Si Si5 0.972027 0.770428 0.595546
Si Si6 0.070583 0.208606 0.908600
Si Si7 0.269965 0.488933 0.979344
Si Si8 0.391241 0.693702 0.298511
O O1 0.313577 0.882822 0.856492
O O2 0.557089 0.770985 0.943038
O O3 0.500000 0.000000 0.000000
O O4 0.226764 0.115729 0.246127
O O5 0.296744 0.781580 0.519545
O O6 0.077112 0.827243 0.728957
O O7 0.049950 0.089929 0.883651
O O8 0.931610 0.850703 0.520271
O O9 0.804827 0.914674 0.328128
O O10 0.687306 0.179393 0.714484
O O11 0.000000 0.000000 0.500000
O O12 0.231961 0.403120 0.007843
O O13 0.108333 0.561084 0.385873
O O14 0.150506 0.279405 0.066259
O O15 0.901330 0.358632 0.961888
O O16 0.353633 0.561583 0.138303
O O17 0.410677 0.376787 0.760788
#
# Coordination Sequence:
#
# PCOD9098519 Si02
#       8
#     2   2   2   2   2   2   2   2
#     4  12  29  50  67  95 141 184 238 285 329 398
#     4  11  22  49  67  97 133 185 231 272 335 409
#     4  11  17  38  66  97 136 171 211 274 346 412
#     4  12  25  45  68 100 140 175 227 287 341 407
#     4  12  24  45  76 100 130 186 231 281 341 397
#     4  11  21  39  69  95 144 171 209 281 354 405
#     4  11  20  37  63 109 133 163 223 279 345 414
#     4  10  20  36  67  98 138 172 210 283 344 402
#
# _framework density 21.433917000000001
#
# number of rings (size 3 to 8) (size 9 to 14) (size 15 to 20)
#    0.000    0.750    7.500    1.500    0.000    3.000 
#    2.250    1.875    0.000    0.000    0.000    0.000 
#    0.000    0.000    0.000    0.000    0.000    0.000 
#
# Total GULP energy -89190.162799 kJ/mol
# GULP energy per Si atom -5574.385175 kJ/mol
# Density = 2.138513 g / cm^3
# Si number density = 21.433917 Si / 1000 Ang^3
#
#
#
# Elastic Constant Matrix: (Units=GPa)
#
#
# Indices 1 2 3 4 5 6 
#
# 1 94.2529 16.0492 57.5153 6.6539 -12.2364 1.2567
# 2 16.0492 73.6496 32.1700 10.1012 -9.8765 -9.3400
# 3 57.5153 32.1700 76.8005 8.5506 -6.2263 0.7991
# 4 6.6539 10.1012 8.5506 28.4888 -3.5382 1.2581
# 5 -12.2364 -9.8765 -6.2263 -3.5382 45.4924 1.3765
# 6 1.2567 -9.3400 0.7991 1.2581 1.3765 21.5006
#
#
#
# Elastic Compliance Matrix: (Units=1/GPa)
#
#
# Indices 1 2 3 4 5 6 
#
# 1 0.020657 0.003415 -0.016517 -0.000615 0.003969 0.000672
# 2 0.003415 0.019348 -0.009980 -0.004656 0.003129 0.008648
# 3 -0.016517 -0.009980 0.029587 -0.001616 -0.002558 -0.004211
# 4 -0.000615 -0.004656 -0.001616 0.037775 0.001669 -0.004244
# 5 0.003969 0.003129 -0.002558 0.001669 0.023520 -0.000381
# 6 0.000672 0.008648 -0.004211 -0.004244 -0.000381 0.050657
#
#
# Mechanical properties :
#
#
# Convention : Reuss Voigt Hill
#
# Bulk Modulus (GPa) = 42.68415 50.68575 46.68495
# Shear Modulus (GPa) = 21.22987 28.36093 24.79540
#
# Velocity S-wave (km/s) = 3.15060 3.64150 3.40491
# Velocity P-wave (km/s) = 5.76130 6.43269 6.10623
#
# Compressibility (1/GPa) = 0.02342790
#
# Stress axis : x y z
#
# Youngs Moduli (GPa) = 48.40933 51.68594 33.79872
#
# Poissons Ratio (x) = -0.17651 0.55826
# Poissons Ratio (y) = -0.16532 0.33730
# Poissons Ratio (z) = 0.79959 0.51581
#
# Static dielectric constant tensor:
#      x y z
#    x 1.831530 -0.023110 -0.070960 
#    y -0.023110 1.807250 0.037760 
#    z -0.070960 0.037760 1.912450 
# 
# From -- ./inp_files/397897.got.cif
#   From: 2010.05.17/outbox.cif.g08.bks.cpg/sg2_199_cif.got.tgz:397897.got - 2010.06.03 11:33:40.
