data_PCOD9098682
_publ_section_title
;
Structure prediction by ZEFSAII (Michael W. Deem and Ramdas Pophale) SiO2 
 PCOD9098682
Probable space group: P -1
;
_chemical_formula_sum "Si O2"
_cell_formula_units_Z 16
_cell_length_a 5.599133
_cell_length_b 23.433969
_cell_length_c 25.100704
_cell_angle_alpha 168.558500
_cell_angle_beta 104.476326
_cell_angle_gamma 75.083285
_cell_volume 631.252756
_symmetry_space_group_name_H-M "P -1"
_symmetry_group_IT_number 2
_symmetry_cell_setting 'triclinic'
loop_
_space_group_symop_operation_xyz
x,y,z
-x,-y,-z
loop_
_atom_site_type_symbol
_atom_site_label
_atom_site_fract_x
_atom_site_fract_y
_atom_site_fract_z
Si Si1 0.759673 0.374803 0.844368
Si Si2 0.269415 0.323188 0.617453
Si Si3 0.815508 0.745642 0.754190
Si Si4 0.476213 0.053385 0.628159
Si Si5 0.450250 0.929796 0.169126
Si Si6 0.584916 0.869516 0.966567
Si Si7 0.959428 0.776231 0.652582
Si Si8 0.803535 0.381627 0.587204
O O1 0.609403 0.213090 0.733635
O O2 0.747558 0.136428 0.578868
O O3 0.618446 0.675191 0.092779
O O4 0.000000 0.500000 0.000000
O O5 0.987558 0.442279 0.700656
O O6 0.330409 0.164145 0.530401
O O7 0.334231 0.087465 0.359471
O O8 0.437519 0.591281 0.864769
O O9 0.993097 0.457396 0.511478
O O10 0.623774 0.870405 0.812629
O O11 0.632377 0.748273 0.798342
O O12 0.000000 0.000000 0.000000
O O13 0.711515 0.064918 0.300313
O O14 0.288425 0.045662 0.215491
O O15 0.833716 0.004523 0.122728
O O16 0.569315 0.601501 0.760751
O O17 0.037748 0.613084 0.453071
#
# Coordination Sequence:
#
# PCOD9098682 Si02
#       8
#     2   2   2   2   2   2   2   2
#     4  10  21  41  66  95 127 170 205 248 306 359
#     4  11  24  41  60  95 127 160 212 255 298 366
#     4  10  21  34  54  84 112 150 199 253 315 375
#     4  10  22  39  63  94 131 163 206 258 298 354
#     4  11  24  40  64  88 123 168 210 252 317 367
#     4  10  20  37  56  80 117 149 200 253 311 370
#     4  10  21  38  57  84 116 156 202 262 307 378
#     4  10  23  40  60  85 120 162 203 257 309 366
#
# _framework density 25.346423999999999
#
# number of rings (size 3 to 8) (size 9 to 14) (size 15 to 20)
#    0.000    1.750    1.250    2.250    1.750    3.500 
#    0.000    0.000    0.000    0.000    0.000    0.000 
#    0.000    0.000    0.000    0.000    0.000    0.000 
#
# Total GULP energy -89390.626422 kJ/mol
# GULP energy per Si atom -5586.914151 kJ/mol
# Density = 2.528873 g / cm^3
# Si number density = 25.346424 Si / 1000 Ang^3
#
#
#
# Elastic Constant Matrix: (Units=GPa)
#
#
# Indices 1 2 3 4 5 6 
#
# 1 39.6969 7.8658 20.8983 5.2225 5.4342 -14.0357
# 2 7.8658 97.6013 54.0075 14.7684 2.0388 -19.6018
# 3 20.8983 54.0075 156.9780 19.3013 18.2074 -9.6819
# 4 5.2225 14.7684 19.3013 41.0998 -11.9354 -0.3328
# 5 5.4342 2.0388 18.2074 -11.9354 46.9672 -12.1779
# 6 -14.0357 -19.6018 -9.6819 -0.3328 -12.1779 21.7356
#
#
#
# Elastic Compliance Matrix: (Units=1/GPa)
#
#
# Indices 1 2 3 4 5 6 
#
# 1 0.037073 0.006340 -0.005455 -0.002872 0.004526 0.029719
# 2 0.006340 0.017266 -0.005854 -0.002553 0.005324 0.020001
# 3 -0.005455 -0.005854 0.009737 -0.003523 -0.005799 -0.007768
# 4 -0.002872 -0.002553 -0.003523 0.030009 0.009441 0.000023
# 5 0.004526 0.005324 -0.005799 0.009441 0.031067 0.022692
# 6 0.029719 0.020001 -0.007768 0.000023 0.022692 0.092489
#
#
# Mechanical properties :
#
#
# Convention : Reuss Voigt Hill
#
# Bulk Modulus (GPa) = 18.47208 51.09105 34.78156
# Shear Modulus (GPa) = 20.35595 36.06084 28.20839
#
# Velocity S-wave (km/s) = 2.83699 3.77599 3.33966
# Velocity P-wave (km/s) = 4.24677 6.26192 5.35008
#
# Compressibility (1/GPa) = 0.05413576
#
# Stress axis : x y z
#
# Youngs Moduli (GPa) = 26.97409 57.91629 102.69652
#
# Poissons Ratio (x) = -0.36717 0.56026
# Poissons Ratio (y) = -0.17100 0.60123
# Poissons Ratio (z) = 0.14716 0.33907
#
# Static dielectric constant tensor:
#      x y z
#    x 2.115170 -0.003870 -0.139640 
#    y -0.003870 2.026000 -0.002900 
#    z -0.139640 -0.002900 2.068380 
# 
# From -- ./inp_files/11017.got.cif
#   From: 2010.05.17/outbox.cif.g08.bks.cpg/sg2_6_cif.got.tgz:11017.got - 2010.06.03 11:33:40.
