data_PCOD9098758
_publ_section_title
;
Structure prediction by ZEFSAII (Michael W. Deem and Ramdas Pophale) SiO2 
 PCOD9098758
Probable space group: P -1
;
_chemical_formula_sum "Si O2"
_cell_formula_units_Z 16
_cell_length_a 8.208350
_cell_length_b 18.630190
_cell_length_c 9.769258
_cell_angle_alpha 136.126216
_cell_angle_beta 43.626603
_cell_angle_gamma 132.775988
_cell_volume 674.614145
_symmetry_space_group_name_H-M "P -1"
_symmetry_group_IT_number 2
_symmetry_cell_setting 'triclinic'
loop_
_space_group_symop_operation_xyz
x,y,z
-x,-y,-z
loop_
_atom_site_type_symbol
_atom_site_label
_atom_site_fract_x
_atom_site_fract_y
_atom_site_fract_z
Si Si1 0.429438 0.341203 0.199261
Si Si2 0.295534 0.795111 0.020753
Si Si3 0.878980 0.567673 0.302185
Si Si4 0.121284 0.406281 0.979252
Si Si5 0.658614 0.122306 0.402297
Si Si6 0.136719 0.928930 0.515154
Si Si7 0.146847 0.910254 0.055542
Si Si8 0.374650 0.287494 0.843908
O O1 0.652441 0.452509 0.257881
O O2 0.196013 0.355613 0.440583
O O3 0.489178 0.233446 0.067278
O O4 0.408121 0.336862 0.043917
O O5 0.124349 0.837742 0.285586
O O6 0.353616 0.883026 0.986063
O O7 0.121970 0.676453 0.910968
O O8 0.914186 0.615268 0.192649
O O9 0.101619 0.527351 0.167443
O O10 0.341653 0.372885 0.868060
O O11 0.826866 0.115447 0.419687
O O12 0.581179 0.231541 0.602915
O O13 0.397256 0.023530 0.448178
O O14 0.787088 0.102295 0.158306
O O15 0.916320 0.980440 0.720408
O O16 0.886496 0.814371 0.120663
#
# Coordination Sequence:
#
# PCOD9098758 Si02
#       8
#     2   2   2   2   2   2   2   2
#     4  10  20  37  58  82 112 145 184 229 282 333
#     4  10  20  37  57  82 113 147 186 232 272 329
#     4   9  20  38  58  81 112 144 181 232 284 333
#     4   9  20  38  57  82 113 144 183 231 280 331
#     4  10  21  37  57  84 116 149 183 232 276 324
#     4  10  20  38  57  81 119 147 185 233 273 324
#     4  10  22  37  57  84 116 149 188 226 277 325
#     4  10  21  38  58  85 115 146 186 231 272 333
#
# _framework density 23.717262000000002
#
# number of rings (size 3 to 8) (size 9 to 14) (size 15 to 20)
#    0.000    2.250    1.250    0.750    1.750    2.500 
#    4.500    0.000    0.000    0.000    0.000    0.000 
#    0.000    0.000    0.000    0.000    0.000    0.000 
#
# Total GULP energy -89409.491329 kJ/mol
# GULP energy per Si atom -5588.093208 kJ/mol
# Density = 2.366328 g / cm^3
# Si number density = 23.717262 Si / 1000 Ang^3
#
#
#
# Elastic Constant Matrix: (Units=GPa)
#
#
# Indices 1 2 3 4 5 6 
#
# 1 76.6400 48.4801 36.8919 15.6148 -12.1498 -35.8518
# 2 48.4801 103.0974 50.7575 12.8795 -18.3779 -34.1384
# 3 36.8919 50.7575 163.7287 11.8006 -8.8486 -30.0390
# 4 15.6148 12.8795 11.8006 32.0881 -4.5862 -4.0906
# 5 -12.1498 -18.3779 -8.8486 -4.5862 33.2858 3.4409
# 6 -35.8518 -34.1384 -30.0390 -4.0906 3.4409 53.6464
#
#
#
# Elastic Compliance Matrix: (Units=1/GPa)
#
#
# Indices 1 2 3 4 5 6 
#
# 1 0.024511 -0.005783 -0.000929 -0.007336 0.003317 0.011408
# 2 -0.005783 0.016382 -0.002510 -0.001443 0.005584 0.004686
# 3 -0.000929 -0.002510 0.007520 -0.001072 -0.000072 0.001916
# 4 -0.007336 -0.001443 -0.001072 0.035438 0.001518 -0.003816
# 5 0.003317 0.005584 -0.000072 0.001518 0.034149 0.003655
# 6 0.011408 0.004686 0.001916 -0.003816 0.003655 0.029794
#
#
# Mechanical properties :
#
#
# Convention : Reuss Voigt Hill
#
# Bulk Modulus (GPa) = 33.36876 68.41391 50.89133
# Shear Modulus (GPa) = 28.37257 37.62649 32.99953
#
# Velocity S-wave (km/s) = 3.46249 3.98736 3.73416
# Velocity P-wave (km/s) = 5.48498 7.07863 6.33214
#
# Compressibility (1/GPa) = 0.02996815
#
# Stress axis : x y z
#
# Youngs Moduli (GPa) = 40.79884 61.04223 132.97981
#
# Poissons Ratio (x) = 0.35302 0.12353
# Poissons Ratio (y) = 0.23595 0.33378
# Poissons Ratio (z) = 0.03790 0.15321
#
# Static dielectric constant tensor:
#      x y z
#    x 1.983690 0.054150 -0.026140 
#    y 0.054150 1.954680 0.019980 
#    z -0.026140 0.019980 1.856030 
# 
# From -- ./inp_files/188223.got.cif
#   From: 2010.05.17/outbox.cif.g08.bks.cpg/sg2_95_cif.got.tgz:188223.got - 2010.06.03 11:33:40.
