data_PCOD9098530
_publ_section_title
;
Structure prediction by ZEFSAII (Michael W. Deem and Ramdas Pophale) SiO2 
 PCOD9098530
Probable space group: P -1
;
_chemical_formula_sum "Si O2"
_cell_formula_units_Z 11
_cell_length_a 11.957937
_cell_length_b 8.401186
_cell_length_c 13.148625
_cell_angle_alpha 128.817588
_cell_angle_beta 147.266967
_cell_angle_gamma 40.674226
_cell_volume 465.288766
_symmetry_space_group_name_H-M "P -1"
_symmetry_group_IT_number 2
_symmetry_cell_setting 'triclinic'
loop_
_space_group_symop_operation_xyz
x,y,z
-x,-y,-z
loop_
_atom_site_type_symbol
_atom_site_label
_atom_site_fract_x
_atom_site_fract_y
_atom_site_fract_z
Si Si1 0.087707 0.803729 0.274848
Si Si2 0.283764 0.194068 0.294885
Si Si3 0.457856 0.366627 0.768432
Si Si4 0.901481 0.302575 0.216944
Si Si5 0.450294 0.538334 0.617084
Si Si6 0.000000 0.500000 0.000000
O O1 0.237376 0.757396 0.474893
O O2 0.266784 0.556193 0.236248
O O3 0.886842 0.735302 0.096851
O O4 0.008175 0.050864 0.258996
O O5 0.445013 0.310448 0.477588
O O6 0.103040 0.287172 0.290651
O O7 0.132866 0.289687 0.113741
O O8 0.450457 0.902705 0.306088
O O9 0.227334 0.481124 0.713394
O O10 0.408401 0.541438 0.704714
O O11 0.685405 0.336960 0.992707
#
# Coordination Sequence:
#
# PCOD9098530 Si02
#       6
#     2   2   2   2   2   1
#     4  10  20  39  60  92 114 162 193 244 290 358
#     4  11  21  40  62  89 118 159 192 249 289 358
#     4  11  22  38  61  91 118 157 197 246 286 356
#     4  11  23  38  65  86 121 154 205 235 298 344
#     4  10  22  37  63  88 123 153 199 235 308 340
#     4  10  20  36  68  80 118 160 196 236 304 334
#
# _framework density 23.641233
#
# number of rings (size 3 to 8) (size 9 to 14) (size 15 to 20)
#    0.000    1.455    3.636    2.182    0.000    1.455 
#    0.000    0.909   12.000    0.000    0.000    0.000 
#    0.000    0.000    0.000    0.000    0.000    0.000 
#
# Total GULP energy -61326.887651 kJ/mol
# GULP energy per Si atom -5575.171605 kJ/mol
# Density = 2.358742 g / cm^3
# Si number density = 23.641233 Si / 1000 Ang^3
#
#
#
# Elastic Constant Matrix: (Units=GPa)
#
#
# Indices 1 2 3 4 5 6 
#
# 1 120.2595 85.8878 53.1153 -1.6640 -20.0034 -4.1666
# 2 85.8878 -29.1124 -3.3799 -50.4062 -10.6422 -11.7120
# 3 53.1153 -3.3799 153.4679 -45.1644 -26.3619 8.7973
# 4 -1.6640 -50.4062 -45.1644 11.6986 21.7521 -16.3222
# 5 -20.0034 -10.6422 -26.3619 21.7521 43.7813 -6.9881
# 6 -4.1666 -11.7120 8.7973 -16.3222 -6.9881 38.8369
#
#
#
# Elastic Compliance Matrix: (Units=1/GPa)
#
#
# Indices 1 2 3 4 5 6 
#
# 1 0.008409 -0.000197 0.000385 0.013351 -0.001638 0.006072
# 2 -0.000197 0.004526 -0.004784 -0.022973 0.008638 -0.005673
# 3 0.000385 -0.004784 0.007536 0.002882 0.001870 -0.001561
# 4 0.013351 -0.022973 0.002882 0.037456 -0.015266 0.006846
# 5 -0.001638 0.008638 0.001870 -0.015266 0.033151 0.001555
# 6 0.006072 -0.005673 -0.001561 0.006846 0.001555 0.028200
#
#
# Mechanical properties :
#
#
# Convention : Reuss Voigt Hill
#
# Bulk Modulus (GPa) = 88.66356 57.31797 72.99076
# Shear Modulus (GPa) = 37.81323 26.12946 31.97135
#
# Velocity S-wave (km/s) = 4.00366 3.32814 3.68143
# Velocity P-wave (km/s) = 7.67839 6.25030 7.00085
#
# Compressibility (1/GPa) = 0.01127859
#
# Stress axis : x y z
#
# Youngs Moduli (GPa) = 118.92522 220.94959 132.69430
#
# Poissons Ratio (x) = 0.04354 -0.05108
# Poissons Ratio (y) = 0.02343 0.63481
# Poissons Ratio (z) = -0.04578 1.05702
#
# Static dielectric constant tensor:
#      x y z
#    x 1.988420 0.023830 0.204990 
#    y 0.023830 1.935820 0.073600 
#    z 0.204990 0.073600 2.297710 
# 
# From -- ./inp_files/145136.got.cif
#   From: 2010.05.17/outbox.cif.g08.bks.cpg/sg2_73_cif.got.tgz:145136.got - 2010.06.03 11:33:40.
