data_PCOD9098794
_publ_section_title
;
Structure prediction by ZEFSAII (Michael W. Deem and Ramdas Pophale) SiO2 
 PCOD9098794
Probable space group: P -1
;
_chemical_formula_sum "Si O2"
_cell_formula_units_Z 16
_cell_length_a 8.922830
_cell_length_b 12.212479
_cell_length_c 15.338189
_cell_angle_alpha 79.591993
_cell_angle_beta 122.990151
_cell_angle_gamma 145.878011
_cell_volume 643.924508
_symmetry_space_group_name_H-M "P -1"
_symmetry_group_IT_number 2
_symmetry_cell_setting 'triclinic'
loop_
_space_group_symop_operation_xyz
x,y,z
-x,-y,-z
loop_
_atom_site_type_symbol
_atom_site_label
_atom_site_fract_x
_atom_site_fract_y
_atom_site_fract_z
Si Si1 0.666041 0.015888 0.345902
Si Si2 0.814533 0.477521 0.715364
Si Si3 0.722591 0.177595 0.919389
Si Si4 0.602521 0.428906 0.056591
Si Si5 0.297367 0.632090 0.500119
Si Si6 0.095968 0.738621 0.335265
Si Si7 0.602638 0.891444 0.007333
Si Si8 0.618149 0.547110 0.375296
O O1 0.487326 0.791225 0.324605
O O2 0.604734 0.020510 0.227910
O O3 0.402053 0.952376 0.331466
O O4 0.081623 0.248318 0.484712
O O5 0.839485 0.496834 0.615837
O O6 0.672391 0.512168 0.710013
O O7 0.220072 0.677666 0.858110
O O8 0.079779 0.414088 0.941847
O O9 0.830790 0.123089 0.011156
O O10 0.541530 0.160912 0.934370
O O11 0.255476 0.154455 0.960977
O O12 0.779010 0.517677 0.197533
O O13 0.500000 0.500000 0.000000
O O14 0.367202 0.795909 0.462125
O O15 0.533549 0.660093 0.615071
O O16 0.000000 0.500000 0.500000
O O17 0.853695 0.665760 0.342804
#
# Coordination Sequence:
#
# PCOD9098794 Si02
#       8
#     2   2   2   2   2   2   2   2
#     4  10  20  37  57  85 123 162 205 246 312 367
#     4  11  21  36  58  88 123 160 201 259 307 363
#     4  10  23  40  66  92 116 172 206 257 323 367
#     4  11  23  40  68  91 124 161 213 262 313 372
#     4   9  18  35  54  77 115 156 197 236 303 362
#     4   9  20  38  54  86 117 164 198 248 313 363
#     4  11  22  42  65  88 130 161 211 259 316 377
#     4  11  21  32  61  89 121 158 208 251 297 372
#
# _framework density 24.847635
#
# number of rings (size 3 to 8) (size 9 to 14) (size 15 to 20)
#    0.000    1.750    3.750    2.250    1.750    0.500 
#    0.000    0.000    0.000    0.000    0.000    0.000 
#    0.000    0.000    0.000    0.000    0.000    0.000 
#
# Total GULP energy -89191.137088 kJ/mol
# GULP energy per Si atom -5574.446068 kJ/mol
# Density = 2.479108 g / cm^3
# Si number density = 24.847635 Si / 1000 Ang^3
#
#
#
# Elastic Constant Matrix: (Units=GPa)
#
#
# Indices 1 2 3 4 5 6 
#
# 1 105.7722 29.0435 22.6069 -21.2082 -23.5067 -16.4012
# 2 29.0435 75.2490 17.3507 -17.5183 -13.9351 -7.1239
# 3 22.6069 17.3507 52.9181 -9.6345 -36.6575 4.8255
# 4 -21.2082 -17.5183 -9.6345 31.1539 2.9318 -1.8172
# 5 -23.5067 -13.9351 -36.6575 2.9318 40.1853 -6.8316
# 6 -16.4012 -7.1239 4.8255 -1.8172 -6.8316 30.1754
#
#
#
# Elastic Compliance Matrix: (Units=1/GPa)
#
#
# Indices 1 2 3 4 5 6 
#
# 1 0.015901 -0.000850 0.004006 0.010960 0.013831 0.011592
# 2 -0.000850 0.017281 -0.000531 0.008793 0.005293 0.005430
# 3 0.004006 -0.000531 0.057154 0.015358 0.054214 0.006111
# 4 0.010960 0.008793 0.015358 0.047946 0.022268 0.013505
# 5 0.013831 0.005293 0.054214 0.022268 0.086203 0.020954
# 6 0.011592 0.005430 0.006111 0.013505 0.020954 0.045302
#
#
# Mechanical properties :
#
#
# Convention : Reuss Voigt Hill
#
# Bulk Modulus (GPa) = 10.46193 41.32682 25.89437
# Shear Modulus (GPa) = 16.86908 31.29880 24.08394
#
# Velocity S-wave (km/s) = 2.60840 3.55298 3.11668
# Velocity P-wave (km/s) = 3.64571 5.78789 4.83689
#
# Compressibility (1/GPa) = 0.09558468
#
# Stress axis : x y z
#
# Youngs Moduli (GPa) = 62.89097 57.86678 17.49649
#
# Poissons Ratio (x) = 0.04921 -0.07008
# Poissons Ratio (y) = 0.05348 0.00929
# Poissons Ratio (z) = -0.25191 0.03071
#
# Static dielectric constant tensor:
#      x y z
#    x 2.074660 -0.162460 0.068370 
#    y -0.162460 2.184600 -0.035490 
#    z 0.068370 -0.035490 1.993230 
# 
# From -- ./inp_files/353725.got.cif
#   From: 2010.05.17/outbox.cif.g08.bks.cpg/sg2_177_cif.got.tgz:353725.got - 2010.06.03 11:33:40.
