data_PCOD9098476
_publ_section_title
;
Structure prediction by ZEFSAII (Michael W. Deem and Ramdas Pophale) SiO2 
 PCOD9098476
Probable space group: P -1
;
_chemical_formula_sum "Si O2"
_cell_formula_units_Z 14
_cell_length_a 15.172812
_cell_length_b 9.175488
_cell_length_c 15.966210
_cell_angle_alpha 34.028170
_cell_angle_beta 140.742092
_cell_angle_gamma 143.603073
_cell_volume 698.550927
_symmetry_space_group_name_H-M "P -1"
_symmetry_group_IT_number 2
_symmetry_cell_setting 'triclinic'
loop_
_space_group_symop_operation_xyz
x,y,z
-x,-y,-z
loop_
_atom_site_type_symbol
_atom_site_label
_atom_site_fract_x
_atom_site_fract_y
_atom_site_fract_z
Si Si1 0.925586 0.901637 0.622157
Si Si2 0.031925 0.820718 0.909945
Si Si3 0.190809 0.892013 0.705521
Si Si4 0.225572 0.337196 0.058347
Si Si5 0.389212 0.646683 0.326280
Si Si6 0.644374 0.820236 0.930006
Si Si7 0.482639 0.726727 0.173455
O O1 0.782995 0.576988 0.665500
O O2 0.979463 0.966095 0.726597
O O3 0.062410 0.893218 0.672841
O O4 0.864035 0.102007 0.432237
O O5 0.920860 0.783751 0.926863
O O6 0.000000 0.500000 0.000000
O O7 0.214949 0.024740 0.971486
O O8 0.347012 0.184254 0.706784
O O9 0.220131 0.616497 0.877424
O O10 0.255844 0.169845 0.083813
O O11 0.383869 0.447677 0.177340
O O12 0.500000 0.500000 0.500000
O O13 0.383718 0.680686 0.206240
O O14 0.435245 0.966043 0.243342
O O15 0.500000 0.500000 0.000000
O O16 0.500000 0.000000 0.000000
#
# Coordination Sequence:
#
# PCOD9098476 Si02
#       7
#     2   2   2   2   2   2   2
#     4  11  22  37  67  97 127 172 233 267 322 388
#     4  12  22  43  71  98 130 183 234 265 325 421
#     4  10  21  37  63 101 135 169 223 279 327 399
#     4  11  22  40  66  97 137 173 221 281 340 389
#     4  12  23  44  70  93 132 180 232 271 329 411
#     4  12  27  42  66 105 139 174 218 291 349 384
#     4  10  20  36  66  96 128 173 222 271 324 403
#
# _framework density 20.041488000000001
#
# number of rings (size 3 to 8) (size 9 to 14) (size 15 to 20)
#    0.000    0.857    5.714    2.143    4.000    0.000 
#    0.000    1.429    0.000    0.000    0.000    0.000 
#    0.000    0.000    0.000    0.000    0.000    0.000 
#
# Total GULP energy -78033.119232 kJ/mol
# GULP energy per Si atom -5573.794231 kJ/mol
# Density = 1.999587 g / cm^3
# Si number density = 20.041488 Si / 1000 Ang^3
#
#
#
# Elastic Constant Matrix: (Units=GPa)
#
#
# Indices 1 2 3 4 5 6 
#
# 1 78.1533 41.3002 46.8951 1.9995 -12.5007 -4.2250
# 2 41.3002 99.2211 39.7544 17.8153 6.4536 7.8801
# 3 46.8951 39.7544 122.0058 12.5222 -8.0731 -10.1191
# 4 1.9995 17.8153 12.5222 31.1846 0.5718 0.4878
# 5 -12.5007 6.4536 -8.0731 0.5718 34.2928 1.4324
# 6 -4.2250 7.8801 -10.1191 0.4878 1.4324 34.3923
#
#
#
# Elastic Compliance Matrix: (Units=1/GPa)
#
#
# Indices 1 2 3 4 5 6 
#
# 1 0.021952 -0.008712 -0.005405 0.005548 0.008164 0.002684
# 2 -0.008712 0.016849 -0.002183 -0.007990 -0.006511 -0.005189
# 3 -0.005405 -0.002183 0.011653 -0.003157 0.001100 0.003264
# 4 0.005548 -0.007990 -0.003157 0.037490 0.002118 0.000964
# 5 0.008164 -0.006511 0.001100 0.002118 0.033527 0.001392
# 6 0.002684 -0.005189 0.003264 0.000964 0.001392 0.031483
#
#
# Mechanical properties :
#
#
# Convention : Reuss Voigt Hill
#
# Bulk Modulus (GPa) = 56.01069 61.69772 58.85420
# Shear Modulus (GPa) = 26.10889 31.40267 28.75578
#
# Velocity S-wave (km/s) = 3.61327 3.96268 3.79200
# Velocity P-wave (km/s) = 6.73911 7.19645 6.97154
#
# Compressibility (1/GPa) = 0.01785373
#
# Stress axis : x y z
#
# Youngs Moduli (GPa) = 45.55467 59.34905 85.81693
#
# Poissons Ratio (x) = 0.51704 0.46388
# Poissons Ratio (y) = 0.39686 0.18732
# Poissons Ratio (z) = 0.24625 0.12954
#
# Static dielectric constant tensor:
#      x y z
#    x 1.733700 0.003240 0.007630 
#    y 0.003240 1.734620 0.003540 
#    z 0.007630 0.003540 1.762720 
# 
# From -- ./inp_files/227697.got.cif
#   From: 2010.05.17/outbox.cif.g08.bks.cpg/sg2_114_cif.got.tgz:227697.got - 2010.06.03 11:33:40.
