data_PCOD9098672
_publ_section_title
;
Structure prediction by ZEFSAII (Michael W. Deem and Ramdas Pophale) SiO2 
 PCOD9098672
Probable space group: P -1
;
_chemical_formula_sum "Si O2"
_cell_formula_units_Z 14
_cell_length_a 7.257645
_cell_length_b 7.528338
_cell_length_c 12.816424
_cell_angle_alpha 128.468438
_cell_angle_beta 63.557880
_cell_angle_gamma 109.073082
_cell_volume 489.676124
_symmetry_space_group_name_H-M "P -1"
_symmetry_group_IT_number 2
_symmetry_cell_setting 'triclinic'
loop_
_space_group_symop_operation_xyz
x,y,z
-x,-y,-z
loop_
_atom_site_type_symbol
_atom_site_label
_atom_site_fract_x
_atom_site_fract_y
_atom_site_fract_z
Si Si1 0.316296 0.774462 0.562110
Si Si2 0.735171 0.688376 0.526697
Si Si3 0.360593 0.450868 0.273295
Si Si4 0.154737 0.856930 0.266181
Si Si5 0.252665 0.002834 0.062051
Si Si6 0.016927 0.396506 0.075947
Si Si7 0.386412 0.246934 0.816119
O O1 0.560274 0.741843 0.508373
O O2 0.202024 0.570791 0.584710
O O3 0.276272 0.686927 0.422577
O O4 0.289897 0.028810 0.696527
O O5 0.619122 0.675675 0.666675
O O6 0.889619 0.907329 0.581682
O O7 0.222711 0.272191 0.174317
O O8 0.565467 0.534812 0.190363
O O9 0.388241 0.806452 0.219816
O O10 0.165772 0.912757 0.161682
O O11 0.015788 0.622888 0.229759
O O12 0.143082 0.820791 0.944055
O O13 0.500000 0.000000 0.000000
O O14 0.242590 0.300436 0.967647
O O15 0.000000 0.500000 0.000000
#
# Coordination Sequence:
#
# PCOD9098672 Si02
#       7
#     2   2   2   2   2   2   2
#     4   8  15  29  50  81 108 140 177 206 254 310
#     4   7  14  28  51  78 107 141 177 203 249 312
#     4   9  16  29  51  78 106 136 174 210 255 309
#     4   9  18  34  54  78 108 136 171 214 265 312
#     4  10  20  37  56  73  98 144 183 214 259 316
#     4  10  21  35  52  76 108 139 176 216 266 312
#     4  11  19  31  54  85 108 137 170 218 265 310
#
# _framework density 28.590326999999998
#
# number of rings (size 3 to 8) (size 9 to 14) (size 15 to 20)
#    0.857    2.000    0.000    2.571    0.000    0.000 
#    0.000    3.571    0.000    1.714    0.000   40.000 
#    0.000    0.000    0.000    0.000    0.000    0.000 
#
# Total GULP energy -78217.732286 kJ/mol
# GULP energy per Si atom -5586.980878 kJ/mol
# Density = 2.852525 g / cm^3
# Si number density = 28.590327 Si / 1000 Ang^3
#
#
#
# Elastic Constant Matrix: (Units=GPa)
#
#
# Indices 1 2 3 4 5 6 
#
# 1 73.7747 33.0693 50.2880 4.5226 -8.5154 21.6901
# 2 33.0693 176.0136 90.3505 43.6854 15.3981 19.6432
# 3 50.2880 90.3505 156.9096 74.5034 33.3128 24.2931
# 4 4.5226 43.6854 74.5034 76.6687 19.3280 19.4065
# 5 -8.5154 15.3981 33.3128 19.3280 43.1167 7.2035
# 6 21.6901 19.6432 24.2931 19.4065 7.2035 43.4295
#
#
#
# Elastic Compliance Matrix: (Units=1/GPa)
#
#
# Indices 1 2 3 4 5 6 
#
# 1 0.032036 0.000031 -0.019233 0.016556 0.016320 -0.015360
# 2 0.000031 0.008149 -0.004718 0.000013 0.000940 -0.001224
# 3 -0.019233 -0.004718 0.027004 -0.020744 -0.015083 0.008405
# 4 0.016556 0.000013 -0.020744 0.033896 0.006245 -0.012853
# 5 0.016320 0.000940 -0.015083 0.006245 0.036433 -0.008973
# 6 -0.015360 -0.001224 0.008405 -0.012853 -0.008973 0.033781
#
#
# Mechanical properties :
#
#
# Convention : Reuss Voigt Hill
#
# Bulk Modulus (GPa) = 51.68376 83.79041 67.73708
# Shear Modulus (GPa) = 22.16428 48.17566 35.16997
#
# Velocity S-wave (km/s) = 2.78733 4.10937 3.51113
# Velocity P-wave (km/s) = 5.33625 7.20325 6.33886
#
# Compressibility (1/GPa) = 0.01934844
#
# Stress axis : x y z
#
# Youngs Moduli (GPa) = 31.21532 122.71986 37.03127
#
# Poissons Ratio (x) = -0.00381 0.71221
# Poissons Ratio (y) = -0.00097 0.17473
# Poissons Ratio (z) = 0.60036 0.57903
#
# Static dielectric constant tensor:
#      x y z
#    x 2.326770 -0.039240 0.008800 
#    y -0.039240 2.188480 0.073180 
#    z 0.008800 0.073180 2.276380 
# 
# From -- ./inp_files/212331.got.cif
#   From: 2010.05.17/outbox.cif.g08.bks.cpg/sg2_107_cif.got.tgz:212331.got - 2010.06.03 11:33:40.
