data_PCOD9098706
_publ_section_title
;
Structure prediction by ZEFSAII (Michael W. Deem and Ramdas Pophale) SiO2 
 PCOD9098706
Probable space group: P -1
;
_chemical_formula_sum "Si O2"
_cell_formula_units_Z 12
_cell_length_a 9.281905
_cell_length_b 9.261844
_cell_length_c 9.373313
_cell_angle_alpha 132.097005
_cell_angle_beta 87.113427
_cell_angle_gamma 108.768350
_cell_volume 550.220844
_symmetry_space_group_name_H-M "P -1"
_symmetry_group_IT_number 2
_symmetry_cell_setting 'triclinic'
loop_
_space_group_symop_operation_xyz
x,y,z
-x,-y,-z
loop_
_atom_site_type_symbol
_atom_site_label
_atom_site_fract_x
_atom_site_fract_y
_atom_site_fract_z
Si Si1 0.255124 0.095757 0.908800
Si Si2 0.887831 0.732213 0.178226
Si Si3 0.224398 0.742578 0.186109
Si Si4 0.639454 0.866908 0.382444
Si Si5 0.327422 0.822757 0.919997
Si Si6 0.501540 0.468281 0.310917
O O1 0.345142 0.279952 0.137702
O O2 0.106873 0.126145 0.867574
O O3 0.372571 0.133757 0.790027
O O4 0.225395 0.874338 0.838231
O O5 0.802555 0.826672 0.358100
O O6 0.048114 0.721515 0.211867
O O7 0.777981 0.492251 0.977829
O O8 0.334665 0.908546 0.402739
O O9 0.268371 0.840812 0.091789
O O10 0.525007 0.673565 0.352225
O O11 0.355022 0.607556 0.770027
O O12 0.500000 0.000000 0.000000
O O13 0.500000 0.500000 0.500000
#
# Coordination Sequence:
#
# PCOD9098706 Si02
#       6
#     2   2   2   2   2   2
#     4   9  21  37  56  87 121 144 197 239 284 341
#     4   9  22  38  61  86 120 149 197 235 279 352
#     4  11  20  39  64  84 117 158 190 232 295 339
#     4  10  20  37  60  87 114 154 191 239 283 344
#     4  10  20  37  56  85 115 151 193 234 288 342
#     4  11  21  38  59  83 120 154 193 243 289 339
#
# _framework density 21.809424
#
# number of rings (size 3 to 8) (size 9 to 14) (size 15 to 20)
#    1.000    1.000    1.667    3.000    0.000    2.000 
#    0.000    5.000    0.000    4.000    0.000    0.000 
#    0.000    0.000    0.000    0.000    0.000    0.000 
#
# Total GULP energy -66897.935431 kJ/mol
# GULP energy per Si atom -5574.827953 kJ/mol
# Density = 2.175978 g / cm^3
# Si number density = 21.809424 Si / 1000 Ang^3
#
#
#
# Elastic Constant Matrix: (Units=GPa)
#
#
# Indices 1 2 3 4 5 6 
#
# 1 24.9874 7.1274 -6.9968 4.6744 -0.4159 -14.5689
# 2 7.1274 82.9600 22.4369 4.2070 -1.7557 -25.7474
# 3 -6.9968 22.4369 108.3858 -1.1004 3.0034 -1.5488
# 4 4.6744 4.2070 -1.1004 40.3143 -1.7021 -5.6539
# 5 -0.4159 -1.7557 3.0034 -1.7021 26.2659 -1.4785
# 6 -14.5689 -25.7474 -1.5488 -5.6539 -1.4785 34.5129
#
#
#
# Elastic Compliance Matrix: (Units=1/GPa)
#
#
# Indices 1 2 3 4 5 6 
#
# 1 0.055366 0.002199 0.003391 -0.003008 0.001834 0.024750
# 2 0.002199 0.017002 -0.003249 -0.000121 0.002297 0.013545
# 3 0.003391 -0.003249 0.010148 0.000084 -0.001351 -0.000581
# 4 -0.003008 -0.000121 0.000084 0.025653 0.001761 0.002921
# 5 0.001834 0.002297 -0.001351 0.001761 0.038770 0.004377
# 6 0.024750 0.013545 -0.000581 0.002921 0.004377 0.050167
#
#
# Mechanical properties :
#
#
# Convention : Reuss Voigt Hill
#
# Bulk Modulus (GPa) = 11.46806 29.05202 20.26004
# Shear Modulus (GPa) = 22.57430 33.13633 27.85532
#
# Velocity S-wave (km/s) = 3.22074 3.90212 3.57769
# Velocity P-wave (km/s) = 4.37043 5.80102 5.13578
#
# Compressibility (1/GPa) = 0.08719868
#
# Stress axis : x y z
#
# Youngs Moduli (GPa) = 18.06155 58.81503 98.54356
#
# Poissons Ratio (x) = -0.12933 -0.33418
# Poissons Ratio (y) = -0.03972 0.32017
# Poissons Ratio (z) = -0.06125 0.19109
#
# Static dielectric constant tensor:
#      x y z
#    x 1.908310 -0.019280 -0.003620 
#    y -0.019280 1.804560 0.019220 
#    z -0.003620 0.019220 1.782890 
# 
# From -- ./inp_files/79482.got.cif
#   From: 2010.05.17/outbox.cif.g08.bks.cpg/sg2_40_cif.got.tgz:79482.got - 2010.06.03 11:33:40.
