data_PCOD9098865
_publ_section_title
;
Structure prediction by ZEFSAII (Michael W. Deem and Ramdas Pophale) SiO2 
 PCOD9098865
Probable space group: P -1
;
_chemical_formula_sum "Si O2"
_cell_formula_units_Z 14
_cell_length_a 9.961263
_cell_length_b 8.413579
_cell_length_c 15.078608
_cell_angle_alpha 44.000001
_cell_angle_beta 123.589736
_cell_angle_gamma 103.667146
_cell_volume 702.152608
_symmetry_space_group_name_H-M "P -1"
_symmetry_group_IT_number 2
_symmetry_cell_setting 'triclinic'
loop_
_space_group_symop_operation_xyz
x,y,z
-x,-y,-z
loop_
_atom_site_type_symbol
_atom_site_label
_atom_site_fract_x
_atom_site_fract_y
_atom_site_fract_z
Si Si1 0.456796 0.800145 0.499200
Si Si2 0.128386 0.135431 0.163240
Si Si3 0.234225 0.579793 0.622663
Si Si4 0.182856 0.868334 0.660551
Si Si5 0.227383 0.346864 0.444093
Si Si6 0.036819 0.583152 0.839675
Si Si7 0.993584 0.744747 0.319295
O O1 0.387050 0.617458 0.605842
O O2 0.608674 0.656901 0.550723
O O3 0.500000 0.000000 0.500000
O O4 0.307123 0.950518 0.321492
O O5 0.078797 0.292480 0.171035
O O6 0.993315 0.982720 0.171638
O O7 0.121057 0.313584 0.008350
O O8 0.258798 0.674570 0.690654
O O9 0.069438 0.753513 0.442258
O O10 0.174247 0.340265 0.704383
O O11 0.164905 0.732544 0.798311
O O12 0.266897 0.082444 0.606469
O O13 0.000000 0.000000 0.500000
O O14 0.081214 0.396786 0.296485
O O15 0.142118 0.536611 0.411193
#
# Coordination Sequence:
#
# PCOD9098865 Si02
#       7
#     2   2   2   2   2   2   2
#     4  11  19  35  58  82 108 142 184 226 266 319
#     4  10  22  36  54  81 115 142 179 224 277 320
#     4  10  19  31  53  82 107 138 182 229 262 312
#     4  10  16  31  53  80 102 138 189 219 253 316
#     4  11  20  32  60  83 108 141 183 226 267 320
#     4  10  20  36  56  82 106 147 187 222 261 325
#     4  10  20  33  54  84 111 138 182 227 271 316
#
# _framework density 19.938683999999999
#
# number of rings (size 3 to 8) (size 9 to 14) (size 15 to 20)
#    0.000    1.714    5.714    2.571    2.000    2.857 
#    0.000    0.714    0.000    0.857    0.000    0.000 
#    0.000    0.000    0.000    0.000    0.000    0.000 
#
# Total GULP energy -78007.389381 kJ/mol
# GULP energy per Si atom -5571.956384 kJ/mol
# Density = 1.989330 g / cm^3
# Si number density = 19.938684 Si / 1000 Ang^3
#
#
#
# Elastic Constant Matrix: (Units=GPa)
#
#
# Indices 1 2 3 4 5 6 
#
# 1 98.8684 12.1863 23.8236 -3.4298 -19.2549 4.8424
# 2 12.1863 61.7955 15.1963 -5.3333 -8.2699 4.2859
# 3 23.8236 15.1963 95.6465 -11.4766 -30.9111 8.4890
# 4 -3.4298 -5.3333 -11.4766 17.1829 4.9316 -11.0759
# 5 -19.2549 -8.2699 -30.9111 4.9316 28.9871 -6.6714
# 6 4.8424 4.2859 8.4890 -11.0759 -6.6714 28.7973
#
#
#
# Elastic Compliance Matrix: (Units=1/GPa)
#
#
# Indices 1 2 3 4 5 6 
#
# 1 0.011738 -0.001291 -0.000534 -0.000547 0.006898 -0.000236
# 2 -0.001291 0.017355 -0.001341 0.003569 0.002027 -0.000128
# 3 -0.000534 -0.001341 0.016792 0.007224 0.016381 0.001913
# 4 -0.000547 0.003569 0.007224 0.082727 0.001073 0.029498
# 5 0.006898 0.002027 0.016381 0.001073 0.058722 0.007726
# 6 -0.000236 -0.000128 0.001913 0.029498 0.007726 0.047356
#
#
# Mechanical properties :
#
#
# Convention : Reuss Voigt Hill
#
# Bulk Modulus (GPa) = 25.28245 39.85810 32.57027
# Shear Modulus (GPa) = 19.66899 28.66706 24.16802
#
# Velocity S-wave (km/s) = 3.14423 3.79590 3.48532
# Velocity P-wave (km/s) = 5.08814 6.26462 5.70678
#
# Compressibility (1/GPa) = 0.03955313
#
# Stress axis : x y z
#
# Youngs Moduli (GPa) = 85.19120 57.62030 59.55142
#
# Poissons Ratio (x) = 0.07440 0.03179
# Poissons Ratio (y) = 0.11000 0.07987
# Poissons Ratio (z) = 0.04548 0.07728
#
# Static dielectric constant tensor:
#      x y z
#    x 1.763780 0.022050 -0.043810 
#    y 0.022050 1.800230 -0.028310 
#    z -0.043810 -0.028310 1.697440 
# 
# From -- ./inp_files/207790.got.cif
#   From: 2010.05.17/outbox.cif.g08.bks.cpg/sg2_104_cif.got.tgz:207790.got - 2010.06.03 11:33:40.
