data_PCOD9098569
_publ_section_title
;
Structure prediction by ZEFSAII (Michael W. Deem and Ramdas Pophale) SiO2 
 PCOD9098569
Probable space group: P -1
;
_chemical_formula_sum "Si O2"
_cell_formula_units_Z 12
_cell_length_a 9.198990
_cell_length_b 11.180461
_cell_length_c 6.567324
_cell_angle_alpha 62.378036
_cell_angle_beta 59.231371
_cell_angle_gamma 95.793128
_cell_volume 460.722066
_symmetry_space_group_name_H-M "P -1"
_symmetry_group_IT_number 2
_symmetry_cell_setting 'triclinic'
loop_
_space_group_symop_operation_xyz
x,y,z
-x,-y,-z
loop_
_atom_site_type_symbol
_atom_site_label
_atom_site_fract_x
_atom_site_fract_y
_atom_site_fract_z
Si Si1 0.333072 0.947377 0.981906
Si Si2 0.704923 0.996489 0.500011
Si Si3 0.430484 0.340575 0.069046
Si Si4 0.832320 0.387299 0.561955
Si Si5 0.274700 0.422818 0.755065
Si Si6 0.097269 0.112317 0.027260
O O1 0.560963 0.005591 0.763852
O O2 0.305431 0.928350 0.766418
O O3 0.267781 0.073794 0.993297
O O4 0.192754 0.782066 0.295792
O O5 0.644945 0.819929 0.641084
O O6 0.924780 0.074243 0.335077
O O7 0.500000 0.500000 0.000000
O O8 0.626424 0.356456 0.820442
O O9 0.266944 0.339020 0.038226
O O10 0.822053 0.467492 0.293618
O O11 0.000000 0.500000 0.500000
O O12 0.500000 0.500000 0.500000
O O13 0.178498 0.286600 0.773455
O O14 0.000000 0.000000 0.000000
#
# Coordination Sequence:
#
# PCOD9098569 Si02
#       6
#     2   2   2   2   2   2
#     4   9  19  34  61  94 121 165 209 268 319 375
#     4   9  19  36  60  92 126 158 223 261 311 391
#     4  10  23  39  65  89 128 178 207 267 331 374
#     4  10  20  38  64  92 131 164 213 269 321 389
#     4  10  23  41  65  97 130 168 221 260 321 405
#     4  10  20  36  69  90 122 177 210 260 329 380
#
# _framework density 26.046071999999999
#
# number of rings (size 3 to 8) (size 9 to 14) (size 15 to 20)
#    0.000    2.333    0.000    2.000   11.667    0.667 
#    0.000    8.333    7.333    0.000    0.000    0.000 
#    0.000    0.000    0.000    0.000    0.000    0.000 
#
# Total GULP energy -67004.966556 kJ/mol
# GULP energy per Si atom -5583.747213 kJ/mol
# Density = 2.598679 g / cm^3
# Si number density = 26.046072 Si / 1000 Ang^3
#
#
#
# Elastic Constant Matrix: (Units=GPa)
#
#
# Indices 1 2 3 4 5 6 
#
# 1 125.8723 -15.5707 46.9839 -14.2190 -0.5208 -11.6294
# 2 -15.5707 75.5177 53.3298 -14.2405 -7.5972 -14.7540
# 3 46.9839 53.3298 127.6033 -28.9728 -23.0850 -20.5221
# 4 -14.2190 -14.2405 -28.9728 54.0630 -13.5377 -13.2293
# 5 -0.5208 -7.5972 -23.0850 -13.5377 52.7051 -11.2742
# 6 -11.6294 -14.7540 -20.5221 -13.2293 -11.2742 40.3269
#
#
#
# Elastic Compliance Matrix: (Units=1/GPa)
#
#
# Indices 1 2 3 4 5 6 
#
# 1 0.012297 0.008742 -0.006819 0.002939 0.000060 0.004256
# 2 0.008742 0.025852 -0.010371 0.006713 0.003084 0.009766
# 3 -0.006819 -0.010371 0.024356 0.016963 0.017095 0.016978
# 4 0.002939 0.006713 0.016963 0.045464 0.027492 0.034536
# 5 0.000060 0.003084 0.017095 0.027492 0.040420 0.030164
# 6 0.004256 0.009766 0.016978 0.034536 0.030164 0.058000
#
#
# Mechanical properties :
#
#
# Convention : Reuss Voigt Hill
#
# Bulk Modulus (GPa) = 21.92428 55.38661 38.65545
# Shear Modulus (GPa) = 20.96546 45.70237 33.33391
#
# Velocity S-wave (km/s) = 2.84022 4.19343 3.58132
# Velocity P-wave (km/s) = 4.38082 6.69010 5.65460
#
# Compressibility (1/GPa) = 0.04561153
#
# Stress axis : x y z
#
# Youngs Moduli (GPa) = 81.32269 38.68101 41.05708
#
# Poissons Ratio (x) = -0.33817 0.27996
# Poissons Ratio (y) = -0.71096 0.42579
# Poissons Ratio (z) = 0.55452 0.40115
#
# Static dielectric constant tensor:
#      x y z
#    x 2.371680 0.093440 0.104990 
#    y 0.093440 2.127600 0.029940 
#    z 0.104990 0.029940 2.180870 
# 
# From -- ./inp_files/155811.got.cif
#   From: 2010.05.17/outbox.cif.g08.bks.cpg/sg2_78_cif.got.tgz:155811.got - 2010.06.03 11:33:40.
