data_PCOD9098327
_publ_section_title
;
Structure prediction by ZEFSAII (Michael W. Deem and Ramdas Pophale) SiO2 
 PCOD9098327
Probable space group: P -1
;
_chemical_formula_sum "Si O2"
_cell_formula_units_Z 13
_cell_length_a 4.874657
_cell_length_b 13.284286
_cell_length_c 16.414331
_cell_angle_alpha 35.092812
_cell_angle_beta 105.474975
_cell_angle_gamma 98.824999
_cell_volume 584.874781
_symmetry_space_group_name_H-M "P -1"
_symmetry_group_IT_number 2
_symmetry_cell_setting 'triclinic'
loop_
_space_group_symop_operation_xyz
x,y,z
-x,-y,-z
loop_
_atom_site_type_symbol
_atom_site_label
_atom_site_fract_x
_atom_site_fract_y
_atom_site_fract_z
Si Si1 0.590053 0.381018 0.267416
Si Si2 0.875481 0.059999 0.148820
Si Si3 0.500000 0.500000 0.000000
Si Si4 0.357398 0.670267 0.179754
Si Si5 0.170821 0.151718 0.448121
Si Si6 0.937148 0.826779 0.160217
Si Si7 0.530951 0.908743 0.762062
O O1 0.547402 0.497062 0.105694
O O2 0.486454 0.490354 0.267204
O O3 0.919515 0.302981 0.352908
O O4 0.377518 0.229661 0.347779
O O5 0.583956 0.060712 0.175252
O O6 0.129200 0.086097 0.213934
O O7 0.837491 0.224878 0.974829
O O8 0.948985 0.885555 0.215816
O O9 0.539803 0.282154 0.146693
O O10 0.166625 0.673415 0.243810
O O11 0.621874 0.779838 0.146698
O O12 0.369774 0.064331 0.592949
O O13 0.000000 0.000000 0.500000
O O14 0.000000 0.000000 0.000000
#
# Coordination Sequence:
#
# PCOD9098327 Si02
#       7
#     2   2   1   2   2   2   2
#     4  12  27  45  71  99 140 177 228 276 340 399
#     4  11  22  39  66 100 133 169 223 279 333 393
#     4  12  28  42  72 104 136 172 224 298 328 378
#     4  11  21  39  66 101 133 171 219 283 340 394
#     4  12  27  48  66  93 141 195 222 264 337 417
#     4  10  20  36  64  98 139 167 212 282 352 390
#     4  12  26  42  68  98 138 177 222 273 336 395
#
# _framework density 22.226980000000001
#
# number of rings (size 3 to 8) (size 9 to 14) (size 15 to 20)
#    0.000    0.615    3.077    6.923    4.308    1.231 
#    0.000    0.000    0.000   18.462    0.000    0.000 
#    0.000    0.000    0.000    0.000    0.000    0.000 
#
# Total GULP energy -72474.121270 kJ/mol
# GULP energy per Si atom -5574.932405 kJ/mol
# Density = 2.217639 g / cm^3
# Si number density = 22.226980 Si / 1000 Ang^3
#
#
#
# Elastic Constant Matrix: (Units=GPa)
#
#
# Indices 1 2 3 4 5 6 
#
# 1 91.2854 13.9483 32.7855 -4.3651 19.6480 3.9886
# 2 13.9483 79.8836 12.2602 -13.2187 9.0395 -21.0310
# 3 32.7855 12.2602 95.7998 -4.0915 5.7227 -10.5882
# 4 -4.3651 -13.2187 -4.0915 15.9940 -2.5643 11.6503
# 5 19.6480 9.0395 5.7227 -2.5643 26.0079 0.5365
# 6 3.9886 -21.0310 -10.5882 11.6503 0.5365 34.0914
#
#
#
# Elastic Compliance Matrix: (Units=1/GPa)
#
#
# Indices 1 2 3 4 5 6 
#
# 1 0.015484 -0.001665 -0.004966 0.004179 -0.009497 -0.005660
# 2 -0.001665 0.016515 -0.000123 0.006584 -0.003974 0.008157
# 3 -0.004966 -0.000123 0.012587 -0.001763 0.000748 0.005005
# 4 0.004179 0.006584 -0.001763 0.089466 0.004333 -0.027617
# 5 -0.009497 -0.003974 0.000748 0.004333 0.047337 -0.003334
# 6 -0.005660 0.008157 0.005005 -0.027617 -0.003334 0.046072
#
#
# Mechanical properties :
#
#
# Convention : Reuss Voigt Hill
#
# Bulk Modulus (GPa) = 32.17878 42.77298 37.47588
# Shear Modulus (GPa) = 19.89429 29.08362 24.48896
#
# Velocity S-wave (km/s) = 2.99499 3.62122 3.32289
# Velocity P-wave (km/s) = 5.14478 6.06381 5.62310
#
# Compressibility (1/GPa) = 0.03107638
#
# Stress axis : x y z
#
# Youngs Moduli (GPa) = 64.58344 60.55260 79.44818
#
# Poissons Ratio (x) = 0.10084 0.39451
# Poissons Ratio (y) = 0.10755 0.00981
# Poissons Ratio (z) = 0.32070 0.00748
#
# Static dielectric constant tensor:
#      x y z
#    x 1.821550 -0.021420 0.003970 
#    y -0.021420 1.869000 -0.041960 
#    z 0.003970 -0.041960 1.804880 
# 
# From -- ./inp_files/548820.got.cif
#   From: 2010.05.17/outbox.cif.g08.bks.cpg/sg2_275_cif.got.tgz:548820.got - 2010.06.03 11:33:40.
