data_PCOD9098032
_publ_section_title
;
Structure prediction by ZEFSAII (Michael W. Deem and Ramdas Pophale) SiO2 
 PCOD9098032
Probable space group: P -1
;
_chemical_formula_sum "Si O2"
_cell_formula_units_Z 16
_cell_length_a 9.404920
_cell_length_b 12.046660
_cell_length_c 25.723112
_cell_angle_alpha 30.527189
_cell_angle_beta 135.731008
_cell_angle_gamma 144.316423
_cell_volume 862.174466
_symmetry_space_group_name_H-M "P -1"
_symmetry_group_IT_number 2
_symmetry_cell_setting 'triclinic'
loop_
_space_group_symop_operation_xyz
x,y,z
-x,-y,-z
loop_
_atom_site_type_symbol
_atom_site_label
_atom_site_fract_x
_atom_site_fract_y
_atom_site_fract_z
Si Si1 0.728156 0.731264 0.540177
Si Si2 0.510145 0.748397 0.118246
Si Si3 0.258718 0.689715 0.795796
Si Si4 0.385907 0.746682 0.369828
Si Si5 0.067468 0.958807 0.166655
Si Si6 0.313911 0.599184 0.242597
Si Si7 0.415317 0.118255 0.101877
Si Si8 0.435726 0.473170 0.110706
O O1 0.501192 0.746457 0.455327
O O2 0.711980 0.517790 0.581502
O O3 0.678609 0.604978 0.635288
O O4 0.000000 0.000000 0.500000
O O5 0.422117 0.648248 0.193655
O O6 0.366608 0.524947 0.127493
O O7 0.783653 0.822283 0.152285
O O8 0.500000 0.000000 0.000000
O O9 0.377990 0.678284 0.885502
O O10 0.373847 0.615862 0.808767
O O11 0.972126 0.513067 0.792183
O O12 0.374528 0.999188 0.695950
O O13 0.180433 0.812920 0.284255
O O14 0.166106 0.001391 0.116242
O O15 0.198209 0.243279 0.112226
O O16 0.439441 0.878193 0.191555
O O17 0.438720 0.263403 0.996580
#
# Coordination Sequence:
#
# PCOD9098032 Si02
#       8
#     2   2   2   2   2   2   2   2
#     4  11  20  37  66  96 117 145 196 261 309 344
#     4  12  27  38  54  88 133 168 196 232 303 368
#     4  10  20  36  63  89 115 151 206 252 294 346
#     4   9  20  38  64  95 112 145 202 258 302 345
#     4  10  22  41  61  86 120 162 201 253 293 354
#     4  12  23  37  57  92 125 155 194 249 300 356
#     4  10  20  37  61  86 116 155 212 251 287 345
#     4  10  22  38  60  84 118 168 205 241 295 353
#
# _framework density 18.557728999999998
#
# number of rings (size 3 to 8) (size 9 to 14) (size 15 to 20)
#    0.000    1.750    5.000    2.250    3.500    2.500 
#    0.000    0.625    0.000    5.250    0.000    0.000 
#    0.000    0.000    0.000    0.000    0.000    0.000 
#
# Total GULP energy -89205.848373 kJ/mol
# GULP energy per Si atom -5575.365523 kJ/mol
# Density = 1.851549 g / cm^3
# Si number density = 18.557729 Si / 1000 Ang^3
#
#
#
# Elastic Constant Matrix: (Units=GPa)
#
#
# Indices 1 2 3 4 5 6 
#
# 1 44.3680 6.5653 22.0164 5.4416 -13.3184 -33.0584
# 2 6.5653 44.6686 25.3813 0.6063 1.1720 -20.1753
# 3 22.0164 25.3813 99.4562 -1.3272 -13.1128 -7.7120
# 4 5.4416 0.6063 -1.3272 23.3885 -5.7098 7.9428
# 5 -13.3184 1.1720 -13.1128 -5.7098 26.3925 10.2828
# 6 -33.0584 -20.1753 -7.7120 7.9428 10.2828 29.5572
#
#
#
# Elastic Compliance Matrix: (Units=1/GPa)
#
#
# Indices 1 2 3 4 5 6 
#
# 1 -0.020986 -0.033666 0.012689 0.034876 0.029168 -0.062660
# 2 -0.033666 0.006985 0.003523 0.022489 0.004773 -0.039671
# 3 0.012689 0.003523 0.007827 -0.009979 -0.000382 0.021454
# 4 0.034876 0.022489 -0.009979 0.015946 -0.003935 0.048838
# 5 0.029168 0.004773 -0.000382 -0.003935 0.042804 0.021947
# 6 -0.062660 -0.039671 0.021454 0.048838 0.021947 -0.078490
#
#
# Mechanical properties :
#
#
# Convention : Reuss Voigt Hill
#
# Bulk Modulus (GPa) = -24.34221 32.93543 4.29661
# Shear Modulus (GPa) = -1063.58709 24.83628 -519.37540
#
# Velocity S-wave (km/s) = -23.96597 3.66228 -16.74747
# Velocity P-wave (km/s) = 27.91002 5.97237 19.27823
#
# Compressibility (1/GPa) = -0.04108090
#
# Stress axis : x y z
#
# Youngs Moduli (GPa) = -47.65135 143.16964 127.77043
#
# Poissons Ratio (x) = 4.81994 -1.62133
# Poissons Ratio (y) = -1.60423 -0.45018
# Poissons Ratio (z) = 0.60467 -0.50444
#
# Static dielectric constant tensor:
#      x y z
#    x 1.619990 -0.016940 0.016270 
#    y -0.016940 1.671280 0.023860 
#    z 0.016270 0.023860 1.710560 
# 
# From -- ./inp_files/273248.got.cif
#   From: 2010.05.17/outbox.cif.g08.bks.cpg/sg2_137_cif.got.tgz:273248.got - 2010.06.03 11:33:40.
