data_PCOD9098101
_publ_section_title
;
Structure prediction by ZEFSAII (Michael W. Deem and Ramdas Pophale) SiO2 
 PCOD9098101
Probable space group: P -1
;
_chemical_formula_sum "Si O2"
_cell_formula_units_Z 16
_cell_length_a 9.495191
_cell_length_b 8.565468
_cell_length_c 14.665052
_cell_angle_alpha 129.945771
_cell_angle_beta 78.760173
_cell_angle_gamma 119.217631
_cell_volume 785.450454
_symmetry_space_group_name_H-M "P -1"
_symmetry_group_IT_number 2
_symmetry_cell_setting 'triclinic'
loop_
_space_group_symop_operation_xyz
x,y,z
-x,-y,-z
loop_
_atom_site_type_symbol
_atom_site_label
_atom_site_fract_x
_atom_site_fract_y
_atom_site_fract_z
Si Si1 0.473638 0.754869 0.794483
Si Si2 0.325956 0.313011 0.879881
Si Si3 0.552047 0.789240 0.996667
Si Si4 0.554635 0.256329 0.688945
Si Si5 0.425486 0.179852 0.397414
Si Si6 0.259906 0.223145 0.594417
Si Si7 0.079533 0.887865 0.631844
Si Si8 0.240363 0.556474 0.441762
O O1 0.568253 0.800482 0.704411
O O2 0.320075 0.493228 0.710421
O O3 0.427223 0.958152 0.889885
O O4 0.575521 0.771657 0.879130
O O5 0.335972 0.248389 0.958037
O O6 0.485913 0.337253 0.813454
O O7 0.174789 0.099057 0.770462
O O8 0.365569 0.579608 0.962909
O O9 0.400916 0.179261 0.609788
O O10 0.703243 0.406143 0.657386
O O11 0.583388 0.058221 0.655961
O O12 0.283687 0.197738 0.476258
O O13 0.599960 0.373024 0.489428
O O14 0.097621 0.029807 0.589866
O O15 0.171886 0.733381 0.545888
O O16 0.902412 0.701556 0.618568
#
# Coordination Sequence:
#
# PCOD9098101 Si02
#       8
#     2   2   2   2   2   2   2   2
#     4  11  20  30  48  82 104 127 167 211 250 297
#     4  10  18  34  54  74  96 129 173 218 242 282
#     4  10  20  31  52  78  96 131 173 216 248 277
#     4  10  16  31  50  75 100 127 168 208 242 290
#     4  11  18  32  50  79 106 131 160 206 253 300
#     4  10  18  32  50  75 106 130 161 210 249 295
#     4  10  17  30  49  79 102 127 169 207 248 300
#     4  10  18  28  52  76 103 135 160 204 256 299
#
# _framework density 20.370476
#
# number of rings (size 3 to 8) (size 9 to 14) (size 15 to 20)
#    0.000    1.750    7.500    1.125    0.000    0.000 
#    0.000    0.625    0.000    3.000    0.000    5.250 
#    0.000    0.000    0.000    0.000    0.000    0.000 
#
# Total GULP energy -89141.080424 kJ/mol
# GULP energy per Si atom -5571.317526 kJ/mol
# Density = 2.032411 g / cm^3
# Si number density = 20.370476 Si / 1000 Ang^3
#
#
#
# Elastic Constant Matrix: (Units=GPa)
#
#
# Indices 1 2 3 4 5 6 
#
# 1 39.9385 41.9546 22.3588 -2.9889 8.7736 6.1199
# 2 41.9546 197.0125 62.7114 -1.9737 13.2839 6.1350
# 3 22.3588 62.7114 87.0976 -10.6891 10.1602 -1.3442
# 4 -2.9889 -1.9737 -10.6891 49.2732 -10.8432 7.3732
# 5 8.7736 13.2839 10.1602 -10.8432 20.0565 -0.5120
# 6 6.1199 6.1350 -1.3442 7.3732 -0.5120 37.3223
#
#
#
# Elastic Compliance Matrix: (Units=1/GPa)
#
#
# Indices 1 2 3 4 5 6 
#
# 1 0.036273 -0.005503 -0.004269 -0.000459 -0.010442 -0.005250
# 2 -0.005503 0.007625 -0.004082 -0.001133 -0.001196 -0.000291
# 3 -0.004269 -0.004082 0.016092 0.002351 -0.002273 0.001455
# 4 -0.000459 -0.001133 0.002351 0.024167 0.012717 -0.004254
# 5 -0.010442 -0.001196 -0.002273 0.012717 0.063251 0.000182
# 6 -0.005250 -0.000291 0.001455 -0.004254 0.000182 0.028597
#
#
# Mechanical properties :
#
#
# Convention : Reuss Voigt Hill
#
# Bulk Modulus (GPa) = 30.97530 64.23315 47.60422
# Shear Modulus (GPa) = 23.31294 34.46531 28.88913
#
# Velocity S-wave (km/s) = 3.38664 4.11776 3.76997
# Velocity P-wave (km/s) = 5.52552 7.36267 6.50924
#
# Compressibility (1/GPa) = 0.03228378
#
# Stress axis : x y z
#
# Youngs Moduli (GPa) = 27.56891 131.14352 62.14163
#
# Poissons Ratio (x) = 0.72164 0.26527
# Poissons Ratio (y) = 0.15170 0.25365
# Poissons Ratio (z) = 0.11769 0.53530
#
# Static dielectric constant tensor:
#      x y z
#    x 1.742140 -0.029090 -0.016450 
#    y -0.029090 1.798850 0.026620 
#    z -0.016450 0.026620 1.797780 
# 
# From -- ./inp_files/234246.got.cif
#   From: 2010.05.17/outbox.cif.g08.bks.cpg/sg2_118_cif.got.tgz:234246.got - 2010.06.03 11:33:40.
