data_PCOD9098787
_publ_section_title
;
Structure prediction by ZEFSAII (Michael W. Deem and Ramdas Pophale) SiO2 
 PCOD9098787
Probable space group: P -1
;
_chemical_formula_sum "Si O2"
_cell_formula_units_Z 16
_cell_length_a 13.011504
_cell_length_b 9.229098
_cell_length_c 22.129647
_cell_angle_alpha 142.549097
_cell_angle_beta 149.677432
_cell_angle_gamma 28.060992
_cell_volume 625.317378
_symmetry_space_group_name_H-M "P -1"
_symmetry_group_IT_number 2
_symmetry_cell_setting 'triclinic'
loop_
_space_group_symop_operation_xyz
x,y,z
-x,-y,-z
loop_
_atom_site_type_symbol
_atom_site_label
_atom_site_fract_x
_atom_site_fract_y
_atom_site_fract_z
Si Si1 0.266023 0.934373 0.572078
Si Si2 0.747142 0.133786 0.307419
Si Si3 0.509486 0.754266 0.515155
Si Si4 0.666752 0.011600 0.036058
Si Si5 0.182998 0.417692 0.146919
Si Si6 0.949484 0.296538 0.367030
Si Si7 0.861856 0.502329 0.123346
Si Si8 0.060975 0.556636 0.721395
O O1 0.021015 0.920044 0.553238
O O2 0.437575 0.909604 0.596210
O O3 0.395070 0.584610 0.535969
O O4 0.216521 0.186934 0.676182
O O5 0.465730 0.333951 0.263045
O O6 0.736173 0.304944 0.298972
O O7 0.838604 0.804017 0.224281
O O8 0.755357 0.720924 0.606329
O O9 0.242684 0.963200 0.410906
O O10 0.759321 0.802697 0.952907
O O11 0.427113 0.359486 0.003548
O O12 0.957212 0.784836 0.139971
O O13 0.500000 0.000000 0.000000
O O14 0.085670 0.337632 0.129507
O O15 0.000000 0.500000 0.500000
O O16 0.857000 0.379058 0.277942
O O17 0.915436 0.358148 0.170421
#
# Coordination Sequence:
#
# PCOD9098787 Si02
#       8
#     2   2   2   2   2   2   2   2
#     4  10  21  37  56  83 116 162 215 263 294 349
#     4  10  20  37  57  85 117 161 214 252 295 358
#     4  10  21  36  57  76 108 165 216 254 305 341
#     4   8  16  35  61  92 121 144 186 252 312 364
#     4   9  18  35  61  90 122 151 189 253 310 367
#     4  11  23  43  56  79 123 175 214 260 299 346
#     4  10  21  34  57  95 119 154 201 249 305 366
#     4  12  22  38  58  84 123 165 208 260 299 354
#
# _framework density 25.587008000000001
#
# number of rings (size 3 to 8) (size 9 to 14) (size 15 to 20)
#    0.000    2.000    3.750    0.750    0.000    4.000 
#    2.250    0.000    0.000    0.750    0.000   29.750 
#    0.000    0.000    0.000    0.000    0.000    0.000 
#
# Total GULP energy -89266.614327 kJ/mol
# GULP energy per Si atom -5579.163395 kJ/mol
# Density = 2.552877 g / cm^3
# Si number density = 25.587008 Si / 1000 Ang^3
#
#
#
# Elastic Constant Matrix: (Units=GPa)
#
#
# Indices 1 2 3 4 5 6 
#
# 1 137.9496 40.0696 48.4835 -18.4724 -34.3981 -26.3114
# 2 40.0696 77.1735 20.6226 -26.7503 1.7671 -26.4086
# 3 48.4835 20.6226 89.1651 -33.2233 -26.7636 -10.4179
# 4 -18.4724 -26.7503 -33.2233 41.9081 -8.1662 -5.5617
# 5 -34.3981 1.7671 -26.7636 -8.1662 45.2707 -3.7217
# 6 -26.3114 -26.4086 -10.4179 -5.5617 -3.7217 41.6960
#
#
#
# Elastic Compliance Matrix: (Units=1/GPa)
#
#
# Indices 1 2 3 4 5 6 
#
# 1 0.015313 0.003053 0.007129 0.020829 0.020970 0.018028
# 2 0.003053 0.037596 0.023137 0.054574 0.027768 0.041277
# 3 0.007129 0.023137 0.050451 0.074079 0.051504 0.046236
# 4 0.020829 0.054574 0.074079 0.157566 0.093773 0.095605
# 5 0.020970 0.027768 0.051504 0.093773 0.089580 0.064192
# 6 0.018028 0.041277 0.046236 0.095605 0.064192 0.091537
#
#
# Mechanical properties :
#
#
# Convention : Reuss Voigt Hill
#
# Bulk Modulus (GPa) = 5.88243 58.07107 31.97675
# Shear Modulus (GPa) = 11.57216 38.78248 25.17732
#
# Velocity S-wave (km/s) = 2.12896 3.89744 3.14026
# Velocity P-wave (km/s) = 2.88917 6.55730 5.06683
#
# Compressibility (1/GPa) = 0.16999791
#
# Stress axis : x y z
#
# Youngs Moduli (GPa) = 65.30218 26.59861 19.82125
#
# Poissons Ratio (x) = -0.08120 -0.14131
# Poissons Ratio (y) = -0.19936 -0.45860
# Poissons Ratio (z) = -0.46554 -0.61541
#
# Static dielectric constant tensor:
#      x y z
#    x 2.172840 0.051490 -0.049980 
#    y 0.051490 2.026930 0.002560 
#    z -0.049980 0.002560 2.143440 
# 
# From -- ./inp_files/469096.got.cif
#   From: 2010.05.17/outbox.cif.g08.bks.cpg/sg2_235_cif.got.tgz:469096.got - 2010.06.03 11:33:40.
