data_PCOD9098158
_publ_section_title
;
Structure prediction by ZEFSAII (Michael W. Deem and Ramdas Pophale) SiO2 
 PCOD9098158
Probable space group: P -1
;
_chemical_formula_sum "Si O2"
_cell_formula_units_Z 16
_cell_length_a 10.743445
_cell_length_b 18.740965
_cell_length_c 8.083801
_cell_angle_alpha 134.944365
_cell_angle_beta 43.718270
_cell_angle_gamma 142.203407
_cell_volume 653.259162
_symmetry_space_group_name_H-M "P -1"
_symmetry_group_IT_number 2
_symmetry_cell_setting 'triclinic'
loop_
_space_group_symop_operation_xyz
x,y,z
-x,-y,-z
loop_
_atom_site_type_symbol
_atom_site_label
_atom_site_fract_x
_atom_site_fract_y
_atom_site_fract_z
Si Si1 0.140635 0.604050 0.666440
Si Si2 0.442816 0.406269 0.751082
Si Si3 0.583839 0.140156 0.134749
Si Si4 0.208265 0.469497 0.832901
Si Si5 0.503320 0.244959 0.922917
Si Si6 0.756643 0.835299 0.308841
Si Si7 0.937410 0.927155 0.770760
Si Si8 0.159754 0.780732 0.328895
O O1 0.353487 0.602655 0.490845
O O2 0.224161 0.740734 0.750731
O O3 0.000000 0.500000 0.500000
O O4 0.980863 0.564123 0.908567
O O5 0.375835 0.445599 0.718371
O O6 0.238411 0.271553 0.784612
O O7 0.500000 0.500000 0.000000
O O8 0.377150 0.137764 0.392616
O O9 0.695634 0.188345 0.926428
O O10 0.500000 0.000000 0.000000
O O11 0.656781 0.384414 0.069969
O O12 0.058415 0.359078 0.667279
O O13 0.317976 0.173899 0.124939
O O14 0.382704 0.224483 0.827994
O O15 0.659238 0.196758 0.675470
O O16 0.977914 0.965071 0.266520
O O17 0.071356 0.865766 0.538484
O O18 0.000000 0.000000 0.000000
#
# Coordination Sequence:
#
# PCOD9098158 Si02
#       8
#     2   2   2   2   2   2   2   2
#     4  10  20  36  64 101 132 169 228 277 338 411
#     4  11  20  39  68 101 136 173 221 288 346 392
#     4  10  20  41  68  96 139 174 221 289 344 399
#     4  11  23  42  67  99 137 174 228 284 339 406
#     4  11  24  45  69 100 139 183 228 276 336 422
#     4  10  21  43  71 102 137 174 236 281 337 417
#     4  10  24  45  65  98 137 181 229 271 334 418
#     4  11  25  44  69 101 138 179 226 279 356 400
#
# _framework density 24.492576
#
# number of rings (size 3 to 8) (size 9 to 14) (size 15 to 20)
#    0.000    1.500    3.750    1.125    0.000    6.500 
#    4.500    1.250    0.000    0.000    0.000    0.000 
#    0.000    0.000    0.000    0.000    0.000    0.000 
#
# Total GULP energy -89375.927929 kJ/mol
# GULP energy per Si atom -5585.995496 kJ/mol
# Density = 2.443683 g / cm^3
# Si number density = 24.492576 Si / 1000 Ang^3
#
#
#
# Elastic Constant Matrix: (Units=GPa)
#
#
# Indices 1 2 3 4 5 6 
#
# 1 68.4028 17.4793 -0.8858 -0.7947 -10.9487 7.1116
# 2 17.4793 230.2959 38.0936 10.0720 -9.6055 2.0901
# 3 -0.8858 38.0936 86.5051 -1.8246 -6.5869 2.4940
# 4 -0.7947 10.0720 -1.8246 40.6713 0.1978 -12.2632
# 5 -10.9487 -9.6055 -6.5869 0.1978 37.5305 -3.0463
# 6 7.1116 2.0901 2.4940 -12.2632 -3.0463 13.2092
#
#
#
# Elastic Compliance Matrix: (Units=1/GPa)
#
#
# Indices 1 2 3 4 5 6 
#
# 1 0.016597 -0.001089 0.001197 -0.002511 0.003941 -0.010411
# 2 -0.001089 0.004882 -0.002125 -0.001709 0.000465 -0.001264
# 3 0.001197 -0.002125 0.012714 0.000591 0.001894 -0.001723
# 4 -0.002511 -0.001709 0.000591 0.035476 0.001572 0.034808
# 5 0.003941 0.000465 0.001894 0.001572 0.028686 0.005522
# 6 -0.010411 -0.001264 -0.001723 0.034808 0.005522 0.115424
#
#
# Mechanical properties :
#
#
# Convention : Reuss Voigt Hill
#
# Bulk Modulus (GPa) = 33.15765 54.95311 44.05538
# Shear Modulus (GPa) = 21.94263 40.31666 31.12964
#
# Velocity S-wave (km/s) = 2.99639 4.06159 3.56895
# Velocity P-wave (km/s) = 5.05355 6.66938 5.91688
#
# Compressibility (1/GPa) = 0.03015896
#
# Stress axis : x y z
#
# Youngs Moduli (GPa) = 60.25128 204.83185 78.65058
#
# Poissons Ratio (x) = 0.22306 -0.09413
# Poissons Ratio (y) = 0.06561 0.16715
# Poissons Ratio (z) = -0.07211 0.43531
#
# Static dielectric constant tensor:
#      x y z
#    x 2.858070 -0.208660 -0.164900 
#    y -0.208660 2.044500 0.057000 
#    z -0.164900 0.057000 1.956340 
# 
# From -- ./inp_files/283316.got.cif
#   From: 2010.05.17/outbox.cif.g08.bks.cpg/sg2_142_cif.got.tgz:283316.got - 2010.06.03 11:33:40.
