data_PCOD9098122
_publ_section_title
;
Structure prediction by ZEFSAII (Michael W. Deem and Ramdas Pophale) SiO2 
 PCOD9098122
Probable space group: P -1
;
_chemical_formula_sum "Si O2"
_cell_formula_units_Z 16
_cell_length_a 8.847497
_cell_length_b 15.494298
_cell_length_c 14.703040
_cell_angle_alpha 140.328146
_cell_angle_beta 142.267460
_cell_angle_gamma 56.412612
_cell_volume 779.446865
_symmetry_space_group_name_H-M "P -1"
_symmetry_group_IT_number 2
_symmetry_cell_setting 'triclinic'
loop_
_space_group_symop_operation_xyz
x,y,z
-x,-y,-z
loop_
_atom_site_type_symbol
_atom_site_label
_atom_site_fract_x
_atom_site_fract_y
_atom_site_fract_z
Si Si1 0.748939 0.820560 0.419376
Si Si2 0.974612 0.632307 0.658437
Si Si3 0.713511 0.507128 0.976066
Si Si4 0.394852 0.874703 0.121608
Si Si5 0.818074 0.509372 0.224412
Si Si6 0.109516 0.717569 0.249397
Si Si7 0.870217 0.959863 0.307774
Si Si8 0.361441 0.154153 0.403488
O O1 0.559093 0.835395 0.256211
O O2 0.827131 0.670367 0.345136
O O3 0.633915 0.849857 0.487157
O O4 0.001983 0.923627 0.603535
O O5 0.942720 0.548889 0.670649
O O6 0.000000 0.500000 0.500000
O O7 0.781517 0.722441 0.596571
O O8 0.202239 0.750643 0.890063
O O9 0.752908 0.446127 0.043971
O O10 0.907106 0.644000 0.163506
O O11 0.425528 0.527041 0.856178
O O12 0.782800 0.400848 0.849799
O O13 0.582343 0.926324 0.169950
O O14 0.265145 0.003051 0.198398
O O15 0.359655 0.810395 0.475796
O O16 0.961832 0.818894 0.205224
O O17 0.000000 0.000000 0.500000
#
# Coordination Sequence:
#
# PCOD9098122 Si02
#       8
#     2   2   2   2   2   2   2   2
#     4  11  21  38  70  98 125 158 218 269 318 374
#     4  12  25  44  63  89 136 177 213 256 318 393
#     4  10  21  35  64  96 124 161 213 275 301 384
#     4  11  24  42  70  95 124 167 219 265 325 370
#     4  11  21  39  64  92 124 170 219 253 318 367
#     4  11  20  37  59  96 133 155 207 264 336 359
#     4  10  20  36  63  96 122 159 201 277 318 368
#     4  12  24  40  63 100 130 168 208 265 321 388
#
# _framework density 20.527377999999999
#
# number of rings (size 3 to 8) (size 9 to 14) (size 15 to 20)
#    0.000    1.000    5.000    4.500    0.000    1.000 
#    0.000    1.250    0.000    0.000    0.000    0.000 
#    0.000    0.000    0.000    0.000    0.000    0.000 
#
# Total GULP energy -89103.749293 kJ/mol
# GULP energy per Si atom -5568.984331 kJ/mol
# Density = 2.048066 g / cm^3
# Si number density = 20.527378 Si / 1000 Ang^3
#
#
#
# Elastic Constant Matrix: (Units=GPa)
#
#
# Indices 1 2 3 4 5 6 
#
# 1 74.0495 48.4835 37.2676 9.7931 19.5577 1.0375
# 2 48.4835 120.1084 35.3881 9.0366 1.1887 -4.4206
# 3 37.2676 35.3881 93.4275 16.2998 0.4219 1.4399
# 4 9.7931 9.0366 16.2998 32.3842 6.2849 -2.8789
# 5 19.5577 1.1887 0.4219 6.2849 22.3230 13.3760
# 6 1.0375 -4.4206 1.4399 -2.8789 13.3760 23.1087
#
#
#
# Elastic Compliance Matrix: (Units=1/GPa)
#
#
# Indices 1 2 3 4 5 6 
#
# 1 0.042063 -0.011807 -0.014673 0.012230 -0.058739 0.032291
# 2 -0.011807 0.012875 0.000457 -0.003448 0.013935 -0.005531
# 3 -0.014673 0.000457 0.018533 -0.011506 0.025758 -0.016751
# 4 0.012230 -0.003448 -0.011506 0.044042 -0.039357 0.027776
# 5 -0.058739 0.013935 0.025758 -0.039357 0.163563 -0.095881
# 6 0.032291 -0.005531 -0.016751 0.027776 -0.095881 0.100769
#
#
# Mechanical properties :
#
#
# Convention : Reuss Voigt Hill
#
# Bulk Modulus (GPa) = 46.67292 58.87374 52.77333
# Shear Modulus (GPa) = 11.33701 26.65959 18.99830
#
# Velocity S-wave (km/s) = 2.35263 3.60770 3.04552
# Velocity P-wave (km/s) = 5.49237 6.78947 6.17507
#
# Compressibility (1/GPa) = 0.02142570
#
# Stress axis : x y z
#
# Youngs Moduli (GPa) = 23.77362 77.66890 53.95875
#
# Poissons Ratio (x) = 0.91702 0.79173
# Poissons Ratio (y) = 0.28069 -0.02465
# Poissons Ratio (z) = 0.34883 -0.03548
#
# Static dielectric constant tensor:
#      x y z
#    x 1.744680 0.006540 -0.011350 
#    y 0.006540 1.795890 0.015930 
#    z -0.011350 0.015930 1.848070 
# 
# From -- ./inp_files/504563.got.cif
#   From: 2010.05.17/outbox.cif.g08.bks.cpg/sg2_253_cif.got.tgz:504563.got - 2010.06.03 11:33:40.
