data_PCOD9098105
_publ_section_title
;
Structure prediction by ZEFSAII (Michael W. Deem and Ramdas Pophale) SiO2 
 PCOD9098105
Probable space group: P -1
;
_chemical_formula_sum "Si O2"
_cell_formula_units_Z 16
_cell_length_a 8.367987
_cell_length_b 24.816001
_cell_length_c 9.506935
_cell_angle_alpha 125.512505
_cell_angle_beta 149.006429
_cell_angle_gamma 58.740691
_cell_volume 826.467809
_symmetry_space_group_name_H-M "P -1"
_symmetry_group_IT_number 2
_symmetry_cell_setting 'triclinic'
loop_
_space_group_symop_operation_xyz
x,y,z
-x,-y,-z
loop_
_atom_site_type_symbol
_atom_site_label
_atom_site_fract_x
_atom_site_fract_y
_atom_site_fract_z
Si Si1 0.498461 0.737996 0.312578
Si Si2 0.976769 0.830813 0.933212
Si Si3 0.575406 0.421143 0.460723
Si Si4 0.712921 0.620753 0.085585
Si Si5 0.460008 0.376764 0.624885
Si Si6 0.407248 0.041620 0.128631
Si Si7 0.750445 0.041364 0.676186
Si Si8 0.192881 0.563328 0.771952
O O1 0.775357 0.787504 0.614081
O O2 0.602802 0.685892 0.189213
O O3 0.448457 0.695256 0.351428
O O4 0.185254 0.780473 0.106631
O O5 0.726593 0.883639 0.895723
O O6 0.214375 0.883276 0.129384
O O7 0.500000 0.500000 0.500000
O O8 0.525584 0.397467 0.546905
O O9 0.931716 0.402714 0.658270
O O10 0.353960 0.379567 0.130858
O O11 0.473557 0.568406 0.883703
O O12 0.086527 0.381342 0.373241
O O13 0.646010 0.426449 0.940758
O O14 0.658558 0.044883 0.446686
O O15 0.097240 0.009913 0.907863
O O16 0.500000 0.000000 0.000000
O O17 0.500000 0.000000 0.500000
O O18 0.000000 0.500000 0.500000
#
# Coordination Sequence:
#
# PCOD9098105 Si02
#       8
#     2   2   2   2   2   2   2   2
#     4  11  21  41  63  86 118 166 218 240 283 369
#     4  10  20  36  67  89 120 165 210 239 298 355
#     4  12  25  43  62  90 125 155 195 257 339 373
#     4  11  24  41  65  88 118 162 197 256 304 366
#     4  11  24  39  63  87 117 164 194 258 305 361
#     4  10  20  36  63  94 127 160 199 248 303 348
#     4  10  20  36  63  94 127 161 199 250 304 346
#     4  11  22  40  61  92 116 147 208 252 295 367
#
# _framework density 19.359494999999999
#
# number of rings (size 3 to 8) (size 9 to 14) (size 15 to 20)
#    0.750    0.500    1.250    6.750    0.000    3.000 
#    0.000    0.000   11.000    0.000    0.000    0.000 
#    0.000    0.000    0.000    0.000    0.000    0.000 
#
# Total GULP energy -89181.378784 kJ/mol
# GULP energy per Si atom -5573.836174 kJ/mol
# Density = 1.931543 g / cm^3
# Si number density = 19.359495 Si / 1000 Ang^3
#
#
#
# Elastic Constant Matrix: (Units=GPa)
#
#
# Indices 1 2 3 4 5 6 
#
# 1 50.6661 28.7129 13.6539 7.3955 -11.3264 -1.5561
# 2 28.7129 96.2166 31.5805 4.8117 -12.2675 -9.0136
# 3 13.6539 31.5805 131.8187 7.9440 -10.8768 -5.4277
# 4 7.3955 4.8117 7.9440 42.4952 -0.6286 6.4228
# 5 -11.3264 -12.2675 -10.8768 -0.6286 37.5296 -2.3428
# 6 -1.5561 -9.0136 -5.4277 6.4228 -2.3428 19.5097
#
#
#
# Elastic Compliance Matrix: (Units=1/GPa)
#
#
# Indices 1 2 3 4 5 6 
#
# 1 0.025266 -0.006479 -0.000370 -0.003630 0.005387 0.000761
# 2 -0.006479 0.013934 -0.002179 -0.000899 0.002321 0.005889
# 3 -0.000370 -0.002179 0.008467 -0.001554 0.001731 0.002039
# 4 -0.003630 -0.000899 -0.001554 0.026030 -0.002025 -0.009950
# 5 0.005387 0.002321 0.001731 -0.002025 0.029887 0.006239
# 6 0.000761 0.005889 0.002039 -0.009950 0.006239 0.058630
#
#
# Mechanical properties :
#
#
# Convention : Reuss Voigt Hill
#
# Bulk Modulus (GPa) = 33.77140 47.39958 40.58549
# Shear Modulus (GPa) = 26.29629 33.55716 29.92673
#
# Velocity S-wave (km/s) = 3.68953 4.16789 3.93599
# Velocity P-wave (km/s) = 5.96929 6.90643 6.45489
#
# Compressibility (1/GPa) = 0.02961085
#
# Stress axis : x y z
#
# Youngs Moduli (GPa) = 39.57923 71.76523 118.10482
#
# Poissons Ratio (x) = 0.46494 0.04374
# Poissons Ratio (y) = 0.25642 0.25737
# Poissons Ratio (z) = 0.01466 0.15639
#
# Static dielectric constant tensor:
#      x y z
#    x 1.692660 0.003540 -0.002930 
#    y 0.003540 1.730280 -0.014830 
#    z -0.002930 -0.014830 1.716000 
# 
# From -- ./inp_files/225551.got.cif
#   From: 2010.05.17/outbox.cif.g08.bks.cpg/sg2_113_cif.got.tgz:225551.got - 2010.06.03 11:33:40.
