data_PCOD9098287
_publ_section_title
;
Structure prediction by ZEFSAII (Michael W. Deem and Ramdas Pophale) SiO2 
 PCOD9098287
Probable space group: P -1
;
_chemical_formula_sum "Si O2"
_cell_formula_units_Z 16
_cell_length_a 14.854376
_cell_length_b 8.154215
_cell_length_c 13.887932
_cell_angle_alpha 103.557274
_cell_angle_beta 38.763790
_cell_angle_gamma 129.916391
_cell_volume 672.658001
_symmetry_space_group_name_H-M "P -1"
_symmetry_group_IT_number 2
_symmetry_cell_setting 'triclinic'
loop_
_space_group_symop_operation_xyz
x,y,z
-x,-y,-z
loop_
_atom_site_type_symbol
_atom_site_label
_atom_site_fract_x
_atom_site_fract_y
_atom_site_fract_z
Si Si1 0.357018 0.306487 0.366391
Si Si2 0.560761 0.337383 0.017941
Si Si3 0.399271 0.577731 0.641963
Si Si4 0.473003 0.777601 0.412591
Si Si5 0.662879 0.086942 0.000178
Si Si6 0.065379 0.273758 0.379154
Si Si7 0.775548 0.326857 0.562724
Si Si8 0.077998 0.752113 0.003533
O O1 0.471921 0.383054 0.178836
O O2 0.479504 0.291747 0.339830
O O3 0.396360 0.524424 0.406396
O O4 0.108522 0.028260 0.522649
O O5 0.369310 0.074852 0.081396
O O6 0.683025 0.289856 0.964503
O O7 0.722040 0.569461 0.840757
O O8 0.500000 0.500000 0.500000
O O9 0.441258 0.756533 0.550396
O O10 0.138972 0.327231 0.836324
O O11 0.311621 0.752172 0.483107
O O12 0.718738 0.014337 0.200370
O O13 0.839241 0.190634 0.947285
O O14 0.430556 0.880583 0.222314
O O15 0.945705 0.330644 0.440235
O O16 0.128195 0.406082 0.448708
O O17 0.000000 0.500000 0.000000
#
# Coordination Sequence:
#
# PCOD9098287 Si02
#       8
#     2   2   2   2   2   2   2   2
#     4  11  23  41  61  91 127 167 213 258 316 393
#     4  10  20  36  64  95 126 169 200 257 328 380
#     4  10  25  44  63  91 129 173 218 266 317 387
#     4  10  25  44  65  89 131 167 209 274 319 374
#     4   9  19  37  61  98 129 158 213 264 312 383
#     4  10  21  35  65  92 125 163 206 254 315 386
#     4   9  19  40  60  94 126 160 207 259 311 379
#     4  11  24  42  68  97 126 168 219 273 318 379
#
# _framework density 23.786232999999999
#
# number of rings (size 3 to 8) (size 9 to 14) (size 15 to 20)
#    0.000    2.000    1.250    0.750    5.250    7.000 
#    0.000    6.875    0.000    0.000    0.000    0.000 
#    0.000    0.000    0.000    0.000    0.000    0.000 
#
# Total GULP energy -89577.922828 kJ/mol
# GULP energy per Si atom -5598.620177 kJ/mol
# Density = 2.373209 g / cm^3
# Si number density = 23.786233 Si / 1000 Ang^3
#
#
#
# Elastic Constant Matrix: (Units=GPa)
#
#
# Indices 1 2 3 4 5 6 
#
# 1 111.7197 8.0159 21.6227 -4.4581 4.2465 24.7721
# 2 8.0159 110.2598 30.2710 -11.3507 2.4420 13.8520
# 3 21.6227 30.2710 96.5284 -16.2502 -2.7327 7.1292
# 4 -4.4581 -11.3507 -16.2502 42.3754 -0.5523 4.9440
# 5 4.2465 2.4420 -2.7327 -0.5523 29.7586 1.4065
# 6 24.7721 13.8520 7.1292 4.9440 1.4065 33.7616
#
#
#
# Elastic Compliance Matrix: (Units=1/GPa)
#
#
# Indices 1 2 3 4 5 6 
#
# 1 0.011250 0.000983 -0.001968 0.001657 -0.001438 -0.008425
# 2 0.000983 0.010649 -0.002826 0.002420 -0.001002 -0.004807
# 3 -0.001968 -0.002826 0.012444 0.003909 0.001760 -0.000670
# 4 0.001657 0.002420 0.003909 0.026745 0.000750 -0.006981
# 5 -0.001438 -0.001002 0.001760 0.000750 0.034087 -0.000436
# 6 -0.008425 -0.004807 -0.000670 -0.006981 -0.000436 0.038955
#
#
# Mechanical properties :
#
#
# Convention : Reuss Voigt Hill
#
# Bulk Modulus (GPa) = 37.42189 48.70299 43.06244
# Shear Modulus (GPa) = 33.18758 38.41901 35.80330
#
# Velocity S-wave (km/s) = 3.73935 4.02329 3.88391
# Velocity P-wave (km/s) = 5.86604 6.48862 6.18517
#
# Compressibility (1/GPa) = 0.02672232
#
# Stress axis : x y z
#
# Youngs Moduli (GPa) = 88.88689 93.90611 80.35983
#
# Poissons Ratio (x) = -0.09233 0.15815
# Poissons Ratio (y) = -0.08740 0.22707
# Poissons Ratio (z) = 0.17493 0.26535
#
# Static dielectric constant tensor:
#      x y z
#    x 1.974050 -0.050090 -0.008370 
#    y -0.050090 1.903630 -0.010740 
#    z -0.008370 -0.010740 1.892710 
# 
# From -- ./inp_files/519647.got.cif
#   From: 2010.05.17/outbox.cif.g08.bks.cpg/sg2_260_cif.got.tgz:519647.got - 2010.06.03 11:33:40.
