data_PCOD9098449
_publ_section_title
;
Structure prediction by ZEFSAII (Michael W. Deem and Ramdas Pophale) SiO2 
 PCOD9098449
Probable space group: P -1
;
_chemical_formula_sum "Si O2"
_cell_formula_units_Z 11
_cell_length_a 16.144925
_cell_length_b 11.763573
_cell_length_c 6.586033
_cell_angle_alpha 116.199109
_cell_angle_beta 52.457804
_cell_angle_gamma 150.851532
_cell_volume 469.569259
_symmetry_space_group_name_H-M "P -1"
_symmetry_group_IT_number 2
_symmetry_cell_setting 'triclinic'
loop_
_space_group_symop_operation_xyz
x,y,z
-x,-y,-z
loop_
_atom_site_type_symbol
_atom_site_label
_atom_site_fract_x
_atom_site_fract_y
_atom_site_fract_z
Si Si1 0.615720 0.830198 0.086252
Si Si2 0.000000 0.500000 0.500000
Si Si3 0.661944 0.143818 0.048419
Si Si4 0.980849 0.186792 0.130041
Si Si5 0.911123 0.027431 0.535567
Si Si6 0.753792 0.505949 0.378879
O O1 0.412264 0.594885 0.320992
O O2 0.609226 0.967951 0.123158
O O3 0.789820 0.988743 0.114080
O O4 0.687222 0.822684 0.779685
O O5 0.993185 0.341979 0.319786
O O6 0.137307 0.669007 0.226883
O O7 0.680953 0.288753 0.271533
O O8 0.500000 0.000000 0.000000
O O9 0.947263 0.060770 0.270043
O O10 0.176841 0.367462 0.842625
O O11 0.048125 0.282903 0.617653
O O12 0.000000 0.000000 0.500000
#
# Coordination Sequence:
#
# PCOD9098449 Si02
#       6
#     2   1   2   2   2   2
#     4  11  24  41  66  99 132 171 217 269 331 387
#     4  10  20  36  66  92 130 174 196 264 336 378
#     4  11  23  37  66 101 139 166 209 265 332 401
#     4  10  23  40  65  95 132 169 218 268 326 386
#     4  11  26  47  67  92 131 178 226 268 316 385
#     4  10  25  39  67 100 129 171 215 265 330 390
#
# _framework density 23.425726000000001
#
# number of rings (size 3 to 8) (size 9 to 14) (size 15 to 20)
#    0.000    1.455    1.818    1.636    7.636    5.818 
#    0.000    1.818    0.000    0.000    0.000    0.000 
#    0.000    0.000    0.000    0.000    0.000    0.000 
#
# Total GULP energy -61241.109811 kJ/mol
# GULP energy per Si atom -5567.373619 kJ/mol
# Density = 2.337241 g / cm^3
# Si number density = 23.425726 Si / 1000 Ang^3
#
#
#
# Elastic Constant Matrix: (Units=GPa)
#
#
# Indices 1 2 3 4 5 6 
#
# 1 116.4356 13.8719 21.9646 -10.8980 30.7158 -4.4408
# 2 13.8719 26.6768 10.1384 0.9029 -2.8652 -5.8738
# 3 21.9646 10.1384 188.9932 -47.0662 14.7614 -3.1223
# 4 -10.8980 0.9029 -47.0662 44.8911 -1.3986 0.9359
# 5 30.7158 -2.8652 14.7614 -1.3986 38.6476 0.4786
# 6 -4.4408 -5.8738 -3.1223 0.9359 0.4786 18.2661
#
#
#
# Elastic Compliance Matrix: (Units=1/GPa)
#
#
# Indices 1 2 3 4 5 6 
#
# 1 0.012604 -0.007943 0.000715 0.003619 -0.010757 0.000729
# 2 -0.007943 0.047343 -0.004006 -0.007004 0.010942 0.012680
# 3 0.000715 -0.004006 0.007759 0.008282 -0.003527 -0.000120
# 4 0.003619 -0.007004 0.008282 0.031841 -0.005388 -0.001447
# 5 -0.010757 0.010942 -0.003527 -0.005388 0.036393 -0.000377
# 6 0.000729 0.012680 -0.000120 -0.001447 -0.000377 0.059064
#
#
# Mechanical properties :
#
#
# Convention : Reuss Voigt Hill
#
# Bulk Modulus (GPa) = 22.10573 47.11725 34.61149
# Shear Modulus (GPa) = 21.50055 39.43632 30.46843
#
# Velocity S-wave (km/s) = 3.03284 4.10745 3.61035
# Velocity P-wave (km/s) = 4.66059 6.53085 5.67332
#
# Compressibility (1/GPa) = 0.04523715
#
# Stress axis : x y z
#
# Youngs Moduli (GPa) = 79.33829 21.12242 128.88292
#
# Poissons Ratio (x) = 0.16778 -0.09211
# Poissons Ratio (y) = 0.63020 0.51630
# Poissons Ratio (z) = -0.05670 0.08462
#
# Static dielectric constant tensor:
#      x y z
#    x 1.885660 -0.025440 -0.017490 
#    y -0.025440 1.916760 0.007980 
#    z -0.017490 0.007980 1.926710 
# 
# From -- ./inp_files/23787.got.cif
#   From: 2010.05.17/outbox.cif.g08.bks.cpg/sg2_12_cif.got.tgz:23787.got - 2010.06.03 11:33:40.
