data_PCOD9098412
_publ_section_title
;
Structure prediction by ZEFSAII (Michael W. Deem and Ramdas Pophale) SiO2 
 PCOD9098412
Probable space group: P -1
;
_chemical_formula_sum "Si O2"
_cell_formula_units_Z 16
_cell_length_a 11.709489
_cell_length_b 9.542686
_cell_length_c 22.375015
_cell_angle_alpha 132.323612
_cell_angle_beta 28.732221
_cell_angle_gamma 112.323745
_cell_volume 715.859872
_symmetry_space_group_name_H-M "P -1"
_symmetry_group_IT_number 2
_symmetry_cell_setting 'triclinic'
loop_
_space_group_symop_operation_xyz
x,y,z
-x,-y,-z
loop_
_atom_site_type_symbol
_atom_site_label
_atom_site_fract_x
_atom_site_fract_y
_atom_site_fract_z
Si Si1 0.904346 0.206348 0.150657
Si Si2 0.759730 0.887101 0.800870
Si Si3 0.398216 0.786877 0.865909
Si Si4 0.603489 0.612068 0.213649
Si Si5 0.895975 0.251066 0.595113
Si Si6 0.980493 0.524721 0.121524
Si Si7 0.305275 0.420948 0.454283
Si Si8 0.376298 0.632839 0.031791
O O1 0.942835 0.382904 0.148192
O O2 0.563121 0.329804 0.358051
O O3 0.000000 0.000000 0.000000
O O4 0.143713 0.062235 0.051301
O O5 0.680169 0.748366 0.755576
O O6 0.061868 0.699051 0.641796
O O7 0.500000 0.000000 0.000000
O O8 0.717669 0.104238 0.848874
O O9 0.268453 0.664306 0.923029
O O10 0.521153 0.650327 0.708201
O O11 0.263562 0.729562 0.388592
O O12 0.697856 0.665170 0.247425
O O13 0.757978 0.642436 0.095226
O O14 0.639726 0.464405 0.815361
O O15 0.151832 0.287186 0.487767
O O16 0.000000 0.000000 0.500000
O O17 0.094859 0.651984 0.141336
O O18 0.500000 0.500000 0.000000
#
# Coordination Sequence:
#
# PCOD9098412 Si02
#       8
#     2   2   2   2   2   2   2   2
#     4  10  21  37  64  97 130 165 213 278 327 381
#     4  12  23  44  66  91 138 174 222 265 326 406
#     4  11  22  39  71  99 128 173 221 276 329 383
#     4  10  20  36  65  98 129 164 221 273 332 377
#     4  11  25  40  66 103 132 166 224 289 332 384
#     4  10  20  39  60  93 131 167 217 261 328 393
#     4  11  23  40  68 101 126 167 228 275 325 387
#     4  11  25  43  67  94 134 182 214 266 344 400
#
# _framework density 22.350745
#
# number of rings (size 3 to 8) (size 9 to 14) (size 15 to 20)
#    0.000    1.250    5.000    1.875    8.750    0.000 
#    0.000    1.250    2.750    0.000    0.000    0.000 
#    0.000    0.000    0.000    0.000    0.000    0.000 
#
# Total GULP energy -89305.942470 kJ/mol
# GULP energy per Si atom -5581.621404 kJ/mol
# Density = 2.229987 g / cm^3
# Si number density = 22.350745 Si / 1000 Ang^3
#
#
#
# Elastic Constant Matrix: (Units=GPa)
#
#
# Indices 1 2 3 4 5 6 
#
# 1 81.6346 25.3659 10.0613 -3.6296 -20.4332 2.5096
# 2 25.3659 126.8105 29.6446 -1.3044 -27.8217 9.9252
# 3 10.0613 29.6446 96.2485 4.0673 -23.6585 -4.5818
# 4 -3.6296 -1.3044 4.0673 28.6186 2.8422 -8.2511
# 5 -20.4332 -27.8217 -23.6585 2.8422 30.7756 1.6884
# 6 2.5096 9.9252 -4.5818 -8.2511 1.6884 31.1603
#
#
#
# Elastic Compliance Matrix: (Units=1/GPa)
#
#
# Indices 1 2 3 4 5 6 
#
# 1 0.014954 -0.000977 0.001106 0.000372 0.009926 -0.001170
# 2 -0.000977 0.010508 -0.001241 -0.001531 0.008275 -0.004305
# 3 0.001106 -0.001241 0.013265 -0.002488 0.009982 0.001057
# 4 0.000372 -0.001531 -0.002488 0.039121 -0.007258 0.010844
# 5 0.009926 0.008275 0.009982 -0.007258 0.055286 -0.006885
# 6 -0.001170 -0.004305 0.001057 0.010844 -0.006885 0.036957
#
#
# Mechanical properties :
#
#
# Convention : Reuss Voigt Hill
#
# Bulk Modulus (GPa) = 27.39391 48.31522 37.85457
# Shear Modulus (GPa) = 27.10304 34.08570 30.59437
#
# Velocity S-wave (km/s) = 3.48605 3.90941 3.70378
# Velocity P-wave (km/s) = 5.33726 6.48396 5.93835
#
# Compressibility (1/GPa) = 0.03650446
#
# Stress axis : x y z
#
# Youngs Moduli (GPa) = 66.87280 95.16795 75.38390
#
# Poissons Ratio (x) = 0.09295 -0.08338
# Poissons Ratio (y) = 0.06532 0.09352
# Poissons Ratio (z) = -0.07396 0.11806
#
# Static dielectric constant tensor:
#      x y z
#    x 1.900380 -0.010580 -0.048080 
#    y -0.010580 1.859870 -0.009290 
#    z -0.048080 -0.009290 1.849130 
# 
# From -- ./inp_files/609866.got.cif
#   From: 2010.05.17/outbox.cif.g08.bks.cpg/sg2_305_cif.got.tgz:609866.got - 2010.06.03 11:33:40.
