data_PCOD9098646
_publ_section_title
;
Structure prediction by ZEFSAII (Michael W. Deem and Ramdas Pophale) SiO2 
 PCOD9098646
Probable space group: P -1
;
_chemical_formula_sum "Si O2"
_cell_formula_units_Z 14
_cell_length_a 15.654239
_cell_length_b 15.760913
_cell_length_c 8.207665
_cell_angle_alpha 47.142172
_cell_angle_beta 75.224044
_cell_angle_gamma 35.547947
_cell_volume 616.228236
_symmetry_space_group_name_H-M "P -1"
_symmetry_group_IT_number 2
_symmetry_cell_setting 'triclinic'
loop_
_space_group_symop_operation_xyz
x,y,z
-x,-y,-z
loop_
_atom_site_type_symbol
_atom_site_label
_atom_site_fract_x
_atom_site_fract_y
_atom_site_fract_z
Si Si1 0.765414 0.396808 0.060133
Si Si2 0.774198 0.522981 0.585686
Si Si3 0.335163 0.119604 0.645134
Si Si4 0.382790 0.904170 0.418867
Si Si5 0.112383 0.155588 0.639224
Si Si6 0.179406 0.929090 0.626748
Si Si7 0.224012 0.322763 0.067585
O O1 0.930343 0.212756 0.362014
O O2 0.737096 0.296169 0.161576
O O3 0.867617 0.342692 0.928880
O O4 0.539428 0.721540 0.740184
O O5 0.739589 0.698144 0.423306
O O6 0.545610 0.735240 0.414967
O O7 0.932986 0.324819 0.622954
O O8 0.258463 0.260626 0.323005
O O9 0.247401 0.094832 0.738083
O O10 0.581976 0.833951 0.888875
O O11 0.269615 0.917228 0.473365
O O12 0.240190 0.183361 0.142990
O O13 0.228691 0.915857 0.801574
O O14 0.989448 0.366366 0.278549
#
# Coordination Sequence:
#
# PCOD9098646 Si02
#       7
#     2   2   2   2   2   2   2
#     4   9  22  41  58  83 109 146 194 236 265 329
#     4   9  22  39  53  82 127 139 179 233 282 328
#     4  10  20  37  55  82 117 152 177 230 272 329
#     4   9  20  38  59  81 111 150 183 231 273 331
#     4  12  23  34  57  93 110 149 182 227 284 338
#     4  11  21  37  67  79 105 150 199 226 272 325
#     4  10  21  34  59  85 114 144 191 228 267 333
#
# _framework density 22.718855999999999
#
# number of rings (size 3 to 8) (size 9 to 14) (size 15 to 20)
#    0.857    1.143    1.429    2.143    4.000    2.857 
#    2.571    0.000    0.000    1.714    0.000    0.000 
#    0.000    0.000    0.000    0.000    0.000    0.000 
#
# Total GULP energy -78127.579380 kJ/mol
# GULP energy per Si atom -5580.541384 kJ/mol
# Density = 2.266715 g / cm^3
# Si number density = 22.718856 Si / 1000 Ang^3
#
#
#
# Elastic Constant Matrix: (Units=GPa)
#
#
# Indices 1 2 3 4 5 6 
#
# 1 153.5512 45.0386 5.7042 -12.4798 -19.4972 -1.4829
# 2 45.0386 89.6858 -25.6994 0.1577 -8.8154 -16.3460
# 3 5.7042 -25.6994 32.4395 -5.5610 2.9922 3.9304
# 4 -12.4798 0.1577 -5.5610 14.6107 0.2279 0.6938
# 5 -19.4972 -8.8154 2.9922 0.2279 26.1520 -9.7963
# 6 -1.4829 -16.3460 3.9304 0.6938 -9.7963 23.3363
#
#
#
# Elastic Compliance Matrix: (Units=1/GPa)
#
#
# Indices 1 2 3 4 5 6 
#
# 1 0.009747 -0.006170 -0.006027 0.006034 0.005637 -0.000500
# 2 -0.006170 0.022415 0.016311 -0.000145 0.006880 0.015454
# 3 -0.006027 0.016311 0.047247 0.012678 -0.004149 0.000966
# 4 0.006034 -0.000145 0.012678 0.078592 0.000884 -0.003819
# 5 0.005637 0.006880 -0.004149 0.000884 0.056266 0.029470
# 6 -0.000500 0.015454 0.000966 -0.003819 0.029470 0.065967
#
#
# Mechanical properties :
#
#
# Convention : Reuss Voigt Hill
#
# Bulk Modulus (GPa) = 11.41031 36.19592 23.80312
# Shear Modulus (GPa) = 16.59924 29.52867 23.06396
#
# Velocity S-wave (km/s) = 2.70596 3.60911 3.18966
# Velocity P-wave (km/s) = 3.84659 5.77358 4.90563
#
# Compressibility (1/GPa) = 0.08764005
#
# Stress axis : x y z
#
# Youngs Moduli (GPa) = 102.59235 44.61213 21.16518
#
# Poissons Ratio (x) = 0.27524 0.12755
# Poissons Ratio (y) = 0.63295 -0.34523
# Poissons Ratio (z) = 0.61827 -0.72767
#
# Static dielectric constant tensor:
#      x y z
#    x 1.888380 -0.012810 0.022010 
#    y -0.012810 1.837920 0.015120 
#    z 0.022010 0.015120 1.863430 
# 
# From -- ./inp_files/204594.got.cif
#   From: 2010.05.17/outbox.cif.g08.bks.cpg/sg2_103_cif.got.tgz:204594.got - 2010.06.03 11:33:40.
