data_PCOD9098717
_publ_section_title
;
Structure prediction by ZEFSAII (Michael W. Deem and Ramdas Pophale) SiO2 
 PCOD9098717
Probable space group: P -1
;
_chemical_formula_sum "Si O2"
_cell_formula_units_Z 16
_cell_length_a 21.228081
_cell_length_b 11.675055
_cell_length_c 8.188351
_cell_angle_alpha 45.355048
_cell_angle_beta 125.380777
_cell_angle_gamma 151.843981
_cell_volume 676.333434
_symmetry_space_group_name_H-M "P -1"
_symmetry_group_IT_number 2
_symmetry_cell_setting 'triclinic'
loop_
_space_group_symop_operation_xyz
x,y,z
-x,-y,-z
loop_
_atom_site_type_symbol
_atom_site_label
_atom_site_fract_x
_atom_site_fract_y
_atom_site_fract_z
Si Si1 0.060653 0.703349 0.738826
Si Si2 0.625209 0.356200 0.201638
Si Si3 0.950492 0.596993 0.183366
Si Si4 0.431010 0.095451 0.475258
Si Si5 0.106470 0.226275 0.292731
Si Si6 0.271003 0.142926 0.115509
Si Si7 0.309655 0.325610 0.616614
Si Si8 0.096032 0.308716 0.652876
O O1 0.079227 0.637424 0.665475
O O2 0.940421 0.622251 0.604642
O O3 0.204377 0.027027 0.669189
O O4 0.000000 0.500000 0.000000
O O5 0.506585 0.188489 0.321482
O O6 0.766865 0.552715 0.306572
O O7 0.598559 0.142026 0.279748
O O8 0.659315 0.591481 0.942440
O O9 0.892631 0.577918 0.275502
O O10 0.111022 0.886424 0.140582
O O11 0.891026 0.587336 0.945805
O O12 0.319986 0.044966 0.325026
O O13 0.534131 0.364907 0.479585
O O14 0.240804 0.376962 0.408482
O O15 0.000000 0.000000 0.500000
O O16 0.037461 0.028722 0.224945
O O17 0.305135 0.248634 0.872525
#
# Coordination Sequence:
#
# PCOD9098717 Si02
#       8
#     2   2   2   2   2   2   2   2
#     4  11  22  37  60  92 129 165 205 268 327 376
#     4  10  20  37  60  89 125 161 218 261 315 370
#     4  12  22  38  62  98 127 165 206 262 336 391
#     4  10  22  38  60  94 122 170 217 271 307 366
#     4  11  19  37  60  89 125 160 204 265 318 375
#     4  11  20  38  63  93 129 163 216 269 313 385
#     4  10  20  37  56  87 126 156 212 259 317 366
#     4  11  23  38  62  93 131 163 205 265 332 390
#
# _framework density 23.656970000000001
#
# number of rings (size 3 to 8) (size 9 to 14) (size 15 to 20)
#    0.000    1.250    3.750    4.500    0.000    0.000 
#    4.500    0.000    0.000    7.500    0.000    0.000 
#    0.000    0.000    0.000    0.000    0.000    0.000 
#
# Total GULP energy -89162.110848 kJ/mol
# GULP energy per Si atom -5572.631928 kJ/mol
# Density = 2.360313 g / cm^3
# Si number density = 23.656970 Si / 1000 Ang^3
#
#
#
# Elastic Constant Matrix: (Units=GPa)
#
#
# Indices 1 2 3 4 5 6 
#
# 1 91.9387 19.5531 25.1468 3.1794 21.0343 -11.8534
# 2 19.5531 96.0480 11.0896 -9.1180 7.3601 -11.6830
# 3 25.1468 11.0896 93.1364 -0.6907 27.2663 -4.6390
# 4 3.1794 -9.1180 -0.6907 27.9176 -4.5030 15.3925
# 5 21.0343 7.3601 27.2663 -4.5030 31.6452 8.2282
# 6 -11.8534 -11.6830 -4.6390 15.3925 8.2282 36.2913
#
#
#
# Elastic Compliance Matrix: (Units=1/GPa)
#
#
# Indices 1 2 3 4 5 6 
#
# 1 0.017633 -0.001778 0.001641 -0.014247 -0.018833 0.015709
# 2 -0.001778 0.011440 -0.000304 0.002364 -0.001505 0.002402
# 3 0.001641 -0.000304 0.016409 -0.008836 -0.019181 0.010632
# 4 -0.014247 0.002364 -0.008836 0.067013 0.036943 -0.041820
# 5 -0.018833 -0.001505 -0.019181 0.036943 0.077243 -0.042269
# 6 0.015709 0.002402 0.010632 -0.041820 -0.042269 0.062139
#
#
# Mechanical properties :
#
#
# Convention : Reuss Voigt Hill
#
# Bulk Modulus (GPa) = 22.42118 43.63358 33.02738
# Shear Modulus (GPa) = 18.68280 34.19308 26.43794
#
# Velocity S-wave (km/s) = 2.81328 3.80593 3.34661
# Velocity P-wave (km/s) = 4.47782 6.14799 5.37813
#
# Compressibility (1/GPa) = 0.04460068
#
# Stress axis : x y z
#
# Youngs Moduli (GPa) = 56.71253 87.40934 60.94061
#
# Poissons Ratio (x) = 0.15538 -0.10001
# Poissons Ratio (y) = 0.10081 0.01856
# Poissons Ratio (z) = -0.09307 0.02661
#
# Static dielectric constant tensor:
#      x y z
#    x 2.012180 -0.088860 0.063930 
#    y -0.088860 1.952300 -0.073950 
#    z 0.063930 -0.073950 2.012310 
# 
# From -- ./inp_files/345093.got.cif
#   From: 2010.05.17/outbox.cif.g08.bks.cpg/sg2_173_cif.got.tgz:345093.got - 2010.06.03 11:33:40.
