data_PCOD9098042
_publ_section_title
;
Structure prediction by ZEFSAII (Michael W. Deem and Ramdas Pophale) SiO2 
 PCOD9098042
Probable space group: P -1
;
_chemical_formula_sum "Si O2"
_cell_formula_units_Z 16
_cell_length_a 14.393350
_cell_length_b 9.511754
_cell_length_c 11.483999
_cell_angle_alpha 97.848196
_cell_angle_beta 57.994675
_cell_angle_gamma 138.703702
_cell_volume 777.799848
_symmetry_space_group_name_H-M "P -1"
_symmetry_group_IT_number 2
_symmetry_cell_setting 'triclinic'
loop_
_space_group_symop_operation_xyz
x,y,z
-x,-y,-z
loop_
_atom_site_type_symbol
_atom_site_label
_atom_site_fract_x
_atom_site_fract_y
_atom_site_fract_z
Si Si1 0.269407 0.760166 0.761282
Si Si2 0.589590 0.877053 0.473991
Si Si3 0.866044 0.280042 0.649313
Si Si4 0.713671 0.537230 0.529414
Si Si5 0.575197 0.734612 0.950683
Si Si6 0.279510 0.136880 0.380282
Si Si7 0.033946 0.731758 0.189630
Si Si8 0.444857 0.833978 0.212117
O O1 0.435972 0.827217 0.619320
O O2 0.079865 0.470109 0.858293
O O3 0.272229 0.883816 0.671336
O O4 0.352180 0.916283 0.841268
O O5 0.478625 0.655375 0.437581
O O6 0.667416 0.871966 0.530962
O O7 0.665558 0.140228 0.745085
O O8 0.000000 0.500000 0.500000
O O9 0.913465 0.334364 0.758686
O O10 0.886774 0.137492 0.582425
O O11 0.755264 0.733348 0.577400
O O12 0.873213 0.657454 0.348556
O O13 0.667364 0.365728 0.633874
O O14 0.583340 0.749647 0.806821
O O15 0.500000 0.500000 0.000000
O O16 0.457677 0.738000 0.086381
O O17 0.779794 0.976908 0.901248
#
# Coordination Sequence:
#
# PCOD9098042 Si02
#       8
#     2   2   2   2   2   2   2   2
#     4   9  18  37  63  90 123 153 198 253 311 352
#     4   9  17  33  60  94 119 149 197 255 304 354
#     4  11  21  35  60  94 123 148 206 261 298 349
#     4  10  20  36  63  90 118 158 200 248 308 354
#     4  11  25  41  58  84 128 168 203 241 305 368
#     4  11  21  35  59  90 121 158 203 246 295 364
#     4  10  22  37  61  92 121 158 205 255 297 358
#     4  11  21  40  65  87 123 168 194 247 311 362
#
# _framework density 20.570846
#
# number of rings (size 3 to 8) (size 9 to 14) (size 15 to 20)
#    0.000    1.750    3.750    1.875    0.000    5.500 
#    0.000    0.000    0.000    3.000    0.000    0.000 
#    0.000    0.000    0.000    0.000    0.000    0.000 
#
# Total GULP energy -89161.756618 kJ/mol
# GULP energy per Si atom -5572.609789 kJ/mol
# Density = 2.052403 g / cm^3
# Si number density = 20.570846 Si / 1000 Ang^3
#
#
#
# Elastic Constant Matrix: (Units=GPa)
#
#
# Indices 1 2 3 4 5 6 
#
# 1 63.2326 33.2462 -1.9813 2.3996 5.5355 0.9675
# 2 33.2462 132.0847 24.0863 0.4974 -9.3005 -13.0244
# 3 -1.9813 24.0863 39.7032 6.0636 -2.4101 -4.6749
# 4 2.3996 0.4974 6.0636 40.7593 -0.6805 -1.4968
# 5 5.5355 -9.3005 -2.4101 -0.6805 23.2931 -0.3830
# 6 0.9675 -13.0244 -4.6749 -1.4968 -0.3830 33.5202
#
#
#
# Elastic Compliance Matrix: (Units=1/GPa)
#
#
# Indices 1 2 3 4 5 6 
#
# 1 0.020218 -0.006692 0.004626 -0.002015 -0.007101 -0.002710
# 2 -0.006692 0.011207 -0.006581 0.001466 0.005489 0.003758
# 3 0.004626 -0.006581 0.030232 -0.004653 -0.000713 0.001310
# 4 -0.002015 0.001466 -0.004653 0.025391 0.001343 0.001128
# 5 -0.007101 0.005489 -0.000713 0.001343 0.046822 0.002833
# 6 -0.002710 0.003758 0.001310 0.001128 0.002833 0.031637
#
#
# Mechanical properties :
#
#
# Convention : Reuss Voigt Hill
#
# Bulk Modulus (GPa) = 22.54135 38.41366 30.47750
# Shear Modulus (GPa) = 25.30524 31.49248 28.39886
#
# Velocity S-wave (km/s) = 3.51116 3.91695 3.71959
# Velocity P-wave (km/s) = 5.23635 6.25868 5.77020
#
# Compressibility (1/GPa) = 0.04436291
#
# Stress axis : x y z
#
# Youngs Moduli (GPa) = 49.46145 89.23049 33.07787
#
# Poissons Ratio (x) = 0.59715 -0.15303
# Poissons Ratio (y) = 0.33100 0.21768
# Poissons Ratio (z) = -0.22883 0.58722
#
# Static dielectric constant tensor:
#      x y z
#    x 1.686720 -0.013880 -0.111340 
#    y -0.013880 1.727380 -0.156420 
#    z -0.111340 -0.156420 1.464220 
# 
# From -- ./inp_files/298121.got.cif
#   From: 2010.05.17/outbox.cif.g08.bks.cpg/sg2_150_cif.got.tgz:298121.got - 2010.06.03 11:33:40.
