data_PCOD9098499
_publ_section_title
;
Structure prediction by ZEFSAII (Michael W. Deem and Ramdas Pophale) SiO2 
 PCOD9098499
Probable space group: P -1
;
_chemical_formula_sum "Si O2"
_cell_formula_units_Z 14
_cell_length_a 5.322737
_cell_length_b 9.231043
_cell_length_c 18.313009
_cell_angle_alpha 48.431751
_cell_angle_beta 69.439914
_cell_angle_gamma 76.730321
_cell_volume 630.311308
_symmetry_space_group_name_H-M "P -1"
_symmetry_group_IT_number 2
_symmetry_cell_setting 'triclinic'
loop_
_space_group_symop_operation_xyz
x,y,z
-x,-y,-z
loop_
_atom_site_type_symbol
_atom_site_label
_atom_site_fract_x
_atom_site_fract_y
_atom_site_fract_z
Si Si1 0.427508 0.843722 0.826932
Si Si2 0.081337 0.937370 0.231145
Si Si3 0.344681 0.013894 0.627180
Si Si4 0.006436 0.224784 0.942698
Si Si5 0.186163 0.819756 0.563883
Si Si6 0.526664 0.578095 0.089386
Si Si7 0.111219 0.568380 0.255576
O O1 0.405257 0.613844 0.897433
O O2 0.142410 0.949311 0.831865
O O3 0.496247 0.917570 0.712192
O O4 0.666343 0.926017 0.824028
O O5 0.919204 0.899891 0.335851
O O6 0.160293 0.739021 0.250946
O O7 0.539883 0.161369 0.516365
O O8 0.256487 0.855198 0.629768
O O9 0.221198 0.293839 0.956349
O O10 0.067402 0.338063 0.822559
O O11 0.706103 0.297120 0.967039
O O12 0.000000 0.000000 0.000000
O O13 0.031280 0.619901 0.635548
O O14 0.000000 0.000000 0.500000
O O15 0.379920 0.518059 0.200464
#
# Coordination Sequence:
#
# PCOD9098499 Si02
#       7
#     2   2   2   2   2   2   2
#     4  10  20  40  59  88 119 165 201 236 295 355
#     4  10  22  37  58  88 125 162 193 254 295 356
#     4   9  21  34  60  78 128 154 202 243 297 330
#     4  10  22  39  64  96 120 148 202 256 297 352
#     4  11  20  38  57  93 116 161 207 254 278 362
#     4  10  20  36  67  88 113 160 202 240 294 362
#     4  10  24  35  64  90 121 158 204 241 318 342
#
# _framework density 22.211247
#
# number of rings (size 3 to 8) (size 9 to 14) (size 15 to 20)
#    1.714    0.286    0.000    4.714    2.000    1.714 
#    0.000    1.429    0.000    5.143    0.000    0.000 
#    0.000    0.000    0.000    0.000    0.000    0.000 
#
# Total GULP energy -78198.972729 kJ/mol
# GULP energy per Si atom -5585.640909 kJ/mol
# Density = 2.216069 g / cm^3
# Si number density = 22.211247 Si / 1000 Ang^3
#
#
#
# Elastic Constant Matrix: (Units=GPa)
#
#
# Indices 1 2 3 4 5 6 
#
# 1 128.0532 66.9086 27.5419 -22.8575 -7.8419 32.7522
# 2 66.9086 163.2598 56.5532 -28.4022 -17.2226 9.7931
# 3 27.5419 56.5532 64.3166 -22.8410 -8.3423 6.3960
# 4 -22.8575 -28.4022 -22.8410 44.7695 -0.2906 -3.0061
# 5 -7.8419 -17.2226 -8.3423 -0.2906 38.1555 0.2223
# 6 32.7522 9.7931 6.3960 -3.0061 0.2223 35.2155
#
#
#
# Elastic Compliance Matrix: (Units=1/GPa)
#
#
# Indices 1 2 3 4 5 6 
#
# 1 0.013526 -0.004312 0.000566 0.003716 0.001051 -0.011173
# 2 -0.004312 0.010630 -0.007031 0.001133 0.002369 0.002413
# 3 0.000566 -0.007031 0.025060 0.008468 0.002500 -0.002416
# 4 0.003716 0.001133 0.008468 0.029103 0.003365 -0.002846
# 5 0.001051 0.002369 0.002500 0.003365 0.028078 -0.001980
# 6 -0.011173 0.002413 -0.002416 -0.002846 -0.001980 0.038325
#
#
# Mechanical properties :
#
#
# Convention : Reuss Voigt Hill
#
# Bulk Modulus (GPa) = 36.15003 73.07076 54.61039
# Shear Modulus (GPa) = 28.49072 37.26982 32.88027
#
# Velocity S-wave (km/s) = 3.58539 4.10075 3.85170
# Velocity P-wave (km/s) = 5.78367 7.44251 6.66490
#
# Compressibility (1/GPa) = 0.02766250
#
# Stress axis : x y z
#
# Youngs Moduli (GPa) = 73.93297 94.07208 39.90489
#
# Poissons Ratio (x) = 0.40564 -0.02260
# Poissons Ratio (y) = 0.31880 0.28057
# Poissons Ratio (z) = -0.04188 0.66141
#
# Static dielectric constant tensor:
#      x y z
#    x 1.816400 -0.016480 0.019610 
#    y -0.016480 1.758090 0.076890 
#    z 0.019610 0.076890 1.869220 
# 
# From -- ./inp_files/581505.got.cif
#   From: 2010.05.17/outbox.cif.g08.bks.cpg/sg2_291_cif.got.tgz:581505.got - 2010.06.03 11:33:40.
