data_PCOD9098734
_publ_section_title
;
Structure prediction by ZEFSAII (Michael W. Deem and Ramdas Pophale) SiO2 
 PCOD9098734
Probable space group: P -1
;
_chemical_formula_sum "Si O2"
_cell_formula_units_Z 14
_cell_length_a 8.273466
_cell_length_b 9.213821
_cell_length_c 15.514280
_cell_angle_alpha 130.686412
_cell_angle_beta 131.297233
_cell_angle_gamma 49.479083
_cell_volume 621.750666
_symmetry_space_group_name_H-M "P -1"
_symmetry_group_IT_number 2
_symmetry_cell_setting 'triclinic'
loop_
_space_group_symop_operation_xyz
x,y,z
-x,-y,-z
loop_
_atom_site_type_symbol
_atom_site_label
_atom_site_fract_x
_atom_site_fract_y
_atom_site_fract_z
Si Si1 0.324508 0.268498 0.591261
Si Si2 0.253478 0.487401 0.350534
Si Si3 0.881259 0.795670 0.230520
Si Si4 0.024079 0.303066 0.333273
Si Si5 0.136739 0.044877 0.890000
Si Si6 0.276988 0.886402 0.467672
Si Si7 0.548707 0.875372 0.843682
O O1 0.223550 0.501874 0.679687
O O2 0.563066 0.201469 0.595509
O O3 0.130003 0.266195 0.452045
O O4 0.329570 0.086724 0.588351
O O5 0.323875 0.684729 0.465605
O O6 0.418197 0.319423 0.278316
O O7 0.008878 0.591283 0.250577
O O8 0.194795 0.380878 0.370078
O O9 0.006085 0.943810 0.370567
O O10 0.950476 0.779162 0.146835
O O11 0.605147 0.913803 0.179265
O O12 0.015667 0.092981 0.211415
O O13 0.378670 0.888586 0.869545
O O14 0.213111 0.121606 0.033557
#
# Coordination Sequence:
#
# PCOD9098734 Si02
#       7
#     2   2   2   2   2   2   2
#     4  10  20  37  57  75 108 148 185 226 256 330
#     4  10  21  35  56  85 111 141 176 225 281 321
#     4   8  18  38  54  83 108 138 179 231 251 336
#     4  11  21  35  55  82 110 142 184 224 274 314
#     4   9  18  37  59  80 107 148 182 219 261 329
#     4   9  19  37  55  79 108 139 189 219 272 319
#     4   9  18  37  62  76 113 143 181 218 272 319
#
# _framework density 22.517064000000001
#
# number of rings (size 3 to 8) (size 9 to 14) (size 15 to 20)
#    1.714    0.857    1.429    0.857    0.000    2.286 
#    5.143    0.714    0.000    0.000    0.000    0.000 
#    0.000    0.000    0.000    0.000    0.000    0.000 
#
# Total GULP energy -77959.962731 kJ/mol
# GULP energy per Si atom -5568.568766 kJ/mol
# Density = 2.246581 g / cm^3
# Si number density = 22.517064 Si / 1000 Ang^3
#
#
#
# Elastic Constant Matrix: (Units=GPa)
#
#
# Indices 1 2 3 4 5 6 
#
# 1 36.0899 11.0114 8.4617 10.0711 -0.9982 10.0677
# 2 11.0114 55.2703 13.9441 4.3817 -4.9633 12.5602
# 3 8.4617 13.9441 70.3139 -4.3570 0.0649 8.2979
# 4 10.0711 4.3817 -4.3570 20.8924 -2.5850 5.6771
# 5 -0.9982 -4.9633 0.0649 -2.5850 21.3806 7.6364
# 6 10.0677 12.5602 8.2979 5.6771 7.6364 37.0770
#
#
#
# Elastic Compliance Matrix: (Units=1/GPa)
#
#
# Indices 1 2 3 4 5 6 
#
# 1 0.035608 -0.003567 -0.003916 -0.015668 0.000868 -0.005363
# 2 -0.003567 0.021946 -0.003121 -0.000660 0.007428 -0.007196
# 3 -0.003916 -0.003121 0.016042 0.006711 0.000806 -0.002663
# 4 -0.015668 -0.000660 0.006711 0.060329 0.009310 -0.008179
# 5 0.000868 0.007428 0.000806 0.009310 0.055283 -0.015744
# 6 -0.005363 -0.007196 -0.002663 -0.008179 -0.015744 0.035956
#
#
# Mechanical properties :
#
#
# Convention : Reuss Voigt Hill
#
# Bulk Modulus (GPa) = 19.08933 25.38984 22.23958
# Shear Modulus (GPa) = 18.95126 24.42044 21.68585
#
# Velocity S-wave (km/s) = 2.90425 3.29679 3.10673
# Velocity P-wave (km/s) = 4.44324 5.07859 4.77150
#
# Compressibility (1/GPa) = 0.05238530
#
# Stress axis : x y z
#
# Youngs Moduli (GPa) = 28.08377 45.56714 62.33778
#
# Poissons Ratio (x) = 0.16254 0.24414
# Poissons Ratio (y) = 0.10018 0.19458
# Poissons Ratio (z) = 0.10999 0.14223
#
# Static dielectric constant tensor:
#      x y z
#    x 1.876170 -0.011880 0.010250 
#    y -0.011880 1.899940 -0.051070 
#    z 0.010250 -0.051070 1.840350 
# 
# From -- ./inp_files/341201.got.cif
#   From: 2010.05.17/outbox.cif.g08.bks.cpg/sg2_171_cif.got.tgz:341201.got - 2010.06.03 11:33:40.
