data_PCOD9098889
_publ_section_title
;
Structure prediction by ZEFSAII (Michael W. Deem and Ramdas Pophale) SiO2 
 PCOD9098889
Probable space group: P -1
;
_chemical_formula_sum "Si O2"
_cell_formula_units_Z 12
_cell_length_a 6.604864
_cell_length_b 12.463975
_cell_length_c 8.921736
_cell_angle_alpha 47.528014
_cell_angle_beta 67.497166
_cell_angle_gamma 85.425796
_cell_volume 482.985634
_symmetry_space_group_name_H-M "P -1"
_symmetry_group_IT_number 2
_symmetry_cell_setting 'triclinic'
loop_
_space_group_symop_operation_xyz
x,y,z
-x,-y,-z
loop_
_atom_site_type_symbol
_atom_site_label
_atom_site_fract_x
_atom_site_fract_y
_atom_site_fract_z
Si Si1 0.316047 0.813269 0.944274
Si Si2 0.896558 0.928716 0.248732
Si Si3 0.196739 0.517266 0.054589
Si Si4 0.790561 0.042961 0.599273
Si Si5 0.438103 0.684779 0.583145
Si Si6 0.111551 0.632316 0.461341
O O1 0.250376 0.668310 0.995318
O O2 0.216153 0.762293 0.185834
O O3 0.216435 0.943298 0.777024
O O4 0.583088 0.893476 0.801949
O O5 0.696592 0.781501 0.407094
O O6 0.099621 0.914895 0.309064
O O7 0.000000 0.000000 0.000000
O O8 0.081563 0.391081 0.328557
O O9 0.407901 0.553969 0.841487
O O10 0.000000 0.500000 0.000000
O O11 0.690865 0.185718 0.453284
O O12 0.000000 0.000000 0.500000
O O13 0.325891 0.621762 0.515616
O O14 0.000000 0.500000 0.500000
#
# Coordination Sequence:
#
# PCOD9098889 Si02
#       6
#     2   2   2   2   2   2
#     4  10  20  37  58  83 112 142 182 226 274 326
#     4  11  22  35  58  86 112 143 178 227 280 326
#     4   9  18  34  60  80 104 151 186 218 272 321
#     4  11  22  35  58  86 112 143 178 227 280 326
#     4  10  20  37  58  83 112 142 182 226 274 326
#     4   9  18  34  60  80 104 151 186 218 272 321
#
# _framework density 24.845459999999999
#
# number of rings (size 3 to 8) (size 9 to 14) (size 15 to 20)
#    0.000    2.000    0.000    4.000    0.000    5.333 
#    0.000    0.000    0.000  140.000    0.000    0.000 
#    0.000    0.000    0.000    0.000    0.000    0.000 
#
# Total GULP energy -66886.521072 kJ/mol
# GULP energy per Si atom -5573.876756 kJ/mol
# Density = 2.478891 g / cm^3
# Si number density = 24.845460 Si / 1000 Ang^3
#
#
#
# Elastic Constant Matrix: (Units=GPa)
#
#
# Indices 1 2 3 4 5 6 
#
# 1 106.6309 37.3743 70.2703 -8.5360 2.8817 23.5271
# 2 37.3743 138.4710 42.2025 -8.5031 -0.8856 36.3085
# 3 70.2703 42.2025 197.1263 -8.6491 -4.3698 28.0895
# 4 -8.5360 -8.5031 -8.6491 54.3866 16.7875 -4.4124
# 5 2.8817 -0.8856 -4.3698 16.7875 50.1841 -0.1929
# 6 23.5271 36.3085 28.0895 -4.4124 -0.1929 31.4752
#
#
#
# Elastic Compliance Matrix: (Units=1/GPa)
#
#
# Indices 1 2 3 4 5 6 
#
# 1 0.013612 -0.001013 -0.003841 0.001435 -0.001635 -0.005387
# 2 -0.001013 0.010510 -0.000294 0.000545 -0.000007 -0.011028
# 3 -0.003841 -0.000294 0.006948 -0.000040 0.000822 -0.002991
# 4 0.001435 0.000545 -0.000040 0.020979 -0.007089 0.001233
# 5 -0.001635 -0.000007 0.000822 -0.007089 0.022462 -0.000361
# 6 -0.005387 -0.011028 -0.002991 0.001233 -0.000361 0.051359
#
#
# Mechanical properties :
#
#
# Convention : Reuss Voigt Hill
#
# Bulk Modulus (GPa) = 48.13784 82.43583 65.28683
# Shear Modulus (GPa) = 34.94292 46.70125 40.82209
#
# Velocity S-wave (km/s) = 3.75428 4.34022 4.05784
# Velocity P-wave (km/s) = 6.18141 7.63990 6.94903
#
# Compressibility (1/GPa) = 0.02077368
#
# Stress axis : x y z
#
# Youngs Moduli (GPa) = 73.46336 95.15002 143.93263
#
# Poissons Ratio (x) = 0.09640 0.55287
# Poissons Ratio (y) = 0.07443 0.04227
# Poissons Ratio (z) = 0.28218 0.02794
#
# Static dielectric constant tensor:
#      x y z
#    x 2.217500 -0.249940 0.015360 
#    y -0.249940 2.195100 -0.033870 
#    z 0.015360 -0.033870 2.002180 
# 
# From -- ./inp_files/136027.got.cif
#   From: 2010.05.17/outbox.cif.g08.bks.cpg/sg2_69_cif.got.tgz:136027.got - 2010.06.03 11:33:40.
