data_PCOD9098949
_publ_section_title
;
Structure prediction by ZEFSAII (Michael W. Deem and Ramdas Pophale) SiO2 
 PCOD9098949
Probable space group: P -1
;
_chemical_formula_sum "Si O2"
_cell_formula_units_Z 14
_cell_length_a 11.681637
_cell_length_b 9.683597
_cell_length_c 10.088734
_cell_angle_alpha 54.830146
_cell_angle_beta 74.159344
_cell_angle_gamma 118.221555
_cell_volume 536.983476
_symmetry_space_group_name_H-M "P -1"
_symmetry_group_IT_number 2
_symmetry_cell_setting 'triclinic'
loop_
_space_group_symop_operation_xyz
x,y,z
-x,-y,-z
loop_
_atom_site_type_symbol
_atom_site_label
_atom_site_fract_x
_atom_site_fract_y
_atom_site_fract_z
Si Si1 0.316479 0.114247 0.543186
Si Si2 0.647571 0.679259 0.977330
Si Si3 0.578264 0.081468 0.195298
Si Si4 0.263890 0.964565 0.037504
Si Si5 0.168570 0.534199 0.677792
Si Si6 0.778711 0.759994 0.264341
Si Si7 0.094935 0.320928 0.121058
O O1 0.345310 0.980142 0.695041
O O2 0.526139 0.410451 0.258539
O O3 0.240487 0.189238 0.612032
O O4 0.120393 0.871007 0.649989
O O5 0.857250 0.823656 0.814287
O O6 0.500000 0.500000 0.000000
O O7 0.686999 0.907526 0.903535
O O8 0.731634 0.404596 0.996294
O O9 0.354110 0.871630 0.424675
O O10 0.614122 0.050276 0.054103
O O11 0.032268 0.664868 0.234324
O O12 0.318880 0.198282 0.808756
O O13 0.279430 0.497753 0.595610
O O14 0.111890 0.420547 0.910387
O O15 0.000000 0.000000 0.000000
#
# Coordination Sequence:
#
# PCOD9098949 Si02
#       7
#     2   2   2   2   2   2   2
#     4  11  21  37  63  89 129 155 192 251 313 356
#     4  12  27  43  60  84 120 171 216 240 282 360
#     4  11  22  33  63 101 121 149 187 252 327 364
#     4  10  20  37  58  87 120 151 200 249 305 357
#     4  11  18  32  59  91 128 147 183 247 312 361
#     4   9  14  30  55  88 114 146 182 243 304 349
#     4  12  22  38  59  95 128 152 194 251 308 365
#
# _framework density 26.071566000000001
#
# number of rings (size 3 to 8) (size 9 to 14) (size 15 to 20)
#    0.000    1.143    7.143    2.571    0.000    2.857 
#    0.000    0.714    0.000    1.714    0.000    0.000 
#    0.000    0.000    0.000    0.000    0.000    0.000 
#
# Total GULP energy -78226.677591 kJ/mol
# GULP energy per Si atom -5587.619828 kJ/mol
# Density = 2.601223 g / cm^3
# Si number density = 26.071566 Si / 1000 Ang^3
#
#
#
# Elastic Constant Matrix: (Units=GPa)
#
#
# Indices 1 2 3 4 5 6 
#
# 1 66.9792 28.0409 31.3827 18.2613 -26.8990 5.0852
# 2 28.0409 130.1003 16.7402 -12.3854 -20.1990 5.1621
# 3 31.3827 16.7402 38.9372 -29.4018 -38.1489 2.2702
# 4 18.2613 -12.3854 -29.4018 34.9104 6.5122 -14.0150
# 5 -26.8990 -20.1990 -38.1489 6.5122 40.2299 -2.0342
# 6 5.0852 5.1621 2.2702 -14.0150 -2.0342 45.1448
#
#
#
# Elastic Compliance Matrix: (Units=1/GPa)
#
#
# Indices 1 2 3 4 5 6 
#
# 1 0.014669 -0.000816 0.023877 0.006645 0.031000 0.000700
# 2 -0.000816 0.008221 -0.005921 -0.001782 -0.001804 -0.001185
# 3 0.023877 -0.005921 -0.024154 -0.039466 -0.004193 -0.013239
# 4 0.006645 -0.001782 -0.039466 -0.002841 -0.033464 -0.000950
# 5 0.031000 -0.001804 -0.004193 -0.033464 0.045543 -0.011411
# 6 0.000700 -0.001185 -0.013239 -0.000950 -0.011411 0.022064
#
#
# Mechanical properties :
#
#
# Convention : Reuss Voigt Hill
#
# Bulk Modulus (GPa) = 30.28829 43.14936 36.71882
# Shear Modulus (GPa) = 124.28825 34.71389 79.50107
#
# Velocity S-wave (km/s) = 6.91198 3.65291 5.52807
# Velocity P-wave (km/s) = 8.68004 5.86327 7.40679
#
# Compressibility (1/GPa) = 0.03301606
#
# Stress axis : x y z
#
# Youngs Moduli (GPa) = 68.16990 121.63361 -41.40119
#
# Poissons Ratio (x) = 0.09928 0.98854
# Poissons Ratio (y) = 0.05564 -0.24515
# Poissons Ratio (z) = -1.62770 0.72022
#
# Static dielectric constant tensor:
#      x y z
#    x 2.024910 0.011030 0.039020 
#    y 0.011030 2.262690 -0.021320 
#    z 0.039020 -0.021320 2.181000 
# 
# From -- ./inp_files/427553.got.cif
#   From: 2010.05.17/outbox.cif.g08.bks.cpg/sg2_214_cif.got.tgz:427553.got - 2010.06.03 11:33:40.
