data_PCOD9098728
_publ_section_title
;
Structure prediction by ZEFSAII (Michael W. Deem and Ramdas Pophale) SiO2 
 PCOD9098728
Probable space group: P -1
;
_chemical_formula_sum "Si O2"
_cell_formula_units_Z 16
_cell_length_a 5.530928
_cell_length_b 13.330506
_cell_length_c 13.353299
_cell_angle_alpha 47.359377
_cell_angle_beta 102.425966
_cell_angle_gamma 99.982056
_cell_volume 706.757203
_symmetry_space_group_name_H-M "P -1"
_symmetry_group_IT_number 2
_symmetry_cell_setting 'triclinic'
loop_
_space_group_symop_operation_xyz
x,y,z
-x,-y,-z
loop_
_atom_site_type_symbol
_atom_site_label
_atom_site_fract_x
_atom_site_fract_y
_atom_site_fract_z
Si Si1 0.690161 0.814974 0.419595
Si Si2 0.936462 0.898505 0.970519
Si Si3 0.487431 0.901855 0.698857
Si Si4 0.572243 0.990983 0.129302
Si Si5 0.138136 0.920416 0.480578
Si Si6 0.329789 0.368243 0.090858
Si Si7 0.585474 0.575979 0.716020
Si Si8 0.930240 0.588753 0.156588
O O1 0.554455 0.694641 0.550172
O O2 0.978436 0.809290 0.479810
O O3 0.636457 0.967172 0.353690
O O4 0.617712 0.840616 0.280729
O O5 0.928588 0.739047 0.104214
O O6 0.665116 0.944574 0.883427
O O7 0.164214 0.927361 0.895474
O O8 0.000000 0.000000 0.000000
O O9 0.363885 0.867287 0.602129
O O10 0.508999 0.756490 0.847904
O O11 0.762150 0.960879 0.662674
O O12 0.500000 0.000000 0.000000
O O13 0.000000 0.000000 0.500000
O O14 0.294992 0.360527 0.212677
O O15 0.500000 0.500000 0.000000
O O16 0.102520 0.382014 0.985791
O O17 0.319217 0.498714 0.770274
O O18 0.805256 0.480417 0.760435
#
# Coordination Sequence:
#
# PCOD9098728 Si02
#       8
#     2   2   2   2   2   2   2   2
#     4  11  24  37  65  91 131 177 223 283 328 397
#     4  10  22  45  74  99 127 162 221 291 344 396
#     4  10  20  37  56  89 126 175 233 267 319 378
#     4  10  23  42  70 101 126 158 215 282 350 397
#     4   9  19  33  53  85 123 165 217 269 316 374
#     4  10  22  38  58  88 138 189 221 265 315 391
#     4  11  25  41  60  94 142 180 224 259 327 403
#     4  11  24  42  65  96 133 182 224 269 326 400
#
# _framework density 22.638608999999999
#
# number of rings (size 3 to 8) (size 9 to 14) (size 15 to 20)
#    0.000    1.750    0.000    4.125    8.750    1.000 
#    4.500    0.000    0.000   18.000    0.000    0.000 
#    0.000    0.000    0.000    0.000    0.000    0.000 
#
# Total GULP energy -89139.797082 kJ/mol
# GULP energy per Si atom -5571.237318 kJ/mol
# Density = 2.258708 g / cm^3
# Si number density = 22.638609 Si / 1000 Ang^3
#
#
#
# Elastic Constant Matrix: (Units=GPa)
#
#
# Indices 1 2 3 4 5 6 
#
# 1 147.0758 17.2373 39.4522 -9.8800 -2.7364 2.9377
# 2 17.2373 74.9086 30.7984 -4.2185 -2.8997 2.7280
# 3 39.4522 30.7984 139.1555 -1.3730 -5.6779 2.4834
# 4 -9.8800 -4.2185 -1.3730 34.7911 -1.0476 2.6359
# 5 -2.7364 -2.8997 -5.6779 -1.0476 32.3739 -5.0612
# 6 2.9377 2.7280 2.4834 2.6359 -5.0612 19.9534
#
#
#
# Elastic Compliance Matrix: (Units=1/GPa)
#
#
# Indices 1 2 3 4 5 6 
#
# 1 0.007570 -0.000792 -0.001927 0.002058 0.000141 -0.001003
# 2 -0.000792 0.014942 -0.003016 0.001607 0.000540 -0.001626
# 3 -0.001927 -0.003016 0.008437 -0.000547 0.001026 -0.000022
# 4 0.002058 0.001607 -0.000547 0.029839 0.000521 -0.004264
# 5 0.000141 0.000540 0.001026 0.000521 0.032385 0.007923
# 6 -0.001003 -0.001626 -0.000022 -0.004264 0.007923 0.053063
#
#
# Mechanical properties :
#
#
# Convention : Reuss Voigt Hill
#
# Bulk Modulus (GPa) = 51.33443 59.56840 55.45142
# Shear Modulus (GPa) = 30.45106 35.66714 33.05910
#
# Velocity S-wave (km/s) = 3.67153 3.97356 3.82553
# Velocity P-wave (km/s) = 6.37953 6.88637 6.63779
#
# Compressibility (1/GPa) = 0.01948010
#
# Stress axis : x y z
#
# Youngs Moduli (GPa) = 132.10424 66.92385 118.52854
#
# Poissons Ratio (x) = 0.05299 0.22840
# Poissons Ratio (y) = 0.10460 0.35744
# Poissons Ratio (z) = 0.25456 0.20182
#
# Static dielectric constant tensor:
#      x y z
#    x 2.008210 -0.145090 0.028570 
#    y -0.145090 0.599690 -0.386270 
#    z 0.028570 -0.386270 1.825810 
# 
# From -- ./inp_files/483833.got.cif
#   From: 2010.05.17/outbox.cif.g08.bks.cpg/sg2_242_cif.got.tgz:483833.got - 2010.06.03 11:33:40.
