data_PCOD9098786
_publ_section_title
;
Structure prediction by ZEFSAII (Michael W. Deem and Ramdas Pophale) SiO2 
 PCOD9098786
Probable space group: P -1
;
_chemical_formula_sum "Si O2"
_cell_formula_units_Z 16
_cell_length_a 23.305279
_cell_length_b 5.181964
_cell_length_c 20.454204
_cell_angle_alpha 82.955808
_cell_angle_beta 164.197872
_cell_angle_gamma 92.073645
_cell_volume 636.269990
_symmetry_space_group_name_H-M "P -1"
_symmetry_group_IT_number 2
_symmetry_cell_setting 'triclinic'
loop_
_space_group_symop_operation_xyz
x,y,z
-x,-y,-z
loop_
_atom_site_type_symbol
_atom_site_label
_atom_site_fract_x
_atom_site_fract_y
_atom_site_fract_z
Si Si1 0.668203 0.839944 0.245375
Si Si2 0.312711 0.083843 0.581888
Si Si3 0.893790 0.906396 0.083957
Si Si4 0.771766 0.630654 0.073710
Si Si5 0.600640 0.703171 0.453719
Si Si6 0.135120 0.891700 0.216648
Si Si7 0.018634 0.811310 0.451717
Si Si8 0.680956 0.313762 0.099927
O O1 0.661100 0.887346 0.314003
O O2 0.875102 0.946222 0.453113
O O3 0.568462 0.580699 0.149669
O O4 0.500000 0.000000 0.000000
O O5 0.093477 0.996968 0.332070
O O6 0.323224 0.330127 0.538254
O O7 0.537338 0.862034 0.811136
O O8 0.965410 0.862724 0.088464
O O9 0.861386 0.651049 0.098492
O O10 0.660167 0.146741 0.827627
O O11 0.705692 0.404745 0.050541
O O12 0.962262 0.674172 0.329386
O O13 0.314145 0.596067 0.413016
O O14 0.735889 0.897677 0.625141
O O15 0.000000 0.000000 0.000000
O O16 0.166645 0.626842 0.676740
O O17 0.779713 0.985216 0.211424
#
# Coordination Sequence:
#
# PCOD9098786 Si02
#       8
#     2   2   2   2   2   2   2   2
#     4  10  20  37  57  84 125 175 229 299 365 417
#     4  10  21  40  62  92 138 179 240 303 358 435
#     4  10  24  45  67 107 144 195 242 295 369 445
#     4  11  21  39  61  89 125 178 236 292 362 430
#     4  10  25  45  75 111 151 198 244 294 368 442
#     4  11  25  49  79 116 154 190 241 302 360 445
#     4  10  20  38  55  82 121 169 227 299 372 428
#     4  10  22  35  56  84 120 167 230 303 365 426
#
# _framework density 25.146557999999999
#
# number of rings (size 3 to 8) (size 9 to 14) (size 15 to 20)
#    0.000    1.750    2.500    0.750    0.000    8.000 
#    0.000    1.250    0.000    0.000    0.000    0.000 
#    0.000    0.000    0.000    0.000    0.000    0.000 
#
# Total GULP energy -89236.499289 kJ/mol
# GULP energy per Si atom -5577.281206 kJ/mol
# Density = 2.508932 g / cm^3
# Si number density = 25.146558 Si / 1000 Ang^3
#
#
#
# Elastic Constant Matrix: (Units=GPa)
#
#
# Indices 1 2 3 4 5 6 
#
# 1 123.7703 29.1148 58.5419 -3.4924 -9.7633 29.8852
# 2 29.1148 103.2862 38.9677 -7.6589 -2.4548 13.8275
# 3 58.5419 38.9677 154.6620 0.4597 -6.1686 14.7073
# 4 -3.4924 -7.6589 0.4597 38.2878 6.7723 -0.8648
# 5 -9.7633 -2.4548 -6.1686 6.7723 38.8916 -4.9408
# 6 29.8852 13.8275 14.7073 -0.8648 -4.9408 31.4486
#
#
#
# Elastic Compliance Matrix: (Units=1/GPa)
#
#
# Indices 1 2 3 4 5 6 
#
# 1 0.012343 -0.000805 -0.003518 0.000584 0.001178 -0.009529
# 2 -0.000805 0.011351 -0.002284 0.002267 -0.000649 -0.003197
# 3 -0.003518 -0.002284 0.008349 -0.000960 0.000528 0.000499
# 4 0.000584 0.002267 -0.000960 0.027457 -0.004783 -0.001099
# 5 0.001178 -0.000649 0.000528 -0.004783 0.027274 0.003073
# 6 -0.009529 -0.003197 0.000499 -0.001099 0.003073 0.042478
#
#
# Mechanical properties :
#
#
# Convention : Reuss Voigt Hill
#
# Bulk Modulus (GPa) = 53.10709 70.55192 61.82951
# Shear Modulus (GPa) = 33.61495 38.73187 36.17341
#
# Velocity S-wave (km/s) = 3.66014 3.92885 3.79688
# Velocity P-wave (km/s) = 6.24716 6.97842 6.62289
#
# Compressibility (1/GPa) = 0.01882988
#
# Stress axis : x y z
#
# Youngs Moduli (GPa) = 81.01775 88.09679 119.77356
#
# Poissons Ratio (x) = 0.07093 0.42133
# Poissons Ratio (y) = 0.06523 0.27354
# Poissons Ratio (z) = 0.28500 0.20119
#
# Static dielectric constant tensor:
#      x y z
#    x 2.207720 -0.169700 0.275820 
#    y -0.169700 2.256550 -0.176600 
#    z 0.275820 -0.176600 2.302900 
# 
# From -- ./inp_files/577071.got.cif
#   From: 2010.05.17/outbox.cif.g08.bks.cpg/sg2_289_cif.got.tgz:577071.got - 2010.06.03 11:33:40.
