data_PCOD9098821
_publ_section_title
;
Structure prediction by ZEFSAII (Michael W. Deem and Ramdas Pophale) SiO2 
 PCOD9098821
Probable space group: P -1
;
_chemical_formula_sum "Si O2"
_cell_formula_units_Z 16
_cell_length_a 20.456387
_cell_length_b 7.715721
_cell_length_c 25.654714
_cell_angle_alpha 58.548463
_cell_angle_beta 12.779429
_cell_angle_gamma 56.811912
_cell_volume 747.987451
_symmetry_space_group_name_H-M "P -1"
_symmetry_group_IT_number 2
_symmetry_cell_setting 'triclinic'
loop_
_space_group_symop_operation_xyz
x,y,z
-x,-y,-z
loop_
_atom_site_type_symbol
_atom_site_label
_atom_site_fract_x
_atom_site_fract_y
_atom_site_fract_z
Si Si1 0.150039 0.581970 0.756262
Si Si2 0.617677 0.646637 0.089884
Si Si3 0.177345 0.079913 0.265761
Si Si4 0.253799 0.522755 0.487983
Si Si5 0.232168 0.673418 0.059719
Si Si6 0.710249 0.878900 0.714741
Si Si7 0.152293 0.976774 0.766509
Si Si8 0.135919 0.652826 0.908140
O O1 0.500000 0.500000 0.500000
O O2 0.105845 0.793660 0.791163
O O3 0.964952 0.630606 0.839723
O O4 0.018049 0.390343 0.912044
O O5 0.438100 0.534676 0.289474
O O6 0.463403 0.885747 0.176223
O O7 0.615323 0.539696 0.053365
O O8 0.212052 0.201175 0.274352
O O9 0.942630 0.244462 0.388053
O O10 0.999185 0.902882 0.451481
O O11 0.500000 0.000000 0.000000
O O12 0.508691 0.439749 0.346097
O O13 0.018882 0.371572 0.697632
O O14 0.486095 0.767363 0.875657
O O15 0.058507 0.820496 0.125683
O O16 0.068335 0.882033 0.901447
O O17 0.500000 0.000000 0.500000
O O18 0.000000 0.500000 0.000000
#
# Coordination Sequence:
#
# PCOD9098821 Si02
#       8
#     2   2   2   2   2   2   2   2
#     4  10  20  37  57  88 125 171 215 263 313 376
#     4  10  22  42  61  91 132 170 211 263 325 374
#     4  10  22  44  70  95 127 169 213 266 329 386
#     4  10  22  41  63  93 132 165 213 271 315 386
#     4  12  23  40  67  96 130 172 211 267 325 379
#     4  10  23  44  67  96 128 162 218 269 315 395
#     4  11  20  37  59  91 131 165 215 262 312 381
#     4   9  20  36  59  87 127 170 209 258 317 374
#
# _framework density 21.390733000000001
#
# number of rings (size 3 to 8) (size 9 to 14) (size 15 to 20)
#    0.000    1.750    2.500    1.500    3.500    1.500 
#    2.250   10.625    0.000    0.000    0.000    0.000 
#    0.000    0.000    0.000    0.000    0.000    0.000 
#
# Total GULP energy -89242.620534 kJ/mol
# GULP energy per Si atom -5577.663783 kJ/mol
# Density = 2.134205 g / cm^3
# Si number density = 21.390733 Si / 1000 Ang^3
#
#
#
# Elastic Constant Matrix: (Units=GPa)
#
#
# Indices 1 2 3 4 5 6 
#
# 1 72.4429 22.7880 37.8249 -8.7554 -23.6483 7.7834
# 2 22.7880 60.7714 28.6794 -4.9508 -1.4869 0.1761
# 3 37.8249 28.6794 151.1794 -5.4256 -20.0799 6.7229
# 4 -8.7554 -4.9508 -5.4256 35.9722 3.1789 -7.7973
# 5 -23.6483 -1.4869 -20.0799 3.1789 37.3753 -4.4108
# 6 7.7834 0.1761 6.7229 -7.7973 -4.4108 34.2117
#
#
#
# Elastic Compliance Matrix: (Units=1/GPa)
#
#
# Indices 1 2 3 4 5 6 
#
# 1 0.021369 -0.006385 -0.002419 0.002440 0.011486 -0.002316
# 2 -0.006385 0.020217 -0.002883 0.001572 -0.004721 0.001664
# 3 -0.002419 -0.002883 0.008147 -0.000149 0.002659 -0.000727
# 4 0.002440 0.001572 -0.000149 0.029969 -0.000284 0.006260
# 5 0.011486 -0.004721 0.002659 -0.000284 0.035452 0.001395
# 6 -0.002316 0.001664 -0.000727 0.006260 0.001395 0.031498
#
#
# Mechanical properties :
#
#
# Convention : Reuss Voigt Hill
#
# Bulk Modulus (GPa) = 37.93593 51.44202 44.68897
# Shear Modulus (GPa) = 27.96250 34.51861 31.24055
#
# Velocity S-wave (km/s) = 3.61948 4.02147 3.82576
# Velocity P-wave (km/s) = 5.93639 6.75751 6.36021
#
# Compressibility (1/GPa) = 0.02636024
#
# Stress axis : x y z
#
# Youngs Moduli (GPa) = 46.79737 49.46265 122.74726
#
# Poissons Ratio (x) = 0.31580 0.29693
# Poissons Ratio (y) = 0.29878 0.35383
# Poissons Ratio (z) = 0.11321 0.14258
#
# Static dielectric constant tensor:
#      x y z
#    x 1.835920 -0.015170 0.017900 
#    y -0.015170 1.649170 0.039490 
#    z 0.017900 0.039490 1.807370 
# 
# From -- ./inp_files/215383.got.cif
#   From: 2010.05.17/outbox.cif.g08.bks.cpg/sg2_108_cif.got.tgz:215383.got - 2010.06.03 11:33:40.
