data_PCOD9098220
_publ_section_title
;
Structure prediction by ZEFSAII (Michael W. Deem and Ramdas Pophale) SiO2 
 PCOD9098220
Probable space group: P -1
;
_chemical_formula_sum "Si O2"
_cell_formula_units_Z 16
_cell_length_a 7.022910
_cell_length_b 5.556650
_cell_length_c 22.831238
_cell_angle_alpha 122.115513
_cell_angle_beta 57.470604
_cell_angle_gamma 101.975324
_cell_volume 632.392571
_symmetry_space_group_name_H-M "P -1"
_symmetry_group_IT_number 2
_symmetry_cell_setting 'triclinic'
loop_
_space_group_symop_operation_xyz
x,y,z
-x,-y,-z
loop_
_atom_site_type_symbol
_atom_site_label
_atom_site_fract_x
_atom_site_fract_y
_atom_site_fract_z
Si Si1 0.045162 0.250763 0.669108
Si Si2 0.443036 0.020167 0.658121
Si Si3 0.368502 0.074471 0.278062
Si Si4 0.837937 0.405990 0.928298
Si Si5 0.635088 0.766273 0.490012
Si Si6 0.346322 0.439345 0.899655
Si Si7 0.427796 0.631152 0.798713
Si Si8 0.061186 0.249044 0.156481
O O1 0.230807 0.060587 0.655261
O O2 0.149766 0.322722 0.598407
O O3 0.978533 0.529662 0.755457
O O4 0.840996 0.054273 0.675753
O O5 0.482012 0.803969 0.678366
O O6 0.410566 0.303197 0.740228
O O7 0.654535 0.942268 0.569653
O O8 0.493075 0.838938 0.182400
O O9 0.343332 0.324247 0.267802
O O10 0.091770 0.436802 0.915697
O O11 0.819236 0.590930 0.895731
O O12 0.672806 0.518833 0.023069
O O13 0.834961 0.064406 0.880620
O O14 0.500000 0.500000 0.500000
O O15 0.500000 0.000000 0.500000
O O16 0.437790 0.675416 0.872164
O O17 0.189955 0.786290 0.833832
#
# Coordination Sequence:
#
# PCOD9098220 Si02
#       8
#     2   2   2   2   2   2   2   2
#     4  10  24  42  66  97 128 171 219 264 330 390
#     4   9  22  42  64  93 127 171 212 268 318 390
#     4  11  21  41  64  95 131 170 216 269 327 387
#     4  10  20  36  64  90 125 172 221 267 324 381
#     4  10  23  43  70  99 130 173 218 268 324 390
#     4   9  20  34  58  95 125 165 220 270 317 384
#     4   9  19  35  62  89 128 166 212 268 321 382
#     4  10  21  37  61  89 124 173 216 265 325 385
#
# _framework density 25.300740000000001
#
# number of rings (size 3 to 8) (size 9 to 14) (size 15 to 20)
#    0.000    2.250    1.250    0.750    7.000    3.000 
#   13.500    1.875    0.000    0.000    0.000    0.000 
#    0.000    0.000    0.000    0.000    0.000    0.000 
#
# Total GULP energy -89217.620990 kJ/mol
# GULP energy per Si atom -5576.101312 kJ/mol
# Density = 2.524315 g / cm^3
# Si number density = 25.300740 Si / 1000 Ang^3
#
#
#
# Elastic Constant Matrix: (Units=GPa)
#
#
# Indices 1 2 3 4 5 6 
#
# 1 83.1044 22.4962 35.5651 -21.0048 11.2791 -5.1353
# 2 22.4962 130.7036 57.4220 -43.1097 4.4580 0.4730
# 3 35.5651 57.4220 194.3072 -50.3410 12.3102 -3.1506
# 4 -21.0048 -43.1097 -50.3410 47.6889 -4.2083 -1.8754
# 5 11.2791 4.4580 12.3102 -4.2083 32.2415 -10.9175
# 6 -5.1353 0.4730 -3.1506 -1.8754 -10.9175 27.4411
#
#
#
# Elastic Compliance Matrix: (Units=1/GPa)
#
#
# Indices 1 2 3 4 5 6 
#
# 1 0.014314 -0.000362 -0.001081 0.004592 -0.003434 0.001508
# 2 -0.000362 0.011034 -0.000897 0.008901 0.000218 0.000334
# 3 -0.001081 -0.000897 0.007354 0.006387 -0.001273 0.000587
# 4 0.004592 0.008901 0.006387 0.038067 0.001226 0.004529
# 5 -0.003434 0.000218 -0.001273 0.001226 0.037668 0.014277
# 6 0.001508 0.000334 0.000587 0.004529 0.014277 0.042775
#
#
# Mechanical properties :
#
#
# Convention : Reuss Voigt Hill
#
# Bulk Modulus (GPa) = 35.68680 71.00909 53.34795
# Shear Modulus (GPa) = 30.26012 40.98309 35.62160
#
# Velocity S-wave (km/s) = 3.46210 4.02909 3.75631
# Velocity P-wave (km/s) = 5.48791 7.05490 6.32016
#
# Compressibility (1/GPa) = 0.02802156
#
# Stress axis : x y z
#
# Youngs Moduli (GPa) = 69.86270 90.62562 135.97294
#
# Poissons Ratio (x) = 0.03285 0.14700
# Poissons Ratio (y) = 0.02532 0.12197
# Poissons Ratio (z) = 0.07553 0.08129
#
# Static dielectric constant tensor:
#      x y z
#    x 2.182760 -0.102820 -0.074100 
#    y -0.102820 2.318860 -0.038010 
#    z -0.074100 -0.038010 1.992880 
# 
# From -- ./inp_files/142541.got.cif
#   From: 2010.05.17/outbox.cif.g08.bks.cpg/sg2_72_cif.got.tgz:142541.got - 2010.06.03 11:33:40.
