data_PCOD9098961
_publ_section_title
;
Structure prediction by ZEFSAII (Michael W. Deem and Ramdas Pophale) SiO2 
 PCOD9098961
Probable space group: P -1
;
_chemical_formula_sum "Si O2"
_cell_formula_units_Z 13
_cell_length_a 6.590121
_cell_length_b 12.104022
_cell_length_c 9.675662
_cell_angle_alpha 122.353409
_cell_angle_beta 128.358823
_cell_angle_gamma 55.029917
_cell_volume 476.197386
_symmetry_space_group_name_H-M "P -1"
_symmetry_group_IT_number 2
_symmetry_cell_setting 'triclinic'
loop_
_space_group_symop_operation_xyz
x,y,z
-x,-y,-z
loop_
_atom_site_type_symbol
_atom_site_label
_atom_site_fract_x
_atom_site_fract_y
_atom_site_fract_z
Si Si1 0.152131 0.111433 0.576736
Si Si2 0.926722 0.559254 0.854747
Si Si3 0.158969 0.628705 0.535675
Si Si4 0.702555 0.143463 0.698379
Si Si5 0.638229 0.555125 0.264467
Si Si6 0.426560 0.147212 0.991550
Si Si7 0.000000 0.000000 0.000000
O O1 0.418203 0.128793 0.622102
O O2 0.897319 0.220668 0.455992
O O3 0.210289 0.947257 0.466060
O O4 0.207460 0.155402 0.781932
O O5 0.785037 0.477323 0.640597
O O6 0.728246 0.721273 0.887894
O O7 0.781464 0.484335 0.135234
O O8 0.000000 0.500000 0.000000
O O9 0.353799 0.565442 0.706092
O O10 0.860969 0.624444 0.461609
O O11 0.637452 0.307985 0.766733
O O12 0.920892 0.064470 0.854537
O O13 0.716468 0.129312 0.027134
O O14 0.500000 0.000000 0.000000
#
# Coordination Sequence:
#
# PCOD9098961 Si02
#       7
#     2   2   2   2   2   2   1
#     4   9  17  31  54  89 109 150 198 239 287 349
#     4  10  16  31  53  86 116 151 197 244 290 354
#     4   8  15  28  49  84 114 149 196 236 296 345
#     4   9  17  32  58  79 116 149 195 236 288 350
#     4   8  16  27  50  84 105 150 196 235 287 350
#     4  11  23  36  62  90 117 155 202 243 294 352
#     4  10  22  42  54  90 122 158 188 244 308 346
#
# _framework density 27.299600000000002
#
# number of rings (size 3 to 8) (size 9 to 14) (size 15 to 20)
#    0.923    1.846    1.538    0.923    2.154    2.462 
#    0.000    0.769    0.000    9.231    0.000    0.000 
#    0.000    0.000    0.000    0.000    0.000    0.000 
#
# Total GULP energy -72443.240107 kJ/mol
# GULP energy per Si atom -5572.556931 kJ/mol
# Density = 2.723747 g / cm^3
# Si number density = 27.299600 Si / 1000 Ang^3
#
#
#
# Elastic Constant Matrix: (Units=GPa)
#
#
# Indices 1 2 3 4 5 6 
#
# 1 64.7215 32.3634 18.2886 10.4757 -6.8740 -38.0041
# 2 32.3634 267.5409 101.0686 -4.4022 -17.4117 -19.3146
# 3 18.2886 101.0686 140.8289 -15.9769 -35.2301 -9.9965
# 4 10.4757 -4.4022 -15.9769 51.9961 -0.5518 -6.7485
# 5 -6.8740 -17.4117 -35.2301 -0.5518 50.2704 1.0536
# 6 -38.0041 -19.3146 -9.9965 -6.7485 1.0536 50.6624
#
#
#
# Elastic Compliance Matrix: (Units=1/GPa)
#
#
# Indices 1 2 3 4 5 6 
#
# 1 0.029654 -0.001582 -0.001086 -0.003707 0.002267 0.020886
# 2 -0.001582 0.005349 -0.003971 -0.000457 -0.001152 0.000032
# 3 -0.001086 -0.003971 0.012350 0.003814 0.007163 0.000467
# 4 -0.003707 -0.000457 0.003814 0.021211 0.002228 0.000576
# 5 0.002267 -0.001152 0.007163 0.002228 0.024796 0.002456
# 6 0.020886 0.000032 0.000467 0.000576 0.002456 0.035536
#
#
# Mechanical properties :
#
#
# Convention : Reuss Voigt Hill
#
# Bulk Modulus (GPa) = 29.34857 86.28141 57.81499
# Shear Modulus (GPa) = 32.56611 52.01050 42.28831
#
# Velocity S-wave (km/s) = 3.45761 4.36957 3.94006
# Velocity P-wave (km/s) = 5.16855 7.55854 6.47477
#
# Compressibility (1/GPa) = 0.03407321
#
# Stress axis : x y z
#
# Youngs Moduli (GPa) = 33.72200 186.94471 80.97393
#
# Poissons Ratio (x) = 0.29583 0.08796
# Poissons Ratio (y) = 0.05336 0.32157
# Poissons Ratio (z) = 0.03663 0.74241
#
# Static dielectric constant tensor:
#      x y z
#    x 2.500380 -0.024140 0.311070 
#    y -0.024140 2.127790 -0.069980 
#    z 0.311070 -0.069980 2.416380 
# 
# From -- ./inp_files/197611.got.cif
#   From: 2010.05.17/outbox.cif.g08.bks.cpg/sg2_99_cif.got.tgz:197611.got - 2010.06.03 11:33:40.
