data_PCOD9098195
_publ_section_title
;
Structure prediction by ZEFSAII (Michael W. Deem and Ramdas Pophale) SiO2 
 PCOD9098195
Probable space group: P -1
;
_chemical_formula_sum "Si O2"
_cell_formula_units_Z 15
_cell_length_a 8.787446
_cell_length_b 8.755093
_cell_length_c 11.995093
_cell_angle_alpha 75.024422
_cell_angle_beta 57.784770
_cell_angle_gamma 48.486420
_cell_volume 578.039519
_symmetry_space_group_name_H-M "P -1"
_symmetry_group_IT_number 2
_symmetry_cell_setting 'triclinic'
loop_
_space_group_symop_operation_xyz
x,y,z
-x,-y,-z
loop_
_atom_site_type_symbol
_atom_site_label
_atom_site_fract_x
_atom_site_fract_y
_atom_site_fract_z
Si Si1 0.738677 0.647563 0.976263
Si Si2 0.233842 0.865965 0.813774
Si Si3 0.695960 0.474129 0.741224
Si Si4 0.510221 0.173775 0.500996
Si Si5 0.288058 0.696209 0.468690
Si Si6 0.985905 0.594665 0.664871
Si Si7 0.500000 0.500000 0.000000
Si Si8 0.873391 0.827734 0.024969
O O1 0.876689 0.646341 0.819189
O O2 0.915271 0.417568 0.001869
O O3 0.524977 0.665105 0.015090
O O4 0.678506 0.825442 0.048173
O O5 0.420569 0.652468 0.853802
O O6 0.367271 0.809667 0.656298
O O7 0.216106 0.038934 0.853518
O O8 0.996655 0.901660 0.896373
O O9 0.696190 0.362072 0.656192
O O10 0.816922 0.576965 0.658397
O O11 0.768934 0.370607 0.852088
O O12 0.670409 0.145137 0.546109
O O13 0.242192 0.370014 0.595726
O O14 0.500000 0.000000 0.500000
O O15 0.500000 0.500000 0.500000
O O16 0.051169 0.739274 0.587494
#
# Coordination Sequence:
#
# PCOD9098195 Si02
#       8
#     2   2   2   2   2   2   1   2
#     4  10  20  37  60  87 118 156 206 242 296 366
#     4  11  21  38  61  88 123 153 202 260 293 348
#     4  11  21  39  63  87 125 156 207 242 304 369
#     4  11  23  38  61  92 123 153 204 253 302 348
#     4  10  20  36  64  88 113 157 201 245 293 356
#     4  10  21  36  62  88 118 159 197 247 301 363
#     4  10  22  36  58  86 120 160 190 248 296 356
#     4  10  22  36  63  86 117 161 206 248 296 349
#
# _framework density 25.949784000000001
#
# number of rings (size 3 to 8) (size 9 to 14) (size 15 to 20)
#    0.000    1.600    4.000    2.000    1.867    1.067 
#    0.000    3.333    8.800    0.000    0.000    0.000 
#    0.000    0.000    0.000    0.000    0.000    0.000 
#
# Total GULP energy -83577.172108 kJ/mol
# GULP energy per Si atom -5571.811474 kJ/mol
# Density = 2.589072 g / cm^3
# Si number density = 25.949784 Si / 1000 Ang^3
#
#
#
# Elastic Constant Matrix: (Units=GPa)
#
#
# Indices 1 2 3 4 5 6 
#
# 1 154.7608 70.8377 35.1037 0.3837 -0.9310 67.3895
# 2 70.8377 90.9403 13.8609 15.0985 4.4077 36.7290
# 3 35.1037 13.8609 102.3126 -0.6579 2.1887 23.8879
# 4 0.3837 15.0985 -0.6579 20.9347 6.4150 5.1666
# 5 -0.9310 4.4077 2.1887 6.4150 38.8376 8.0567
# 6 67.3895 36.7290 23.8879 5.1666 8.0567 74.4061
#
#
#
# Elastic Compliance Matrix: (Units=1/GPa)
#
#
# Indices 1 2 3 4 5 6 
#
# 1 0.015136 -0.009140 -0.001751 0.007927 0.002143 -0.009418
# 2 -0.009140 0.020962 0.000484 -0.014650 0.000046 -0.001212
# 3 -0.001751 0.000484 0.010819 0.000664 -0.000374 -0.002132
# 4 0.007927 -0.014650 0.000664 0.061422 -0.007582 -0.003605
# 5 0.002143 0.000046 -0.000374 -0.007582 0.027969 -0.004346
# 6 -0.009418 -0.001212 -0.002132 -0.003605 -0.004346 0.023973
#
#
# Mechanical properties :
#
#
# Convention : Reuss Voigt Hill
#
# Bulk Modulus (GPa) = 38.30946 65.29093 51.80019
# Shear Modulus (GPa) = 26.34389 42.04977 34.19683
#
# Velocity S-wave (km/s) = 3.18966 4.02982 3.63410
# Velocity P-wave (km/s) = 5.32543 6.84600 6.13302
#
# Compressibility (1/GPa) = 0.02610321
#
# Stress axis : x y z
#
# Youngs Moduli (GPa) = 66.06574 47.70595 92.42765
#
# Poissons Ratio (x) = 0.43603 0.16186
# Poissons Ratio (y) = 0.60384 -0.04474
# Poissons Ratio (z) = 0.11569 -0.02309
#
# Static dielectric constant tensor:
#      x y z
#    x 1.294800 0.563510 -0.677580 
#    y 0.563510 1.704470 0.525060 
#    z -0.677580 0.525060 1.364500 
# 
# From -- ./inp_files/176128.got.cif
#   From: 2010.05.17/outbox.cif.g08.bks.cpg/sg2_89_cif.got.tgz:176128.got - 2010.06.03 11:33:40.
