data_PCOD9098362
_publ_section_title
;
Structure prediction by ZEFSAII (Michael W. Deem and Ramdas Pophale) SiO2 
 PCOD9098362
Probable space group: P -1
;
_chemical_formula_sum "Si O2"
_cell_formula_units_Z 12
_cell_length_a 14.635121
_cell_length_b 10.789009
_cell_length_c 10.443337
_cell_angle_alpha 42.283425
_cell_angle_beta 27.756295
_cell_angle_gamma 49.189439
_cell_volume 516.673895
_symmetry_space_group_name_H-M "P -1"
_symmetry_group_IT_number 2
_symmetry_cell_setting 'triclinic'
loop_
_space_group_symop_operation_xyz
x,y,z
-x,-y,-z
loop_
_atom_site_type_symbol
_atom_site_label
_atom_site_fract_x
_atom_site_fract_y
_atom_site_fract_z
Si Si1 0.490075 0.298581 0.567547
Si Si2 0.164845 0.537004 0.660826
Si Si3 0.486188 0.106332 0.255600
Si Si4 0.946013 0.277893 0.961939
Si Si5 0.480335 0.795813 0.123915
Si Si6 0.171693 0.934366 0.969332
O O1 0.355793 0.418246 0.551129
O O2 0.723214 0.316580 0.248540
O O3 0.443248 0.319286 0.760705
O O4 0.450249 0.089796 0.731857
O O5 0.255273 0.740164 0.410954
O O6 0.000000 0.500000 0.000000
O O7 0.077333 0.452507 0.704139
O O8 0.318501 0.057694 0.602615
O O9 0.682243 0.170099 0.036463
O O10 0.418748 0.220169 0.128023
O O11 0.934955 0.210303 0.880667
O O12 0.023983 0.092486 0.080479
O O13 0.500000 0.000000 0.000000
#
# Coordination Sequence:
#
# PCOD9098362 Si02
#       6
#     2   2   2   2   2   2
#     4  10  20  39  63  88 125 161 201 252 306 362
#     4  12  23  39  64  94 122 163 205 247 312 371
#     4   9  18  37  64  88 121 165 204 248 299 359
#     4  10  20  36  65  91 115 162 212 240 295 374
#     4  10  22  39  60  92 129 157 200 260 308 354
#     4   9  18  37  64  89 120 167 206 241 299 371
#
# _framework density 23.225484000000002
#
# number of rings (size 3 to 8) (size 9 to 14) (size 15 to 20)
#    0.000    2.000    3.333    0.500    0.000    0.000 
#    0.000   14.167    0.000    0.000    0.000    0.000 
#    0.000    0.000    0.000    0.000    0.000    0.000 
#
# Total GULP energy -66901.978836 kJ/mol
# GULP energy per Si atom -5575.164903 kJ/mol
# Density = 2.317262 g / cm^3
# Si number density = 23.225484 Si / 1000 Ang^3
#
#
#
# Elastic Constant Matrix: (Units=GPa)
#
#
# Indices 1 2 3 4 5 6 
#
# 1 126.4661 21.6367 44.5558 -1.3050 -32.7041 2.4609
# 2 21.6367 72.7075 27.0092 10.2293 -14.5078 5.5104
# 3 44.5558 27.0092 83.0315 -11.7433 -24.3142 10.5697
# 4 -1.3050 10.2293 -11.7433 34.1420 15.6613 -16.0715
# 5 -32.7041 -14.5078 -24.3142 15.6613 52.8718 -12.6464
# 6 2.4609 5.5104 10.5697 -16.0715 -12.6464 30.5165
#
#
#
# Elastic Compliance Matrix: (Units=1/GPa)
#
#
# Indices 1 2 3 4 5 6 
#
# 1 0.011101 0.000050 -0.004884 -0.003291 0.005975 0.001530
# 2 0.000050 0.019202 -0.005864 -0.012968 0.004958 -0.006215
# 3 -0.004884 -0.005864 0.018053 0.006809 0.001515 -0.000587
# 4 -0.003291 -0.012968 0.006809 0.051563 -0.012412 0.022261
# 5 0.005975 0.004958 0.001515 -0.012412 0.029221 0.003671
# 6 0.001530 -0.006215 -0.000587 0.022261 0.003671 0.047216
#
#
# Mechanical properties :
#
#
# Convention : Reuss Voigt Hill
#
# Bulk Modulus (GPa) = 37.09149 52.06760 44.57955
# Shear Modulus (GPa) = 24.18511 36.10629 30.14570
#
# Velocity S-wave (km/s) = 3.23045 3.94712 3.60663
# Velocity P-wave (km/s) = 5.46985 6.57571 6.04811
#
# Compressibility (1/GPa) = 0.02696036
#
# Stress axis : x y z
#
# Youngs Moduli (GPa) = 90.08457 52.07770 55.39236
#
# Poissons Ratio (x) = -0.00260 0.27051
# Poissons Ratio (y) = -0.00451 0.32483
# Poissons Ratio (z) = 0.43993 0.30539
#
# Static dielectric constant tensor:
#      x y z
#    x 1.958750 0.008860 0.026970 
#    y 0.008860 1.912670 -0.060650 
#    z 0.026970 -0.060650 1.959480 
# 
# From -- ./inp_files/431619.got.cif
#   From: 2010.05.17/outbox.cif.g08.bks.cpg/sg2_216_cif.got.tgz:431619.got - 2010.06.03 11:33:40.
