data_PCOD9098266
_publ_section_title
;
Structure prediction by ZEFSAII (Michael W. Deem and Ramdas Pophale) SiO2 
 PCOD9098266
Probable space group: P -1
;
_chemical_formula_sum "Si O2"
_cell_formula_units_Z 16
_cell_length_a 11.076669
_cell_length_b 5.310269
_cell_length_c 23.004111
_cell_angle_alpha 78.670073
_cell_angle_beta 36.331211
_cell_angle_gamma 99.229963
_cell_volume 657.202979
_symmetry_space_group_name_H-M "P -1"
_symmetry_group_IT_number 2
_symmetry_cell_setting 'triclinic'
loop_
_space_group_symop_operation_xyz
x,y,z
-x,-y,-z
loop_
_atom_site_type_symbol
_atom_site_label
_atom_site_fract_x
_atom_site_fract_y
_atom_site_fract_z
Si Si1 0.599096 0.288572 0.138878
Si Si2 0.707895 0.344529 0.892031
Si Si3 0.956183 0.177265 0.458393
Si Si4 0.457809 0.660282 0.263524
Si Si5 0.443811 0.682373 0.663667
Si Si6 0.021868 0.305704 0.120489
Si Si7 0.860119 0.737590 0.284920
Si Si8 0.850920 0.874186 0.736691
O O1 0.529879 0.485379 0.197127
O O2 0.366265 0.076767 0.195685
O O3 0.611431 0.026423 0.180223
O O4 0.842935 0.533902 0.998836
O O5 0.684463 0.527405 0.841421
O O6 0.763194 0.517961 0.923253
O O7 0.952323 0.364144 0.781232
O O8 0.500000 0.000000 0.000000
O O9 0.169899 0.527416 0.373060
O O10 0.020132 0.103083 0.374366
O O11 0.669435 0.031345 0.571973
O O12 0.000000 0.000000 0.500000
O O13 0.493831 0.531096 0.314977
O O14 0.198169 0.649053 0.783395
O O15 0.396232 0.564497 0.620519
O O16 0.923618 0.960117 0.194240
O O17 0.940585 0.934111 0.304112
#
# Coordination Sequence:
#
# PCOD9098266 Si02
#       8
#     2   2   2   2   2   2   2   2
#     4  11  24  41  70 102 137 174 230 287 342 404
#     4  10  20  36  64  93 135 175 218 279 334 402
#     4   9  21  46  68  96 131 174 231 284 334 398
#     4  10  25  44  69 101 131 180 232 288 339 396
#     4  10  23  45  64  91 138 180 225 278 340 410
#     4  10  23  38  61  99 133 181 219 275 348 407
#     4  10  22  39  61  95 135 174 223 272 344 407
#     4  10  22  39  67 100 130 173 229 280 341 401
#
# _framework density 24.345597000000001
#
# number of rings (size 3 to 8) (size 9 to 14) (size 15 to 20)
#    0.000    2.000    0.000    1.500   12.250    3.500 
#    4.500   11.250    0.000    0.000    0.000    0.000 
#    0.000    0.000    0.000    0.000    0.000    0.000 
#
# Total GULP energy -89295.086339 kJ/mol
# GULP energy per Si atom -5580.942896 kJ/mol
# Density = 2.429019 g / cm^3
# Si number density = 24.345597 Si / 1000 Ang^3
#
#
#
# Elastic Constant Matrix: (Units=GPa)
#
#
# Indices 1 2 3 4 5 6 
#
# 1 99.7552 25.3245 42.5264 -3.3334 -7.2836 15.1592
# 2 25.3245 65.6870 17.9044 -7.9528 5.0546 -3.2374
# 3 42.5264 17.9044 100.5461 6.2463 -5.0285 7.2902
# 4 -3.3334 -7.9528 6.2463 28.0530 2.2587 1.8026
# 5 -7.2836 5.0546 -5.0285 2.2587 39.8744 -8.1077
# 6 15.1592 -3.2374 7.2902 1.8026 -8.1077 46.9177
#
#
#
# Elastic Compliance Matrix: (Units=1/GPa)
#
#
# Indices 1 2 3 4 5 6 
#
# 1 0.013913 -0.004133 -0.004898 0.001690 0.001577 -0.003812
# 2 -0.004133 0.018413 -0.002181 0.005334 -0.003222 0.002183
# 3 -0.004898 -0.002181 0.012734 -0.004119 0.001184 -0.000184
# 4 0.001690 0.005334 -0.004119 0.038655 -0.003404 -0.001611
# 5 0.001577 -0.003222 0.001184 -0.003404 0.026903 0.003864
# 6 -0.003812 0.002183 -0.000184 -0.001611 0.003864 0.023454
#
#
# Mechanical properties :
#
#
# Convention : Reuss Voigt Hill
#
# Bulk Modulus (GPa) = 44.18073 48.61098 46.39586
# Shear Modulus (GPa) = 30.47981 34.98458 32.73220
#
# Velocity S-wave (km/s) = 3.54215 3.79489 3.67069
# Velocity P-wave (km/s) = 5.90896 6.26195 6.08801
#
# Compressibility (1/GPa) = 0.02263430
#
# Stress axis : x y z
#
# Youngs Moduli (GPa) = 71.87591 54.30899 78.52805
#
# Poissons Ratio (x) = 0.22448 0.38465
# Poissons Ratio (y) = 0.29709 0.17131
# Poissons Ratio (z) = 0.35206 0.11847
#
# Static dielectric constant tensor:
#      x y z
#    x 1.988630 0.092530 -0.023920 
#    y 0.092530 1.979990 -0.044610 
#    z -0.023920 -0.044610 1.951200 
# 
# From -- ./inp_files/441889.got.cif
#   From: 2010.05.17/outbox.cif.g08.bks.cpg/sg2_221_cif.got.tgz:441889.got - 2010.06.03 11:33:40.
