data_PCOD9098730
_publ_section_title
;
Structure prediction by ZEFSAII (Michael W. Deem and Ramdas Pophale) SiO2 
 PCOD9098730
Probable space group: P -1
;
_chemical_formula_sum "Si O2"
_cell_formula_units_Z 16
_cell_length_a 5.425466
_cell_length_b 14.754844
_cell_length_c 11.526634
_cell_angle_alpha 116.623195
_cell_angle_beta 110.377512
_cell_angle_gamma 92.785504
_cell_volume 749.863546
_symmetry_space_group_name_H-M "P -1"
_symmetry_group_IT_number 2
_symmetry_cell_setting 'triclinic'
loop_
_space_group_symop_operation_xyz
x,y,z
-x,-y,-z
loop_
_atom_site_type_symbol
_atom_site_label
_atom_site_fract_x
_atom_site_fract_y
_atom_site_fract_z
Si Si1 0.883197 0.333999 0.665943
Si Si2 0.153274 0.155898 0.588499
Si Si3 0.307264 0.536756 0.830692
Si Si4 0.304222 0.008331 0.708566
Si Si5 0.348360 0.245573 0.434330
Si Si6 0.712465 0.523328 0.445249
Si Si7 0.111070 0.038700 0.168426
Si Si8 0.724037 0.408420 0.909994
O O1 0.671297 0.287439 0.503826
O O2 0.742657 0.329358 0.766135
O O3 0.098116 0.265989 0.675479
O O4 0.013004 0.455397 0.730574
O O5 0.294508 0.110341 0.690044
O O6 0.306473 0.173868 0.501585
O O7 0.863171 0.080319 0.459159
O O8 0.402922 0.553882 0.725306
O O9 0.493303 0.465046 0.869714
O O10 0.308812 0.623043 0.978075
O O11 0.607178 0.996032 0.777847
O O12 0.120765 0.999606 0.791397
O O13 0.251242 0.352097 0.501218
O O14 0.199790 0.166275 0.266593
O O15 0.500000 0.500000 0.500000
O O16 0.000000 0.500000 0.500000
O O17 0.000000 0.000000 0.000000
O O18 0.000000 0.500000 0.000000
#
# Coordination Sequence:
#
# PCOD9098730 Si02
#       8
#     2   2   2   2   2   2   2   2
#     4  11  17  35  63  94 121 169 212 268 335 409
#     4  10  21  35  66  99 133 155 216 289 338 391
#     4  10  20  37  56  92 120 166 220 268 332 387
#     4  10  23  39  65 106 128 165 216 277 338 393
#     4  11  23  40  69  93 125 177 225 273 345 392
#     4  12  26  41  65  93 131 177 232 279 308 387
#     4  11  24  45  71  93 139 183 218 265 335 418
#     4   9  19  32  62  83 120 159 211 265 330 403
#
# _framework density 21.337216000000002
#
# number of rings (size 3 to 8) (size 9 to 14) (size 15 to 20)
#    0.000    1.500    3.750    1.125    3.500    1.500 
#    0.000    1.250    8.250    0.000    0.000    0.000 
#    0.000    0.000    0.000    0.000    0.000    0.000 
#
# Total GULP energy -89143.267531 kJ/mol
# GULP energy per Si atom -5571.454221 kJ/mol
# Density = 2.128865 g / cm^3
# Si number density = 21.337216 Si / 1000 Ang^3
#
#
#
# Elastic Constant Matrix: (Units=GPa)
#
#
# Indices 1 2 3 4 5 6 
#
# 1 113.0412 24.7804 34.1841 -18.3633 -6.7606 -2.2304
# 2 24.7804 59.1311 12.6330 -12.7888 6.6630 -5.4232
# 3 34.1841 12.6330 124.8586 -9.9699 -14.0503 4.0017
# 4 -18.3633 -12.7888 -9.9699 28.3089 4.3633 1.7338
# 5 -6.7606 6.6630 -14.0503 4.3633 47.9053 -7.8273
# 6 -2.2304 -5.4232 4.0017 1.7338 -7.8273 28.4583
#
#
#
# Elastic Compliance Matrix: (Units=1/GPa)
#
#
# Indices 1 2 3 4 5 6 
#
# 1 0.011066 -0.003194 -0.002231 0.004760 0.001010 0.000560
# 2 -0.003194 0.020750 -0.001158 0.007364 -0.003967 0.002327
# 3 -0.002231 -0.001158 0.009102 0.000957 0.002246 -0.001116
# 4 0.004760 0.007364 0.000957 0.042876 -0.004330 -0.002161
# 5 0.001010 -0.003967 0.002246 -0.004330 0.023562 0.005752
# 6 0.000560 0.002327 -0.001116 -0.002161 0.005752 0.037497
#
#
# Mechanical properties :
#
#
# Convention : Reuss Voigt Hill
#
# Bulk Modulus (GPa) = 36.03229 48.91397 42.47313
# Shear Modulus (GPa) = 29.89206 35.96340 32.92773
#
# Velocity S-wave (km/s) = 3.74697 4.10991 3.93263
# Velocity P-wave (km/s) = 5.97021 6.74506 6.36943
#
# Compressibility (1/GPa) = 0.02775289
#
# Stress axis : x y z
#
# Youngs Moduli (GPa) = 90.36966 48.19174 109.86645
#
# Poissons Ratio (x) = 0.15391 0.24508
# Poissons Ratio (y) = 0.28862 0.12724
# Poissons Ratio (z) = 0.20159 0.05581
#
# Static dielectric constant tensor:
#      x y z
#    x 1.856380 0.055590 -0.020660 
#    y 0.055590 1.839470 0.049620 
#    z -0.020660 0.049620 2.042710 
# 
# From -- ./inp_files/367881.got.cif
#   From: 2010.05.17/outbox.cif.g08.bks.cpg/sg2_184_cif.got.tgz:367881.got - 2010.06.03 11:33:40.
