data_PCOD9098692
_publ_section_title
;
Structure prediction by ZEFSAII (Michael W. Deem and Ramdas Pophale) SiO2 
 PCOD9098692
Probable space group: P -1
;
_chemical_formula_sum "Si O2"
_cell_formula_units_Z 14
_cell_length_a 8.202541
_cell_length_b 17.347000
_cell_length_c 23.466798
_cell_angle_alpha 23.060198
_cell_angle_beta 153.826736
_cell_angle_gamma 154.343094
_cell_volume 518.658249
_symmetry_space_group_name_H-M "P -1"
_symmetry_group_IT_number 2
_symmetry_cell_setting 'triclinic'
loop_
_space_group_symop_operation_xyz
x,y,z
-x,-y,-z
loop_
_atom_site_type_symbol
_atom_site_label
_atom_site_fract_x
_atom_site_fract_y
_atom_site_fract_z
Si Si1 0.652781 0.342308 0.104674
Si Si2 0.666692 0.180053 0.980770
Si Si3 0.173063 0.873234 0.598100
Si Si4 0.065164 0.484505 0.765954
Si Si5 0.010211 0.372855 0.647181
Si Si6 0.350218 0.906245 0.174911
Si Si7 0.632466 0.733592 0.679459
O O1 0.530035 0.170347 0.235154
O O2 0.923740 0.587208 0.046794
O O3 0.961096 0.297796 0.188529
O O4 0.254671 0.332543 0.956397
O O5 0.314405 0.262464 0.809813
O O6 0.500000 0.000000 0.000000
O O7 0.669687 0.076876 0.114557
O O8 0.910063 0.627053 0.659374
O O9 0.314366 0.030131 0.482291
O O10 0.000000 0.000000 0.500000
O O11 0.464405 0.659504 0.739520
O O12 0.742967 0.319271 0.734246
O O13 0.262770 0.569138 0.636101
O O14 0.000000 0.500000 0.500000
O O15 0.638373 0.177134 0.699549
O O16 0.000000 0.000000 0.000000
#
# Coordination Sequence:
#
# PCOD9098692 Si02
#       7
#     2   2   2   2   2   2   2
#     4  10  21  36  56  86 116 148 196 242 288 350
#     4  10  20  37  56  82 118 152 188 243 293 341
#     4  10  21  36  54  83 118 152 189 238 292 343
#     4  11  20  36  61  86 113 153 198 242 286 352
#     4   9  19  36  57  80 110 151 197 239 286 351
#     4   9  20  37  59  85 114 153 196 239 295 352
#     4   9  20  36  54  82 118 149 187 243 301 343
#
# _framework density 26.992726000000001
#
# number of rings (size 3 to 8) (size 9 to 14) (size 15 to 20)
#    0.000    2.286    0.000    3.000    0.000    3.429 
#    0.000    5.000    0.000    0.000    0.000    0.000 
#    0.000    0.000    0.000    0.000    0.000    0.000 
#
# Total GULP energy -78112.954189 kJ/mol
# GULP energy per Si atom -5579.496728 kJ/mol
# Density = 2.693129 g / cm^3
# Si number density = 26.992726 Si / 1000 Ang^3
#
#
#
# Elastic Constant Matrix: (Units=GPa)
#
#
# Indices 1 2 3 4 5 6 
#
# 1 105.8642 23.6261 54.1786 -7.7778 -23.7436 4.4206
# 2 23.6261 98.2240 18.6779 -20.2580 4.6890 -4.6376
# 3 54.1786 18.6779 177.3925 -19.4491 -25.9561 2.6853
# 4 -7.7778 -20.2580 -19.4491 34.9691 -7.0550 -1.7547
# 5 -23.7436 4.6890 -25.9561 -7.0550 52.9236 -22.5342
# 6 4.4206 -4.6376 2.6853 -1.7547 -22.5342 36.9331
#
#
#
# Elastic Compliance Matrix: (Units=1/GPa)
#
#
# Indices 1 2 3 4 5 6 
#
# 1 0.012606 -0.002479 -0.002707 0.001044 0.005426 0.001737
# 2 -0.002479 0.012226 0.000091 0.006575 -0.000492 0.001838
# 3 -0.002707 0.000091 0.007532 0.004610 0.004173 0.002553
# 4 0.001044 0.006575 0.004610 0.037857 0.010963 0.008853
# 5 0.005426 -0.000492 0.004173 0.010963 0.033330 0.019842
# 6 0.001737 0.001838 0.002553 0.008853 0.019842 0.039440
#
#
# Mechanical properties :
#
#
# Convention : Reuss Voigt Hill
#
# Bulk Modulus (GPa) = 45.09876 63.82733 54.46304
# Shear Modulus (GPa) = 31.13869 43.96502 37.55186
#
# Velocity S-wave (km/s) = 3.40015 4.04018 3.73390
# Velocity P-wave (km/s) = 5.67086 6.74252 6.22978
#
# Compressibility (1/GPa) = 0.02217356
#
# Stress axis : x y z
#
# Youngs Moduli (GPa) = 79.32829 81.79231 132.77256
#
# Poissons Ratio (x) = 0.20277 0.35939
# Poissons Ratio (y) = 0.19666 -0.01207
# Poissons Ratio (z) = 0.21473 -0.00743
#
# Static dielectric constant tensor:
#      x y z
#    x 2.344670 0.042920 -0.070700 
#    y 0.042920 2.277830 0.014780 
#    z -0.070700 0.014780 2.071800 
# 
# From -- ./inp_files/185203.got.cif
#   From: 2010.05.17/outbox.cif.g08.bks.cpg/sg2_93_cif.got.tgz:185203.got - 2010.06.03 11:33:40.
