data_PCOD9098971
_publ_section_title
;
Structure prediction by ZEFSAII (Michael W. Deem and Ramdas Pophale) SiO2 
 PCOD9098971
Probable space group: P -1
;
_chemical_formula_sum "Si O2"
_cell_formula_units_Z 16
_cell_length_a 10.168991
_cell_length_b 10.835179
_cell_length_c 13.919109
_cell_angle_alpha 55.843023
_cell_angle_beta 96.561692
_cell_angle_gamma 137.958915
_cell_volume 711.865889
_symmetry_space_group_name_H-M "P -1"
_symmetry_group_IT_number 2
_symmetry_cell_setting 'triclinic'
loop_
_space_group_symop_operation_xyz
x,y,z
-x,-y,-z
loop_
_atom_site_type_symbol
_atom_site_label
_atom_site_fract_x
_atom_site_fract_y
_atom_site_fract_z
Si Si1 0.502044 0.147687 0.368333
Si Si2 0.827675 0.546100 0.902979
Si Si3 0.790766 0.866814 0.325665
Si Si4 0.866841 0.033174 0.467325
Si Si5 0.937935 0.529898 0.119150
Si Si6 0.364319 0.009713 0.037035
Si Si7 0.302541 0.510928 0.408088
Si Si8 0.230729 0.763165 0.342169
O O1 0.768895 0.408277 0.245939
O O2 0.500000 0.000000 0.500000
O O3 0.356344 0.141357 0.410006
O O4 0.365489 0.992439 0.326472
O O5 0.972239 0.557941 0.845723
O O6 0.809089 0.444028 0.046905
O O7 0.965385 0.827030 0.814445
O O8 0.567800 0.319156 0.937481
O O9 0.554467 0.674987 0.328636
O O10 0.797393 0.698603 0.429024
O O11 0.761125 0.926836 0.398711
O O12 0.089040 0.338202 0.389923
O O13 0.000000 0.000000 0.500000
O O14 0.158217 0.843559 0.016692
O O15 0.244752 0.847944 0.199206
O O16 0.500000 0.000000 0.000000
O O17 0.361785 0.728129 0.356522
O O18 0.000000 0.500000 0.500000
#
# Coordination Sequence:
#
# PCOD9098971 Si02
#       8
#     2   2   2   2   2   2   2   2
#     4  12  22  37  62  99 135 165 212 280 330 382
#     4  10  20  37  58  88 128 169 216 260 324 392
#     4  10  22  38  62  89 125 167 212 261 313 392
#     4  10  22  40  61  89 130 172 209 261 328 395
#     4  10  21  35  56  91 128 166 213 268 324 379
#     4  10  23  37  58  92 132 174 211 267 330 394
#     4  10  22  38  58  94 123 164 212 263 323 380
#     4  12  22  37  63  96 131 162 212 277 327 376
#
# _framework density 22.476143
#
# number of rings (size 3 to 8) (size 9 to 14) (size 15 to 20)
#    0.000    1.500    2.500    3.000    7.000    0.000 
#    0.000    0.000    0.000    6.750    0.000    9.625 
#    0.000    0.000    0.000    0.000    0.000    0.000 
#
# Total GULP energy -89072.257741 kJ/mol
# GULP energy per Si atom -5567.016109 kJ/mol
# Density = 2.242499 g / cm^3
# Si number density = 22.476143 Si / 1000 Ang^3
#
#
#
# Elastic Constant Matrix: (Units=GPa)
#
#
# Indices 1 2 3 4 5 6 
#
# 1 52.8918 3.6989 21.1855 5.4820 -9.7047 0.0217
# 2 3.6989 59.7096 8.2629 1.2590 -16.5195 17.0393
# 3 21.1855 8.2629 86.1477 -5.8333 -15.0668 1.6421
# 4 5.4820 1.2590 -5.8333 44.1055 -2.7330 -9.2901
# 5 -9.7047 -16.5195 -15.0668 -2.7330 29.7843 -6.7792
# 6 0.0217 17.0393 1.6421 -9.2901 -6.7792 27.0821
#
#
#
# Elastic Compliance Matrix: (Units=1/GPa)
#
#
# Indices 1 2 3 4 5 6 
#
# 1 0.022004 0.000717 -0.004846 -0.003104 0.004824 -0.000032
# 2 0.000717 0.023279 -0.000704 -0.003056 0.009486 -0.013278
# 3 -0.004846 -0.000704 0.014095 0.003326 0.005973 0.002228
# 4 -0.003104 -0.003056 0.003326 0.026317 0.004070 0.011770
# 5 0.004824 0.009486 0.005973 0.004070 0.045257 0.006391
# 6 -0.000032 -0.013278 0.002228 0.011770 0.006391 0.050781
#
#
# Mechanical properties :
#
#
# Convention : Reuss Voigt Hill
#
# Bulk Modulus (GPa) = 20.11615 29.44930 24.78273
# Shear Modulus (GPa) = 24.04197 31.23450 27.63823
#
# Velocity S-wave (km/s) = 3.27412 3.73188 3.51047
# Velocity P-wave (km/s) = 4.82313 5.63029 5.24227
#
# Compressibility (1/GPa) = 0.04971129
#
# Stress axis : x y z
#
# Youngs Moduli (GPa) = 45.44584 42.95770 70.94921
#
# Poissons Ratio (x) = -0.03078 0.34382
# Poissons Ratio (y) = -0.03257 0.04993
# Poissons Ratio (z) = 0.22023 0.03023
#
# Static dielectric constant tensor:
#      x y z
#    x 1.802390 0.044870 -0.027030 
#    y 0.044870 1.908320 -0.037900 
#    z -0.027030 -0.037900 2.026500 
# 
# From -- ./inp_files/427451.got.cif
#   From: 2010.05.17/outbox.cif.g08.bks.cpg/sg2_214_cif.got.tgz:427451.got - 2010.06.03 11:33:40.
