data_PCOD9098708
_publ_section_title
;
Structure prediction by ZEFSAII (Michael W. Deem and Ramdas Pophale) SiO2 
 PCOD9098708
Probable space group: P -1
;
_chemical_formula_sum "Si O2"
_cell_formula_units_Z 14
_cell_length_a 8.770742
_cell_length_b 10.799201
_cell_length_c 11.700450
_cell_angle_alpha 39.162018
_cell_angle_beta 84.480515
_cell_angle_gamma 101.493381
_cell_volume 627.045584
_symmetry_space_group_name_H-M "P -1"
_symmetry_group_IT_number 2
_symmetry_cell_setting 'triclinic'
loop_
_space_group_symop_operation_xyz
x,y,z
-x,-y,-z
loop_
_atom_site_type_symbol
_atom_site_label
_atom_site_fract_x
_atom_site_fract_y
_atom_site_fract_z
Si Si1 0.055597 0.796452 0.258483
Si Si2 0.522634 0.533782 0.310452
Si Si3 0.719620 0.398581 0.568012
Si Si4 0.027655 0.795657 0.992370
Si Si5 0.401514 0.133606 0.309498
Si Si6 0.652518 0.963538 0.360365
Si Si7 0.700031 0.593904 0.031065
O O1 0.217962 0.787833 0.311761
O O2 0.887612 0.598586 0.461775
O O3 0.062556 0.756473 0.149543
O O4 0.034690 0.013572 0.126617
O O5 0.674135 0.508460 0.384412
O O6 0.443485 0.664061 0.295264
O O7 0.384798 0.283612 0.489467
O O8 0.587959 0.627625 0.115937
O O9 0.873050 0.613206 0.062255
O O10 0.196962 0.878984 0.843693
O O11 0.320470 0.019198 0.516943
O O12 0.279653 0.221915 0.193900
O O13 0.477734 0.989714 0.340233
O O14 0.576355 0.354577 0.164745
#
# Coordination Sequence:
#
# PCOD9098708 Si02
#       7
#     2   2   2   2   2   2   2
#     4  10  22  37  54  91 122 147 185 234 272 358
#     4  10  20  37  60  84 112 159 186 232 278 342
#     4  10  20  37  56  85 118 155 191 224 276 352
#     4  11  22  38  58  88 120 148 182 237 288 336
#     4   9  22  41  60  82 110 145 204 239 276 336
#     4  10  21  39  59  83 114 148 190 241 285 331
#     4  10  21  39  59  83 114 148 190 241 285 331
#
# _framework density 22.326926
#
# number of rings (size 3 to 8) (size 9 to 14) (size 15 to 20)
#    0.000    2.000    2.857    0.000    4.000    1.143 
#    0.000    1.429    0.000    0.000    0.000    0.000 
#    0.000    0.000    0.000    0.000    0.000    0.000 
#
# Total GULP energy -78106.118143 kJ/mol
# GULP energy per Si atom -5579.008439 kJ/mol
# Density = 2.227611 g / cm^3
# Si number density = 22.326926 Si / 1000 Ang^3
#
#
#
# Elastic Constant Matrix: (Units=GPa)
#
#
# Indices 1 2 3 4 5 6 
#
# 1 97.1143 26.3331 22.7629 19.8345 10.6981 -4.3051
# 2 26.3331 34.0681 7.7387 11.8311 -1.4154 1.7411
# 3 22.7629 7.7387 58.1892 15.8952 0.1445 -6.3016
# 4 19.8345 11.8311 15.8952 25.2705 -3.5188 -0.9267
# 5 10.6981 -1.4154 0.1445 -3.5188 37.0265 -2.4743
# 6 -4.3051 1.7411 -6.3016 -0.9267 -2.4743 31.2010
#
#
#
# Elastic Compliance Matrix: (Units=1/GPa)
#
#
# Indices 1 2 3 4 5 6 
#
# 1 0.015515 -0.009310 -0.002818 -0.006741 -0.005370 0.001465
# 2 -0.009310 0.040843 0.001185 -0.012291 0.002847 -0.003464
# 3 -0.002818 0.001185 0.021776 -0.011925 -0.000120 0.003579
# 4 -0.006741 -0.012291 -0.011925 0.059097 0.007118 -0.000333
# 5 -0.005370 0.002847 -0.000120 0.007118 0.029454 0.001623
# 6 0.001465 -0.003464 0.003579 -0.000333 0.001623 0.033287
#
#
# Mechanical properties :
#
#
# Convention : Reuss Voigt Hill
#
# Bulk Modulus (GPa) = 17.77788 33.67123 25.72456
# Shear Modulus (GPa) = 20.78079 27.53538 24.15809
#
# Velocity S-wave (km/s) = 3.05413 3.51562 3.29297
# Velocity P-wave (km/s) = 4.51849 5.62078 5.09951
#
# Compressibility (1/GPa) = 0.05624966
#
# Stress axis : x y z
#
# Youngs Moduli (GPa) = 64.45264 24.48380 45.92310
#
# Poissons Ratio (x) = 0.22793 0.12941
# Poissons Ratio (y) = 0.60003 -0.05443
# Poissons Ratio (z) = 0.18162 -0.02902
#
# Static dielectric constant tensor:
#      x y z
#    x 1.831840 0.029930 0.012140 
#    y 0.029930 1.877450 -0.025030 
#    z 0.012140 -0.025030 1.804870 
# 
# From -- ./inp_files/169217.got.cif
#   From: 2010.05.17/outbox.cif.g08.bks.cpg/sg2_85_cif.got.tgz:169217.got - 2010.06.03 11:33:40.
