data_PCOD9099627
_publ_section_title
;
Structure prediction by ZEFSAII (Michael W. Deem and Ramdas Pophale) SiO2 
 PCOD9099627
Probable space group: P -1
;
_chemical_formula_sum "Si O2"
_cell_formula_units_Z 16
_cell_length_a 13.066015
_cell_length_b 18.394673
_cell_length_c 12.182315
_cell_angle_alpha 32.153783
_cell_angle_beta 146.497172
_cell_angle_gamma 149.608335
_cell_volume 727.664174
_symmetry_space_group_name_H-M "P -1"
_symmetry_group_IT_number 2
_symmetry_cell_setting 'triclinic'
loop_
_space_group_symop_operation_xyz
x,y,z
-x,-y,-z
loop_
_atom_site_type_symbol
_atom_site_label
_atom_site_fract_x
_atom_site_fract_y
_atom_site_fract_z
Si Si1 0.459847 0.526001 0.590962
Si Si2 0.338269 0.661959 0.031858
Si Si3 0.254683 0.091714 0.647501
Si Si4 0.909366 0.316288 0.618487
Si Si5 0.373052 0.377603 0.944082
Si Si6 0.660341 0.117383 0.856572
Si Si7 0.881827 0.394118 0.875359
Si Si8 0.576268 0.180097 0.314233
O O1 0.642098 0.716159 0.497265
O O2 0.447757 0.477981 0.769123
O O3 0.230354 0.505556 0.381051
O O4 0.502745 0.402782 0.721833
O O5 0.428870 0.798087 0.848092
O O6 0.132103 0.508015 0.984377
O O7 0.245297 0.697741 0.009878
O O8 0.418386 0.075632 0.729444
O O9 0.000000 0.000000 0.500000
O O10 0.291020 0.018205 0.886287
O O11 0.726893 0.187878 0.703848
O O12 0.810367 0.289212 0.443211
O O13 0.000000 0.500000 0.500000
O O14 0.115973 0.298198 0.829633
O O15 0.500000 0.500000 0.000000
O O16 0.432350 0.242612 0.159886
O O17 0.825777 0.270147 0.886787
O O18 0.500000 0.000000 0.500000
#
# Coordination Sequence:
#
# PCOD9099627 Si02
#       8
#     2   2   2   2   2   2   2   2
#     4  10  21  38  60  89 121 155 218 265 317 382
#     4  10  21  39  61  84 121 165 213 255 317 399
#     4  10  21  35  56  84 124 164 195 260 326 376
#     4  12  23  42  71  97 134 179 225 281 329 395
#     4  11  24  41  69 102 125 175 232 275 328 406
#     4  10  23  37  58  95 127 158 218 268 322 388
#     4  10  20  37  61  87 116 164 210 263 317 374
#     4  11  26  43  64  99 138 173 216 279 343 394
#
# _framework density 21.988164999999999
#
# number of rings (size 3 to 8) (size 9 to 14) (size 15 to 20)
#    0.000    1.500    1.250    4.125    3.500    3.500 
#    0.000    2.500    0.000    3.000    0.000    0.000 
#    0.000    0.000    0.000    0.000    0.000    0.000 
#
# Total GULP energy -89495.056723 kJ/mol
# GULP energy per Si atom -5593.441045 kJ/mol
# Density = 2.193812 g / cm^3
# Si number density = 21.988165 Si / 1000 Ang^3
#
#
#
# Elastic Constant Matrix: (Units=GPa)
#
#
# Indices 1 2 3 4 5 6 
#
# 1 73.0779 13.0079 35.9606 -13.1015 -6.7622 9.2396
# 2 13.0079 66.8302 32.1375 -6.7413 11.2833 4.0767
# 3 35.9606 32.1375 126.6445 -19.0848 6.0607 8.5793
# 4 -13.1015 -6.7413 -19.0848 50.0622 6.5924 2.4422
# 5 -6.7622 11.2833 6.0607 6.5924 34.0600 5.3506
# 6 9.2396 4.0767 8.5793 2.4422 5.3506 29.3055
#
#
#
# Elastic Compliance Matrix: (Units=1/GPa)
#
#
# Indices 1 2 3 4 5 6 
#
# 1 0.017571 -0.001773 -0.004072 0.002383 0.005163 -0.005242
# 2 -0.001773 0.018203 -0.003622 0.001395 -0.006019 0.000070
# 3 -0.004072 -0.003622 0.010558 0.002772 -0.001835 -0.001199
# 4 0.002383 0.001395 0.002772 0.022562 -0.004404 -0.002833
# 5 0.005163 -0.006019 -0.001835 -0.004404 0.034531 -0.006191
# 6 -0.005242 0.000070 -0.001199 -0.002833 -0.006191 0.037484
#
#
# Mechanical properties :
#
#
# Convention : Reuss Voigt Hill
#
# Bulk Modulus (GPa) = 36.49979 47.64051 42.07015
# Shear Modulus (GPa) = 29.58993 35.04864 32.31928
#
# Velocity S-wave (km/s) = 3.67239 3.99680 3.83802
# Velocity P-wave (km/s) = 5.88368 6.55840 6.23018
#
# Compressibility (1/GPa) = 0.02739742
#
# Stress axis : x y z
#
# Youngs Moduli (GPa) = 56.91075 54.93610 94.71204
#
# Poissons Ratio (x) = 0.09742 0.38568
# Poissons Ratio (y) = 0.10092 0.34305
# Poissons Ratio (z) = 0.23175 0.19898
#
# Static dielectric constant tensor:
#      x y z
#    x 1.803510 0.005990 -0.016570 
#    y 0.005990 1.807910 -0.002040 
#    z -0.016570 -0.002040 1.814550 
# 
# From -- ./inp_files/457457.got.cif
#   From: 2010.05.17/outbox.cif.g08.bks.cpg/sg2_229_cif.got.tgz:457457.got - 2010.06.03 11:33:40.
