data_PCOD9099876
_publ_section_title
;
Structure prediction by ZEFSAII (Michael W. Deem and Ramdas Pophale) SiO2 
 PCOD9099876
Probable space group: P -1
;
_chemical_formula_sum "Si O2"
_cell_formula_units_Z 16
_cell_length_a 7.584346
_cell_length_b 17.588728
_cell_length_c 5.538307
_cell_angle_alpha 119.246404
_cell_angle_beta 112.358035
_cell_angle_gamma 75.254969
_cell_volume 594.004157
_symmetry_space_group_name_H-M "P -1"
_symmetry_group_IT_number 2
_symmetry_cell_setting 'triclinic'
loop_
_space_group_symop_operation_xyz
x,y,z
-x,-y,-z
loop_
_atom_site_type_symbol
_atom_site_label
_atom_site_fract_x
_atom_site_fract_y
_atom_site_fract_z
Si Si1 0.799313 0.046841 0.247333
Si Si2 0.904605 0.623032 0.628134
Si Si3 0.097342 0.277261 0.636957
Si Si4 0.501508 0.672451 0.015065
Si Si5 0.794277 0.905381 0.370347
Si Si6 0.254279 0.523856 0.436775
Si Si7 0.617422 0.124452 0.774144
Si Si8 0.757183 0.367099 0.794924
O O1 0.725527 0.100800 0.538329
O O2 0.028728 0.047635 0.355633
O O3 0.760761 0.947726 0.152974
O O4 0.711754 0.085567 0.012460
O O5 0.857666 0.715582 0.615431
O O6 0.742902 0.564597 0.548985
O O7 0.031185 0.561455 0.408793
O O8 0.067299 0.632977 0.927004
O O9 0.133058 0.194225 0.696090
O O10 0.869580 0.301644 0.564858
O O11 0.269923 0.334888 0.900263
O O12 0.396656 0.592777 0.720416
O O13 0.423967 0.770595 0.052315
O O14 0.428436 0.667128 0.243451
O O15 0.591441 0.912292 0.408060
O O16 0.284793 0.536986 0.189462
#
# Coordination Sequence:
#
# PCOD9099876 Si02
#       8
#     2   2   2   2   2   2   2   2
#     4  11  25  45  72  98 135 180 221 274 341 393
#     4   9  19  36  59  89 117 163 202 259 311 374
#     4  10  22  41  57  89 126 155 208 260 313 377
#     4  10  23  38  59  91 118 166 205 260 313 385
#     4  10  24  44  66 102 132 175 225 277 328 409
#     4   9  19  36  60  86 121 157 212 251 310 382
#     4  11  25  44  69  99 139 175 224 276 334 395
#     4  10  20  37  62  83 121 164 204 255 318 371
#
# _framework density 26.935839000000001
#
# number of rings (size 3 to 8) (size 9 to 14) (size 15 to 20)
#    0.000    2.000    0.000    1.875    7.000    5.500 
#    9.000    1.250    0.000    0.000    0.000    0.000 
#    0.000    0.000    0.000    0.000    0.000    0.000 
#
# Total GULP energy -89241.060642 kJ/mol
# GULP energy per Si atom -5577.566290 kJ/mol
# Density = 2.687453 g / cm^3
# Si number density = 26.935839 Si / 1000 Ang^3
#
#
#
# Elastic Constant Matrix: (Units=GPa)
#
#
# Indices 1 2 3 4 5 6 
#
# 1 145.4077 40.7849 42.0971 3.7442 9.8546 14.7461
# 2 40.7849 156.8246 47.7012 -38.0207 -9.9275 21.9881
# 3 42.0971 47.7012 107.9104 -24.3787 5.2541 1.1063
# 4 3.7442 -38.0207 -24.3787 40.5532 9.4053 5.8298
# 5 9.8546 -9.9275 5.2541 9.4053 27.9822 -5.1405
# 6 14.7461 21.9881 1.1063 5.8298 -5.1405 46.9548
#
#
#
# Elastic Compliance Matrix: (Units=1/GPa)
#
#
# Indices 1 2 3 4 5 6 
#
# 1 0.008859 -0.002279 -0.003290 -0.004245 -0.002131 -0.001344
# 2 -0.002279 0.010629 -0.001545 0.009895 0.000547 -0.005394
# 3 -0.003290 -0.001545 0.013230 0.007860 -0.004520 -0.000026
# 4 -0.004245 0.009895 0.007860 0.043553 -0.013004 -0.010317
# 5 -0.002131 0.000547 -0.004520 -0.013004 0.043161 0.006859
# 6 -0.001344 -0.005394 -0.000026 -0.010317 0.006859 0.026278
#
#
# Mechanical properties :
#
#
# Convention : Reuss Voigt Hill
#
# Bulk Modulus (GPa) = 54.08573 74.58987 64.33780
# Shear Modulus (GPa) = 30.10226 41.73534 35.91880
#
# Velocity S-wave (km/s) = 3.34661 3.94056 3.65567
# Velocity P-wave (km/s) = 5.92082 6.96102 6.46189
#
# Compressibility (1/GPa) = 0.01848917
#
# Stress axis : x y z
#
# Youngs Moduli (GPa) = 112.88115 94.08035 75.58797
#
# Poissons Ratio (x) = 0.21439 0.24869
# Poissons Ratio (y) = 0.25723 0.11681
# Poissons Ratio (z) = 0.37139 0.14539
#
# Static dielectric constant tensor:
#      x y z
#    x 2.150150 -0.086180 -0.168950 
#    y -0.086180 2.291000 0.039160 
#    z -0.168950 0.039160 2.266250 
# 
# From -- ./inp_files/45181.got.cif
#   From: 2010.05.17/outbox.cif.g08.bks.cpg/sg2_23_cif.got.tgz:45181.got - 2010.06.03 11:33:40.
