data_PCOD9099997
_publ_section_title
;
Structure prediction by ZEFSAII (Michael W. Deem and Ramdas Pophale) SiO2 
 PCOD9099997
Probable space group: P -1
;
_chemical_formula_sum "Si O2"
_cell_formula_units_Z 14
_cell_length_a 11.290987
_cell_length_b 17.223618
_cell_length_c 22.405272
_cell_angle_alpha 15.617722
_cell_angle_beta 40.013276
_cell_angle_gamma 30.745987
_cell_volume 535.804469
_symmetry_space_group_name_H-M "P -1"
_symmetry_group_IT_number 2
_symmetry_cell_setting 'triclinic'
loop_
_space_group_symop_operation_xyz
x,y,z
-x,-y,-z
loop_
_atom_site_type_symbol
_atom_site_label
_atom_site_fract_x
_atom_site_fract_y
_atom_site_fract_z
Si Si1 0.889679 0.204135 0.974927
Si Si2 0.804426 0.368834 0.179564
Si Si3 0.781230 0.852528 0.736930
Si Si4 0.113523 0.320692 0.898092
Si Si5 0.614286 0.656097 0.639767
Si Si6 0.505923 0.192435 0.761250
Si Si7 0.691218 0.865949 0.341538
O O1 0.680974 0.177436 0.080532
O O2 0.750808 0.580179 0.705769
O O3 0.159656 0.794557 0.144879
O O4 0.957493 0.237118 0.989587
O O5 0.641811 0.256640 0.323383
O O6 0.079407 0.083010 0.319661
O O7 0.843346 0.470495 0.024603
O O8 0.633514 0.800235 0.961422
O O9 0.929036 0.712846 0.720966
O O10 0.476277 0.180460 0.597278
O O11 0.240537 0.345528 0.774782
O O12 0.328420 0.969657 0.121471
O O13 0.587475 0.948253 0.387828
O O14 0.500000 0.500000 0.500000
O O15 0.000000 0.500000 0.500000
#
# Coordination Sequence:
#
# PCOD9099997 Si02
#       7
#     2   2   2   2   2   2   2
#     4  10  20  38  62  86 126 161 209 255 299 376
#     4  10  20  42  66  88 130 165 204 262 312 369
#     4  10  22  41  61  96 126 163 209 260 319 360
#     4  10  22  41  61  91 130 166 202 262 316 361
#     4  10  20  37  62  90 118 167 210 250 307 364
#     4  10  22  41  65  93 123 167 213 250 313 380
#     4  10  22  38  60  93 120 163 217 248 305 378
#
# _framework density 26.128933
#
# number of rings (size 3 to 8) (size 9 to 14) (size 15 to 20)
#    0.000    2.000    2.857    0.000    0.000    4.571 
#    7.714    0.714    0.000    0.000    0.000    0.000 
#    0.000    0.000    0.000    0.000    0.000    0.000 
#
# Total GULP energy -78297.633407 kJ/mol
# GULP energy per Si atom -5592.688100 kJ/mol
# Density = 2.606946 g / cm^3
# Si number density = 26.128933 Si / 1000 Ang^3
#
#
#
# Elastic Constant Matrix: (Units=GPa)
#
#
# Indices 1 2 3 4 5 6 
#
# 1 114.1438 38.2808 24.4823 -5.7779 20.3346 -28.0327
# 2 38.2808 131.4446 36.4388 22.3155 -4.0034 -31.0316
# 3 24.4823 36.4388 79.2600 13.6557 13.5781 -9.4398
# 4 -5.7779 22.3155 13.6557 50.2140 0.8472 2.1676
# 5 20.3346 -4.0034 13.5781 0.8472 45.9487 -5.6803
# 6 -28.0327 -31.0316 -9.4398 2.1676 -5.6803 50.9051
#
#
#
# Elastic Compliance Matrix: (Units=1/GPa)
#
#
# Indices 1 2 3 4 5 6 
#
# 1 0.011986 -0.002721 -0.001698 0.002955 -0.004601 0.003988
# 2 -0.002721 0.011704 -0.003749 -0.004806 0.004113 0.005605
# 3 -0.001698 -0.003749 0.016013 -0.002784 -0.004332 -0.000616
# 4 0.002955 -0.004806 -0.002784 0.023306 -0.001705 -0.003001
# 5 -0.004601 0.004113 -0.004332 -0.001705 0.025731 0.002114
# 6 0.003988 0.005605 -0.000616 -0.003001 0.002114 0.025507
#
#
# Mechanical properties :
#
#
# Convention : Reuss Voigt Hill
#
# Bulk Modulus (GPa) = 42.79307 58.13912 50.46609
# Shear Modulus (GPa) = 36.13454 44.45665 40.29560
#
# Velocity S-wave (km/s) = 3.72281 4.12932 3.93132
# Velocity P-wave (km/s) = 5.90697 6.71075 6.32165
#
# Compressibility (1/GPa) = 0.02336827
#
# Stress axis : x y z
#
# Youngs Moduli (GPa) = 83.42972 85.44182 62.44799
#
# Poissons Ratio (x) = 0.23244 0.10601
# Poissons Ratio (y) = 0.22697 0.23415
# Poissons Ratio (z) = 0.14163 0.32036
#
# Static dielectric constant tensor:
#      x y z
#    x 1.988610 0.029020 -0.004740 
#    y 0.029020 2.105820 -0.075460 
#    z -0.004740 -0.075460 2.149270 
# 
# From -- ./inp_files/524336.got.cif
#   From: 2010.05.17/outbox.cif.g08.bks.cpg/sg2_263_cif.got.tgz:524336.got - 2010.06.03 11:33:40.
