data_PCOD9099696
_publ_section_title
;
Structure prediction by ZEFSAII (Michael W. Deem and Ramdas Pophale) SiO2 
 PCOD9099696
Probable space group: P -1
;
_chemical_formula_sum "Si O2"
_cell_formula_units_Z 14
_cell_length_a 20.716787
_cell_length_b 7.498251
_cell_length_c 6.799077
_cell_angle_alpha 39.177024
_cell_angle_beta 65.637489
_cell_angle_gamma 82.331816
_cell_volume 575.042562
_symmetry_space_group_name_H-M "P -1"
_symmetry_group_IT_number 2
_symmetry_cell_setting 'triclinic'
loop_
_space_group_symop_operation_xyz
x,y,z
-x,-y,-z
loop_
_atom_site_type_symbol
_atom_site_label
_atom_site_fract_x
_atom_site_fract_y
_atom_site_fract_z
Si Si1 0.068378 0.957655 0.068924
Si Si2 0.608748 0.777160 0.235576
Si Si3 0.450383 0.813844 0.437225
Si Si4 0.762283 0.255826 0.661484
Si Si5 0.073832 0.530420 0.759374
Si Si6 0.388889 0.323736 0.214588
Si Si7 0.230431 0.151599 0.656297
O O1 0.061181 0.655007 0.452826
O O2 0.078833 0.200407 0.020505
O O3 0.145947 0.065205 0.757955
O O4 0.000000 0.000000 0.000000
O O5 0.536929 0.889345 0.205733
O O6 0.594132 0.467966 0.402393
O O7 0.609792 0.713571 0.521447
O O8 0.686221 0.029629 0.867014
O O9 0.419786 0.087475 0.268823
O O10 0.437454 0.651632 0.806284
O O11 0.841883 0.274526 0.448515
O O12 0.758232 0.585032 0.421058
O O13 0.766858 0.136035 0.980248
O O14 0.000000 0.500000 0.000000
O O15 0.301026 0.259690 0.333176
#
# Coordination Sequence:
#
# PCOD9099696 Si02
#       7
#     2   2   2   2   2   2   2
#     4  10  20  37  62  88 120 161 198 251 319 364
#     4  10  23  42  63  89 131 164 205 264 316 359
#     4  11  25  38  63  97 120 163 218 256 304 386
#     4   9  19  36  61  82 116 167 197 241 317 367
#     4  10  20  37  61  89 120 157 207 248 304 384
#     4  11  22  41  63  89 126 166 208 256 316 364
#     4   9  19  36  61  85 116 161 204 243 302 383
#
# _framework density 24.346024
#
# number of rings (size 3 to 8) (size 9 to 14) (size 15 to 20)
#    0.000    2.000    0.000    3.429    0.000    8.000 
#    2.571    0.000    0.000    0.000    0.000    0.000 
#    0.000    0.000    0.000    0.000    0.000    0.000 
#
# Total GULP energy -78264.716683 kJ/mol
# GULP energy per Si atom -5590.336906 kJ/mol
# Density = 2.429061 g / cm^3
# Si number density = 24.346024 Si / 1000 Ang^3
#
#
#
# Elastic Constant Matrix: (Units=GPa)
#
#
# Indices 1 2 3 4 5 6 
#
# 1 135.6250 34.7480 36.1304 15.8507 -40.3979 -29.2570
# 2 34.7480 99.3707 34.2775 9.1835 -13.1361 -24.4401
# 3 36.1304 34.2775 95.3432 0.6225 -27.5469 -18.6471
# 4 15.8507 9.1835 0.6225 42.6475 -21.2380 -3.3896
# 5 -40.3979 -13.1361 -27.5469 -21.2380 46.5589 11.3991
# 6 -29.2570 -24.4401 -18.6471 -3.3896 11.3991 45.6873
#
#
#
# Elastic Compliance Matrix: (Units=1/GPa)
#
#
# Indices 1 2 3 4 5 6 
#
# 1 0.011195 -0.001735 -0.000441 0.000661 0.008275 0.004046
# 2 -0.001735 0.013108 -0.003875 -0.003070 -0.002664 0.004757
# 3 -0.000441 -0.003875 0.015163 0.005734 0.009658 0.001849
# 4 0.000661 -0.003070 0.005734 0.032822 0.018320 -0.001015
# 5 0.008275 -0.002664 0.009658 0.018320 0.042316 -0.001383
# 6 0.004046 0.004757 0.001849 -0.001015 -0.001383 0.028048
#
#
# Mechanical properties :
#
#
# Convention : Reuss Voigt Hill
#
# Bulk Modulus (GPa) = 36.54236 60.07230 48.30733
# Shear Modulus (GPa) = 30.51090 41.99095 36.25092
#
# Velocity S-wave (km/s) = 3.54392 4.15752 3.86293
# Velocity P-wave (km/s) = 5.63809 6.91192 6.30724
#
# Compressibility (1/GPa) = 0.02736550
#
# Stress axis : x y z
#
# Youngs Moduli (GPa) = 89.32189 76.29000 65.94877
#
# Poissons Ratio (x) = 0.13235 0.02909
# Poissons Ratio (y) = 0.15496 0.25552
# Poissons Ratio (z) = 0.03940 0.29559
#
# Static dielectric constant tensor:
#      x y z
#    x 2.059890 0.033440 0.001270 
#    y 0.033440 1.905040 0.056490 
#    z 0.001270 0.056490 1.943200 
# 
# From -- ./inp_files/213158.got.cif
#   From: 2010.05.17/outbox.cif.g08.bks.cpg/sg2_107_cif.got.tgz:213158.got - 2010.06.03 11:33:40.
