data_PCOD9099045
_publ_section_title
;
Structure prediction by ZEFSAII (Michael W. Deem and Ramdas Pophale) SiO2 
 PCOD9099045
Probable space group: P -1
;
_chemical_formula_sum "Si O2"
_cell_formula_units_Z 16
_cell_length_a 7.676341
_cell_length_b 16.657319
_cell_length_c 7.004448
_cell_angle_alpha 112.839748
_cell_angle_beta 122.903789
_cell_angle_gamma 66.158106
_cell_volume 671.019307
_symmetry_space_group_name_H-M "P -1"
_symmetry_group_IT_number 2
_symmetry_cell_setting 'triclinic'
loop_
_space_group_symop_operation_xyz
x,y,z
-x,-y,-z
loop_
_atom_site_type_symbol
_atom_site_label
_atom_site_fract_x
_atom_site_fract_y
_atom_site_fract_z
Si Si1 0.094533 0.858759 0.230379
Si Si2 0.783162 0.465540 0.875073
Si Si3 0.141252 0.211945 0.297779
Si Si4 0.504672 0.382593 0.343655
Si Si5 0.750502 0.969746 0.655224
Si Si6 0.741895 0.999052 0.121368
Si Si7 0.407465 0.804687 0.664292
Si Si8 0.055914 0.407096 0.333788
O O1 0.264869 0.788540 0.387049
O O2 0.169383 0.951368 0.327142
O O3 0.867688 0.912139 0.234691
O O4 0.039749 0.809485 0.966307
O O5 0.693569 0.411257 0.602563
O O6 0.582866 0.554716 0.832989
O O7 0.000000 0.500000 0.000000
O O8 0.865261 0.411910 0.068927
O O9 0.175569 0.138644 0.418808
O O10 0.363982 0.191023 0.285792
O O11 0.083239 0.318185 0.398206
O O12 0.566045 0.276208 0.247187
O O13 0.289042 0.397356 0.362267
O O14 0.500000 0.000000 0.500000
O O15 0.795296 0.982701 0.916974
O O16 0.737391 0.100656 0.261421
O O17 0.500000 0.000000 0.000000
O O18 0.000000 0.500000 0.500000
#
# Coordination Sequence:
#
# PCOD9099045 Si02
#       8
#     2   2   2   2   2   2   2   2
#     4  11  21  37  61  81 122 162 187 240 301 338
#     4   9  18  39  59  79 114 151 188 242 302 342
#     4  10  20  37  59  82 116 152 201 234 291 352
#     4   9  20  37  61  84 114 153 193 242 297 349
#     4  11  21  39  57  82 122 163 191 237 295 348
#     4  11  20  36  57  85 117 149 199 240 278 346
#     4  11  20  36  58  89 110 149 202 240 285 347
#     4  10  21  37  60  89 116 150 197 246 294 355
#
# _framework density 23.844321000000001
#
# number of rings (size 3 to 8) (size 9 to 14) (size 15 to 20)
#    0.000    1.750    3.750    2.625    0.000    0.500 
#    2.250    7.500    0.000    0.000    0.000    0.000 
#    0.000    0.000    0.000    0.000    0.000    0.000 
#
# Total GULP energy -89141.717838 kJ/mol
# GULP energy per Si atom -5571.357365 kJ/mol
# Density = 2.379005 g / cm^3
# Si number density = 23.844321 Si / 1000 Ang^3
#
#
#
# Elastic Constant Matrix: (Units=GPa)
#
#
# Indices 1 2 3 4 5 6 
#
# 1 44.7534 17.6292 13.8568 -3.9490 15.2938 7.7886
# 2 17.6292 160.9685 30.8570 1.2027 -0.7271 12.5749
# 3 13.8568 30.8570 92.4192 -15.7265 28.7968 -7.6978
# 4 -3.9490 1.2027 -15.7265 39.1041 -5.9084 -1.5808
# 5 15.2938 -0.7271 28.7968 -5.9084 30.0867 0.7168
# 6 7.7886 12.5749 -7.6978 -1.5808 0.7168 23.0468
#
#
#
# Elastic Compliance Matrix: (Units=1/GPa)
#
#
# Indices 1 2 3 4 5 6 
#
# 1 0.030060 -0.002945 0.000922 0.000784 -0.015897 -0.007695
# 2 -0.002945 0.007914 -0.004841 -0.001779 0.006097 -0.005251
# 3 0.000922 -0.004841 0.019983 0.005841 -0.018803 0.009989
# 4 0.000784 -0.001779 0.005841 0.028149 -0.000614 0.004606
# 5 -0.015897 0.006097 -0.018803 -0.000614 0.059488 -0.006127
# 6 -0.007695 -0.005251 0.009989 0.004606 -0.006127 0.052699
#
#
# Mechanical properties :
#
#
# Convention : Reuss Voigt Hill
#
# Bulk Modulus (GPa) = 22.60937 46.98081 34.79509
# Shear Modulus (GPa) = 22.04932 34.16737 28.10835
#
# Velocity S-wave (km/s) = 3.04422 3.78952 3.43713
# Velocity P-wave (km/s) = 4.67536 6.23644 5.51145
#
# Compressibility (1/GPa) = 0.04422946
#
# Stress axis : x y z
#
# Youngs Moduli (GPa) = 33.26635 126.35901 50.04244
#
# Poissons Ratio (x) = 0.37219 -0.04615
# Poissons Ratio (y) = 0.09799 0.24224
# Poissons Ratio (z) = -0.03068 0.61166
#
# Static dielectric constant tensor:
#      x y z
#    x 1.903240 0.106590 -0.080440 
#    y 0.106590 1.867420 0.096780 
#    z -0.080440 0.096780 1.907320 
# 
# From -- ./inp_files/213386.got.cif
#   From: 2010.05.17/outbox.cif.g08.bks.cpg/sg2_107_cif.got.tgz:213386.got - 2010.06.03 11:33:40.
