data_PCOD9099456
_publ_section_title
;
Structure prediction by ZEFSAII (Michael W. Deem and Ramdas Pophale) SiO2 
 PCOD9099456
Probable space group: P -1
;
_chemical_formula_sum "Si O2"
_cell_formula_units_Z 16
_cell_length_a 11.478557
_cell_length_b 18.769729
_cell_length_c 16.388043
_cell_angle_alpha 157.950610
_cell_angle_beta 39.653100
_cell_angle_gamma 149.177279
_cell_volume 672.908875
_symmetry_space_group_name_H-M "P -1"
_symmetry_group_IT_number 2
_symmetry_cell_setting 'triclinic'
loop_
_space_group_symop_operation_xyz
x,y,z
-x,-y,-z
loop_
_atom_site_type_symbol
_atom_site_label
_atom_site_fract_x
_atom_site_fract_y
_atom_site_fract_z
Si Si1 0.078370 0.702316 0.087825
Si Si2 0.271091 0.558112 0.127717
Si Si3 0.665625 0.355415 0.575021
Si Si4 0.405481 0.435610 0.313049
Si Si5 0.310874 0.158454 0.708314
Si Si6 0.083268 0.545114 0.669425
Si Si7 0.072377 0.250762 0.626023
Si Si8 0.431094 0.013925 0.904633
O O1 0.306470 0.869099 0.088005
O O2 0.074407 0.854962 0.323471
O O3 0.108247 0.499661 0.876220
O O4 0.825679 0.548545 0.021824
O O5 0.525642 0.798954 0.259009
O O6 0.077603 0.561653 0.278547
O O7 0.257612 0.344721 0.951858
O O8 0.661065 0.542385 0.720070
O O9 0.482734 0.254194 0.639551
O O10 0.906638 0.463483 0.603126
O O11 0.610491 0.147564 0.323085
O O12 0.236324 0.454945 0.480080
O O13 0.671195 0.665980 0.425073
O O14 0.391796 0.206342 0.102293
O O15 0.082661 0.913603 0.539961
O O16 0.255310 0.831050 0.873279
#
# Coordination Sequence:
#
# PCOD9099456 Si02
#       8
#     2   2   2   2   2   2   2   2
#     4  10  21  38  61  90 118 153 198 254 300 348
#     4  10  23  40  59  85 124 160 197 239 302 365
#     4  10  20  37  63  88 119 154 202 252 298 350
#     4  10  21  36  60  93 117 156 200 250 299 349
#     4  10  21  40  61  88 119 156 197 249 302 354
#     4  10  23  40  55  87 125 163 199 237 296 367
#     4  10  21  38  63  92 115 147 207 253 296 350
#     4  10  20  37  60  90 120 152 203 253 290 353
#
# _framework density 23.777366000000001
#
# number of rings (size 3 to 8) (size 9 to 14) (size 15 to 20)
#    0.000    2.000    1.250    2.250    3.500    4.000 
#    2.250    1.250    0.000    0.000    0.000    0.000 
#    0.000    0.000    0.000    0.000    0.000    0.000 
#
# Total GULP energy -89278.613908 kJ/mol
# GULP energy per Si atom -5579.913369 kJ/mol
# Density = 2.372325 g / cm^3
# Si number density = 23.777366 Si / 1000 Ang^3
#
#
#
# Elastic Constant Matrix: (Units=GPa)
#
#
# Indices 1 2 3 4 5 6 
#
# 1 317.8158 840.3935 339.7607 556.3155 -190.5140 309.9577
# 2 840.3935 2963.4190 1053.9734 1937.4815 -691.2254 1034.1840
# 3 339.7607 1053.9734 464.1315 693.9874 -257.7151 369.9902
# 4 556.3155 1937.4815 693.9874 1322.8007 -464.2558 667.5882
# 5 -190.5140 -691.2254 -257.7151 -464.2558 220.3192 -232.6183
# 6 309.9577 1034.1840 369.9902 667.5882 -232.6183 378.7441
#
#
#
# Elastic Compliance Matrix: (Units=1/GPa)
#
#
# Indices 1 2 3 4 5 6 
#
# 1 0.022948 0.007972 -0.009937 -0.005768 -0.002138 -0.021986
# 2 0.007972 0.024592 -0.005302 -0.016862 0.003917 -0.036368
# 3 -0.009937 -0.005302 0.015978 0.001574 0.003534 0.006397
# 4 -0.005768 -0.016862 0.001574 0.021230 0.003273 0.013815
# 5 -0.002138 0.003917 0.003534 0.003273 0.019425 -0.006237
# 6 -0.021986 -0.036368 0.006397 0.013815 -0.006237 0.085507
#
#
# Mechanical properties :
#
#
# Convention : Reuss Voigt Hill
#
# Bulk Modulus (GPa) = 20.41503 912.62461 466.51982
# Shear Modulus (GPa) = 22.67134 485.12205 253.89669
#
# Velocity S-wave (km/s) = 3.09120 14.29929 10.34469
# Velocity P-wave (km/s) = 4.62009 25.63748 18.42044
#
# Compressibility (1/GPa) = 0.04898351
#
# Stress axis : x y z
#
# Youngs Moduli (GPa) = 43.57765 40.66291 62.58497
#
# Poissons Ratio (x) = -0.32417 0.62192
# Poissons Ratio (y) = -0.34741 0.33184
# Poissons Ratio (z) = 0.43304 0.21561
#
# Static dielectric constant tensor:
#      x y z
#    x 2.006420 -0.038630 -0.004440 
#    y -0.038630 1.964520 0.023900 
#    z -0.004440 0.023900 1.896270 
# 
# From -- ./inp_files/451158.got.cif
#   From: 2010.05.17/outbox.cif.g08.bks.cpg/sg2_226_cif.got.tgz:451158.got - 2010.06.03 11:33:40.
