data_PCOD9099181
_publ_section_title
;
Structure prediction by ZEFSAII (Michael W. Deem and Ramdas Pophale) SiO2 
 PCOD9099181
Probable space group: P -1
;
_chemical_formula_sum "Si O2"
_cell_formula_units_Z 14
_cell_length_a 9.763853
_cell_length_b 8.731885
_cell_length_c 12.228935
_cell_angle_alpha 128.103487
_cell_angle_beta 77.566555
_cell_angle_gamma 124.721132
_cell_volume 659.215312
_symmetry_space_group_name_H-M "P -1"
_symmetry_group_IT_number 2
_symmetry_cell_setting 'triclinic'
loop_
_space_group_symop_operation_xyz
x,y,z
-x,-y,-z
loop_
_atom_site_type_symbol
_atom_site_label
_atom_site_fract_x
_atom_site_fract_y
_atom_site_fract_z
Si Si1 0.730983 0.436520 0.122994
Si Si2 0.770772 0.416897 0.864746
Si Si3 0.634614 0.657452 0.870702
Si Si4 0.125797 0.367010 0.349858
Si Si5 0.926637 0.964911 0.377185
Si Si6 0.300088 0.867270 0.466801
Si Si7 0.874695 0.206552 0.124369
O O1 0.549126 0.398314 0.145250
O O2 0.874323 0.717758 0.226295
O O3 0.767614 0.313482 0.159170
O O4 0.739792 0.336715 0.959630
O O5 0.641245 0.487757 0.883386
O O6 0.754472 0.241116 0.695038
O O7 0.960865 0.654557 0.923123
O O8 0.727404 0.636038 0.740616
O O9 0.758013 0.927787 0.006696
O O10 0.205217 0.643949 0.467305
O O11 0.964358 0.265933 0.252403
O O12 0.062218 0.195635 0.387032
O O13 0.758974 0.965281 0.419087
O O14 0.000000 0.000000 0.500000
O O15 0.500000 0.000000 0.500000
#
# Coordination Sequence:
#
# PCOD9099181 Si02
#       7
#     2   2   2   2   2   2   2
#     4  12  23  37  61  96 125 155 206 261 306 360
#     4  10  21  39  62  89 122 164 202 246 305 372
#     4  10  20  37  60  91 123 157 200 256 310 358
#     4  10  22  42  63  85 121 169 208 248 306 375
#     4  12  24  42  64  90 122 165 209 255 308 371
#     4  10  22  42  64  93 127 163 205 251 308 368
#     4  10  20  37  59  88 122 161 202 251 308 368
#
# _framework density 21.237371
#
# number of rings (size 3 to 8) (size 9 to 14) (size 15 to 20)
#    0.000    1.714    0.000    8.571    0.000    2.286 
#    0.000    5.714    0.000    0.000    0.000    0.000 
#    0.000    0.000    0.000    0.000    0.000    0.000 
#
# Total GULP energy -78262.942634 kJ/mol
# GULP energy per Si atom -5590.210188 kJ/mol
# Density = 2.118903 g / cm^3
# Si number density = 21.237371 Si / 1000 Ang^3
#
#
#
# Elastic Constant Matrix: (Units=GPa)
#
#
# Indices 1 2 3 4 5 6 
#
# 1 63.0844 -1.1567 -13.8067 -17.0493 10.6998 -2.5094
# 2 -1.1567 43.8500 24.2199 -18.8951 11.5206 -10.5187
# 3 -13.8067 24.2199 53.7779 -5.1888 -3.2722 0.0863
# 4 -17.0493 -18.8951 -5.1888 35.4448 -6.4539 1.1269
# 5 10.6998 11.5206 -3.2722 -6.4539 26.3032 6.4689
# 6 -2.5094 -10.5187 0.0863 1.1269 6.4689 27.1329
#
#
#
# Elastic Compliance Matrix: (Units=1/GPa)
#
#
# Indices 1 2 3 4 5 6 
#
# 1 0.022970 0.012235 0.001018 0.015018 -0.013200 0.009388
# 2 0.012235 0.073663 -0.029618 0.031831 -0.042613 0.038620
# 3 0.001018 -0.029618 0.032736 -0.006568 0.018886 -0.015722
# 4 0.015018 0.031831 -0.006568 0.048692 -0.012540 0.014717
# 5 -0.013200 -0.042613 0.018886 -0.012540 0.069659 -0.033888
# 6 0.009388 0.038620 -0.015722 0.014717 -0.033888 0.060214
#
#
# Mechanical properties :
#
#
# Convention : Reuss Voigt Hill
#
# Bulk Modulus (GPa) = 10.34788 19.91394 15.13091
# Shear Modulus (GPa) = 13.40928 27.87325 20.64127
#
# Velocity S-wave (km/s) = 2.51549 3.62672 3.12096
# Velocity P-wave (km/s) = 3.64966 5.18986 4.48635
#
# Compressibility (1/GPa) = 0.09663819
#
# Stress axis : x y z
#
# Youngs Moduli (GPa) = 43.53522 13.57541 30.54763
#
# Poissons Ratio (x) = -0.16609 -0.03109
# Poissons Ratio (y) = -0.53265 0.90475
# Poissons Ratio (z) = -0.04431 0.40207
#
# Static dielectric constant tensor:
#      x y z
#    x 1.798390 -0.013550 -0.023230 
#    y -0.013550 1.753990 -0.004450 
#    z -0.023230 -0.004450 1.767150 
# 
# From -- ./inp_files/188766.got.cif
#   From: 2010.05.17/outbox.cif.g08.bks.cpg/sg2_95_cif.got.tgz:188766.got - 2010.06.03 11:33:40.
