data_PCOD9099387
_publ_section_title
;
Structure prediction by ZEFSAII (Michael W. Deem and Ramdas Pophale) SiO2 
 PCOD9099387
Probable space group: P -1
;
_chemical_formula_sum "Si O2"
_cell_formula_units_Z 16
_cell_length_a 8.262225
_cell_length_b 11.877606
_cell_length_c 11.329891
_cell_angle_alpha 44.032197
_cell_angle_beta 74.890961
_cell_angle_gamma 61.260006
_cell_volume 670.983199
_symmetry_space_group_name_H-M "P -1"
_symmetry_group_IT_number 2
_symmetry_cell_setting 'triclinic'
loop_
_space_group_symop_operation_xyz
x,y,z
-x,-y,-z
loop_
_atom_site_type_symbol
_atom_site_label
_atom_site_fract_x
_atom_site_fract_y
_atom_site_fract_z
Si Si1 0.059606 0.243630 0.503001
Si Si2 0.583450 0.189907 0.763463
Si Si3 0.713193 0.568842 0.785542
Si Si4 0.375389 0.906155 0.644647
Si Si5 0.988142 0.671677 0.943069
Si Si6 0.808947 0.068351 0.584479
Si Si7 0.788166 0.799694 0.121107
Si Si8 0.834598 0.375399 0.671187
O O1 0.148537 0.334728 0.328340
O O2 0.917128 0.183778 0.512964
O O3 0.950751 0.377484 0.529032
O O4 0.231396 0.050678 0.654221
O O5 0.641674 0.129174 0.664019
O O6 0.361230 0.265603 0.752260
O O7 0.688132 0.306678 0.699188
O O8 0.676688 0.013814 0.962179
O O9 0.528873 0.703566 0.787224
O O10 0.709008 0.521774 0.683120
O O11 0.815844 0.391500 0.978277
O O12 0.257656 0.898697 0.560415
O O13 0.500000 0.000000 0.500000
O O14 0.927931 0.855930 0.745692
O O15 0.841093 0.717354 0.042667
O O16 0.000000 0.500000 0.000000
O O17 0.981536 0.750297 0.190400
#
# Coordination Sequence:
#
# PCOD9099387 Si02
#       8
#     2   2   2   2   2   2   2   2
#     4  10  21  39  61  88 115 169 201 241 305 374
#     4   9  19  36  57  91 113 160 207 246 298 368
#     4  10  22  40  60  90 125 153 197 258 315 345
#     4  10  21  37  60  87 121 159 201 246 298 368
#     4  10  20  39  62  86 121 160 197 251 308 356
#     4  10  21  39  64  84 118 161 212 240 292 381
#     4   9  19  35  60  84 121 160 200 245 308 363
#     4  10  20  37  60  87 124 154 204 259 301 356
#
# _framework density 23.845603000000001
#
# number of rings (size 3 to 8) (size 9 to 14) (size 15 to 20)
#    0.000    2.250    0.000    2.625    3.500    1.000 
#    9.000    1.875    0.000    0.000    0.000    0.000 
#    0.000    0.000    0.000    0.000    0.000    0.000 
#
# Total GULP energy -89259.624987 kJ/mol
# GULP energy per Si atom -5578.726562 kJ/mol
# Density = 2.379133 g / cm^3
# Si number density = 23.845603 Si / 1000 Ang^3
#
#
#
# Elastic Constant Matrix: (Units=GPa)
#
#
# Indices 1 2 3 4 5 6 
#
# 1 69.3651 34.3603 -0.4207 -1.2883 -12.8520 -8.7042
# 2 34.3603 98.6351 7.7035 -6.5505 -2.3849 3.3862
# 3 -0.4207 7.7035 21.9328 -5.1113 8.2994 -4.4944
# 4 -1.2883 -6.5505 -5.1113 31.2359 -10.1817 1.0180
# 5 -12.8520 -2.3849 8.2994 -10.1817 25.0733 -1.6822
# 6 -8.7042 3.3862 -4.4944 1.0180 -1.6822 39.7354
#
#
#
# Elastic Compliance Matrix: (Units=1/GPa)
#
#
# Indices 1 2 3 4 5 6 
#
# 1 0.020750 -0.006972 0.000360 0.003002 0.011448 0.005588
# 2 -0.006972 0.013174 -0.004954 0.001703 -0.000208 -0.003263
# 3 0.000360 -0.004954 0.055677 0.002215 -0.017414 0.006004
# 4 0.003002 0.001703 0.002215 0.038228 0.016524 0.000483
# 5 0.011448 -0.000208 -0.017414 0.016524 0.058380 0.002604
# 6 0.005588 -0.003263 0.006004 0.000483 0.002604 0.027446
#
#
# Mechanical properties :
#
#
# Convention : Reuss Voigt Hill
#
# Bulk Modulus (GPa) = 15.04476 30.35768 22.70122
# Shear Modulus (GPa) = 19.30919 29.09492 24.20205
#
# Velocity S-wave (km/s) = 2.84871 3.49684 3.18928
# Velocity P-wave (km/s) = 4.14043 5.39095 4.80653
#
# Compressibility (1/GPa) = 0.06646833
#
# Stress axis : x y z
#
# Youngs Moduli (GPa) = 48.19163 75.90580 17.96088
#
# Poissons Ratio (x) = 0.52924 -0.00646
# Poissons Ratio (y) = 0.33601 0.08897
# Poissons Ratio (z) = -0.01733 0.37602
#
# Static dielectric constant tensor:
#      x y z
#    x 1.937110 -0.028800 0.008910 
#    y -0.028800 1.953240 -0.038700 
#    z 0.008910 -0.038700 1.956040 
# 
# From -- ./inp_files/389062.got.cif
#   From: 2010.05.17/outbox.cif.g08.bks.cpg/sg2_195_cif.got.tgz:389062.got - 2010.06.03 11:33:40.
