data_PCOD9099921
_publ_section_title
;
Structure prediction by ZEFSAII (Michael W. Deem and Ramdas Pophale) SiO2 
 PCOD9099921
Probable space group: P -1
;
_chemical_formula_sum "Si O2"
_cell_formula_units_Z 16
_cell_length_a 8.752477
_cell_length_b 14.874674
_cell_length_c 9.351960
_cell_angle_alpha 58.762611
_cell_angle_beta 97.277695
_cell_angle_gamma 54.509468
_cell_volume 668.738968
_symmetry_space_group_name_H-M "P -1"
_symmetry_group_IT_number 2
_symmetry_cell_setting 'triclinic'
loop_
_space_group_symop_operation_xyz
x,y,z
-x,-y,-z
loop_
_atom_site_type_symbol
_atom_site_label
_atom_site_fract_x
_atom_site_fract_y
_atom_site_fract_z
Si Si1 0.187364 0.106359 0.600832
Si Si2 0.567450 0.588829 0.500057
Si Si3 0.353293 0.219919 0.600729
Si Si4 0.091759 0.347415 0.062268
Si Si5 0.581895 0.543426 0.860945
Si Si6 0.096496 0.762189 0.270340
Si Si7 0.702846 0.828932 0.044262
Si Si8 0.584058 0.127733 0.423037
O O1 0.007688 0.154104 0.656413
O O2 0.210347 0.027245 0.524685
O O3 0.850987 0.747285 0.522133
O O4 0.449672 0.973739 0.816023
O O5 0.688772 0.634593 0.514806
O O6 0.525168 0.555808 0.676757
O O7 0.304424 0.737057 0.276454
O O8 0.745443 0.426675 0.562386
O O9 0.356555 0.187021 0.794991
O O10 0.576873 0.105847 0.608743
O O11 0.346702 0.190808 0.289089
O O12 0.151476 0.319880 0.924083
O O13 0.000000 0.500000 0.000000
O O14 0.868777 0.388902 0.025037
O O15 0.472743 0.718018 0.735085
O O16 0.500000 0.500000 0.000000
O O17 0.869360 0.844890 0.080530
#
# Coordination Sequence:
#
# PCOD9099921 Si02
#       8
#     2   2   2   2   2   2   2   2
#     4  10  21  39  61  88 119 156 196 244 294 349
#     4  10  22  39  56  89 119 156 197 242 295 347
#     4  10  20  37  62  87 120 152 199 244 291 349
#     4   9  18  37  56  85 117 149 192 247 287 346
#     4  10  20  38  59  82 120 157 196 237 291 352
#     4  10  20  39  58  80 126 153 193 244 289 352
#     4  10  20  38  62  86 115 155 198 243 293 346
#     4   9  20  38  59  89 119 150 197 244 295 348
#
# _framework density 23.925625
#
# number of rings (size 3 to 8) (size 9 to 14) (size 15 to 20)
#    0.000    2.250    1.250    1.875    0.000    4.000 
#   13.500    7.500    0.000    0.000    0.000    0.000 
#    0.000    0.000    0.000    0.000    0.000    0.000 
#
# Total GULP energy -89095.640500 kJ/mol
# GULP energy per Si atom -5568.477531 kJ/mol
# Density = 2.387117 g / cm^3
# Si number density = 23.925625 Si / 1000 Ang^3
#
#
#
# Elastic Constant Matrix: (Units=GPa)
#
#
# Indices 1 2 3 4 5 6 
#
# 1 62.4068 36.3512 37.5061 -5.4422 -2.5384 -7.5787
# 2 36.3512 182.3922 34.8868 24.9514 -4.7177 1.0889
# 3 37.5061 34.8868 90.1923 14.1491 -3.0180 -10.0409
# 4 -5.4422 24.9514 14.1491 35.9101 -13.7126 8.6276
# 5 -2.5384 -4.7177 -3.0180 -13.7126 37.2469 -2.5142
# 6 -7.5787 1.0889 -10.0409 8.6276 -2.5142 35.4698
#
#
#
# Elastic Compliance Matrix: (Units=1/GPa)
#
#
# Indices 1 2 3 4 5 6 
#
# 1 0.027347 -0.005073 -0.011530 0.014433 0.005575 -0.000380
# 2 -0.005073 0.007308 0.000312 -0.006749 -0.001860 0.000290
# 3 -0.011530 0.000312 0.018047 -0.011543 -0.003182 0.005218
# 4 0.014433 -0.006749 -0.011543 0.047958 0.016141 -0.010498
# 5 0.005575 -0.001860 -0.003182 0.016141 0.032591 -0.001268
# 6 -0.000380 0.000290 0.005218 -0.010498 -0.001268 0.032044
#
#
# Mechanical properties :
#
#
# Convention : Reuss Voigt Hill
#
# Bulk Modulus (GPa) = 49.70321 61.38661 55.54491
# Shear Modulus (GPa) = 24.43991 36.80850 30.62421
#
# Velocity S-wave (km/s) = 3.19955 3.92657 3.58156
# Velocity P-wave (km/s) = 5.87100 6.80222 6.35369
#
# Compressibility (1/GPa) = 0.02011943
#
# Stress axis : x y z
#
# Youngs Moduli (GPa) = 36.56644 136.84495 55.41123
#
# Poissons Ratio (x) = 0.69421 0.63890
# Poissons Ratio (y) = 0.18550 -0.01728
# Poissons Ratio (z) = 0.42161 -0.04266
#
# Static dielectric constant tensor:
#      x y z
#    x 2.038890 0.078860 -0.051070 
#    y 0.078860 1.984540 -0.076410 
#    z -0.051070 -0.076410 2.071140 
# 
# From -- ./inp_files/217055.got.cif
#   From: 2010.05.17/outbox.cif.g08.bks.cpg/sg2_109_cif.got.tgz:217055.got - 2010.06.03 11:33:40.
