data_PCOD9099165
_publ_section_title
;
Structure prediction by ZEFSAII (Michael W. Deem and Ramdas Pophale) SiO2 
 PCOD9099165
Probable space group: P -1
;
_chemical_formula_sum "Si O2"
_cell_formula_units_Z 16
_cell_length_a 18.037247
_cell_length_b 8.837294
_cell_length_c 9.015194
_cell_angle_alpha 121.446578
_cell_angle_beta 47.859444
_cell_angle_gamma 93.049953
_cell_volume 802.765477
_symmetry_space_group_name_H-M "P -1"
_symmetry_group_IT_number 2
_symmetry_cell_setting 'triclinic'
loop_
_space_group_symop_operation_xyz
x,y,z
-x,-y,-z
loop_
_atom_site_type_symbol
_atom_site_label
_atom_site_fract_x
_atom_site_fract_y
_atom_site_fract_z
Si Si1 0.552843 0.318711 0.449308
Si Si2 0.414737 0.043224 0.002571
Si Si3 0.155740 0.413987 0.263218
Si Si4 0.173737 0.117688 0.355276
Si Si5 0.806123 0.179168 0.072511
Si Si6 0.421171 0.219611 0.793607
Si Si7 0.968204 0.777681 0.827737
Si Si8 0.985134 0.302490 0.935508
O O1 0.500000 0.500000 0.500000
O O2 0.566414 0.133871 0.230480
O O3 0.673208 0.278187 0.334965
O O4 0.469510 0.350016 0.713508
O O5 0.426318 0.199673 0.954463
O O6 0.500000 0.000000 0.000000
O O7 0.289118 0.102038 0.260353
O O8 0.145114 0.292846 0.359829
O O9 0.092620 0.360518 0.191316
O O10 0.088526 0.649015 0.515846
O O11 0.287054 0.314906 0.994130
O O12 0.077510 0.157197 0.621853
O O13 0.189708 0.923919 0.143389
O O14 0.862393 0.325265 0.071916
O O15 0.885715 0.993131 0.978007
O O16 0.500000 0.000000 0.500000
O O17 0.987872 0.780441 0.976261
O O18 0.000000 0.500000 0.000000
#
# Coordination Sequence:
#
# PCOD9099165 Si02
#       8
#     2   2   2   2   2   2   2   2
#     4  10  22  42  60  87 119 157 208 250 302 360
#     4   9  19  36  62  88 120 156 201 248 294 354
#     4   9  18  36  59  89 122 156 199 241 297 366
#     4   9  19  38  57  86 125 158 194 242 302 364
#     4  10  23  42  60  81 125 164 193 251 311 366
#     4   9  18  36  63  86 116 165 202 238 300 364
#     4  10  20  37  59  87 125 158 196 245 302 363
#     4  12  23  36  60  94 117 152 207 251 303 359
#
# _framework density 19.931101000000002
#
# number of rings (size 3 to 8) (size 9 to 14) (size 15 to 20)
#    0.000    2.250    1.250    3.000    0.000    5.000 
#    4.500    0.625    0.000    0.000    0.000    0.000 
#    0.000    0.000    0.000    0.000    0.000    0.000 
#
# Total GULP energy -89138.335380 kJ/mol
# GULP energy per Si atom -5571.145961 kJ/mol
# Density = 1.988574 g / cm^3
# Si number density = 19.931101 Si / 1000 Ang^3
#
#
#
# Elastic Constant Matrix: (Units=GPa)
#
#
# Indices 1 2 3 4 5 6 
#
# 1 144.8639 34.0268 38.3108 -22.2064 -26.6152 7.2340
# 2 34.0268 65.8928 22.3698 -7.6059 -12.9553 15.0762
# 3 38.3108 22.3698 84.2192 -25.4485 -29.7779 5.0361
# 4 -22.2064 -7.6059 -25.4485 28.4803 -1.8264 -6.3340
# 5 -26.6152 -12.9553 -29.7779 -1.8264 29.0995 -0.1425
# 6 7.2340 15.0762 5.0361 -6.3340 -0.1425 13.8529
#
#
#
# Elastic Compliance Matrix: (Units=1/GPa)
#
#
# Indices 1 2 3 4 5 6 
#
# 1 0.011052 -0.003605 0.005054 0.013711 0.014549 0.002734
# 2 -0.003605 0.024128 -0.003574 -0.004976 0.003351 -0.025318
# 3 0.005054 -0.003574 0.039077 0.042366 0.045712 0.006885
# 4 0.013711 -0.004976 0.042366 0.091809 0.059566 0.025445
# 5 0.014549 0.003351 0.045712 0.059566 0.099682 0.000398
# 6 0.002734 -0.025318 0.006885 0.025445 0.000398 0.107449
#
#
# Mechanical properties :
#
#
# Convention : Reuss Voigt Hill
#
# Bulk Modulus (GPa) = 14.28423 53.82119 34.05271
# Shear Modulus (GPa) = 12.47563 27.63776 20.05670
#
# Velocity S-wave (km/s) = 2.50459 3.72783 3.17567
# Velocity P-wave (km/s) = 3.94288 6.75213 5.52890
#
# Compressibility (1/GPa) = 0.07000728
#
# Stress axis : x y z
#
# Youngs Moduli (GPa) = 90.48510 41.44504 25.59078
#
# Poissons Ratio (x) = 0.14942 -0.12934
# Poissons Ratio (y) = 0.32621 0.09145
# Poissons Ratio (z) = -0.45733 0.14811
#
# Static dielectric constant tensor:
#      x y z
#    x 1.688800 0.034480 -0.004020 
#    y 0.034480 1.726970 0.018530 
#    z -0.004020 0.018530 1.744250 
# 
# From -- ./inp_files/178676.got.cif
#   From: 2010.05.17/outbox.cif.g08.bks.cpg/sg2_90_cif.got.tgz:178676.got - 2010.06.03 11:33:40.
