data_PCOD9099072
_publ_section_title
;
Structure prediction by ZEFSAII (Michael W. Deem and Ramdas Pophale) SiO2 
 PCOD9099072
Probable space group: P -1
;
_chemical_formula_sum "Si O2"
_cell_formula_units_Z 14
_cell_length_a 18.130417
_cell_length_b 9.451512
_cell_length_c 5.555810
_cell_angle_alpha 36.429084
_cell_angle_beta 80.985521
_cell_angle_gamma 70.505217
_cell_volume 522.196672
_symmetry_space_group_name_H-M "P -1"
_symmetry_group_IT_number 2
_symmetry_cell_setting 'triclinic'
loop_
_space_group_symop_operation_xyz
x,y,z
-x,-y,-z
loop_
_atom_site_type_symbol
_atom_site_label
_atom_site_fract_x
_atom_site_fract_y
_atom_site_fract_z
Si Si1 0.109413 0.261802 0.445315
Si Si2 0.315409 0.560908 0.576127
Si Si3 0.184476 0.471188 0.487442
Si Si4 0.049572 0.773053 0.514628
Si Si5 0.553055 0.438002 0.798630
Si Si6 0.447247 0.187324 0.372197
Si Si7 0.179144 0.898104 0.517194
O O1 0.161704 0.255127 0.660391
O O2 0.040991 0.137771 0.650750
O O3 0.168906 0.134061 0.372316
O O4 0.060264 0.557158 0.010343
O O5 0.264079 0.411151 0.682819
O O6 0.356606 0.681568 0.188988
O O7 0.252894 0.784871 0.456380
O O8 0.378994 0.373509 0.986849
O O9 0.109429 0.621817 0.483794
O O10 0.192264 0.661415 0.016595
O O11 0.092159 0.950309 0.369703
O O12 0.500000 0.500000 0.500000
O O13 0.564124 0.729358 0.464262
O O14 0.537533 0.116170 0.286375
O O15 0.500000 0.500000 0.000000
#
# Coordination Sequence:
#
# PCOD9099072 Si02
#       7
#     2   2   2   2   2   2   2
#     4  10  20  37  59  84 115 156 202 243 288 343
#     4  10  21  40  57  82 125 154 184 240 292 346
#     4  10  21  37  55  83 119 155 196 244 291 340
#     4   9  20  37  57  84 118 152 199 253 289 334
#     4   9  20  40  62  86 115 145 184 234 286 345
#     4  10  21  41  66  90 113 147 193 237 286 347
#     4  10  21  37  57  84 118 157 197 239 292 343
#
# _framework density 26.809825
#
# number of rings (size 3 to 8) (size 9 to 14) (size 15 to 20)
#    0.000    2.286    0.000    1.714    0.000    5.143 
#    0.000   34.286    0.000    0.000    0.000    0.000 
#    0.000    0.000    0.000    0.000    0.000    0.000 
#
# Total GULP energy -78102.385752 kJ/mol
# GULP energy per Si atom -5578.741839 kJ/mol
# Density = 2.674881 g / cm^3
# Si number density = 26.809825 Si / 1000 Ang^3
#
#
#
# Elastic Constant Matrix: (Units=GPa)
#
#
# Indices 1 2 3 4 5 6 
#
# 1 195.6147 89.5310 48.8663 21.6906 3.1014 4.5207
# 2 89.5310 189.5472 13.1048 27.9881 6.9368 20.4298
# 3 48.8663 13.1048 107.8977 -6.5757 4.7567 3.1390
# 4 21.6906 27.9881 -6.5757 35.3347 -1.9305 5.6492
# 5 3.1014 6.9368 4.7567 -1.9305 60.7925 20.0124
# 6 4.5207 20.4298 3.1390 5.6492 20.0124 48.0049
#
#
#
# Elastic Compliance Matrix: (Units=1/GPa)
#
#
# Indices 1 2 3 4 5 6 
#
# 1 0.007659 -0.003056 -0.003312 -0.003121 -0.000307 0.001291
# 2 -0.003056 0.007498 0.000327 -0.003605 -0.000019 -0.002492
# 3 -0.003312 0.000327 0.011008 0.003946 -0.000315 -0.000880
# 4 -0.003121 -0.003605 0.003946 0.034511 0.002524 -0.003543
# 5 -0.000307 -0.000019 -0.000315 0.002524 0.019299 -0.008285
# 6 0.001291 -0.002492 -0.000880 -0.003543 -0.008285 0.025699
#
#
# Mechanical properties :
#
#
# Convention : Reuss Voigt Hill
#
# Bulk Modulus (GPa) = 71.00249 88.45152 79.72701
# Shear Modulus (GPa) = 40.83278 51.59692 46.21485
#
# Velocity S-wave (km/s) = 3.90686 4.39173 4.15637
# Velocity P-wave (km/s) = 6.84783 7.66683 7.26887
#
# Compressibility (1/GPa) = 0.01408401
#
# Stress axis : x y z
#
# Youngs Moduli (GPa) = 130.56324 133.36529 90.84116
#
# Poissons Ratio (x) = 0.40755 0.30085
# Poissons Ratio (y) = 0.39899 -0.02970
# Poissons Ratio (z) = 0.43240 -0.04360
#
# Static dielectric constant tensor:
#      x y z
#    x -1.337070 -2.761390 2.468850 
#    y -2.761390 -0.226040 2.074820 
#    z 2.468850 2.074820 0.308130 
# 
# From -- ./inp_files/104404.got.cif
#   From: 2010.05.17/outbox.cif.g08.bks.cpg/sg2_53_cif.got.tgz:104404.got - 2010.06.03 11:33:40.
