data_PCOD9099967
_publ_section_title
;
Structure prediction by ZEFSAII (Michael W. Deem and Ramdas Pophale) SiO2 
 PCOD9099967
Probable space group: P -1
;
_chemical_formula_sum "Si O2"
_cell_formula_units_Z 16
_cell_length_a 14.807504
_cell_length_b 18.434362
_cell_length_c 23.745280
_cell_angle_alpha 19.456108
_cell_angle_beta 28.185927
_cell_angle_gamma 20.734908
_cell_volume 764.359068
_symmetry_space_group_name_H-M "P -1"
_symmetry_group_IT_number 2
_symmetry_cell_setting 'triclinic'
loop_
_space_group_symop_operation_xyz
x,y,z
-x,-y,-z
loop_
_atom_site_type_symbol
_atom_site_label
_atom_site_fract_x
_atom_site_fract_y
_atom_site_fract_z
Si Si1 0.628153 0.132143 0.845122
Si Si2 0.529384 0.676547 0.775861
Si Si3 0.657493 0.360344 0.460244
Si Si4 0.573120 0.150590 0.165983
Si Si5 0.447582 0.440862 0.343182
Si Si6 0.982813 0.474839 0.428036
Si Si7 0.232133 0.075859 0.362148
Si Si8 0.150944 0.913498 0.714000
O O1 0.489625 0.396252 0.684521
O O2 0.589433 0.285814 0.813575
O O3 0.931999 0.899841 0.838648
O O4 0.500000 0.000000 0.000000
O O5 0.481810 0.822938 0.755848
O O6 0.731406 0.647917 0.645474
O O7 0.267349 0.853013 0.756464
O O8 0.625123 0.360973 0.968343
O O9 0.500000 0.500000 0.500000
O O10 0.933927 0.255390 0.395992
O O11 0.683270 0.093605 0.619373
O O12 0.326323 0.247062 0.197574
O O13 0.801561 0.818380 0.265000
O O14 0.608234 0.310374 0.293849
O O15 0.173568 0.523058 0.435965
O O16 0.624017 0.174796 0.485447
O O17 0.003196 0.255075 0.534273
#
# Coordination Sequence:
#
# PCOD9099967 Si02
#       8
#     2   2   2   2   2   2   2   2
#     4  10  23  40  60  91 128 159 201 260 316 370
#     4  11  24  39  60  92 125 168 203 250 311 366
#     4  10  20  37  62  89 115 155 210 250 301 365
#     4  10  23  41  59  87 131 161 201 258 307 360
#     4   9  20  39  61  87 123 158 199 258 302 365
#     4  10  20  38  61  85 115 158 207 244 293 360
#     4   9  19  36  61  85 116 157 199 247 301 359
#     4  11  23  39  64  89 121 164 209 246 311 369
#
# _framework density 20.932569000000001
#
# number of rings (size 3 to 8) (size 9 to 14) (size 15 to 20)
#    0.000    2.000    0.000    3.750    1.750    6.500 
#    2.250    0.000    0.000    0.000    0.000    0.000 
#    0.000    0.000    0.000    0.000    0.000    0.000 
#
# Total GULP energy -89187.698445 kJ/mol
# GULP energy per Si atom -5574.231153 kJ/mol
# Density = 2.088493 g / cm^3
# Si number density = 20.932569 Si / 1000 Ang^3
#
#
#
# Elastic Constant Matrix: (Units=GPa)
#
#
# Indices 1 2 3 4 5 6 
#
# 1 80.9554 64.4244 29.7501 12.0054 -25.4983 -8.8966
# 2 64.4244 147.0207 40.4991 11.0572 -14.2314 1.1940
# 3 29.7501 40.4991 66.9637 3.2289 -29.7421 3.3526
# 4 12.0054 11.0572 3.2289 25.8011 -10.7557 -8.9878
# 5 -25.4983 -14.2314 -29.7421 -10.7557 30.1377 -1.4297
# 6 -8.8966 1.1940 3.3526 -8.9878 -1.4297 43.1956
#
#
#
# Elastic Compliance Matrix: (Units=1/GPa)
#
#
# Indices 1 2 3 4 5 6 
#
# 1 0.027630 -0.011515 0.005217 0.004412 0.025011 0.007350
# 2 -0.011515 0.013482 -0.009242 -0.006976 -0.015176 -0.003981
# 3 0.005217 -0.009242 0.035239 0.014995 0.040321 0.003049
# 4 0.004412 -0.006976 0.014995 0.057564 0.036403 0.013120
# 5 0.025011 -0.015176 0.040321 0.036403 0.100592 0.013345
# 6 0.007350 -0.003981 0.003049 0.013120 0.013345 0.027709
#
#
# Mechanical properties :
#
#
# Convention : Reuss Voigt Hill
#
# Bulk Modulus (GPa) = 22.09021 62.69856 42.39438
# Shear Modulus (GPa) = 16.21342 30.51129 23.36236
#
# Velocity S-wave (km/s) = 2.78610 3.82199 3.34440
# Velocity P-wave (km/s) = 4.57447 7.03523 5.93381
#
# Compressibility (1/GPa) = 0.04526892
#
# Stress axis : x y z
#
# Youngs Moduli (GPa) = 36.19252 74.17513 28.37783
#
# Poissons Ratio (x) = 0.85413 -0.14804
# Poissons Ratio (y) = 0.41676 0.26228
# Poissons Ratio (z) = -0.18881 0.68556
#
# Static dielectric constant tensor:
#      x y z
#    x 1.763990 -0.002300 -0.019670 
#    y -0.002300 1.760060 0.000320 
#    z -0.019670 0.000320 1.793020 
# 
# From -- ./inp_files/612185.got.cif
#   From: 2010.05.17/outbox.cif.g08.bks.cpg/sg2_307_cif.got.tgz:612185.got - 2010.06.03 11:33:40.
