data_PCOD9099896
_publ_section_title
;
Structure prediction by ZEFSAII (Michael W. Deem and Ramdas Pophale) SiO2 
 PCOD9099896
Probable space group: P -1
;
_chemical_formula_sum "Si O2"
_cell_formula_units_Z 16
_cell_length_a 8.664651
_cell_length_b 12.556825
_cell_length_c 6.560188
_cell_angle_alpha 96.444998
_cell_angle_beta 103.086762
_cell_angle_gamma 116.489257
_cell_volume 603.327448
_symmetry_space_group_name_H-M "P -1"
_symmetry_group_IT_number 2
_symmetry_cell_setting 'triclinic'
loop_
_space_group_symop_operation_xyz
x,y,z
-x,-y,-z
loop_
_atom_site_type_symbol
_atom_site_label
_atom_site_fract_x
_atom_site_fract_y
_atom_site_fract_z
Si Si1 0.998848 0.247353 0.346537
Si Si2 0.203029 0.505218 0.694374
Si Si3 0.825326 0.000784 0.356196
Si Si4 0.660380 0.786266 0.519898
Si Si5 0.527177 0.474670 0.740434
Si Si6 0.832294 0.424980 0.739295
Si Si7 0.611216 0.910227 0.886676
Si Si8 0.714883 0.179805 0.908207
O O1 0.094924 0.369998 0.531208
O O2 0.152114 0.207821 0.355867
O O3 0.847352 0.134626 0.408465
O O4 0.903675 0.240686 0.105028
O O5 0.400349 0.522372 0.825475
O O6 0.220106 0.588743 0.522498
O O7 0.053357 0.500480 0.807549
O O8 0.669060 0.897287 0.418127
O O9 0.782876 0.957251 0.101409
O O10 0.000000 0.000000 0.500000
O O11 0.574580 0.672089 0.318450
O O12 0.583614 0.800318 0.711550
O O13 0.500000 0.500000 0.500000
O O14 0.735516 0.502726 0.812190
O O15 0.748478 0.289054 0.784348
O O16 0.658195 0.037374 0.809087
O O17 0.438483 0.852474 0.971338
#
# Coordination Sequence:
#
# PCOD9099896 Si02
#       8
#     2   2   2   2   2   2   2   2
#     4   9  20  37  53  85 119 149 201 252 294 362
#     4   9  20  37  61  88 115 151 214 246 291 380
#     4   9  19  35  57  86 116 156 198 246 304 350
#     4  10  20  37  63  86 115 167 199 248 310 355
#     4   9  19  38  62  89 120 153 204 257 296 360
#     4  10  20  37  62  86 115 165 194 249 318 347
#     4  10  22  39  56  89 126 151 210 248 292 382
#     4  10  22  38  53  85 126 156 191 259 302 353
#
# _framework density 26.519594999999999
#
# number of rings (size 3 to 8) (size 9 to 14) (size 15 to 20)
#    0.000    2.500    0.000    0.750    3.500    5.000 
#    6.750    2.500    0.000    4.500    0.000    0.000 
#    0.000    0.000    0.000    0.000    0.000    0.000 
#
# Total GULP energy -89261.484355 kJ/mol
# GULP energy per Si atom -5578.842772 kJ/mol
# Density = 2.645924 g / cm^3
# Si number density = 26.519595 Si / 1000 Ang^3
#
#
#
# Elastic Constant Matrix: (Units=GPa)
#
#
# Indices 1 2 3 4 5 6 
#
# 1 173.3183 32.4162 56.1586 -9.2126 11.6930 -11.3469
# 2 32.4162 153.0925 46.7615 -29.7682 -1.7249 6.3949
# 3 56.1586 46.7615 62.2777 -19.3403 10.8822 -10.2255
# 4 -9.2126 -29.7682 -19.3403 46.5842 -6.9902 3.2891
# 5 11.6930 -1.7249 10.8822 -6.9902 58.0690 3.6311
# 6 -11.3469 6.3949 -10.2255 3.2891 3.6311 33.4060
#
#
#
# Elastic Compliance Matrix: (Units=1/GPa)
#
#
# Indices 1 2 3 4 5 6 
#
# 1 0.008301 0.000402 -0.008139 -0.001565 -0.000350 0.000444
# 2 0.000402 0.009769 -0.007710 0.003817 0.002409 -0.004731
# 3 -0.008139 -0.007710 0.033302 0.005967 -0.004665 0.008825
# 4 -0.001565 0.003817 0.005967 0.026639 0.002664 -0.002348
# 5 -0.000350 0.002409 -0.004665 0.002664 0.018828 -0.004317
# 6 0.000444 -0.004731 0.008825 -0.002348 -0.004317 0.034393
#
#
# Mechanical properties :
#
#
# Convention : Reuss Voigt Hill
#
# Bulk Modulus (GPa) = 48.83246 73.26235 61.04740
# Shear Modulus (GPa) = 29.59424 44.50199 37.04811
#
# Velocity S-wave (km/s) = 3.34419 4.10088 3.74171
# Velocity P-wave (km/s) = 5.77626 7.07875 6.46041
#
# Compressibility (1/GPa) = 0.02047818
#
# Stress axis : x y z
#
# Youngs Moduli (GPa) = 120.46215 102.36735 30.02798
#
# Poissons Ratio (x) = -0.04111 0.24440
# Poissons Ratio (y) = -0.04837 0.23150
# Poissons Ratio (z) = 0.98045 0.78921
#
# Static dielectric constant tensor:
#      x y z
#    x 2.194560 0.100090 0.017510 
#    y 0.100090 2.214840 -0.028210 
#    z 0.017510 -0.028210 2.117550 
# 
# From -- ./inp_files/38140.got.cif
#   From: 2010.05.17/outbox.cif.g08.bks.cpg/sg2_20_cif.got.tgz:38140.got - 2010.06.03 11:33:40.
