data_PCOD9099564
_publ_section_title
;
Structure prediction by ZEFSAII (Michael W. Deem and Ramdas Pophale) SiO2 
 PCOD9099564
Probable space group: P -1
;
_chemical_formula_sum "Si O2"
_cell_formula_units_Z 14
_cell_length_a 10.851351
_cell_length_b 12.733989
_cell_length_c 18.770447
_cell_angle_alpha 147.239653
_cell_angle_beta 22.306969
_cell_angle_gamma 140.407478
_cell_volume 532.388921
_symmetry_space_group_name_H-M "P -1"
_symmetry_group_IT_number 2
_symmetry_cell_setting 'triclinic'
loop_
_space_group_symop_operation_xyz
x,y,z
-x,-y,-z
loop_
_atom_site_type_symbol
_atom_site_label
_atom_site_fract_x
_atom_site_fract_y
_atom_site_fract_z
Si Si1 0.106387 0.852456 0.492858
Si Si2 0.284373 0.875479 0.695256
Si Si3 0.783208 0.403576 0.838958
Si Si4 0.790173 0.256366 0.899214
Si Si5 0.455240 0.768500 0.393186
Si Si6 0.205337 0.605925 0.877627
Si Si7 0.780544 0.227046 0.170976
O O1 0.033617 0.746045 0.397244
O O2 0.218360 0.724061 0.428245
O O3 0.434597 0.968075 0.366135
O O4 0.861377 0.030721 0.744143
O O5 0.294710 0.746215 0.544276
O O6 0.330018 0.767533 0.684953
O O7 0.958777 0.015673 0.948038
O O8 0.649840 0.299172 0.920825
O O9 0.992014 0.587410 0.849599
O O10 0.500000 0.500000 0.000000
O O11 0.632123 0.346766 0.106267
O O12 0.124676 0.378771 0.783337
O O13 0.828261 0.692997 0.136783
O O14 0.500000 0.000000 0.500000
O O15 0.392370 0.717826 0.780054
#
# Coordination Sequence:
#
# PCOD9099564 Si02
#       7
#     2   2   2   2   2   2   2
#     4  11  18  34  55  81 107 138 176 213 259 315
#     4  10  18  31  56  83 105 134 174 219 259 304
#     4  11  21  35  51  79 108 141 175 214 261 318
#     4  10  20  30  55  79 103 137 181 218 255 301
#     4  10  16  31  56  80 103 136 177 214 256 307
#     4  10  17  33  52  81 107 132 178 221 253 305
#     4  10  19  33  53  84 106 135 173 216 265 304
#
# _framework density 26.296565999999999
#
# number of rings (size 3 to 8) (size 9 to 14) (size 15 to 20)
#    0.000    1.714    7.143    1.286    0.000    0.000 
#    0.000    3.571    0.000    0.857    0.000    0.000 
#    0.000    0.000    0.000    0.000    0.000    0.000 
#
# Total GULP energy -78135.308792 kJ/mol
# GULP energy per Si atom -5581.093485 kJ/mol
# Density = 2.623671 g / cm^3
# Si number density = 26.296566 Si / 1000 Ang^3
#
#
#
# Elastic Constant Matrix: (Units=GPa)
#
#
# Indices 1 2 3 4 5 6 
#
# 1 123.3512 41.9160 24.6058 -10.5735 43.6689 -51.6490
# 2 41.9160 74.4164 29.8803 -12.7447 17.4114 -22.3952
# 3 24.6058 29.8803 95.4768 16.2477 33.3458 -5.0883
# 4 -10.5735 -12.7447 16.2477 37.7385 -9.9125 23.1899
# 5 43.6689 17.4114 33.3458 -9.9125 42.2323 -11.7101
# 6 -51.6490 -22.3952 -5.0883 23.1899 -11.7101 51.5092
#
#
#
# Elastic Compliance Matrix: (Units=1/GPa)
#
#
# Indices 1 2 3 4 5 6 
#
# 1 0.045969 -0.015167 0.024114 -0.049021 -0.057732 0.050826
# 2 -0.015167 0.023575 -0.014862 0.022779 0.019659 -0.012212
# 3 0.024114 -0.014862 0.035146 -0.044792 -0.048672 0.030290
# 4 -0.049021 0.022779 -0.044792 0.105864 0.081312 -0.072850
# 5 -0.057732 0.019659 -0.048672 0.081312 0.114861 -0.064645
# 6 0.050826 -0.012212 0.030290 -0.072850 -0.064645 0.086162
#
#
# Mechanical properties :
#
#
# Convention : Reuss Voigt Hill
#
# Bulk Modulus (GPa) = 10.76896 54.00538 32.38717
# Shear Modulus (GPa) = 11.00448 39.41881 25.21164
#
# Velocity S-wave (km/s) = 2.04789 3.87590 3.09972
# Velocity P-wave (km/s) = 3.11382 6.37274 5.01536
#
# Compressibility (1/GPa) = 0.09285945
#
# Stress axis : x y z
#
# Youngs Moduli (GPa) = 21.75395 42.41833 28.45250
#
# Poissons Ratio (x) = 0.64334 -0.68610
# Poissons Ratio (y) = 0.32993 0.42287
# Poissons Ratio (z) = -0.52457 0.63043
#
# Static dielectric constant tensor:
#      x y z
#    x 3.843630 -0.281980 0.799280 
#    y -0.281980 2.081500 -0.095470 
#    z 0.799280 -0.095470 2.567130 
# 
# From -- ./inp_files/247605.got.cif
#   From: 2010.05.17/outbox.cif.g08.bks.cpg/sg2_124_cif.got.tgz:247605.got - 2010.06.03 11:33:40.
