data_PCOD9099377
_publ_section_title
;
Structure prediction by ZEFSAII (Michael W. Deem and Ramdas Pophale) SiO2 
 PCOD9099377
Probable space group: P -1
;
_chemical_formula_sum "Si O2"
_cell_formula_units_Z 16
_cell_length_a 6.209110
_cell_length_b 19.507174
_cell_length_c 8.794516
_cell_angle_alpha 51.438377
_cell_angle_beta 56.919935
_cell_angle_gamma 76.581898
_cell_volume 688.339732
_symmetry_space_group_name_H-M "P -1"
_symmetry_group_IT_number 2
_symmetry_cell_setting 'triclinic'
loop_
_space_group_symop_operation_xyz
x,y,z
-x,-y,-z
loop_
_atom_site_type_symbol
_atom_site_label
_atom_site_fract_x
_atom_site_fract_y
_atom_site_fract_z
Si Si1 0.076048 0.425307 0.236950
Si Si2 0.417317 0.011799 0.275091
Si Si3 0.647702 0.258904 0.624944
Si Si4 0.639268 0.302597 0.911040
Si Si5 0.400456 0.132138 0.400803
Si Si6 0.219348 0.369720 0.584970
Si Si7 0.643565 0.534125 0.230725
Si Si8 0.827192 0.081196 0.782725
O O1 0.868796 0.340611 0.372329
O O2 0.902992 0.500883 0.237526
O O3 0.196369 0.391853 0.386716
O O4 0.287679 0.462048 0.981198
O O5 0.356654 0.084831 0.317099
O O6 0.418301 0.923632 0.497082
O O7 0.230632 0.991076 0.230011
O O8 0.698922 0.042335 0.043393
O O9 0.682197 0.255344 0.799477
O O10 0.369736 0.286879 0.660858
O O11 0.682417 0.163902 0.680525
O O12 0.449242 0.371650 0.844164
O O13 0.924556 0.351221 0.783307
O O14 0.518720 0.233125 0.179853
O O15 0.129692 0.120714 0.610456
O O16 0.403811 0.455312 0.464806
#
# Coordination Sequence:
#
# PCOD9099377 Si02
#       8
#     2   2   2   2   2   2   2   2
#     4   9  20  38  60  86 119 162 210 260 307 373
#     4  10  24  43  67 100 124 166 211 259 325 381
#     4  10  22  39  58  89 125 167 206 256 314 369
#     4  11  23  38  59  90 126 164 209 259 310 373
#     4  11  23  44  67  97 129 165 213 261 317 381
#     4  10  22  38  59  86 126 162 207 258 307 371
#     4  10  20  37  60  87 119 163 208 257 313 365
#     4  11  22  43  68  94 130 167 207 264 319 375
#
# _framework density 23.244335
#
# number of rings (size 3 to 8) (size 9 to 14) (size 15 to 20)
#    0.000    1.750    1.250    2.250    0.000    9.500 
#    9.000    0.000    0.000    0.000    0.000    0.000 
#    0.000    0.000    0.000    0.000    0.000    0.000 
#
# Total GULP energy -89465.500985 kJ/mol
# GULP energy per Si atom -5591.593812 kJ/mol
# Density = 2.319143 g / cm^3
# Si number density = 23.244335 Si / 1000 Ang^3
#
#
#
# Elastic Constant Matrix: (Units=GPa)
#
#
# Indices 1 2 3 4 5 6 
#
# 1 48.7707 5.4116 13.9641 -6.9980 2.6744 -1.5637
# 2 5.4116 64.3412 6.5029 -3.1842 4.9373 -4.4142
# 3 13.9641 6.5029 132.5131 -14.1154 -11.4518 -14.1623
# 4 -6.9980 -3.1842 -14.1154 30.9164 -11.0315 7.5565
# 5 2.6744 4.9373 -11.4518 -11.0315 30.3568 -2.9956
# 6 -1.5637 -4.4142 -14.1623 7.5565 -2.9956 20.9637
#
#
#
# Elastic Compliance Matrix: (Units=1/GPa)
#
#
# Indices 1 2 3 4 5 6 
#
# 1 0.021829 -0.001451 -0.002113 0.003774 -0.001275 -0.001648
# 2 -0.001451 0.016089 -0.000644 -0.000572 -0.002677 0.002669
# 3 -0.002113 -0.000644 0.009370 0.004599 0.006014 0.005239
# 4 0.003774 -0.000572 0.004599 0.043529 0.016318 -0.010091
# 5 -0.001275 -0.002677 0.006014 0.016318 0.042036 0.003529
# 6 -0.001648 0.002669 0.005239 -0.010091 0.003529 0.055821
#
#
# Mechanical properties :
#
#
# Convention : Reuss Voigt Hill
#
# Bulk Modulus (GPa) = 25.72506 33.04249 29.38377
# Shear Modulus (GPa) = 23.80404 31.09713 27.45059
#
# Velocity S-wave (km/s) = 3.20360 3.66161 3.44024
# Velocity P-wave (km/s) = 4.97748 5.66769 5.33376
#
# Compressibility (1/GPa) = 0.03887260
#
# Stress axis : x y z
#
# Youngs Moduli (GPa) = 45.81085 62.15287 106.72128
#
# Poissons Ratio (x) = 0.09017 0.22554
# Poissons Ratio (y) = 0.06646 0.06870
# Poissons Ratio (z) = 0.09682 0.04001
#
# Static dielectric constant tensor:
#      x y z
#    x 1.879960 0.062610 -0.017200 
#    y 0.062610 1.902880 0.008010 
#    z -0.017200 0.008010 1.853580 
# 
# From -- ./inp_files/141099.got.cif
#   From: 2010.05.17/outbox.cif.g08.bks.cpg/sg2_71_cif.got.tgz:141099.got - 2010.06.03 11:33:40.
