data_PCOD9099492
_publ_section_title
;
Structure prediction by ZEFSAII (Michael W. Deem and Ramdas Pophale) SiO2 
 PCOD9099492
Probable space group: P -1
;
_chemical_formula_sum "Si O2"
_cell_formula_units_Z 14
_cell_length_a 8.941443
_cell_length_b 9.981792
_cell_length_c 11.423551
_cell_angle_alpha 40.697880
_cell_angle_beta 102.884532
_cell_angle_gamma 115.594887
_cell_volume 590.042582
_symmetry_space_group_name_H-M "P -1"
_symmetry_group_IT_number 2
_symmetry_cell_setting 'triclinic'
loop_
_space_group_symop_operation_xyz
x,y,z
-x,-y,-z
loop_
_atom_site_type_symbol
_atom_site_label
_atom_site_fract_x
_atom_site_fract_y
_atom_site_fract_z
Si Si1 0.092869 0.886865 0.945141
Si Si2 0.398095 0.745924 0.505860
Si Si3 0.753405 0.022256 0.489564
Si Si4 0.053868 0.266252 0.213078
Si Si5 0.526916 0.861946 0.203393
Si Si6 0.786002 0.464908 0.722303
Si Si7 0.098999 0.338279 0.621774
O O1 0.274280 0.047090 0.812928
O O2 0.027953 0.083519 0.827624
O O3 0.972825 0.716584 0.939937
O O4 0.141344 0.729838 0.147211
O O5 0.582969 0.821835 0.543905
O O6 0.442545 0.875520 0.302560
O O7 0.273256 0.489954 0.620337
O O8 0.300347 0.836238 0.520236
O O9 0.865567 0.912181 0.642003
O O10 0.872865 0.176387 0.305852
O O11 0.179978 0.468618 0.180946
O O12 0.407012 0.615107 0.298840
O O13 0.500000 0.000000 0.000000
O O14 0.876382 0.661752 0.514914
O O15 0.000000 0.500000 0.500000
#
# Coordination Sequence:
#
# PCOD9099492 Si02
#       7
#     2   2   2   2   2   2   2
#     4  11  22  39  61  89 124 161 206 263 304 366
#     4  10  20  37  60  91 127 160 211 256 315 365
#     4  10  21  35  61  94 124 165 204 262 307 374
#     4  11  20  37  60  91 126 163 210 247 314 371
#     4   9  20  38  59  88 121 162 209 255 305 369
#     4  10  23  37  62  91 120 161 211 255 308 374
#     4  11  23  39  62  91 122 162 210 258 314 373
#
# _framework density 23.727101000000001
#
# number of rings (size 3 to 8) (size 9 to 14) (size 15 to 20)
#    0.000    1.714    1.429    3.857    2.000    1.714 
#    0.000    1.429    0.000    3.429    0.000    0.000 
#    0.000    0.000    0.000    0.000    0.000    0.000 
#
# Total GULP energy -78041.032555 kJ/mol
# GULP energy per Si atom -5574.359468 kJ/mol
# Density = 2.367310 g / cm^3
# Si number density = 23.727101 Si / 1000 Ang^3
#
#
#
# Elastic Constant Matrix: (Units=GPa)
#
#
# Indices 1 2 3 4 5 6 
#
# 1 88.9180 36.4036 11.0865 3.6483 11.7997 4.3868
# 2 36.4036 133.5735 20.6544 7.2548 11.7637 23.5835
# 3 11.0865 20.6544 102.9614 2.8368 19.0943 -9.2558
# 4 3.6483 7.2548 2.8368 23.7431 -0.7477 4.2398
# 5 11.7997 11.7637 19.0943 -0.7477 21.5927 0.2484
# 6 4.3868 23.5835 -9.2558 4.2398 0.2484 33.7571
#
#
#
# Elastic Compliance Matrix: (Units=1/GPa)
#
#
# Indices 1 2 3 4 5 6 
#
# 1 0.013331 -0.003254 0.000444 -0.001454 -0.005965 0.000889
# 2 -0.003254 0.010153 -0.001910 -0.001182 -0.002023 -0.007030
# 3 0.000444 -0.001910 0.012488 -0.002206 -0.010379 0.005054
# 4 -0.001454 -0.001182 -0.002206 0.044043 0.004974 -0.005158
# 5 -0.005965 -0.002023 -0.010379 0.004974 0.060044 -0.001724
# 6 0.000889 -0.007030 0.005054 -0.005158 -0.001724 0.036466
#
#
# Mechanical properties :
#
#
# Convention : Reuss Voigt Hill
#
# Bulk Modulus (GPa) = 37.69530 51.30466 44.49998
# Shear Modulus (GPa) = 25.66609 32.97247 29.31928
#
# Velocity S-wave (km/s) = 3.29252 3.73185 3.51905
# Velocity P-wave (km/s) = 5.51142 6.34340 5.94199
#
# Compressibility (1/GPa) = 0.02652851
#
# Stress axis : x y z
#
# Youngs Moduli (GPa) = 75.01492 98.49744 80.07815
#
# Poissons Ratio (x) = 0.32056 -0.03552
# Poissons Ratio (y) = 0.24413 0.15298
# Poissons Ratio (z) = -0.03328 0.18817
#
# Static dielectric constant tensor:
#      x y z
#    x 2.050200 0.064410 -0.065740 
#    y 0.064410 2.080880 -0.116760 
#    z -0.065740 -0.116760 1.920420 
# 
# From -- ./inp_files/183029.got.cif
#   From: 2010.05.17/outbox.cif.g08.bks.cpg/sg2_92_cif.got.tgz:183029.got - 2010.06.03 11:33:40.
