data_PCOD9099711
_publ_section_title
;
Structure prediction by ZEFSAII (Michael W. Deem and Ramdas Pophale) SiO2 
 PCOD9099711
Probable space group: P -1
;
_chemical_formula_sum "Si O2"
_cell_formula_units_Z 14
_cell_length_a 9.215863
_cell_length_b 20.296599
_cell_length_c 5.376764
_cell_angle_alpha 69.686203
_cell_angle_beta 121.901405
_cell_angle_gamma 139.786065
_cell_volume 548.338847
_symmetry_space_group_name_H-M "P -1"
_symmetry_group_IT_number 2
_symmetry_cell_setting 'triclinic'
loop_
_space_group_symop_operation_xyz
x,y,z
-x,-y,-z
loop_
_atom_site_type_symbol
_atom_site_label
_atom_site_fract_x
_atom_site_fract_y
_atom_site_fract_z
Si Si1 0.491700 0.292341 0.459802
Si Si2 0.132644 0.290824 0.325195
Si Si3 0.663045 0.975852 0.888785
Si Si4 0.778737 0.054569 0.391374
Si Si5 0.987725 0.402441 0.969950
Si Si6 0.542875 0.235851 0.080474
Si Si7 0.481269 0.447471 0.804303
O O1 0.362669 0.328297 0.324862
O O2 0.790431 0.381325 0.643910
O O3 0.432410 0.236275 0.225736
O O4 0.416111 0.226326 0.725349
O O5 0.232647 0.332571 0.645113
O O6 0.934692 0.169730 0.311497
O O7 0.029835 0.331343 0.054805
O O8 0.502270 0.999293 0.749493
O O9 0.487889 0.856976 0.824630
O O10 0.843950 0.040622 0.733950
O O11 0.785573 0.004154 0.232245
O O12 0.831832 0.347716 0.157742
O O13 0.259460 0.517606 0.036295
O O14 0.500000 0.500000 0.500000
O O15 0.500000 0.500000 0.000000
#
# Coordination Sequence:
#
# PCOD9099711 Si02
#       7
#     2   2   2   2   2   2   2
#     4  10  24  39  66  97 129 167 215 254 324 373
#     4  11  23  45  66  97 130 166 213 272 307 381
#     4  10  20  37  61  89 124 168 210 257 314 376
#     4  10  21  35  61  95 119 164 219 252 314 375
#     4   9  23  43  69  88 133 169 207 257 327 371
#     4  10  21  43  62  93 130 167 211 263 310 380
#     4  10  24  40  66 100 122 167 215 254 319 383
#
# _framework density 25.531659999999999
#
# number of rings (size 3 to 8) (size 9 to 14) (size 15 to 20)
#    0.857    1.143    1.429    0.857    4.000    7.429 
#    0.000    5.000    0.000    0.000    0.000    0.000 
#    0.000    0.000    0.000    0.000    0.000    0.000 
#
# Total GULP energy -78132.638461 kJ/mol
# GULP energy per Si atom -5580.902747 kJ/mol
# Density = 2.547355 g / cm^3
# Si number density = 25.531660 Si / 1000 Ang^3
#
#
#
# Elastic Constant Matrix: (Units=GPa)
#
#
# Indices 1 2 3 4 5 6 
#
# 1 129.9091 23.9623 67.9253 1.3031 -22.6967 -21.9708
# 2 23.9623 49.3789 -0.4078 12.4175 -4.4070 1.4012
# 3 67.9253 -0.4078 85.3106 9.3183 -31.3152 -4.6526
# 4 1.3031 12.4175 9.3183 37.4740 -9.1057 1.8585
# 5 -22.6967 -4.4070 -31.3152 -9.1057 59.9697 4.9662
# 6 -21.9708 1.4012 -4.6526 1.8585 4.9662 34.0896
#
#
#
# Elastic Compliance Matrix: (Units=1/GPa)
#
#
# Indices 1 2 3 4 5 6 
#
# 1 0.020387 -0.012181 -0.017152 0.006531 -0.002076 0.011245
# 2 -0.012181 0.029523 0.011595 -0.011276 0.002501 -0.007231
# 3 -0.017152 0.011595 0.029173 -0.007870 0.009099 -0.008446
# 4 0.006531 -0.011276 -0.007870 0.032654 0.002369 0.001473
# 5 -0.002076 0.002501 0.009099 0.002369 0.021470 -0.003456
# 6 0.011245 -0.007231 -0.008446 0.001473 -0.003456 0.036150
#
#
# Mechanical properties :
#
#
# Convention : Reuss Voigt Hill
#
# Bulk Modulus (GPa) = 22.93269 49.72869 36.33069
# Shear Modulus (GPa) = 22.79263 37.84793 30.32028
#
# Velocity S-wave (km/s) = 2.99108 3.85436 3.44983
# Velocity P-wave (km/s) = 4.57497 6.27118 5.48899
#
# Compressibility (1/GPa) = 0.04360587
#
# Stress axis : x y z
#
# Youngs Moduli (GPa) = 49.05147 33.87213 34.27811
#
# Poissons Ratio (x) = 0.41261 0.58795
# Poissons Ratio (y) = 0.59752 -0.39747
# Poissons Ratio (z) = 0.84135 -0.39276
#
# Static dielectric constant tensor:
#      x y z
#    x 2.068170 0.063530 -0.004740 
#    y 0.063530 2.055800 0.016990 
#    z -0.004740 0.016990 2.120580 
# 
# From -- ./inp_files/47616.got.cif
#   From: 2010.05.17/outbox.cif.g08.bks.cpg/sg2_24_cif.got.tgz:47616.got - 2010.06.03 11:33:40.
