data_PCOD9099225
_publ_section_title
;
Structure prediction by ZEFSAII (Michael W. Deem and Ramdas Pophale) SiO2 
 PCOD9099225
Probable space group: P -1
;
_chemical_formula_sum "Si O2"
_cell_formula_units_Z 16
_cell_length_a 12.203832
_cell_length_b 16.791926
_cell_length_c 5.164285
_cell_angle_alpha 50.349958
_cell_angle_beta 74.299097
_cell_angle_gamma 59.399521
_cell_volume 699.014552
_symmetry_space_group_name_H-M "P -1"
_symmetry_group_IT_number 2
_symmetry_cell_setting 'triclinic'
loop_
_space_group_symop_operation_xyz
x,y,z
-x,-y,-z
loop_
_atom_site_type_symbol
_atom_site_label
_atom_site_fract_x
_atom_site_fract_y
_atom_site_fract_z
Si Si1 0.271329 0.743893 0.049974
Si Si2 0.382302 0.091373 0.136917
Si Si3 0.368880 0.303985 0.439388
Si Si4 0.441536 0.858846 0.713919
Si Si5 0.579011 0.369827 0.322292
Si Si6 0.856481 0.536602 0.425683
Si Si7 0.965753 0.281857 0.771781
Si Si8 0.136843 0.246563 0.241420
O O1 0.349688 0.646386 0.417868
O O2 0.122260 0.781471 0.080737
O O3 0.317555 0.841436 0.874015
O O4 0.319143 0.698085 0.825767
O O5 0.502751 0.096818 0.182251
O O6 0.267216 0.133496 0.331343
O O7 0.412026 0.961995 0.308969
O O8 0.337417 0.197396 0.745588
O O9 0.445113 0.263067 0.206863
O O10 0.478276 0.316655 0.512447
O O11 0.241380 0.417278 0.367012
O O12 0.500000 0.500000 0.000000
O O13 0.866255 0.419751 0.539425
O O14 0.000000 0.500000 0.500000
O O15 0.828655 0.645073 0.030948
O O16 0.068402 0.252792 0.540659
O O17 0.037951 0.258729 0.048230
#
# Coordination Sequence:
#
# PCOD9099225 Si02
#       8
#     2   2   2   2   2   2   2   2
#     4  11  23  41  61  89 127 162 211 250 313 373
#     4  10  21  40  63  92 121 159 215 265 322 361
#     4  10  20  37  59  90 126 156 207 255 308 371
#     4  10  22  39  65  91 121 165 205 271 318 366
#     4  11  22  38  58  91 124 167 201 252 306 372
#     4   9  20  36  58  88 121 163 204 243 302 363
#     4  11  22  42  60  90 126 171 201 253 304 371
#     4  10  23  39  63  89 122 163 213 255 303 365
#
# _framework density 22.889368000000001
#
# number of rings (size 3 to 8) (size 9 to 14) (size 15 to 20)
#    0.000    1.750    1.250    2.625    5.250    1.000 
#    4.500    1.250    0.000    0.000    0.000    0.000 
#    0.000    0.000    0.000    0.000    0.000    0.000 
#
# Total GULP energy -89359.604135 kJ/mol
# GULP energy per Si atom -5584.975258 kJ/mol
# Density = 2.283727 g / cm^3
# Si number density = 22.889368 Si / 1000 Ang^3
#
#
#
# Elastic Constant Matrix: (Units=GPa)
#
#
# Indices 1 2 3 4 5 6 
#
# 1 133.8044 30.7571 32.1406 -0.2717 -14.9217 7.2332
# 2 30.7571 100.0788 21.2846 17.0216 -8.3427 -17.1241
# 3 32.1406 21.2846 67.9187 12.1507 -11.6458 4.0235
# 4 -0.2717 17.0216 12.1507 33.0551 6.4835 0.5438
# 5 -14.9217 -8.3427 -11.6458 6.4835 27.2274 -1.4269
# 6 7.2332 -17.1241 4.0235 0.5438 -1.4269 25.8631
#
#
#
# Elastic Compliance Matrix: (Units=1/GPa)
#
#
# Indices 1 2 3 4 5 6 
#
# 1 0.009466 -0.003202 -0.003377 0.002663 0.001908 -0.004193
# 2 -0.003202 0.015120 -0.001593 -0.008358 0.004795 0.011595
# 3 -0.003377 -0.001593 0.019748 -0.007968 0.007871 -0.002581
# 4 0.002663 -0.008358 -0.007968 0.040461 -0.014495 -0.006690
# 5 0.001908 0.004795 0.007871 -0.014495 0.046285 0.004275
# 6 -0.004193 0.011595 -0.002581 -0.006690 0.004275 0.048293
#
#
# Mechanical properties :
#
#
# Convention : Reuss Voigt Hill
#
# Bulk Modulus (GPa) = 35.72492 52.24073 43.98283
# Shear Modulus (GPa) = 24.38488 31.73711 28.06099
#
# Velocity S-wave (km/s) = 3.26749 3.72767 3.50514
# Velocity P-wave (km/s) = 5.46597 6.43429 5.96980
#
# Compressibility (1/GPa) = 0.02799167
#
# Stress axis : x y z
#
# Youngs Moduli (GPa) = 105.64566 66.13702 50.63713
#
# Poissons Ratio (x) = 0.21178 0.17098
# Poissons Ratio (y) = 0.33829 0.08064
# Poissons Ratio (z) = 0.35672 0.10532
#
# Static dielectric constant tensor:
#      x y z
#    x 1.845800 0.009460 0.031830 
#    y 0.009460 1.870070 -0.013860 
#    z 0.031830 -0.013860 1.997410 
# 
# From -- ./inp_files/81027.got.cif
#   From: 2010.05.17/outbox.cif.g08.bks.cpg/sg2_41_cif.got.tgz:81027.got - 2010.06.03 11:33:40.
