data_PCOD9099280
_publ_section_title
;
Structure prediction by ZEFSAII (Michael W. Deem and Ramdas Pophale) SiO2 
 PCOD9099280
Probable space group: P -1
;
_chemical_formula_sum "Si O2"
_cell_formula_units_Z 14
_cell_length_a 11.084018
_cell_length_b 11.624750
_cell_length_c 14.818039
_cell_angle_alpha 39.849782
_cell_angle_beta 38.500639
_cell_angle_gamma 28.134986
_cell_volume 540.536848
_symmetry_space_group_name_H-M "P -1"
_symmetry_group_IT_number 2
_symmetry_cell_setting 'triclinic'
loop_
_space_group_symop_operation_xyz
x,y,z
-x,-y,-z
loop_
_atom_site_type_symbol
_atom_site_label
_atom_site_fract_x
_atom_site_fract_y
_atom_site_fract_z
Si Si1 0.976349 0.410291 0.186327
Si Si2 0.857360 0.364263 0.479044
Si Si3 0.070053 0.031523 0.227100
Si Si4 0.121552 0.735474 0.129467
Si Si5 0.705333 0.792750 0.240557
Si Si6 0.501666 0.732835 0.993387
Si Si7 0.783979 0.906966 0.404654
O O1 0.982577 0.291759 0.348710
O O2 0.997896 0.255593 0.187930
O O3 0.715919 0.704181 0.186571
O O4 0.221137 0.392623 0.045551
O O5 0.632394 0.669524 0.418745
O O6 0.060309 0.288234 0.486035
O O7 0.789973 0.207468 0.643583
O O8 0.265680 0.916751 0.095577
O O9 0.797789 0.107496 0.304887
O O10 0.015241 0.653997 0.170569
O O11 0.958524 0.786848 0.283852
O O12 0.422533 0.596666 0.073932
O O13 0.000000 0.000000 0.000000
O O14 0.536611 0.082240 0.168689
O O15 0.500000 0.000000 0.500000
#
# Coordination Sequence:
#
# PCOD9099280 Si02
#       7
#     2   2   2   2   2   2   2
#     4  10  20  37  62  82 117 153 189 231 287 339
#     4   8  20  36  57  82 116 147 186 238 278 334
#     4   9  19  37  60  82 117 150 189 240 281 331
#     4   9  19  34  56  78 117 145 186 234 277 332
#     4   9  21  35  58  85 114 152 192 231 282 340
#     4  10  20  37  60  82 115 158 185 233 289 333
#     4   9  19  34  59  83 108 154 187 227 290 332
#
# _framework density 25.900175999999998
#
# number of rings (size 3 to 8) (size 9 to 14) (size 15 to 20)
#    1.714    1.143    0.000    0.857    4.000    1.714 
#    0.000    0.714    6.286    0.000    0.000    0.000 
#    0.000    0.000    0.000    0.000    0.000    0.000 
#
# Total GULP energy -78027.942846 kJ/mol
# GULP energy per Si atom -5573.424489 kJ/mol
# Density = 2.584123 g / cm^3
# Si number density = 25.900176 Si / 1000 Ang^3
#
#
#
# Elastic Constant Matrix: (Units=GPa)
#
#
# Indices 1 2 3 4 5 6 
#
# 1 104.0752 40.1203 57.9961 1.3888 -10.2894 38.7279
# 2 40.1203 39.7592 31.8442 -7.4967 -8.1991 27.9990
# 3 57.9961 31.8442 97.6273 -3.9364 4.7365 3.1190
# 4 1.3888 -7.4967 -3.9364 27.1570 -5.6690 2.6062
# 5 -10.2894 -8.1991 4.7365 -5.6690 58.3361 -9.7040
# 6 38.7279 27.9990 3.1190 2.6062 -9.7040 52.0722
#
#
#
# Elastic Compliance Matrix: (Units=1/GPa)
#
#
# Indices 1 2 3 4 5 6 
#
# 1 0.023565 -0.003640 -0.012544 -0.002223 0.002065 -0.014321
# 2 -0.003640 0.080324 -0.022212 0.024616 0.008385 -0.038821
# 3 -0.012544 -0.022212 0.024357 -0.004758 -0.004581 0.019198
# 4 -0.002223 0.024616 -0.004758 0.045450 0.005793 -0.012493
# 5 0.002065 0.008385 -0.004581 0.005793 0.019207 -0.002481
# 6 -0.014321 -0.038821 0.019198 -0.012493 -0.002481 0.049742
#
#
# Mechanical properties :
#
#
# Convention : Reuss Voigt Hill
#
# Bulk Modulus (GPa) = 19.43485 55.70921 37.57203
# Shear Modulus (GPa) = 14.85503 34.94646 24.90074
#
# Velocity S-wave (km/s) = 2.39749 3.67723 3.10403
# Velocity P-wave (km/s) = 3.89666 6.29168 5.23303
#
# Compressibility (1/GPa) = 0.05145396
#
# Stress axis : x y z
#
# Youngs Moduli (GPa) = 42.43663 12.44965 41.05649
#
# Poissons Ratio (x) = 0.04532 0.51499
# Poissons Ratio (y) = 0.15448 0.91193
# Poissons Ratio (z) = 0.53231 0.27653
#
# Static dielectric constant tensor:
#      x y z
#    x 2.100080 -0.087110 -0.008280 
#    y -0.087110 2.202840 -0.016550 
#    z -0.008280 -0.016550 2.016910 
# 
# From -- ./inp_files/567862.got.cif
#   From: 2010.05.17/outbox.cif.g08.bks.cpg/sg2_284_cif.got.tgz:567862.got - 2010.06.03 11:33:40.
