data_PCOD9099140
_publ_section_title
;
Structure prediction by ZEFSAII (Michael W. Deem and Ramdas Pophale) SiO2 
 PCOD9099140
Probable space group: P -1
;
_chemical_formula_sum "Si O2"
_cell_formula_units_Z 16
_cell_length_a 26.998257
_cell_length_b 7.760500
_cell_length_c 7.067576
_cell_angle_alpha 120.735229
_cell_angle_beta 143.287228
_cell_angle_gamma 44.748795
_cell_volume 617.200333
_symmetry_space_group_name_H-M "P -1"
_symmetry_group_IT_number 2
_symmetry_cell_setting 'triclinic'
loop_
_space_group_symop_operation_xyz
x,y,z
-x,-y,-z
loop_
_atom_site_type_symbol
_atom_site_label
_atom_site_fract_x
_atom_site_fract_y
_atom_site_fract_z
Si Si1 0.854723 0.169637 0.963748
Si Si2 0.897139 0.749042 0.599443
Si Si3 0.338948 0.324958 0.199230
Si Si4 0.449995 0.788145 0.306552
Si Si5 0.930324 0.944864 0.471673
Si Si6 0.664101 0.798721 0.300636
Si Si7 0.513461 0.698266 0.893997
Si Si8 0.123164 0.527730 0.300396
O O1 0.896670 0.992698 0.178321
O O2 0.750546 0.428880 0.837392
O O3 0.947343 0.192436 0.214124
O O4 0.843567 0.014429 0.685941
O O5 0.864848 0.593938 0.523334
O O6 0.891982 0.809795 0.397281
O O7 0.017052 0.602260 0.934203
O O8 0.450942 0.265958 0.530444
O O9 0.354748 0.070887 0.159123
O O10 0.323716 0.342030 0.935470
O O11 0.480057 0.740345 0.593539
O O12 0.436444 0.584830 0.074992
O O13 0.886196 0.219108 0.569081
O O14 0.779576 0.673419 0.638434
O O15 0.592313 0.092178 0.211305
O O16 0.596691 0.754900 0.205402
#
# Coordination Sequence:
#
# PCOD9099140 Si02
#       8
#     2   2   2   2   2   2   2   2
#     4  10  20  38  65  91 125 168 205 260 314 372
#     4  10  23  40  64  92 128 170 209 258 319 375
#     4  10  20  37  59  86 121 159 198 252 318 366
#     4   9  20  38  59  85 122 153 200 261 302 376
#     4  10  21  42  64  89 132 164 207 265 311 376
#     4  10  20  37  61  82 121 160 197 261 308 364
#     4   9  20  38  59  88 115 158 209 252 312 373
#     4  10  20  40  60  90 127 163 209 266 306 379
#
# _framework density 25.923514000000001
#
# number of rings (size 3 to 8) (size 9 to 14) (size 15 to 20)
#    0.000    2.250    1.250    1.500    1.750    2.500 
#    2.250   11.250    2.750    0.000    0.000    0.000 
#    0.000    0.000    0.000    0.000    0.000    0.000 
#
# Total GULP energy -89621.158779 kJ/mol
# GULP energy per Si atom -5601.322424 kJ/mol
# Density = 2.586451 g / cm^3
# Si number density = 25.923514 Si / 1000 Ang^3
#
#
#
# Elastic Constant Matrix: (Units=GPa)
#
#
# Indices 1 2 3 4 5 6 
#
# 1 109.5029 43.1817 10.5161 -12.5530 -5.0824 4.9616
# 2 43.1817 184.6360 34.4962 -27.2500 24.5589 -20.8175
# 3 10.5161 34.4962 42.4966 -11.1679 4.7343 -12.1614
# 4 -12.5530 -27.2500 -11.1679 36.7603 -8.1338 10.9313
# 5 -5.0824 24.5589 4.7343 -8.1338 29.4725 -9.0267
# 6 4.9616 -20.8175 -12.1614 10.9313 -9.0267 45.0208
#
#
#
# Elastic Compliance Matrix: (Units=1/GPa)
#
#
# Indices 1 2 3 4 5 6 
#
# 1 0.011026 -0.002846 -0.000835 0.003174 0.004478 -0.002630
# 2 -0.002846 0.008082 -0.004324 0.002100 -0.005566 0.001257
# 3 -0.000835 -0.004324 0.029747 0.004278 0.001513 0.005393
# 4 0.003174 0.002100 0.004278 0.034021 0.005874 -0.005306
# 5 0.004478 -0.005566 0.001513 0.005874 0.042049 0.004346
# 6 -0.002630 0.001257 0.005393 -0.005306 0.004346 0.026699
#
#
# Mechanical properties :
#
#
# Convention : Reuss Voigt Hill
#
# Bulk Modulus (GPa) = 30.44810 57.00261 43.72536
# Shear Modulus (GPa) = 27.99818 38.81349 33.40583
#
# Velocity S-wave (km/s) = 3.28995 3.87360 3.59364
# Velocity P-wave (km/s) = 5.11884 6.48405 5.84147
#
# Compressibility (1/GPa) = 0.03284277
#
# Stress axis : x y z
#
# Youngs Moduli (GPa) = 90.69772 123.73804 33.61681
#
# Poissons Ratio (x) = 0.35218 0.02808
# Poissons Ratio (y) = 0.25814 0.14537
# Poissons Ratio (z) = 0.07575 0.53508
#
# Static dielectric constant tensor:
#      x y z
#    x 2.090050 0.005800 -0.029210 
#    y 0.005800 1.998050 0.009160 
#    z -0.029210 0.009160 2.071280 
# 
# From -- ./inp_files/358435.got.cif
#   From: 2010.05.17/outbox.cif.g08.bks.cpg/sg2_180_cif.got.tgz:358435.got - 2010.06.03 11:33:40.
