data_PCOD9099079
_publ_section_title
;
Structure prediction by ZEFSAII (Michael W. Deem and Ramdas Pophale) SiO2 
 PCOD9099079
Probable space group: P -1
;
_chemical_formula_sum "Si O2"
_cell_formula_units_Z 14
_cell_length_a 21.674359
_cell_length_b 8.921835
_cell_length_c 30.932178
_cell_angle_alpha 37.670713
_cell_angle_beta 169.607371
_cell_angle_gamma 141.391913
_cell_volume 659.188384
_symmetry_space_group_name_H-M "P -1"
_symmetry_group_IT_number 2
_symmetry_cell_setting 'triclinic'
loop_
_space_group_symop_operation_xyz
x,y,z
-x,-y,-z
loop_
_atom_site_type_symbol
_atom_site_label
_atom_site_fract_x
_atom_site_fract_y
_atom_site_fract_z
Si Si1 0.826255 0.547753 0.743482
Si Si2 0.700047 0.704715 0.179201
Si Si3 0.848685 0.457221 0.223711
Si Si4 0.111347 0.376388 0.059818
Si Si5 0.756465 0.668841 0.399869
Si Si6 0.643103 0.063452 0.537118
Si Si7 0.432355 0.786779 0.066369
O O1 0.500000 0.500000 0.500000
O O2 0.809580 0.822585 0.688457
O O3 0.837483 0.370004 0.833810
O O4 0.166288 0.563974 0.944560
O O5 0.683804 0.721454 0.215608
O O6 0.986860 0.523532 0.401336
O O7 0.314218 0.626472 0.914872
O O8 0.756919 0.972306 0.135954
O O9 0.060081 0.270438 0.441937
O O10 0.089957 0.703118 0.330725
O O11 0.500000 0.500000 0.000000
O O12 0.404876 0.547051 0.201838
O O13 0.311269 0.132875 0.264524
O O14 0.000000 0.500000 0.000000
O O15 0.636380 0.839675 0.239299
O O16 0.500000 0.000000 0.500000
#
# Coordination Sequence:
#
# PCOD9099079 Si02
#       7
#     2   2   2   2   2   2   2
#     4  11  24  39  62  89 122 157 202 250 301 358
#     4  10  20  37  59  84 117 154 192 244 293 360
#     4   9  19  36  61  83 114 152 200 238 291 352
#     4  10  20  38  60  88 117 161 205 244 296 364
#     4   9  19  35  57  83 116 150 195 246 293 347
#     4  11  22  39  65  86 123 162 197 250 307 351
#     4  10  21  36  59  84 118 154 194 238 306 348
#
# _framework density 21.238237000000002
#
# number of rings (size 3 to 8) (size 9 to 14) (size 15 to 20)
#    0.000    2.000    1.429    3.000    2.000    1.143 
#    0.000    4.286   12.571    0.000    0.000    0.000 
#    0.000    0.000    0.000    0.000    0.000    0.000 
#
# Total GULP energy -78010.534342 kJ/mol
# GULP energy per Si atom -5572.181024 kJ/mol
# Density = 2.118990 g / cm^3
# Si number density = 21.238237 Si / 1000 Ang^3
#
#
#
# Elastic Constant Matrix: (Units=GPa)
#
#
# Indices 1 2 3 4 5 6 
#
# 1 113.5582 28.5610 32.0746 3.6002 -9.7981 36.8564
# 2 28.5610 35.7549 12.4486 11.3044 -3.4329 10.5456
# 3 32.0746 12.4486 86.5469 -0.3431 -20.5952 15.5817
# 4 3.6002 11.3044 -0.3431 37.7689 -0.6714 -1.7989
# 5 -9.7981 -3.4329 -20.5952 -0.6714 44.7967 -8.3404
# 6 36.8564 10.5456 15.5817 -1.7989 -8.3404 22.9588
#
#
#
# Elastic Compliance Matrix: (Units=1/GPa)
#
#
# Indices 1 2 3 4 5 6 
#
# 1 0.020403 -0.006787 -0.001881 -0.001371 -0.002405 -0.029341
# 2 -0.006787 0.039872 -0.002199 -0.011666 -0.000953 -0.007187
# 3 -0.001881 -0.002199 0.014544 0.000884 0.005411 -0.003807
# 4 -0.001371 -0.011666 0.000884 0.030606 0.001516 0.009908
# 5 -0.002405 -0.000953 0.005411 0.001516 0.026141 0.010242
# 6 -0.029341 -0.007187 -0.003807 0.009908 0.010242 0.101040
#
#
# Mechanical properties :
#
#
# Convention : Reuss Voigt Hill
#
# Bulk Modulus (GPa) = 18.83712 42.44759 30.64235
# Shear Modulus (GPa) = 18.38002 31.95661 25.16831
#
# Velocity S-wave (km/s) = 2.94500 3.88322 3.44619
# Velocity P-wave (km/s) = 4.52246 6.33527 5.50401
#
# Compressibility (1/GPa) = 0.05308669
#
# Stress axis : x y z
#
# Youngs Moduli (GPa) = 49.01232 25.08042 68.75572
#
# Poissons Ratio (x) = 0.17021 0.12930
# Poissons Ratio (y) = 0.33263 0.15118
# Poissons Ratio (z) = 0.09217 0.05515
#
# Static dielectric constant tensor:
#      x y z
#    x 1.831500 -0.011420 -0.044710 
#    y -0.011420 1.798750 0.001440 
#    z -0.044710 0.001440 1.835350 
# 
# From -- ./inp_files/520766.got.cif
#   From: 2010.05.17/outbox.cif.g08.bks.cpg/sg2_261_cif.got.tgz:520766.got - 2010.06.03 11:33:40.
