data_PCOD9099994
_publ_section_title
;
Structure prediction by ZEFSAII (Michael W. Deem and Ramdas Pophale) SiO2 
 PCOD9099994
Probable space group: P -1
;
_chemical_formula_sum "Si O2"
_cell_formula_units_Z 10
_cell_length_a 18.566980
_cell_length_b 6.752043
_cell_length_c 10.630451
_cell_angle_alpha 54.891373
_cell_angle_beta 159.737213
_cell_angle_gamma 117.397866
_cell_volume 362.454018
_symmetry_space_group_name_H-M "P -1"
_symmetry_group_IT_number 2
_symmetry_cell_setting 'triclinic'
loop_
_space_group_symop_operation_xyz
x,y,z
-x,-y,-z
loop_
_atom_site_type_symbol
_atom_site_label
_atom_site_fract_x
_atom_site_fract_y
_atom_site_fract_z
Si Si1 0.064332 0.239614 0.315229
Si Si2 0.070498 0.181298 0.863841
Si Si3 0.581808 0.505994 0.274551
Si Si4 0.253113 0.259811 0.865931
Si Si5 0.625418 0.612613 0.558520
O O1 0.192615 0.432534 0.406427
O O2 0.201885 0.118491 0.710231
O O3 0.033562 0.048992 0.226641
O O4 0.827938 0.380735 0.930182
O O5 0.164653 0.181258 0.877793
O O6 0.887690 0.446176 0.487699
O O7 0.258322 0.191476 0.265068
O O8 0.501075 0.694040 0.193426
O O9 0.500000 0.500000 0.000000
O O10 0.498751 0.272248 0.275448
O O11 0.500000 0.500000 0.500000
#
# Coordination Sequence:
#
# PCOD9099994 Si02
#       5
#     2   2   2   2   2
#     4  10  22  37  62  88 120 156 202 240 298 353
#     4  10  20  37  62  90 116 158 200 244 288 357
#     4  10  21  41  61  87 122 160 191 247 305 349
#     4   9  19  38  60  86 125 153 192 245 299 347
#     4  11  22  40  62  86 123 157 199 248 295 347
#
# _framework density 27.589708000000002
#
# number of rings (size 3 to 8) (size 9 to 14) (size 15 to 20)
#    0.000    2.000    2.000    1.200    0.000    2.400 
#    0.000    2.000    0.000    0.000    0.000    0.000 
#    0.000    0.000    0.000    0.000    0.000    0.000 
#
# Total GULP energy -55860.716803 kJ/mol
# GULP energy per Si atom -5586.071680 kJ/mol
# Density = 2.752691 g / cm^3
# Si number density = 27.589708 Si / 1000 Ang^3
#
#
#
# Elastic Constant Matrix: (Units=GPa)
#
#
# Indices 1 2 3 4 5 6 
#
# 1 187.3608 34.7625 54.1063 13.8173 5.8219 -19.5349
# 2 34.7625 170.1138 76.7146 32.0527 -8.7918 -28.9551
# 3 54.1063 76.7146 135.0825 66.7865 -0.9736 -9.7893
# 4 13.8173 32.0527 66.7865 59.0922 -12.5316 -6.0128
# 5 5.8219 -8.7918 -0.9736 -12.5316 50.8205 22.7018
# 6 -19.5349 -28.9551 -9.7893 -6.0128 22.7018 45.9556
#
#
#
# Elastic Compliance Matrix: (Units=1/GPa)
#
#
# Indices 1 2 3 4 5 6 
#
# 1 0.006621 0.000440 -0.004057 0.002808 -0.001574 0.003373
# 2 0.000440 0.008893 -0.006019 0.002324 -0.000262 0.004941
# 3 -0.004057 -0.006019 0.024805 -0.025162 -0.006071 -0.000527
# 4 0.002808 0.002324 -0.025162 0.045731 0.012074 -0.002683
# 5 -0.001574 -0.000262 -0.006071 0.012074 0.029407 -0.015074
# 6 0.003373 0.004941 -0.000527 -0.002683 -0.015074 0.033290
#
#
# Mechanical properties :
#
#
# Convention : Reuss Voigt Hill
#
# Bulk Modulus (GPa) = 47.51510 91.52490 69.52000
# Shear Modulus (GPa) = 28.56588 52.97191 40.76890
#
# Velocity S-wave (km/s) = 3.22123 4.38652 3.84824
# Velocity P-wave (km/s) = 5.57624 7.67470 6.70804
#
# Compressibility (1/GPa) = 0.02104594
#
# Stress axis : x y z
#
# Youngs Moduli (GPa) = 151.04167 112.45360 40.31469
#
# Poissons Ratio (x) = -0.04951 0.16356
# Poissons Ratio (y) = -0.06650 0.24267
# Poissons Ratio (z) = 0.61278 0.67690
#
# Static dielectric constant tensor:
#      x y z
#    x 2.107590 -0.016420 -0.121090 
#    y -0.016420 2.135200 -0.059740 
#    z -0.121090 -0.059740 2.591530 
# 
# From -- ./inp_files/15905.got.cif
#   From: 2010.05.17/outbox.cif.g08.bks.cpg/sg2_8_cif.got.tgz:15905.got - 2010.06.03 11:33:40.
