data_PCOD9099017
_publ_section_title
;
Structure prediction by ZEFSAII (Michael W. Deem and Ramdas Pophale) SiO2 
 PCOD9099017
Probable space group: P -1
;
_chemical_formula_sum "Si O2"
_cell_formula_units_Z 14
_cell_length_a 21.492255
_cell_length_b 6.554324
_cell_length_c 24.632476
_cell_angle_alpha 77.740223
_cell_angle_beta 169.886188
_cell_angle_gamma 100.875456
_cell_volume 591.223960
_symmetry_space_group_name_H-M "P -1"
_symmetry_group_IT_number 2
_symmetry_cell_setting 'triclinic'
loop_
_space_group_symop_operation_xyz
x,y,z
-x,-y,-z
loop_
_atom_site_type_symbol
_atom_site_label
_atom_site_fract_x
_atom_site_fract_y
_atom_site_fract_z
Si Si1 0.188005 0.389504 0.765433
Si Si2 0.669526 0.728309 0.370617
Si Si3 0.232977 0.972447 0.143963
Si Si4 0.801227 0.162089 0.676455
Si Si5 0.775047 0.641353 0.755548
Si Si6 0.966430 0.471938 0.204659
Si Si7 0.552260 0.189172 0.190432
O O1 0.936957 0.571857 0.571608
O O2 0.931601 0.281857 0.510583
O O3 0.500000 0.500000 0.000000
O O4 0.365761 0.212893 0.970247
O O5 0.844555 0.699063 0.581827
O O6 0.609767 0.960466 0.280370
O O7 0.292326 0.636363 0.050832
O O8 0.640954 0.987273 0.511267
O O9 0.158545 0.138171 0.020934
O O10 0.000000 0.000000 0.000000
O O11 0.086201 0.778848 0.996923
O O12 0.512824 0.191167 0.474016
O O13 0.774545 0.384513 0.610424
O O14 0.500000 0.500000 0.500000
O O15 0.000000 0.500000 0.000000
O O16 0.709551 0.650973 0.006700
#
# Coordination Sequence:
#
# PCOD9099017 Si02
#       7
#     2   2   2   2   2   2   2
#     4  10  21  36  60  92 121 156 197 239 291 347
#     4  10  21  39  60  84 123 157 195 248 286 341
#     4  10  20  37  59  78 106 151 181 226 301 359
#     4  11  21  39  59  78 111 149 192 236 290 362
#     4  11  21  36  55  82 114 137 178 240 299 346
#     4  10  22  40  59  84 116 156 202 242 291 345
#     4  10  21  39  60  84 122 159 194 243 293 337
#
# _framework density 23.679690000000001
#
# number of rings (size 3 to 8) (size 9 to 14) (size 15 to 20)
#    0.000    1.714    0.000    6.429    0.000    1.143 
#    7.714    0.000    0.000    0.000    0.000    0.000 
#    0.000    0.000    0.000    0.000    0.000    0.000 
#
# Total GULP energy -77989.497538 kJ/mol
# GULP energy per Si atom -5570.678396 kJ/mol
# Density = 2.362579 g / cm^3
# Si number density = 23.679690 Si / 1000 Ang^3
#
#
#
# Elastic Constant Matrix: (Units=GPa)
#
#
# Indices 1 2 3 4 5 6 
#
# 1 43.1460 19.1355 39.6259 -3.7790 -14.0809 8.2682
# 2 19.1355 112.5231 50.7023 4.0209 -8.0936 25.3877
# 3 39.6259 50.7023 138.6416 7.6063 -36.7353 -4.7980
# 4 -3.7790 4.0209 7.6063 49.3878 9.2187 -16.0915
# 5 -14.0809 -8.0936 -36.7353 9.2187 44.3305 2.1474
# 6 8.2682 25.3877 -4.7980 -16.0915 2.1474 32.2761
#
#
#
# Elastic Compliance Matrix: (Units=1/GPa)
#
#
# Indices 1 2 3 4 5 6 
#
# 1 0.035261 0.001621 -0.010023 -0.000660 0.003928 -0.012388
# 2 0.001621 0.015263 -0.006317 -0.005361 -0.000042 -0.016029
# 3 -0.010023 -0.006317 0.014806 -0.001166 0.007756 0.008640
# 4 -0.000660 -0.005361 -0.001166 0.028742 -0.009058 0.019144
# 5 0.003928 -0.000042 0.007756 -0.009058 0.032423 -0.006494
# 6 -0.012388 -0.016029 0.008640 0.019144 -0.006494 0.058026
#
#
# Mechanical properties :
#
#
# Convention : Reuss Voigt Hill
#
# Bulk Modulus (GPa) = 27.86101 57.02648 42.44374
# Shear Modulus (GPa) = 22.13154 37.52202 29.82678
#
# Velocity S-wave (km/s) = 3.06047 3.98498 3.55293
# Velocity P-wave (km/s) = 4.92747 6.73113 5.89865
#
# Compressibility (1/GPa) = 0.03589245
#
# Stress axis : x y z
#
# Youngs Moduli (GPa) = 28.35968 65.51849 67.54211
#
# Poissons Ratio (x) = -0.10619 0.67696
# Poissons Ratio (y) = -0.04597 0.42664
# Poissons Ratio (z) = 0.28424 0.41386
#
# Static dielectric constant tensor:
#      x y z
#    x 1.947810 -0.006370 -0.014550 
#    y -0.006370 2.025820 -0.044720 
#    z -0.014550 -0.044720 1.952440 
# 
# From -- ./inp_files/9412.got.cif
#   From: 2010.05.17/outbox.cif.g08.bks.cpg/sg2_5_cif.got.tgz:9412.got - 2010.06.03 11:33:40.
