data_PCOD9099380
_publ_section_title
;
Structure prediction by ZEFSAII (Michael W. Deem and Ramdas Pophale) SiO2 
 PCOD9099380
Probable space group: P -1
;
_chemical_formula_sum "Si O2"
_cell_formula_units_Z 16
_cell_length_a 23.051868
_cell_length_b 9.156084
_cell_length_c 6.689354
_cell_angle_alpha 48.589244
_cell_angle_beta 57.326679
_cell_angle_gamma 50.201349
_cell_volume 796.759929
_symmetry_space_group_name_H-M "P -1"
_symmetry_group_IT_number 2
_symmetry_cell_setting 'triclinic'
loop_
_space_group_symop_operation_xyz
x,y,z
-x,-y,-z
loop_
_atom_site_type_symbol
_atom_site_label
_atom_site_fract_x
_atom_site_fract_y
_atom_site_fract_z
Si Si1 0.955189 0.124695 0.164972
Si Si2 0.773657 0.319652 0.715590
Si Si3 0.568625 0.767497 0.630183
Si Si4 0.636357 0.350593 0.654388
Si Si5 0.647951 0.574486 0.046037
Si Si6 0.325876 0.135134 0.935564
Si Si7 0.088293 0.120131 0.202411
Si Si8 0.154642 0.437520 0.895510
O O1 0.886956 0.368354 0.043228
O O2 0.922721 0.979318 0.476812
O O3 0.984166 0.845287 0.828931
O O4 0.000000 0.000000 0.000000
O O5 0.714752 0.321970 0.648616
O O6 0.722588 0.437137 0.895681
O O7 0.821073 0.445043 0.432793
O O8 0.835056 0.071313 0.863917
O O9 0.569965 0.563887 0.689187
O O10 0.580316 0.699193 0.900386
O O11 0.500000 0.000000 0.500000
O O12 0.642692 0.792950 0.384014
O O13 0.634020 0.123947 0.891204
O O14 0.637339 0.410489 0.367451
O O15 0.655163 0.752460 0.013520
O O16 0.233683 0.240329 0.001783
O O17 0.100338 0.332449 0.020378
#
# Coordination Sequence:
#
# PCOD9099380 Si02
#       8
#     2   2   2   2   2   2   2   2
#     4  10  24  41  57  85 119 162 203 248 305 360
#     4  10  20  37  60  87 121 157 196 249 305 356
#     4  10  23  44  64  87 127 165 196 244 303 363
#     4  10  21  38  59  91 125 154 200 250 297 359
#     4  10  21  38  61  91 122 158 199 246 302 357
#     4  11  22  38  62  95 124 155 208 254 296 358
#     4  10  22  39  60  83 122 156 200 254 305 355
#     4  11  20  40  61  87 122 156 202 255 300 354
#
# _framework density 20.081332
#
# number of rings (size 3 to 8) (size 9 to 14) (size 15 to 20)
#    0.000    1.750    5.000    0.375    1.750    6.000 
#    2.250    1.250    0.000    0.000    0.000    0.000 
#    0.000    0.000    0.000    0.000    0.000    0.000 
#
# Total GULP energy -89322.734141 kJ/mol
# GULP energy per Si atom -5582.670884 kJ/mol
# Density = 2.003563 g / cm^3
# Si number density = 20.081332 Si / 1000 Ang^3
#
#
#
# Elastic Constant Matrix: (Units=GPa)
#
#
# Indices 1 2 3 4 5 6 
#
# 1 17.5469 -0.1083 8.0492 3.4090 1.9016 -1.8143
# 2 -0.1083 94.4462 22.3789 -23.1883 2.8331 -7.0023
# 3 8.0492 22.3789 72.5764 -11.3614 9.3301 20.7629
# 4 3.4090 -23.1883 -11.3614 29.5078 3.4022 -1.9142
# 5 1.9016 2.8331 9.3301 3.4022 21.2300 -7.4038
# 6 -1.8143 -7.0023 20.7629 -1.9142 -7.4038 33.2015
#
#
#
# Elastic Compliance Matrix: (Units=1/GPa)
#
#
# Indices 1 2 3 4 5 6 
#
# 1 0.066761 0.001381 -0.014650 -0.012180 0.007102 0.013982
# 2 0.001381 0.014788 -0.005538 0.009654 0.001415 0.007530
# 3 -0.014650 -0.005538 0.027582 0.008714 -0.019511 -0.023065
# 4 -0.012180 0.009654 0.008714 0.047475 -0.013123 -0.004268
# 5 0.007102 0.001415 -0.019511 -0.013123 0.066346 0.026926
# 6 0.013982 0.007530 -0.023065 -0.004268 0.026926 0.052654
#
#
# Mechanical properties :
#
#
# Convention : Reuss Voigt Hill
#
# Bulk Modulus (GPa) = 13.98253 27.24544 20.61399
# Shear Modulus (GPa) = 14.83428 27.07118 20.95273
#
# Velocity S-wave (km/s) = 2.72087 3.67560 3.23366
# Velocity P-wave (km/s) = 4.10474 5.62231 4.92236
#
# Compressibility (1/GPa) = 0.07151781
#
# Stress axis : x y z
#
# Youngs Moduli (GPa) = 14.97876 67.62284 36.25576
#
# Poissons Ratio (x) = -0.09339 0.53114
# Poissons Ratio (y) = -0.02069 0.20077
# Poissons Ratio (z) = 0.21944 0.37447
#
# Static dielectric constant tensor:
#      x y z
#    x 1.731720 -0.043380 -0.006630 
#    y -0.043380 1.720670 -0.000310 
#    z -0.006630 -0.000310 1.684760 
# 
# From -- ./inp_files/126351.got.cif
#   From: 2010.05.17/outbox.cif.g08.bks.cpg/sg2_64_cif.got.tgz:126351.got - 2010.06.03 11:33:40.
