data_PCOD9099232
_publ_section_title
;
Structure prediction by ZEFSAII (Michael W. Deem and Ramdas Pophale) SiO2 
 PCOD9099232
Probable space group: P -1
;
_chemical_formula_sum "Si O2"
_cell_formula_units_Z 14
_cell_length_a 13.980190
_cell_length_b 9.757475
_cell_length_c 16.976998
_cell_angle_alpha 67.275401
_cell_angle_beta 157.035414
_cell_angle_gamma 98.237913
_cell_volume 672.775161
_symmetry_space_group_name_H-M "P -1"
_symmetry_group_IT_number 2
_symmetry_cell_setting 'triclinic'
loop_
_space_group_symop_operation_xyz
x,y,z
-x,-y,-z
loop_
_atom_site_type_symbol
_atom_site_label
_atom_site_fract_x
_atom_site_fract_y
_atom_site_fract_z
Si Si1 0.286162 0.968120 0.264559
Si Si2 0.663686 0.684346 0.318631
Si Si3 0.797333 0.107814 0.218895
Si Si4 0.232466 0.182583 0.474717
Si Si5 0.716847 0.696465 0.773837
Si Si6 0.580831 0.541890 0.848433
Si Si7 0.840081 0.286604 0.357527
O O1 0.542199 0.904420 0.407399
O O2 0.431243 0.804937 0.474352
O O3 0.196994 0.160433 0.188726
O O4 0.000000 0.000000 0.000000
O O5 0.624867 0.784110 0.349562
O O6 0.588658 0.537316 0.304023
O O7 0.002074 0.612294 0.564101
O O8 0.433922 0.814142 0.045845
O O9 0.701234 0.259446 0.180327
O O10 0.114422 0.063813 0.438323
O O11 0.877621 0.922348 0.359106
O O12 0.921914 0.374205 0.169235
O O13 0.612754 0.665665 0.784786
O O14 0.000000 0.500000 0.000000
O O15 0.389725 0.633583 0.762462
#
# Coordination Sequence:
#
# PCOD9099232 Si02
#       7
#     2   2   2   2   2   2   2
#     4  11  26  44  72  99 132 171 224 281 330 394
#     4  10  22  36  62  91 127 166 210 267 317 388
#     4   9  20  38  61  84 129 165 213 264 317 390
#     4  10  22  40  59  93 127 170 211 265 329 386
#     4  11  25  47  71  97 132 175 220 274 339 394
#     4  11  23  39  63  90 131 167 215 267 323 393
#     4  10  20  37  59  91 122 168 213 262 319 380
#
# _framework density 20.809329000000002
#
# number of rings (size 3 to 8) (size 9 to 14) (size 15 to 20)
#    0.000    1.714    1.429    1.714    2.000   10.286 
#    0.000    0.000    0.000    0.000    0.000    0.000 
#    0.000    0.000    0.000    0.000    0.000    0.000 
#
# Total GULP energy -78221.795994 kJ/mol
# GULP energy per Si atom -5587.271142 kJ/mol
# Density = 2.076197 g / cm^3
# Si number density = 20.809329 Si / 1000 Ang^3
#
#
#
# Elastic Constant Matrix: (Units=GPa)
#
#
# Indices 1 2 3 4 5 6 
#
# 1 76.0334 10.9313 12.3243 -9.8745 -5.8166 -7.1838
# 2 10.9313 65.5809 49.4037 -0.6512 -9.5175 -5.1806
# 3 12.3243 49.4037 93.2190 2.2581 -16.6840 -10.7028
# 4 -9.8745 -0.6512 2.2581 27.3980 -2.5546 -2.4685
# 5 -5.8166 -9.5175 -16.6840 -2.5546 36.2961 -7.2341
# 6 -7.1838 -5.1806 -10.7028 -2.4685 -7.2341 36.0692
#
#
#
# Elastic Compliance Matrix: (Units=1/GPa)
#
#
# Indices 1 2 3 4 5 6 
#
# 1 0.014753 -0.001364 -0.000429 0.005920 0.002946 0.003611
# 2 -0.001364 0.025602 -0.013406 0.001215 0.000334 -0.000423
# 3 -0.000429 -0.013406 0.019630 -0.001045 0.006366 0.005019
# 4 0.005920 0.001215 -0.001045 0.039587 0.004501 0.004655
# 5 0.002946 0.000334 0.006366 0.004501 0.033247 0.009500
# 6 0.003611 -0.000423 0.005019 0.004655 0.009500 0.032096
#
#
# Mechanical properties :
#
#
# Convention : Reuss Voigt Hill
#
# Bulk Modulus (GPa) = 33.79986 42.23909 38.01948
# Shear Modulus (GPa) = 24.36923 30.76425 27.56674
#
# Velocity S-wave (km/s) = 3.42581 3.84915 3.64363
# Velocity P-wave (km/s) = 5.65032 6.33221 6.00096
#
# Compressibility (1/GPa) = 0.02958592
#
# Stress axis : x y z
#
# Youngs Moduli (GPa) = 67.78191 39.05920 50.94231
#
# Poissons Ratio (x) = 0.05329 0.02185
# Poissons Ratio (y) = 0.09248 0.68295
# Poissons Ratio (z) = 0.02908 0.52364
#
# Static dielectric constant tensor:
#      x y z
#    x 2.165610 0.147990 -0.175430 
#    y 0.147990 1.828420 -0.075200 
#    z -0.175430 -0.075200 1.785020 
# 
# From -- ./inp_files/106425.got.cif
#   From: 2010.05.17/outbox.cif.g08.bks.cpg/sg2_54_cif.got.tgz:106425.got - 2010.06.03 11:33:40.
