data_PCOD9099484
_publ_section_title
;
Structure prediction by ZEFSAII (Michael W. Deem and Ramdas Pophale) SiO2 
 PCOD9099484
Probable space group: P -1
;
_chemical_formula_sum "Si O2"
_cell_formula_units_Z 16
_cell_length_a 15.497996
_cell_length_b 8.190162
_cell_length_c 11.879766
_cell_angle_alpha 104.984784
_cell_angle_beta 100.087083
_cell_angle_gamma 136.677257
_cell_volume 835.935203
_symmetry_space_group_name_H-M "P -1"
_symmetry_group_IT_number 2
_symmetry_cell_setting 'triclinic'
loop_
_space_group_symop_operation_xyz
x,y,z
-x,-y,-z
loop_
_atom_site_type_symbol
_atom_site_label
_atom_site_fract_x
_atom_site_fract_y
_atom_site_fract_z
Si Si1 0.691882 0.323010 0.547197
Si Si2 0.163135 0.177346 0.595022
Si Si3 0.576353 0.240108 0.731271
Si Si4 0.408514 0.481024 0.558036
Si Si5 0.464301 0.448531 0.166865
Si Si6 0.414462 0.853785 0.834545
Si Si7 0.287052 0.016665 0.851561
Si Si8 0.010787 0.673763 0.619325
O O1 0.689937 0.340981 0.684335
O O2 0.620203 0.382389 0.486370
O O3 0.854018 0.520088 0.577949
O O4 0.578504 0.002123 0.419804
O O5 0.120948 0.984155 0.647699
O O6 0.292777 0.514214 0.723195
O O7 0.236500 0.185946 0.510050
O O8 0.000000 0.000000 0.500000
O O9 0.609748 0.485096 0.813403
O O10 0.539451 0.071880 0.803314
O O11 0.500000 0.500000 0.500000
O O12 0.496162 0.586958 0.715524
O O13 0.608730 0.720974 0.170003
O O14 0.316159 0.868227 0.803579
O O15 0.642812 0.829409 0.985105
O O16 0.500000 0.000000 0.000000
O O17 0.109317 0.768986 0.764299
O O18 0.000000 0.500000 0.500000
#
# Coordination Sequence:
#
# PCOD9099484 Si02
#       8
#     2   2   2   2   2   2   2   2
#     4  11  23  40  63  95 128 169 209 274 322 385
#     4  12  23  40  64  97 131 167 219 275 331 383
#     4  10  21  39  62  93 128 163 218 260 325 375
#     4  12  22  37  62  95 128 167 214 269 323 388
#     4  10  20  37  60  91 122 165 212 264 315 384
#     4  11  23  41  66  94 128 173 218 272 321 391
#     4  10  22  37  60  90 124 162 212 265 320 379
#     4  12  24  41  65  95 131 166 216 268 333 393
#
# _framework density 19.140239000000001
#
# number of rings (size 3 to 8) (size 9 to 14) (size 15 to 20)
#    0.000    1.000    5.000    3.000    3.500    0.000 
#    0.000    0.625    2.750    0.750    0.000    0.000 
#    0.000    0.000    0.000    0.000    0.000    0.000 
#
# Total GULP energy -89069.358051 kJ/mol
# GULP energy per Si atom -5566.834878 kJ/mol
# Density = 1.909668 g / cm^3
# Si number density = 19.140239 Si / 1000 Ang^3
#
#
#
# Elastic Constant Matrix: (Units=GPa)
#
#
# Indices 1 2 3 4 5 6 
#
# 1 134.1966 55.9703 53.4143 5.6978 -4.0650 18.0808
# 2 55.9703 86.3825 35.4856 -3.4098 -5.1146 3.3736
# 3 53.4143 35.4856 109.8851 -9.3323 -5.5311 11.1311
# 4 5.6978 -3.4098 -9.3323 29.0098 5.4014 -4.3457
# 5 -4.0650 -5.1146 -5.5311 5.4014 32.6101 -1.1924
# 6 18.0808 3.3736 11.1311 -4.3457 -1.1924 35.1489
#
#
#
# Elastic Compliance Matrix: (Units=1/GPa)
#
#
# Indices 1 2 3 4 5 6 
#
# 1 0.012751 -0.006608 -0.003959 -0.005463 0.000592 -0.005327
# 2 -0.006608 0.016834 -0.002223 0.002790 0.001082 0.002869
# 3 -0.003959 -0.002223 0.012234 0.004196 0.000498 -0.001089
# 4 -0.005463 0.002790 0.004196 0.039181 -0.005807 0.005861
# 5 0.000592 0.001082 0.000498 -0.005807 0.031948 -0.000200
# 6 -0.005327 0.002869 -0.001089 0.005861 -0.000200 0.031978
#
#
# Mechanical properties :
#
#
# Convention : Reuss Voigt Hill
#
# Bulk Modulus (GPa) = 61.58119 68.91162 65.24641
# Shear Modulus (GPa) = 28.42218 31.72672 30.07445
#
# Velocity S-wave (km/s) = 3.85768 4.07577 3.96822
# Velocity P-wave (km/s) = 7.21705 7.63092 7.42687
#
# Compressibility (1/GPa) = 0.01623872
#
# Stress axis : x y z
#
# Youngs Moduli (GPa) = 78.42415 59.40526 81.73646
#
# Poissons Ratio (x) = 0.39256 0.32358
# Poissons Ratio (y) = 0.51825 0.18171
# Poissons Ratio (z) = 0.31047 0.13207
#
# Static dielectric constant tensor:
#      x y z
#    x 1.722190 -0.001770 0.015530 
#    y -0.001770 1.696150 -0.044170 
#    z 0.015530 -0.044170 1.713690 
# 
# From -- ./inp_files/526508.got.cif
#   From: 2010.05.17/outbox.cif.g08.bks.cpg/sg2_264_cif.got.tgz:526508.got - 2010.06.03 11:33:40.
