data_PCOD9099650
_publ_section_title
;
Structure prediction by ZEFSAII (Michael W. Deem and Ramdas Pophale) SiO2 
 PCOD9099650
Probable space group: P -1
;
_chemical_formula_sum "Si O2"
_cell_formula_units_Z 16
_cell_length_a 22.833530
_cell_length_b 12.882330
_cell_length_c 9.575588
_cell_angle_alpha 130.580265
_cell_angle_beta 49.516163
_cell_angle_gamma 159.345407
_cell_volume 745.892060
_symmetry_space_group_name_H-M "P -1"
_symmetry_group_IT_number 2
_symmetry_cell_setting 'triclinic'
loop_
_space_group_symop_operation_xyz
x,y,z
-x,-y,-z
loop_
_atom_site_type_symbol
_atom_site_label
_atom_site_fract_x
_atom_site_fract_y
_atom_site_fract_z
Si Si1 0.109226 0.464148 0.846983
Si Si2 0.386582 0.710094 0.504525
Si Si3 0.237695 0.062199 0.757915
Si Si4 0.600125 0.283916 0.021303
Si Si5 0.434521 0.158930 0.400555
Si Si6 0.134063 0.499398 0.176536
Si Si7 0.771666 0.054404 0.027390
Si Si8 0.420030 0.580539 0.081442
O O1 0.218439 0.517800 0.653811
O O2 0.908610 0.157613 0.860713
O O3 0.131726 0.498102 0.009720
O O4 0.173992 0.711539 0.905782
O O5 0.357504 0.545261 0.291493
O O6 0.500000 0.000000 0.500000
O O7 0.489003 0.805986 0.558367
O O8 0.383035 0.229066 0.584657
O O9 0.283454 0.278679 0.945117
O O10 0.055216 0.779184 0.724082
O O11 0.227033 0.944686 0.805949
O O12 0.567207 0.354172 0.240767
O O13 0.786362 0.520730 0.923252
O O14 0.529920 0.216727 0.922145
O O15 0.500000 0.000000 0.000000
O O16 0.261301 0.813412 0.314709
O O17 0.581862 0.740447 0.994740
#
# Coordination Sequence:
#
# PCOD9099650 Si02
#       8
#     2   2   2   2   2   2   2   2
#     4  10  20  37  62  95 119 155 208 258 302 354
#     4  12  21  36  64  97 116 154 210 254 302 362
#     4  11  24  40  58  90 129 167 198 253 311 368
#     4  10  21  39  63  89 117 160 205 259 301 360
#     4  11  21  37  65  89 119 162 211 251 296 366
#     4  10  21  39  63  90 123 158 210 256 302 354
#     4  10  20  37  61  87 126 159 195 252 309 360
#     4  12  24  40  63  90 129 162 201 253 315 366
#
# _framework density 21.450824999999998
#
# number of rings (size 3 to 8) (size 9 to 14) (size 15 to 20)
#    0.000    1.250    3.750    3.750    0.000    1.000 
#    0.000    7.500    0.000    0.000    0.000    0.000 
#    0.000    0.000    0.000    0.000    0.000    0.000 
#
# Total GULP energy -89362.388464 kJ/mol
# GULP energy per Si atom -5585.149279 kJ/mol
# Density = 2.140200 g / cm^3
# Si number density = 21.450825 Si / 1000 Ang^3
#
#
#
# Elastic Constant Matrix: (Units=GPa)
#
#
# Indices 1 2 3 4 5 6 
#
# 1 90.9911 42.3261 36.2635 -10.8309 2.4978 30.0904
# 2 42.3261 35.2138 14.2103 -4.5646 -12.3136 17.5148
# 3 36.2635 14.2103 118.3495 -11.7121 -9.4341 10.1364
# 4 -10.8309 -4.5646 -11.7121 34.1994 4.8889 -5.9746
# 5 2.4978 -12.3136 -9.4341 4.8889 31.7479 -3.3586
# 6 30.0904 17.5148 10.1364 -5.9746 -3.3586 30.3445
#
#
#
# Elastic Compliance Matrix: (Units=1/GPa)
#
#
# Indices 1 2 3 4 5 6 
#
# 1 0.045006 -0.053859 -0.007921 0.006263 -0.029111 -0.012885
# 2 -0.053859 0.111229 0.007071 -0.008539 0.049808 -0.009324
# 3 -0.007921 0.007071 0.010569 0.001349 0.006428 0.001219
# 4 0.006263 -0.008539 0.001349 0.032343 -0.007987 0.003752
# 5 -0.029111 0.049808 0.006428 -0.007987 0.056528 0.002655
# 6 -0.012885 -0.009324 0.001219 0.003752 0.002655 0.051739
#
#
# Mechanical properties :
#
#
# Convention : Reuss Voigt Hill
#
# Bulk Modulus (GPa) = 17.42526 47.79490 32.61008
# Shear Modulus (GPa) = 11.46899 29.37532 20.42216
#
# Velocity S-wave (km/s) = 2.31479 3.70459 3.08887
# Velocity P-wave (km/s) = 3.90964 6.37402 5.28741
#
# Compressibility (1/GPa) = 0.05738795
#
# Stress axis : x y z
#
# Youngs Moduli (GPa) = 22.21946 8.99047 94.61739
#
# Poissons Ratio (x) = 0.48421 0.74943
# Poissons Ratio (y) = 1.19671 -0.66909
# Poissons Ratio (z) = 0.17599 -0.06358
#
# Static dielectric constant tensor:
#      x y z
#    x 1.797220 -0.011410 -0.025910 
#    y -0.011410 1.823400 -0.013390 
#    z -0.025910 -0.013390 1.792180 
# 
# From -- ./inp_files/354580.got.cif
#   From: 2010.05.17/outbox.cif.g08.bks.cpg/sg2_178_cif.got.tgz:354580.got - 2010.06.03 11:33:40.
