data_PCOD9099879
_publ_section_title
;
Structure prediction by ZEFSAII (Michael W. Deem and Ramdas Pophale) SiO2 
 PCOD9099879
Probable space group: P -1
;
_chemical_formula_sum "Si O2"
_cell_formula_units_Z 14
_cell_length_a 27.063247
_cell_length_b 7.877516
_cell_length_c 26.814957
_cell_angle_alpha 39.507584
_cell_angle_beta 11.017700
_cell_angle_gamma 39.361520
_cell_volume 689.124279
_symmetry_space_group_name_H-M "P -1"
_symmetry_group_IT_number 2
_symmetry_cell_setting 'triclinic'
loop_
_space_group_symop_operation_xyz
x,y,z
-x,-y,-z
loop_
_atom_site_type_symbol
_atom_site_label
_atom_site_fract_x
_atom_site_fract_y
_atom_site_fract_z
Si Si1 0.009583 0.844989 0.577405
Si Si2 0.128618 0.634952 0.062323
Si Si3 0.558947 0.491506 0.121943
Si Si4 0.923877 0.948385 0.744889
Si Si5 0.812564 0.017396 0.229977
Si Si6 0.414149 0.021086 0.302008
Si Si7 0.535120 0.443031 0.350189
O O1 0.916469 0.028525 0.676182
O O2 0.305844 0.713069 0.323896
O O3 0.807441 0.624380 0.825593
O O4 0.000000 0.000000 0.500000
O O5 0.347913 0.622733 0.890084
O O6 0.244848 0.568737 0.907542
O O7 0.981919 0.376609 0.277216
O O8 0.962278 0.925812 0.153284
O O9 0.482776 0.256776 0.215812
O O10 0.136482 0.076310 0.537204
O O11 0.642916 0.981385 0.042402
O O12 0.649685 0.312316 0.318182
O O13 0.640145 0.777651 0.445609
O O14 0.000000 0.000000 0.000000
O O15 0.408893 0.750432 0.401917
#
# Coordination Sequence:
#
# PCOD9099879 Si02
#       7
#     2   2   2   2   2   2   2
#     4  11  23  44  65  89 115 154 197 240 288 359
#     4   9  18  32  55  81 110 155 205 239 274 344
#     4  11  24  38  62  91 122 151 191 248 300 344
#     4  10  20  37  62  84 113 159 199 236 282 356
#     4   9  16  29  51  83 109 149 209 240 274 330
#     4  11  21  38  57  91 123 154 193 244 296 344
#     4   9  17  30  54  79 114 155 199 243 281 336
#
# _framework density 20.315638
#
# number of rings (size 3 to 8) (size 9 to 14) (size 15 to 20)
#    0.000    2.000    1.429    3.857    2.000    0.000 
#    0.000    5.000    0.000    7.714    0.000    0.000 
#    0.000    0.000    0.000    0.000    0.000    0.000 
#
# Total GULP energy -77996.742887 kJ/mol
# GULP energy per Si atom -5571.195921 kJ/mol
# Density = 2.026940 g / cm^3
# Si number density = 20.315638 Si / 1000 Ang^3
#
#
#
# Elastic Constant Matrix: (Units=GPa)
#
#
# Indices 1 2 3 4 5 6 
#
# 1 79.1235 22.4169 7.4094 1.7045 -20.1492 -19.5964
# 2 22.4169 17.7634 2.3693 -2.4352 -4.5401 -8.6910
# 3 7.4094 2.3693 65.9227 -4.2271 -14.3159 -16.4961
# 4 1.7045 -2.4352 -4.2271 22.6220 2.4682 -7.6001
# 5 -20.1492 -4.5401 -14.3159 2.4682 30.3377 -4.5952
# 6 -19.5964 -8.6910 -16.4961 -7.6001 -4.5952 34.0389
#
#
#
# Elastic Compliance Matrix: (Units=1/GPa)
#
#
# Indices 1 2 3 4 5 6 
#
# 1 0.027500 -0.022863 0.005924 -0.000411 0.020016 0.015476
# 2 -0.022863 0.097438 0.005951 0.019461 0.003564 0.019426
# 3 0.005924 0.005951 0.024384 0.009924 0.018780 0.021498
# 4 -0.000411 0.019461 0.009924 0.055126 0.006276 0.022697
# 5 0.020016 0.003564 0.018780 0.006276 0.059838 0.031014
# 6 0.015476 0.019426 0.021498 0.022697 0.031014 0.062921
#
#
# Mechanical properties :
#
#
# Convention : Reuss Voigt Hill
#
# Bulk Modulus (GPa) = 7.85274 25.24452 16.54863
# Shear Modulus (GPa) = 12.76706 26.10731 19.43719
#
# Velocity S-wave (km/s) = 2.50958 3.58870 3.09651
# Velocity P-wave (km/s) = 3.50301 5.44287 4.57689
#
# Compressibility (1/GPa) = 0.12734402
#
# Stress axis : x y z
#
# Youngs Moduli (GPa) = 36.36360 10.26292 41.01098
#
# Poissons Ratio (x) = 0.23464 -0.24294
# Poissons Ratio (y) = 0.83139 -0.24404
# Poissons Ratio (z) = -0.21541 -0.06107
#
# Static dielectric constant tensor:
#      x y z
#    x 1.807550 -0.101530 0.079020 
#    y -0.101530 1.824150 -0.028870 
#    z 0.079020 -0.028870 1.902950 
# 
# From -- ./inp_files/49065.got.cif
#   From: 2010.05.17/outbox.cif.g08.bks.cpg/sg2_25_cif.got.tgz:49065.got - 2010.06.03 11:33:40.
