data_PCOD9099075
_publ_section_title
;
Structure prediction by ZEFSAII (Michael W. Deem and Ramdas Pophale) SiO2 
 PCOD9099075
Probable space group: P -1
;
_chemical_formula_sum "Si O2"
_cell_formula_units_Z 14
_cell_length_a 6.511462
_cell_length_b 21.735689
_cell_length_c 8.227013
_cell_angle_alpha 43.703786
_cell_angle_beta 114.007479
_cell_angle_gamma 127.897360
_cell_volume 633.364947
_symmetry_space_group_name_H-M "P -1"
_symmetry_group_IT_number 2
_symmetry_cell_setting 'triclinic'
loop_
_space_group_symop_operation_xyz
x,y,z
-x,-y,-z
loop_
_atom_site_type_symbol
_atom_site_label
_atom_site_fract_x
_atom_site_fract_y
_atom_site_fract_z
Si Si1 0.771551 0.380432 0.138810
Si Si2 0.826214 0.186086 0.506651
Si Si3 0.263732 0.014189 0.630523
Si Si4 0.212599 0.622111 0.484016
Si Si5 0.806202 0.897616 0.229156
Si Si6 0.755362 0.183363 0.875225
Si Si7 0.641229 0.433867 0.675632
O O1 0.865452 0.299337 0.279884
O O2 0.664394 0.351088 0.345544
O O3 0.586236 0.373519 0.944177
O O4 0.000000 0.500000 0.000000
O O5 0.554470 0.098738 0.502053
O O6 0.813090 0.170801 0.729197
O O7 0.054541 0.166543 0.562502
O O8 0.269669 0.062298 0.714686
O O9 0.000000 0.000000 0.500000
O O10 0.226732 0.901360 0.852828
O O11 0.092644 0.696021 0.265710
O O12 0.399458 0.625909 0.393126
O O13 0.956241 0.509250 0.632586
O O14 0.538562 0.838387 0.158891
O O15 0.000000 0.000000 0.000000
O O16 0.500000 0.500000 0.500000
#
# Coordination Sequence:
#
# PCOD9099075 Si02
#       7
#     2   2   2   2   2   2   2
#     4   9  20  39  61  87 116 153 200 241 293 356
#     4  10  20  39  60  82 117 156 194 242 288 352
#     4  11  23  36  54  87 122 148 189 244 297 344
#     4   9  21  39  59  84 120 153 191 251 297 343
#     4  11  19  38  62  79 108 158 197 233 286 350
#     4  10  20  37  59  84 116 153 194 238 294 353
#     4  10  21  39  60  87 118 155 199 244 295 356
#
# _framework density 22.104158000000002
#
# number of rings (size 3 to 8) (size 9 to 14) (size 15 to 20)
#    0.000    2.000    2.857    0.857    0.000    6.857 
#    2.571   10.000    0.000    0.000    0.000    0.000 
#    0.000    0.000    0.000    0.000    0.000    0.000 
#
# Total GULP energy -78030.365913 kJ/mol
# GULP energy per Si atom -5573.597565 kJ/mol
# Density = 2.205385 g / cm^3
# Si number density = 22.104158 Si / 1000 Ang^3
#
#
#
# Elastic Constant Matrix: (Units=GPa)
#
#
# Indices 1 2 3 4 5 6 
#
# 1 77.0834 8.3224 42.0009 11.8073 18.1191 -16.1940
# 2 8.3224 33.5277 33.9110 -3.3282 1.4873 -16.5593
# 3 42.0009 33.9110 134.4389 -5.3908 37.9395 -15.0009
# 4 11.8073 -3.3282 -5.3908 33.9932 -3.0285 -3.3095
# 5 18.1191 1.4873 37.9395 -3.0285 33.2766 -4.1869
# 6 -16.1940 -16.5593 -15.0009 -3.3095 -4.1869 40.6358
#
#
#
# Elastic Compliance Matrix: (Units=1/GPa)
#
#
# Indices 1 2 3 4 5 6 
#
# 1 0.018652 0.002508 -0.004764 -0.006862 -0.004750 0.005648
# 2 0.002508 0.057577 -0.018550 0.005592 0.020255 0.020157
# 3 -0.004764 -0.018550 0.018142 0.000691 -0.017768 -0.004535
# 4 -0.006862 0.005592 0.000691 0.033310 0.006126 0.003143
# 5 -0.004750 0.020255 -0.017768 0.006126 0.053276 0.005790
# 6 0.005648 0.020157 -0.004535 0.003143 0.005790 0.034252
#
#
# Mechanical properties :
#
#
# Convention : Reuss Voigt Hill
#
# Bulk Modulus (GPa) = 18.95390 45.94652 32.45021
# Shear Modulus (GPa) = 18.22102 32.30217 25.26160
#
# Velocity S-wave (km/s) = 2.87422 3.82692 3.38426
# Velocity P-wave (km/s) = 4.42813 6.35284 5.47572
#
# Compressibility (1/GPa) = 0.05275960
#
# Stress axis : x y z
#
# Youngs Moduli (GPa) = 53.61230 17.36799 55.12144
#
# Poissons Ratio (x) = -0.04356 0.26261
# Poissons Ratio (y) = -0.13446 1.02248
# Poissons Ratio (z) = 0.25542 0.32217
#
# Static dielectric constant tensor:
#      x y z
#    x 1.836940 0.064810 -0.056030 
#    y 0.064810 1.927890 -0.021640 
#    z -0.056030 -0.021640 1.876800 
# 
# From -- ./inp_files/142195.got.cif
#   From: 2010.05.17/outbox.cif.g08.bks.cpg/sg2_72_cif.got.tgz:142195.got - 2010.06.03 11:33:40.
