data_PCOD9099522
_publ_section_title
;
Structure prediction by ZEFSAII (Michael W. Deem and Ramdas Pophale) SiO2 
 PCOD9099522
Probable space group: P -1
;
_chemical_formula_sum "Si O2"
_cell_formula_units_Z 14
_cell_length_a 9.023840
_cell_length_b 8.650879
_cell_length_c 11.571154
_cell_angle_alpha 51.081156
_cell_angle_beta 106.209037
_cell_angle_gamma 118.024196
_cell_volume 620.222417
_symmetry_space_group_name_H-M "P -1"
_symmetry_group_IT_number 2
_symmetry_cell_setting 'triclinic'
loop_
_space_group_symop_operation_xyz
x,y,z
-x,-y,-z
loop_
_atom_site_type_symbol
_atom_site_label
_atom_site_fract_x
_atom_site_fract_y
_atom_site_fract_z
Si Si1 0.670650 0.492330 0.488953
Si Si2 0.834934 0.365754 0.099768
Si Si3 0.886249 0.269343 0.644650
Si Si4 0.846744 0.947242 0.404389
Si Si5 0.468038 0.563470 0.090457
Si Si6 0.641327 0.905389 0.596208
Si Si7 0.794117 0.609829 0.211892
O O1 0.500000 0.500000 0.500000
O O2 0.734516 0.322777 0.642835
O O3 0.695099 0.463867 0.370143
O O4 0.810073 0.732374 0.427107
O O5 0.853343 0.144704 0.236683
O O6 0.815348 0.474397 0.168510
O O7 0.672566 0.340643 0.999269
O O8 0.000000 0.500000 0.000000
O O9 0.000000 0.500000 0.500000
O O10 0.018266 0.241282 0.776107
O O11 0.792678 0.073782 0.628356
O O12 0.694196 0.895722 0.481972
O O13 0.000000 0.000000 0.500000
O O14 0.398358 0.331648 0.248676
O O15 0.656405 0.709423 0.106211
O O16 0.500000 0.500000 0.000000
O O17 0.500000 0.000000 0.500000
#
# Coordination Sequence:
#
# PCOD9099522 Si02
#       7
#     2   2   2   2   2   2   2
#     4  11  22  36  60  97 131 159 201 265 323 367
#     4  11  24  43  65  92 127 170 214 263 321 381
#     4  10  20  37  60  93 129 163 206 266 320 366
#     4  12  23  39  65  95 122 161 215 260 307 381
#     4  10  22  41  64  92 127 167 210 260 317 381
#     4  12  22  39  68  95 122 168 217 258 311 379
#     4  10  21  41  62  84 125 168 205 256 313 373
#
# _framework density 22.572548999999999
#
# number of rings (size 3 to 8) (size 9 to 14) (size 15 to 20)
#    0.000    1.143    0.000   10.286    0.000    1.143 
#    0.000    7.143    0.000    1.714    0.000    0.000 
#    0.000    0.000    0.000    0.000    0.000    0.000 
#
# Total GULP energy -78020.867288 kJ/mol
# GULP energy per Si atom -5572.919092 kJ/mol
# Density = 2.252117 g / cm^3
# Si number density = 22.572549 Si / 1000 Ang^3
#
#
#
# Elastic Constant Matrix: (Units=GPa)
#
#
# Indices 1 2 3 4 5 6 
#
# 1 138.9131 27.5395 45.3247 13.8681 26.7978 -5.6783
# 2 27.5395 129.1755 33.7768 3.9548 20.3335 10.5047
# 3 45.3247 33.7768 115.1877 -5.3758 18.0782 8.5324
# 4 13.8681 3.9548 -5.3758 27.3469 8.9149 10.6323
# 5 26.7978 20.3335 18.0782 8.9149 60.0561 17.9266
# 6 -5.6783 10.5047 8.5324 10.6323 17.9266 38.1559
#
#
#
# Elastic Compliance Matrix: (Units=1/GPa)
#
#
# Indices 1 2 3 4 5 6 
#
# 1 0.010470 -0.000847 -0.004062 -0.007236 -0.004066 0.006626
# 2 -0.000847 0.008784 -0.001902 -0.000180 -0.001604 -0.001315
# 3 -0.004062 -0.001902 0.011561 0.006451 -0.000755 -0.004109
# 4 -0.007236 -0.000180 0.006451 0.047848 -0.001207 -0.015236
# 5 -0.004066 -0.001604 -0.000755 -0.001207 0.022463 -0.010212
# 6 0.006626 -0.001315 -0.004109 -0.015236 -0.010212 0.037519
#
#
# Mechanical properties :
#
#
# Convention : Reuss Voigt Hill
#
# Bulk Modulus (GPa) = 58.15968 66.28427 62.22197
# Shear Modulus (GPa) = 31.64611 43.55413 37.60012
#
# Velocity S-wave (km/s) = 3.74836 4.39739 4.08578
# Velocity P-wave (km/s) = 6.67497 7.43044 7.06281
#
# Compressibility (1/GPa) = 0.01719404
#
# Stress axis : x y z
#
# Youngs Moduli (GPa) = 95.51527 113.83953 86.49603
#
# Poissons Ratio (x) = 0.09646 0.35131
# Poissons Ratio (y) = 0.08093 0.16448
# Poissons Ratio (z) = 0.38794 0.21648
#
# Static dielectric constant tensor:
#      x y z
#    x 1.072240 0.361530 0.194700 
#    y 0.361530 1.765740 0.019800 
#    z 0.194700 0.019800 1.833910 
# 
# From -- ./inp_files/377778.got.cif
#   From: 2010.05.17/outbox.cif.g08.bks.cpg/sg2_189_cif.got.tgz:377778.got - 2010.06.03 11:33:40.
