data_PCOD9099774
_publ_section_title
;
Structure prediction by ZEFSAII (Michael W. Deem and Ramdas Pophale) SiO2 
 PCOD9099774
Probable space group: P -1
;
_chemical_formula_sum "Si O2"
_cell_formula_units_Z 14
_cell_length_a 22.512935
_cell_length_b 6.879746
_cell_length_c 12.456223
_cell_angle_alpha 138.156421
_cell_angle_beta 151.262881
_cell_angle_gamma 52.204335
_cell_volume 613.862437
_symmetry_space_group_name_H-M "P -1"
_symmetry_group_IT_number 2
_symmetry_cell_setting 'triclinic'
loop_
_space_group_symop_operation_xyz
x,y,z
-x,-y,-z
loop_
_atom_site_type_symbol
_atom_site_label
_atom_site_fract_x
_atom_site_fract_y
_atom_site_fract_z
Si Si1 0.083465 0.908940 0.995306
Si Si2 0.671507 0.468896 0.283700
Si Si3 0.698517 0.388482 0.708251
Si Si4 0.110997 0.129289 0.891215
Si Si5 0.520803 0.669908 0.932482
Si Si6 0.088305 0.658105 0.489881
Si Si7 0.592763 0.764253 0.870752
O O1 0.016872 0.582151 0.727267
O O2 0.088016 0.079941 0.960607
O O3 0.222797 0.870033 0.238866
O O4 0.000000 0.000000 0.000000
O O5 0.610598 0.519530 0.323932
O O6 0.813334 0.501666 0.488004
O O7 0.601425 0.634716 0.150802
O O8 0.635025 0.111963 0.073432
O O9 0.678381 0.608744 0.863206
O O10 0.555871 0.284678 0.408249
O O11 0.786775 0.586660 0.846584
O O12 0.983331 0.176093 0.646033
O O13 0.148290 0.859303 0.765681
O O14 0.599043 0.593909 0.923377
O O15 0.500000 0.000000 0.000000
#
# Coordination Sequence:
#
# PCOD9099774 Si02
#       7
#     2   2   2   2   2   2   2
#     4  11  26  41  62  93 125 166 210 262 321 373
#     4  10  20  37  61  92 123 159 205 248 313 368
#     4  10  23  40  62  89 123 164 213 252 309 373
#     4  10  22  43  64  90 122 160 211 264 309 366
#     4   9  21  36  57  90 127 161 197 250 305 370
#     4  10  22  40  66  92 119 163 210 256 311 374
#     4  10  21  38  60  91 123 162 205 255 306 366
#
# _framework density 22.806414
#
# number of rings (size 3 to 8) (size 9 to 14) (size 15 to 20)
#    0.000    2.000    1.429    0.429    2.000   11.429 
#    0.000    2.857    0.000    0.000    0.000    0.000 
#    0.000    0.000    0.000    0.000    0.000    0.000 
#
# Total GULP energy -78042.976135 kJ/mol
# GULP energy per Si atom -5574.498295 kJ/mol
# Density = 2.275451 g / cm^3
# Si number density = 22.806414 Si / 1000 Ang^3
#
#
#
# Elastic Constant Matrix: (Units=GPa)
#
#
# Indices 1 2 3 4 5 6 
#
# 1 133.7065 63.6184 19.6583 -15.5347 10.0732 35.0475
# 2 63.6184 90.4348 15.4478 -15.2367 7.1922 22.2254
# 3 19.6583 15.4478 63.8496 -2.3659 17.6588 10.0961
# 4 -15.5347 -15.2367 -2.3659 28.8905 -2.5977 3.6008
# 5 10.0732 7.1922 17.6588 -2.5977 29.6789 1.8757
# 6 35.0475 22.2254 10.0961 3.6008 1.8757 44.7083
#
#
#
# Elastic Compliance Matrix: (Units=1/GPa)
#
#
# Indices 1 2 3 4 5 6 
#
# 1 0.013221 -0.006534 -0.000734 0.004358 -0.001628 -0.007233
# 2 -0.006534 0.017967 -0.001318 0.006303 -0.000548 -0.003997
# 3 -0.000734 -0.001318 0.019670 -0.000124 -0.010973 -0.002741
# 4 0.004358 0.006303 -0.000124 0.041629 0.001338 -0.009931
# 5 -0.001628 -0.000548 -0.010973 0.001338 0.040886 0.002204
# 6 -0.007233 -0.003997 -0.002741 -0.009931 0.002204 0.031350
#
#
# Mechanical properties :
#
#
# Convention : Reuss Voigt Hill
#
# Bulk Modulus (GPa) = 29.68610 53.93776 41.81193
# Shear Modulus (GPa) = 25.89009 33.27329 29.58169
#
# Velocity S-wave (km/s) = 3.37294 3.82376 3.60540
# Velocity P-wave (km/s) = 5.31167 6.57240 5.97538
#
# Compressibility (1/GPa) = 0.03368580
#
# Stress axis : x y z
#
# Youngs Moduli (GPa) = 75.63927 55.65754 50.83812
#
# Poissons Ratio (x) = 0.36365 0.03732
# Poissons Ratio (y) = 0.49420 0.06702
# Poissons Ratio (z) = 0.05553 0.07337
#
# Static dielectric constant tensor:
#      x y z
#    x 1.979280 -0.049810 -0.056580 
#    y -0.049810 1.851030 0.028260 
#    z -0.056580 0.028260 1.963480 
# 
# From -- ./inp_files/65827.got.cif
#   From: 2010.05.17/outbox.cif.g08.bks.cpg/sg2_33_cif.got.tgz:65827.got - 2010.06.03 11:33:40.
