data_PCOD9099390
_publ_section_title
;
Structure prediction by ZEFSAII (Michael W. Deem and Ramdas Pophale) SiO2 
 PCOD9099390
Probable space group: P -1
;
_chemical_formula_sum "Si O2"
_cell_formula_units_Z 12
_cell_length_a 7.286179
_cell_length_b 14.529530
_cell_length_c 13.975044
_cell_angle_alpha 26.920582
_cell_angle_beta 68.521246
_cell_angle_gamma 55.211018
_cell_volume 508.062797
_symmetry_space_group_name_H-M "P -1"
_symmetry_group_IT_number 2
_symmetry_cell_setting 'triclinic'
loop_
_space_group_symop_operation_xyz
x,y,z
-x,-y,-z
loop_
_atom_site_type_symbol
_atom_site_label
_atom_site_fract_x
_atom_site_fract_y
_atom_site_fract_z
Si Si1 0.722564 0.590390 0.339422
Si Si2 0.634897 0.400867 0.916825
Si Si3 0.868796 0.760066 0.997881
Si Si4 0.240883 0.714900 0.221211
Si Si5 0.142795 0.561231 0.846179
Si Si6 0.007554 0.105573 0.603469
O O1 0.450511 0.700981 0.255713
O O2 0.774376 0.493481 0.527676
O O3 0.897608 0.335214 0.482891
O O4 0.788832 0.766947 0.115629
O O5 0.836943 0.439630 0.878487
O O6 0.667413 0.377839 0.817682
O O7 0.356574 0.569128 0.841998
O O8 0.739118 0.127429 0.191567
O O9 0.747139 0.666729 0.040083
O O10 0.836411 0.007640 0.737234
O O11 0.000000 0.000000 0.000000
O O12 0.987082 0.806278 0.584386
O O13 0.000000 0.500000 0.000000
#
# Coordination Sequence:
#
# PCOD9099390 Si02
#       6
#     2   2   2   2   2   2
#     4  10  20  37  60  87 127 159 196 244 284 355
#     4  10  21  40  59  90 123 154 203 243 292 359
#     4   9  21  41  59  90 121 154 201 246 296 354
#     4  11  19  35  62  90 122 161 199 239 289 353
#     4  11  23  43  65  85 120 159 193 256 313 341
#     4   9  20  41  57  90 123 146 209 245 279 375
#
# _framework density 23.619129000000001
#
# number of rings (size 3 to 8) (size 9 to 14) (size 15 to 20)
#    1.000    1.000    5.000    0.000    0.000    2.667 
#    9.000    7.500    0.000    0.000    0.000    0.000 
#    0.000    0.000    0.000    0.000    0.000    0.000 
#
# Total GULP energy -66924.415124 kJ/mol
# GULP energy per Si atom -5577.034594 kJ/mol
# Density = 2.356537 g / cm^3
# Si number density = 23.619129 Si / 1000 Ang^3
#
#
#
# Elastic Constant Matrix: (Units=GPa)
#
#
# Indices 1 2 3 4 5 6 
#
# 1 76.4113 12.9947 19.2232 5.7456 4.1788 -20.8482
# 2 12.9947 62.8126 43.5265 31.9145 8.5951 -16.5301
# 3 19.2232 43.5265 149.4068 50.6694 16.4674 -2.4964
# 4 5.7456 31.9145 50.6694 45.9399 -6.0526 -12.4514
# 5 4.1788 8.5951 16.4674 -6.0526 40.7733 -4.4418
# 6 -20.8482 -16.5301 -2.4964 -12.4514 -4.4418 30.9529
#
#
#
# Elastic Compliance Matrix: (Units=1/GPa)
#
#
# Indices 1 2 3 4 5 6 
#
# 1 0.017751 -0.001071 -0.004944 0.008433 0.003273 0.014847
# 2 -0.001071 0.028654 -0.001371 -0.017486 -0.007276 0.006392
# 3 -0.004944 -0.001371 0.015373 -0.019987 -0.009715 -0.012257
# 4 0.008433 -0.017486 -0.019987 0.064439 0.023070 0.023962
# 5 0.003273 -0.007276 -0.009715 0.023070 0.034352 0.011745
# 6 0.014847 0.006392 -0.012257 0.023962 0.011745 0.056057
#
#
# Mechanical properties :
#
#
# Convention : Reuss Voigt Hill
#
# Bulk Modulus (GPa) = 21.27425 48.90219 35.08822
# Shear Modulus (GPa) = 20.23733 37.72565 28.98149
#
# Velocity S-wave (km/s) = 2.93032 4.00090 3.50671
# Velocity P-wave (km/s) = 4.52502 6.48786 5.59322
#
# Compressibility (1/GPa) = 0.04700517
#
# Stress axis : x y z
#
# Youngs Moduli (GPa) = 56.33497 34.89853 65.04945
#
# Poissons Ratio (x) = 0.03739 0.32162
# Poissons Ratio (y) = 0.06035 0.08918
# Poissons Ratio (z) = 0.27853 0.04785
#
# Static dielectric constant tensor:
#      x y z
#    x 1.901470 -0.013090 -0.004820 
#    y -0.013090 1.942160 0.048740 
#    z -0.004820 0.048740 1.911660 
# 
# From -- ./inp_files/341372.got.cif
#   From: 2010.05.17/outbox.cif.g08.bks.cpg/sg2_171_cif.got.tgz:341372.got - 2010.06.03 11:33:40.
