data_PCOD9099772
_publ_section_title
;
Structure prediction by ZEFSAII (Michael W. Deem and Ramdas Pophale) SiO2 
 PCOD9099772
Probable space group: P -1
;
_chemical_formula_sum "Si O2"
_cell_formula_units_Z 16
_cell_length_a 21.095061
_cell_length_b 9.078674
_cell_length_c 9.463151
_cell_angle_alpha 93.908962
_cell_angle_beta 52.833662
_cell_angle_gamma 51.555576
_cell_volume 795.336301
_symmetry_space_group_name_H-M "P -1"
_symmetry_group_IT_number 2
_symmetry_cell_setting 'triclinic'
loop_
_space_group_symop_operation_xyz
x,y,z
-x,-y,-z
loop_
_atom_site_type_symbol
_atom_site_label
_atom_site_fract_x
_atom_site_fract_y
_atom_site_fract_z
Si Si1 0.434186 0.634448 0.750956
Si Si2 0.833746 0.116327 0.962067
Si Si3 0.968852 0.636802 0.195933
Si Si4 0.637701 0.913620 0.068778
Si Si5 0.231618 0.447190 0.882097
Si Si6 0.875622 0.509155 0.496433
Si Si7 0.329693 0.352682 0.424928
Si Si8 0.267149 0.785932 0.570631
O O1 0.500000 0.500000 0.500000
O O2 0.292827 0.753138 0.957760
O O3 0.570663 0.400153 0.654079
O O4 0.391179 0.872506 0.834740
O O5 0.830870 0.297241 0.972542
O O6 0.794912 0.130328 0.178687
O O7 0.986015 0.810165 0.698060
O O8 0.928683 0.581272 0.365304
O O9 0.838744 0.949509 0.358659
O O10 0.000000 0.500000 0.000000
O O11 0.107546 0.516920 0.043094
O O12 0.651854 0.789667 0.178635
O O13 0.502249 0.077111 0.165026
O O14 0.786839 0.669437 0.768758
O O15 0.295738 0.369574 0.635102
O O16 0.764000 0.608107 0.543272
O O17 0.280061 0.598861 0.485224
#
# Coordination Sequence:
#
# PCOD9099772 Si02
#       8
#     2   2   2   2   2   2   2   2
#     4   9  20  38  62  85 123 163 203 252 304 365
#     4  10  20  37  61  92 122 164 204 253 314 355
#     4  12  22  37  62  95 121 163 208 252 302 368
#     4  11  25  41  61  96 127 162 205 258 314 362
#     4  11  23  39  65  93 121 161 215 257 294 372
#     4  12  24  39  63  91 133 164 200 258 314 367
#     4  10  21  42  64  89 124 165 208 254 306 366
#     4   9  19  37  61  90 118 159 215 256 292 365
#
# _framework density 20.117273999999998
#
# number of rings (size 3 to 8) (size 9 to 14) (size 15 to 20)
#    0.000    1.500    2.500    3.000    1.750    5.500 
#    0.000    3.750    0.000    0.000    0.000    0.000 
#    0.000    0.000    0.000    0.000    0.000    0.000 
#
# Total GULP energy -89432.842710 kJ/mol
# GULP energy per Si atom -5589.552669 kJ/mol
# Density = 2.007149 g / cm^3
# Si number density = 20.117274 Si / 1000 Ang^3
#
#
#
# Elastic Constant Matrix: (Units=GPa)
#
#
# Indices 1 2 3 4 5 6 
#
# 1 58.4716 32.1428 39.0552 2.5660 -13.3728 19.9185
# 2 32.1428 47.2936 27.2712 8.1934 -2.0790 10.3083
# 3 39.0552 27.2712 116.3752 13.4450 -4.7045 13.9660
# 4 2.5660 8.1934 13.4450 30.6825 3.1060 -4.6297
# 5 -13.3728 -2.0790 -4.7045 3.1060 29.8170 -9.4373
# 6 19.9185 10.3083 13.9660 -4.6297 -9.4373 19.7572
#
#
#
# Elastic Compliance Matrix: (Units=1/GPa)
#
#
# Indices 1 2 3 4 5 6 
#
# 1 0.042138 -0.019433 -0.006405 0.000009 0.009106 -0.023464
# 2 -0.019433 0.036830 -0.001025 -0.007669 -0.006752 -0.003922
# 3 -0.006405 -0.001025 0.011853 -0.004714 -0.001616 -0.003263
# 4 0.000009 -0.007669 -0.004714 0.039200 -0.000156 0.016435
# 5 0.009106 -0.006752 -0.001616 -0.000156 0.041790 0.015410
# 6 -0.023464 -0.003922 -0.003263 0.016435 0.015410 0.089835
#
#
# Mechanical properties :
#
#
# Convention : Reuss Voigt Hill
#
# Bulk Modulus (GPa) = 26.95739 46.56430 36.76085
# Shear Modulus (GPa) = 15.25620 24.29609 19.77614
#
# Velocity S-wave (km/s) = 2.75683 3.47900 3.13875
# Velocity P-wave (km/s) = 4.85414 6.27173 5.60791
#
# Compressibility (1/GPa) = 0.03709558
#
# Stress axis : x y z
#
# Youngs Moduli (GPa) = 23.73162 27.15208 84.36372
#
# Poissons Ratio (x) = 0.52764 0.54032
# Poissons Ratio (y) = 0.46117 0.08650
# Poissons Ratio (z) = 0.15199 0.02784
#
# Static dielectric constant tensor:
#      x y z
#    x 1.704940 -0.008420 -0.003540 
#    y -0.008420 1.676590 -0.016160 
#    z -0.003540 -0.016160 1.718690 
# 
# From -- ./inp_files/335948.got.cif
#   From: 2010.05.17/outbox.cif.g08.bks.cpg/sg2_168_cif.got.tgz:335948.got - 2010.06.03 11:33:40.
