data_PCOD9099475
_publ_section_title
;
Structure prediction by ZEFSAII (Michael W. Deem and Ramdas Pophale) SiO2 
 PCOD9099475
Probable space group: P -1
;
_chemical_formula_sum "Si O2"
_cell_formula_units_Z 14
_cell_length_a 7.682256
_cell_length_b 9.185774
_cell_length_c 13.917293
_cell_angle_alpha 70.331997
_cell_angle_beta 53.916317
_cell_angle_gamma 111.249894
_cell_volume 505.370390
_symmetry_space_group_name_H-M "P -1"
_symmetry_group_IT_number 2
_symmetry_cell_setting 'triclinic'
loop_
_space_group_symop_operation_xyz
x,y,z
-x,-y,-z
loop_
_atom_site_type_symbol
_atom_site_label
_atom_site_fract_x
_atom_site_fract_y
_atom_site_fract_z
Si Si1 0.974749 0.702308 0.459581
Si Si2 0.143593 0.280217 0.221849
Si Si3 0.178739 0.790489 0.835656
Si Si4 0.333551 0.682794 0.488011
Si Si5 0.443367 0.235231 0.984833
Si Si6 0.407490 0.194766 0.414775
Si Si7 0.678294 0.075970 0.044268
O O1 0.709876 0.497083 0.517421
O O2 0.825935 0.784295 0.525119
O O3 0.044817 0.624235 0.543173
O O4 0.318925 0.887021 0.250792
O O5 0.392946 0.514949 0.146426
O O6 0.071115 0.350094 0.137254
O O7 0.254057 0.181643 0.155048
O O8 0.820656 0.071391 0.426665
O O9 0.406998 0.765033 0.748300
O O10 0.364068 0.049786 0.695621
O O11 0.085900 0.758727 0.982532
O O12 0.372388 0.674132 0.590729
O O13 0.255726 0.052107 0.000599
O O14 0.677064 0.217265 0.939150
#
# Coordination Sequence:
#
# PCOD9099475 Si02
#       7
#     2   2   2   2   2   2   2
#     4  10  20  37  60  90 130 161 202 248 307 379
#     4  10  21  41  63  89 119 162 205 255 308 363
#     4  10  23  39  60  93 124 156 200 256 316 365
#     4   9  20  36  57  90 126 163 197 246 312 373
#     4  10  22  41  64  84 118 167 210 252 300 361
#     4  11  21  39  62  95 128 160 196 262 315 374
#     4  10  22  40  59  90 118 165 209 250 303 369
#
# _framework density 27.702451
#
# number of rings (size 3 to 8) (size 9 to 14) (size 15 to 20)
#    0.000    2.000    1.429    2.143    4.000    3.429 
#    2.571    2.857    0.000    0.000    0.000    0.000 
#    0.000    0.000    0.000    0.000    0.000    0.000 
#
# Total GULP energy -78280.471303 kJ/mol
# GULP energy per Si atom -5591.462236 kJ/mol
# Density = 2.763940 g / cm^3
# Si number density = 27.702451 Si / 1000 Ang^3
#
#
#
# Elastic Constant Matrix: (Units=GPa)
#
#
# Indices 1 2 3 4 5 6 
#
# 1 107.1436 35.6731 4.5475 15.7169 10.6080 2.0071
# 2 35.6731 186.2913 29.2388 21.7730 -6.5838 -0.6759
# 3 4.5475 29.2388 42.9174 8.7013 -5.0370 -5.5174
# 4 15.7169 21.7730 8.7013 42.4305 6.7721 -2.4150
# 5 10.6080 -6.5838 -5.0370 6.7721 28.5424 12.4216
# 6 2.0071 -0.6759 -5.5174 -2.4150 12.4216 45.4793
#
#
#
# Elastic Compliance Matrix: (Units=1/GPa)
#
#
# Indices 1 2 3 4 5 6 
#
# 1 0.010710 -0.001960 0.000265 -0.002339 -0.004054 0.000514
# 2 -0.001960 0.006700 -0.003689 -0.002450 0.002695 -0.001128
# 3 0.000265 -0.003689 0.027397 -0.004368 0.004091 0.001908
# 4 -0.002339 -0.002450 -0.004368 0.028156 -0.008621 0.003387
# 5 -0.004054 0.002695 0.004091 -0.008621 0.045191 -0.012085
# 6 0.000514 -0.001128 0.001908 0.003387 -0.012085 0.025661
#
#
# Mechanical properties :
#
#
# Convention : Reuss Voigt Hill
#
# Bulk Modulus (GPa) = 29.37878 52.80791 41.09335
# Shear Modulus (GPa) = 30.13371 41.08331 35.60851
#
# Velocity S-wave (km/s) = 3.30170 3.85518 3.58913
# Velocity P-wave (km/s) = 5.01629 6.23863 5.66055
#
# Compressibility (1/GPa) = 0.03403817
#
# Stress axis : x y z
#
# Youngs Moduli (GPa) = 93.37378 149.25919 36.50096
#
# Poissons Ratio (x) = 0.29262 -0.00968
# Poissons Ratio (y) = 0.18306 0.13464
# Poissons Ratio (z) = -0.02477 0.55057
#
# Static dielectric constant tensor:
#      x y z
#    x 2.189230 0.035470 -0.002940 
#    y 0.035470 2.170240 0.048970 
#    z -0.002940 0.048970 2.221910 
# 
# From -- ./inp_files/294890.got.cif
#   From: 2010.05.17/outbox.cif.g08.bks.cpg/sg2_148_cif.got.tgz:294890.got - 2010.06.03 11:33:40.
