data_PCOD9099126
_publ_section_title
;
Structure prediction by ZEFSAII (Michael W. Deem and Ramdas Pophale) SiO2 
 PCOD9099126
Probable space group: P -1
;
_chemical_formula_sum "Si O2"
_cell_formula_units_Z 16
_cell_length_a 7.463894
_cell_length_b 13.759968
_cell_length_c 14.329708
_cell_angle_alpha 145.724703
_cell_angle_beta 63.148083
_cell_angle_gamma 98.139205
_cell_volume 656.160024
_symmetry_space_group_name_H-M "P -1"
_symmetry_group_IT_number 2
_symmetry_cell_setting 'triclinic'
loop_
_space_group_symop_operation_xyz
x,y,z
-x,-y,-z
loop_
_atom_site_type_symbol
_atom_site_label
_atom_site_fract_x
_atom_site_fract_y
_atom_site_fract_z
Si Si1 0.129019 0.225606 0.276377
Si Si2 0.182960 0.525587 0.610375
Si Si3 0.346109 0.557944 0.326149
Si Si4 0.580310 0.165275 0.592068
Si Si5 0.334491 0.776817 0.872990
Si Si6 0.174581 0.777702 0.262863
Si Si7 0.994133 0.179504 0.856593
Si Si8 0.915694 0.512194 0.832947
O O1 0.269145 0.322009 0.373078
O O2 0.040411 0.333391 0.284081
O O3 0.893426 0.298163 0.449696
O O4 0.285984 0.997947 0.043718
O O5 0.308907 0.657942 0.697071
O O6 0.124675 0.476579 0.687600
O O7 0.488152 0.668090 0.339939
O O8 0.485524 0.383980 0.226684
O O9 0.270859 0.475897 0.188621
O O10 0.604382 0.258330 0.758172
O O11 0.500000 0.000000 0.500000
O O12 0.830683 0.029167 0.386327
O O13 0.105977 0.834719 0.033625
O O14 0.189232 0.741261 0.120472
O O15 0.056249 0.659115 0.241708
O O16 0.000000 0.000000 0.500000
O O17 0.117280 0.311077 0.952472
#
# Coordination Sequence:
#
# PCOD9099126 Si02
#       8
#     2   2   2   2   2   2   2   2
#     4  10  20  44  65  84 130 159 200 258 312 350
#     4   9  21  38  65  94 116 167 203 250 307 371
#     4  10  22  40  60  91 124 159 202 253 300 369
#     4  10  21  38  56  83 126 159 200 253 299 354
#     4  11  22  39  64  93 121 160 210 245 309 368
#     4   9  19  33  57  83 115 161 200 242 299 362
#     4  10  20  37  59  86 114 165 197 245 311 350
#     4   9  19  37  58  84 126 148 204 252 293 369
#
# _framework density 24.384294000000001
#
# number of rings (size 3 to 8) (size 9 to 14) (size 15 to 20)
#    0.000    2.250    1.250    0.750    1.750    6.500 
#    2.250    8.125    0.000    0.000    0.000    0.000 
#    0.000    0.000    0.000    0.000    0.000    0.000 
#
# Total GULP energy -89175.978098 kJ/mol
# GULP energy per Si atom -5573.498631 kJ/mol
# Density = 2.432879 g / cm^3
# Si number density = 24.384294 Si / 1000 Ang^3
#
#
#
# Elastic Constant Matrix: (Units=GPa)
#
#
# Indices 1 2 3 4 5 6 
#
# 1 64.3389 0.6068 28.2245 10.9678 22.4050 -2.9750
# 2 0.6068 88.1268 31.0762 21.2140 15.0722 4.5818
# 3 28.2245 31.0762 152.4101 24.2408 16.3164 -15.4912
# 4 10.9678 21.2140 24.2408 42.9932 -2.8506 5.7739
# 5 22.4050 15.0722 16.3164 -2.8506 39.1143 -4.1828
# 6 -2.9750 4.5818 -15.4912 5.7739 -4.1828 37.6541
#
#
#
# Elastic Compliance Matrix: (Units=1/GPa)
#
#
# Indices 1 2 3 4 5 6 
#
# 1 0.023094 0.005191 -0.002508 -0.007985 -0.014792 -0.000257
# 2 0.005191 0.015663 -0.002111 -0.008173 -0.008949 -0.002105
# 3 -0.002508 -0.002111 0.008596 -0.003787 -0.001179 0.004045
# 4 -0.007985 -0.008173 -0.003787 0.032875 0.011165 -0.004995
# 5 -0.014792 -0.008949 -0.001179 0.011165 0.039013 0.002057
# 6 -0.000257 -0.002105 0.004045 -0.004995 0.002057 0.029452
#
#
# Mechanical properties :
#
#
# Convention : Reuss Voigt Hill
#
# Bulk Modulus (GPa) = 20.61967 47.18786 33.90376
# Shear Modulus (GPa) = 30.54079 40.28354 35.41217
#
# Velocity S-wave (km/s) = 3.54288 4.06892 3.81498
# Velocity P-wave (km/s) = 5.02100 6.43961 5.77404
#
# Compressibility (1/GPa) = 0.04849738
#
# Stress axis : x y z
#
# Youngs Moduli (GPa) = 43.30084 63.84290 116.33782
#
# Poissons Ratio (x) = -0.33139 0.29174
# Poissons Ratio (y) = -0.22476 0.24558
# Poissons Ratio (z) = 0.10859 0.13477
#
# Static dielectric constant tensor:
#      x y z
#    x 2.047930 0.051990 -0.009370 
#    y 0.051990 1.968320 -0.042080 
#    z -0.009370 -0.042080 2.143330 
# 
# From -- ./inp_files/505753.got.cif
#   From: 2010.05.17/outbox.cif.g08.bks.cpg/sg2_253_cif.got.tgz:505753.got - 2010.06.03 11:33:40.
