data_PCOD9099871
_publ_section_title
;
Structure prediction by ZEFSAII (Michael W. Deem and Ramdas Pophale) SiO2 
 PCOD9099871
Probable space group: P -1
;
_chemical_formula_sum "Si O2"
_cell_formula_units_Z 16
_cell_length_a 8.896732
_cell_length_b 9.744285
_cell_length_c 10.456303
_cell_angle_alpha 98.734766
_cell_angle_beta 77.281665
_cell_angle_gamma 118.308179
_cell_volume 777.303509
_symmetry_space_group_name_H-M "P -1"
_symmetry_group_IT_number 2
_symmetry_cell_setting 'triclinic'
loop_
_space_group_symop_operation_xyz
x,y,z
-x,-y,-z
loop_
_atom_site_type_symbol
_atom_site_label
_atom_site_fract_x
_atom_site_fract_y
_atom_site_fract_z
Si Si1 0.423773 0.671812 0.274986
Si Si2 0.247268 0.128309 0.261122
Si Si3 0.283308 0.412411 0.879391
Si Si4 0.150604 0.636625 0.905732
Si Si5 0.957577 0.807113 0.294619
Si Si6 0.842326 0.623629 0.820096
Si Si7 0.298090 0.847768 0.147920
Si Si8 0.395483 0.314751 0.509354
O O1 0.546380 0.599762 0.188593
O O2 0.235455 0.521953 0.283029
O O3 0.426248 0.803725 0.197862
O O4 0.501277 0.730599 0.408926
O O5 0.204176 0.242879 0.200201
O O6 0.363762 0.222064 0.371012
O O7 0.330517 0.026386 0.164268
O O8 0.059451 0.992081 0.321426
O O9 0.263511 0.550909 0.829011
O O10 0.128098 0.248432 0.837169
O O11 0.260633 0.435331 0.035020
O O12 0.042684 0.675811 0.825417
O O13 0.258319 0.773837 0.004258
O O14 0.000000 0.500000 0.000000
O O15 0.796790 0.727684 0.407402
O O16 0.117060 0.765316 0.252603
O O17 0.500000 0.500000 0.500000
#
# Coordination Sequence:
#
# PCOD9099871 Si02
#       8
#     2   2   2   2   2   2   2   2
#     4  11  21  35  62  83 118 159 199 236 299 342
#     4  10  22  38  60  86 123 154 195 245 293 342
#     4  10  19  33  60  91 116 154 197 241 293 348
#     4  10  16  31  57  88 120 148 196 242 282 353
#     4   9  20  38  61  82 120 151 194 239 299 341
#     4  11  18  33  60  86 119 152 195 240 292 349
#     4  10  20  36  58  88 116 158 193 237 297 353
#     4  11  22  40  62  86 113 157 202 249 283 348
#
# _framework density 20.583981999999999
#
# number of rings (size 3 to 8) (size 9 to 14) (size 15 to 20)
#    0.750    1.000    6.250    0.750    0.000    2.500 
#    0.000    1.250    8.250    0.000    0.000    0.000 
#    0.000    0.000    0.000    0.000    0.000    0.000 
#
# Total GULP energy -89123.071185 kJ/mol
# GULP energy per Si atom -5570.191949 kJ/mol
# Density = 2.053713 g / cm^3
# Si number density = 20.583982 Si / 1000 Ang^3
#
#
#
# Elastic Constant Matrix: (Units=GPa)
#
#
# Indices 1 2 3 4 5 6 
#
# 1 93.3465 48.0525 42.1445 2.3166 32.5137 -31.4782
# 2 48.0525 102.8269 31.9775 17.7025 24.1223 -17.2477
# 3 42.1445 31.9775 58.7401 17.8867 37.1027 -3.3012
# 4 2.3166 17.7025 17.8867 26.8510 7.9736 7.4623
# 5 32.5137 24.1223 37.1027 7.9736 39.5087 -8.0344
# 6 -31.4782 -17.2477 -3.3012 7.4623 -8.0344 43.8021
#
#
#
# Elastic Compliance Matrix: (Units=1/GPa)
#
#
# Indices 1 2 3 4 5 6 
#
# 1 0.026104 -0.006136 -0.016856 0.009703 -0.001180 0.013204
# 2 -0.006136 0.015093 0.000999 -0.010157 -0.002467 0.002887
# 3 -0.016856 0.000999 0.062531 -0.025331 -0.042481 -0.010484
# 4 0.009703 -0.010157 -0.025331 0.059559 0.008453 -0.007532
# 5 -0.001180 -0.002467 -0.042481 0.008453 0.067168 0.005859
# 6 0.013204 0.002887 -0.010484 -0.007532 0.005859 0.035023
#
#
# Mechanical properties :
#
#
# Convention : Reuss Voigt Hill
#
# Bulk Modulus (GPa) = 16.73847 55.47361 36.10604
# Shear Modulus (GPa) = 15.18006 30.88161 23.03084
#
# Velocity S-wave (km/s) = 2.71859 3.87754 3.34858
# Velocity P-wave (km/s) = 4.24308 6.85970 5.70347
#
# Compressibility (1/GPa) = 0.05974260
#
# Stress axis : x y z
#
# Youngs Moduli (GPa) = 38.30762 66.25449 15.99201
#
# Poissons Ratio (x) = 0.40653 0.26957
# Poissons Ratio (y) = 0.23505 -0.01598
# Poissons Ratio (z) = 0.64573 -0.06619
#
# Static dielectric constant tensor:
#      x y z
#    x 1.821840 0.015410 -0.004590 
#    y 0.015410 1.759260 0.001530 
#    z -0.004590 0.001530 1.766080 
# 
# From -- ./inp_files/379565.got.cif
#   From: 2010.05.17/outbox.cif.g08.bks.cpg/sg2_190_cif.got.tgz:379565.got - 2010.06.03 11:33:40.
