data_PCOD9099818
_publ_section_title
;
Structure prediction by ZEFSAII (Michael W. Deem and Ramdas Pophale) SiO2 
 PCOD9099818
Probable space group: P -1
;
_chemical_formula_sum "Si O2"
_cell_formula_units_Z 16
_cell_length_a 19.065901
_cell_length_b 15.901662
_cell_length_c 9.280795
_cell_angle_alpha 149.665753
_cell_angle_beta 31.166202
_cell_angle_gamma 150.370657
_cell_volume 636.849990
_symmetry_space_group_name_H-M "P -1"
_symmetry_group_IT_number 2
_symmetry_cell_setting 'triclinic'
loop_
_space_group_symop_operation_xyz
x,y,z
-x,-y,-z
loop_
_atom_site_type_symbol
_atom_site_label
_atom_site_fract_x
_atom_site_fract_y
_atom_site_fract_z
Si Si1 0.298283 0.482774 0.289471
Si Si2 0.952759 0.234950 0.610912
Si Si3 0.153885 0.915469 0.111770
Si Si4 0.642790 0.704368 0.506376
Si Si5 0.758175 0.185688 0.630379
Si Si6 0.639335 0.217318 0.603424
Si Si7 0.563133 0.762490 0.424812
Si Si8 0.975797 0.869081 0.072551
O O1 0.118030 0.403778 0.517694
O O2 0.377880 0.627128 0.228709
O O3 0.393651 0.599400 0.433236
O O4 0.324264 0.304897 0.948127
O O5 0.929077 0.210598 0.787507
O O6 0.818670 0.250473 0.781993
O O7 0.952887 0.034807 0.283046
O O8 0.055407 0.942364 0.197790
O O9 0.288618 0.125722 0.243003
O O10 0.220544 0.795579 0.737605
O O11 0.500000 0.500000 0.500000
O O12 0.585366 0.773824 0.572478
O O13 0.799094 0.704470 0.175409
O O14 0.691044 0.272142 0.759294
O O15 0.615768 0.969115 0.574834
O O16 0.911159 0.186279 0.293287
O O17 0.500000 0.000000 0.500000
#
# Coordination Sequence:
#
# PCOD9099818 Si02
#       8
#     2   2   2   2   2   2   2   2
#     4  11  25  38  66  91 125 162 209 261 301 368
#     4  11  20  38  64  92 123 157 213 260 303 362
#     4  10  24  40  63  89 128 169 203 249 322 371
#     4  11  23  35  61  99 131 152 203 267 310 358
#     4  11  20  41  67  91 123 165 208 252 312 372
#     4  11  25  44  62  87 129 171 202 250 318 375
#     4  11  22  39  65 100 118 160 213 257 306 364
#     4  10  20  37  61  94 127 164 199 254 316 362
#
# _framework density 25.123656
#
# number of rings (size 3 to 8) (size 9 to 14) (size 15 to 20)
#    0.000    1.250    5.000    2.625    5.250    1.000 
#    0.000    2.500    0.000    0.000    0.000    0.000 
#    0.000    0.000    0.000    0.000    0.000    0.000 
#
# Total GULP energy -89521.586431 kJ/mol
# GULP energy per Si atom -5595.099152 kJ/mol
# Density = 2.506647 g / cm^3
# Si number density = 25.123656 Si / 1000 Ang^3
#
#
#
# Elastic Constant Matrix: (Units=GPa)
#
#
# Indices 1 2 3 4 5 6 
#
# 1 183.8863 35.7222 2.3458 9.2839 22.5392 4.3376
# 2 35.7222 131.6407 2.8080 1.9002 6.2952 -0.2542
# 3 2.3458 2.8080 39.9104 1.4502 10.4486 -6.7826
# 4 9.2839 1.9002 1.4502 23.4178 -4.8246 5.3960
# 5 22.5392 6.2952 10.4486 -4.8246 24.7273 2.9623
# 6 4.3376 -0.2542 -6.7826 5.3960 2.9623 39.6072
#
#
#
# Elastic Compliance Matrix: (Units=1/GPa)
#
#
# Indices 1 2 3 4 5 6 
#
# 1 0.006847 -0.001467 0.002005 -0.004479 -0.007681 0.000769
# 2 -0.001467 0.008037 -0.000247 -0.000255 -0.000684 0.000256
# 3 0.002005 -0.000247 0.031059 -0.007996 -0.017346 0.007484
# 4 -0.004479 -0.000255 -0.007996 0.050942 0.018569 -0.009209
# 5 -0.007681 -0.000684 -0.017346 0.018569 0.059662 -0.009126
# 6 0.000769 0.000256 0.007484 -0.009209 -0.009126 0.028384
#
#
# Mechanical properties :
#
#
# Convention : Reuss Voigt Hill
#
# Bulk Modulus (GPa) = 21.49427 48.57662 35.03544
# Shear Modulus (GPa) = 25.01768 38.52123 31.76945
#
# Velocity S-wave (km/s) = 3.15902 3.91994 3.55987
# Velocity P-wave (km/s) = 4.67759 6.31387 5.55629
#
# Compressibility (1/GPa) = 0.04652402
#
# Stress axis : x y z
#
# Youngs Moduli (GPa) = 146.04769 124.42759 32.19652
#
# Poissons Ratio (x) = 0.18258 -0.06456
# Poissons Ratio (y) = 0.21430 0.00796
# Poissons Ratio (z) = -0.29283 0.03077
#
# Static dielectric constant tensor:
#      x y z
#    x 1.974980 0.013460 0.023870 
#    y 0.013460 1.952800 -0.012040 
#    z 0.023870 -0.012040 2.058550 
# 
# From -- ./inp_files/209278.got.cif
#   From: 2010.05.17/outbox.cif.g08.bks.cpg/sg2_105_cif.got.tgz:209278.got - 2010.06.03 11:33:40.
