data_PCOD9099660
_publ_section_title
;
Structure prediction by ZEFSAII (Michael W. Deem and Ramdas Pophale) SiO2 
 PCOD9099660
Probable space group: P -1
;
_chemical_formula_sum "Si O2"
_cell_formula_units_Z 16
_cell_length_a 20.763251
_cell_length_b 9.523068
_cell_length_c 8.777129
_cell_angle_alpha 148.368714
_cell_angle_beta 60.746249
_cell_angle_gamma 117.608269
_cell_volume 789.841331
_symmetry_space_group_name_H-M "P -1"
_symmetry_group_IT_number 2
_symmetry_cell_setting 'triclinic'
loop_
_space_group_symop_operation_xyz
x,y,z
-x,-y,-z
loop_
_atom_site_type_symbol
_atom_site_label
_atom_site_fract_x
_atom_site_fract_y
_atom_site_fract_z
Si Si1 0.173386 0.046928 0.444889
Si Si2 0.210393 0.245135 0.931634
Si Si3 0.576029 0.503079 0.508519
Si Si4 0.924157 0.517417 0.015143
Si Si5 0.046414 0.278941 0.170143
Si Si6 0.692108 0.193207 0.611165
Si Si7 0.547666 0.280972 0.672146
Si Si8 0.663174 0.056464 0.859550
O O1 0.192052 0.134930 0.679683
O O2 0.118868 0.773595 0.240849
O O3 0.252701 0.986785 0.231795
O O4 0.131079 0.294758 0.662884
O O5 0.260714 0.020156 0.725619
O O6 0.130802 0.270754 0.123269
O O7 0.255527 0.539157 0.152807
O O8 0.500000 0.500000 0.500000
O O9 0.560041 0.357437 0.552809
O O10 0.609912 0.812102 0.765739
O O11 0.635801 0.337738 0.201440
O O12 0.946050 0.659062 0.960242
O O13 0.000000 0.500000 0.000000
O O14 0.000000 0.500000 0.500000
O O15 0.000000 0.000000 0.000000
O O16 0.626172 0.276224 0.660674
O O17 0.659798 0.054119 0.676491
O O18 0.500000 0.000000 0.500000
O O19 0.500000 0.500000 0.000000
#
# Coordination Sequence:
#
# PCOD9099660 Si02
#       8
#     2   2   2   2   2   2   2   2
#     4  10  20  38  62  87 117 157 198 241 294 358
#     4  10  20  37  61  88 116 156 201 242 291 358
#     4  12  24  40  61  90 121 154 194 242 290 347
#     4  11  22  39  60  88 120 158 200 243 293 354
#     4  11  21  37  58  85 117 156 199 246 292 346
#     4  11  21  39  64  88 114 155 201 244 293 353
#     4  12  25  43  62  88 123 160 194 239 294 353
#     4  11  21  39  63  88 113 152 199 245 290 345
#
# _framework density 20.257231000000001
#
# number of rings (size 3 to 8) (size 9 to 14) (size 15 to 20)
#    0.000    1.000    0.000   11.250    0.000    0.000 
#    0.000    7.500    0.000    0.000    0.000    0.000 
#    0.000    0.000    0.000    0.000    0.000    0.000 
#
# Total GULP energy -89417.960414 kJ/mol
# GULP energy per Si atom -5588.622526 kJ/mol
# Density = 2.021113 g / cm^3
# Si number density = 20.257231 Si / 1000 Ang^3
#
#
#
# Elastic Constant Matrix: (Units=GPa)
#
#
# Indices 1 2 3 4 5 6 
#
# 1 137.9141 42.6741 30.8094 3.2936 -25.4671 3.9539
# 2 42.6741 87.4894 22.2921 16.0928 11.7355 5.2573
# 3 30.8094 22.2921 114.0658 17.0650 -29.3985 8.0410
# 4 3.2936 16.0928 17.0650 44.7473 16.7160 3.8193
# 5 -25.4671 11.7355 -29.3985 16.7160 46.3529 6.6774
# 6 3.9539 5.2573 8.0410 3.8193 6.6774 30.6064
#
#
#
# Elastic Compliance Matrix: (Units=1/GPa)
#
#
# Indices 1 2 3 4 5 6 
#
# 1 0.010805 -0.006302 0.001316 -0.002403 0.009586 -0.002451
# 2 -0.006302 0.017025 -0.004521 -0.000006 -0.010846 0.001445
# 3 0.001316 -0.004521 0.015229 -0.009716 0.015843 -0.005638
# 4 -0.002403 -0.000006 -0.009716 0.033434 -0.019977 0.003050
# 5 0.009586 -0.010846 0.015843 -0.019977 0.048514 -0.011629
# 6 -0.002451 0.001445 -0.005638 0.003050 -0.011629 0.036379
#
#
# Mechanical properties :
#
#
# Convention : Reuss Voigt Hill
#
# Bulk Modulus (GPa) = 41.59035 59.00226 50.29630
# Shear Modulus (GPa) = 26.53706 40.58757 33.56231
#
# Velocity S-wave (km/s) = 3.62332 4.48102 4.07480
# Velocity P-wave (km/s) = 6.17093 7.48081 6.85722
#
# Compressibility (1/GPa) = 0.02404404
#
# Stress axis : x y z
#
# Youngs Moduli (GPa) = 92.55246 58.73660 65.66343
#
# Poissons Ratio (x) = 0.37016 -0.08642
# Poissons Ratio (y) = 0.58328 0.29689
# Poissons Ratio (z) = -0.12181 0.26558
#
# Static dielectric constant tensor:
#      x y z
#    x 1.725470 0.027810 -0.054330 
#    y 0.027810 1.667140 0.008710 
#    z -0.054330 0.008710 1.692280 
# 
# From -- ./inp_files/343970.got.cif
#   From: 2010.05.17/outbox.cif.g08.bks.cpg/sg2_172_cif.got.tgz:343970.got - 2010.06.03 11:33:40.
