data_PCOD9099049
_publ_section_title
;
Structure prediction by ZEFSAII (Michael W. Deem and Ramdas Pophale) SiO2 
 PCOD9099049
Probable space group: P -1
;
_chemical_formula_sum "Si O2"
_cell_formula_units_Z 16
_cell_length_a 12.378696
_cell_length_b 5.220872
_cell_length_c 11.623932
_cell_angle_alpha 88.356746
_cell_angle_beta 80.932736
_cell_angle_gamma 111.803606
_cell_volume 685.647050
_symmetry_space_group_name_H-M "P -1"
_symmetry_group_IT_number 2
_symmetry_cell_setting 'triclinic'
loop_
_space_group_symop_operation_xyz
x,y,z
-x,-y,-z
loop_
_atom_site_type_symbol
_atom_site_label
_atom_site_fract_x
_atom_site_fract_y
_atom_site_fract_z
Si Si1 0.351501 0.101640 0.578645
Si Si2 0.022061 0.527093 0.284755
Si Si3 0.540452 0.286693 0.339109
Si Si4 0.666606 0.795886 0.758305
Si Si5 0.833055 0.692140 0.383708
Si Si6 0.150204 0.990204 0.084613
Si Si7 0.099927 0.962286 0.838558
Si Si8 0.765496 0.401177 0.622161
O O1 0.436600 0.147343 0.453512
O O2 0.399173 0.397614 0.634380
O O3 0.222234 0.091617 0.563531
O O4 0.374358 0.881811 0.661317
O O5 0.968052 0.712326 0.365548
O O6 0.915694 0.283226 0.244625
O O7 0.101795 0.700390 0.164444
O O8 0.102879 0.427700 0.354046
O O9 0.471388 0.256462 0.231051
O O10 0.683564 0.547186 0.688481
O O11 0.732518 0.821445 0.869045
O O12 0.732710 0.095876 0.682602
O O13 0.766330 0.435268 0.484237
O O14 0.833654 0.752722 0.245167
O O15 0.161867 0.955720 0.947735
O O16 0.037189 0.079656 0.115027
#
# Coordination Sequence:
#
# PCOD9099049 Si02
#       8
#     2   2   2   2   2   2   2   2
#     4  10  22  36  57  85 117 149 194 240 286 356
#     4  10  21  36  56  87 119 161 190 239 285 347
#     4  10  21  37  59  83 113 152 195 242 291 336
#     4  11  21  39  62  86 116 157 192 248 289 338
#     4  11  24  35  55  88 121 159 185 238 297 357
#     4   9  20  38  58  86 112 152 208 239 278 342
#     4  10  20  37  59  82 118 156 198 237 286 340
#     4  11  23  36  57  90 125 153 192 227 296 362
#
# _framework density 23.335623999999999
#
# number of rings (size 3 to 8) (size 9 to 14) (size 15 to 20)
#    0.000    1.750    2.500    1.500    7.000    0.500 
#    0.000    0.000    0.000    1.500    0.000    0.000 
#    0.000    0.000    0.000    0.000    0.000    0.000 
#
# Total GULP energy -89153.899900 kJ/mol
# GULP energy per Si atom -5572.118744 kJ/mol
# Density = 2.328251 g / cm^3
# Si number density = 23.335624 Si / 1000 Ang^3
#
#
#
# Elastic Constant Matrix: (Units=GPa)
#
#
# Indices 1 2 3 4 5 6 
#
# 1 91.5755 17.0813 22.6236 8.8001 29.4930 -28.0571
# 2 17.0813 57.1981 27.3826 0.9359 13.5661 -14.2981
# 3 22.6236 27.3826 72.6841 2.0583 35.2822 3.0180
# 4 8.8001 0.9359 2.0583 18.2288 4.1638 8.0133
# 5 29.4930 13.5661 35.2822 4.1638 38.8475 2.2637
# 6 -28.0571 -14.2981 3.0180 8.0133 2.2637 34.5085
#
#
#
# Elastic Compliance Matrix: (Units=1/GPa)
#
#
# Indices 1 2 3 4 5 6 
#
# 1 0.031049 0.006194 -0.001021 -0.025207 -0.024166 0.035339
# 2 0.006194 0.026807 -0.010231 -0.010858 -0.004766 0.019872
# 3 -0.001021 -0.010231 0.028732 0.006114 -0.021962 -0.007561
# 4 -0.025207 -0.010858 0.006114 0.084554 0.010987 -0.045883
# 5 -0.024166 -0.004766 -0.021962 0.010987 0.066071 -0.026587
# 6 0.035339 0.019872 -0.007561 -0.045883 -0.026587 0.079004
#
#
# Mechanical properties :
#
#
# Convention : Reuss Voigt Hill
#
# Bulk Modulus (GPa) = 13.07668 39.51474 26.29571
# Shear Modulus (GPa) = 14.21172 28.60832 21.41002
#
# Velocity S-wave (km/s) = 2.47050 3.50516 3.03228
# Velocity P-wave (km/s) = 3.70860 5.77507 4.85310
#
# Compressibility (1/GPa) = 0.07647201
#
# Stress axis : x y z
#
# Youngs Moduli (GPa) = 32.20710 37.30396 34.80473
#
# Poissons Ratio (x) = -0.23107 0.03553
# Poissons Ratio (y) = -0.19950 0.35609
# Poissons Ratio (z) = 0.03288 0.38166
#
# Static dielectric constant tensor:
#      x y z
#    x 1.958630 0.039250 0.031280 
#    y 0.039250 1.988510 0.027670 
#    z 0.031280 0.027670 1.858190 
# 
# From -- ./inp_files/95373.got.cif
#   From: 2010.05.17/outbox.cif.g08.bks.cpg/sg2_48_cif.got.tgz:95373.got - 2010.06.03 11:33:40.
