data_PCOD9099184
_publ_section_title
;
Structure prediction by ZEFSAII (Michael W. Deem and Ramdas Pophale) SiO2 
 PCOD9099184
Probable space group: P -1
;
_chemical_formula_sum "Si O2"
_cell_formula_units_Z 16
_cell_length_a 9.027957
_cell_length_b 16.820059
_cell_length_c 7.105703
_cell_angle_alpha 59.681728
_cell_angle_beta 90.943176
_cell_angle_gamma 128.820950
_cell_volume 649.497146
_symmetry_space_group_name_H-M "P -1"
_symmetry_group_IT_number 2
_symmetry_cell_setting 'triclinic'
loop_
_space_group_symop_operation_xyz
x,y,z
-x,-y,-z
loop_
_atom_site_type_symbol
_atom_site_label
_atom_site_fract_x
_atom_site_fract_y
_atom_site_fract_z
Si Si1 0.726486 0.866780 0.438842
Si Si2 0.044585 0.480418 0.733467
Si Si3 0.287101 0.754373 0.488174
Si Si4 0.690455 0.046253 0.574437
Si Si5 0.487233 0.394184 0.886622
Si Si6 0.500781 0.599250 0.664042
Si Si7 0.943472 0.860738 0.794751
Si Si8 0.393590 0.756968 0.055516
O O1 0.502737 0.818453 0.521198
O O2 0.667434 0.754922 0.439437
O O3 0.812062 0.867423 0.639466
O O4 0.913853 0.018468 0.200718
O O5 0.098021 0.597508 0.711781
O O6 0.262880 0.520353 0.692432
O O7 0.000000 0.500000 0.500000
O O8 0.831618 0.328167 0.956507
O O9 0.246747 0.843088 0.416830
O O10 0.348724 0.763905 0.261460
O O11 0.888516 0.114152 0.365057
O O12 0.500000 0.000000 0.500000
O O13 0.591728 0.910123 0.825224
O O14 0.577083 0.534448 0.671124
O O15 0.568412 0.335088 0.870855
O O16 0.510580 0.403306 0.103927
O O17 0.237716 0.285935 0.959093
#
# Coordination Sequence:
#
# PCOD9099184 Si02
#       8
#     2   2   2   2   2   2   2   2
#     4   9  17  36  60  84 118 157 195 251 300 361
#     4   9  21  40  62  88 127 169 200 252 310 369
#     4  10  22  42  62  90 127 164 202 251 316 368
#     4  12  24  39  64  93 118 164 208 257 308 363
#     4  10  22  38  60  92 124 162 204 260 306 362
#     4   9  19  36  60  88 120 156 210 251 299 361
#     4  10  20  37  59  88 124 152 208 254 302 357
#     4  11  24  42  60  92 130 162 206 256 311 372
#
# _framework density 24.634443000000001
#
# number of rings (size 3 to 8) (size 9 to 14) (size 15 to 20)
#    0.000    2.000    1.250    2.625    3.500    3.500 
#    0.000   10.625    0.000    0.000    0.000    0.000 
#    0.000    0.000    0.000    0.000    0.000    0.000 
#
# Total GULP energy -89366.025391 kJ/mol
# GULP energy per Si atom -5585.376587 kJ/mol
# Density = 2.457837 g / cm^3
# Si number density = 24.634443 Si / 1000 Ang^3
#
#
#
# Elastic Constant Matrix: (Units=GPa)
#
#
# Indices 1 2 3 4 5 6 
#
# 1 117.3479 71.2068 22.6543 -17.2245 -1.1593 -29.3739
# 2 71.2068 133.7989 35.4181 -17.9115 6.4121 -10.8604
# 3 22.6543 35.4181 52.1999 -13.7471 -6.2578 -13.3553
# 4 -17.2245 -17.9115 -13.7471 43.7177 -7.9383 -5.8761
# 5 -1.1593 6.4121 -6.2578 -7.9383 23.7375 -14.4018
# 6 -29.3739 -10.8604 -13.3553 -5.8761 -14.4018 53.8869
#
#
#
# Elastic Compliance Matrix: (Units=1/GPa)
#
#
# Indices 1 2 3 4 5 6 
#
# 1 0.020039 -0.011011 0.009407 0.012746 0.021763 0.018242
# 2 -0.011011 0.015674 -0.012429 -0.006403 -0.016956 -0.011153
# 3 0.009407 -0.012429 0.039518 0.020832 0.035941 0.024294
# 4 0.012746 -0.006403 0.020832 0.042001 0.037278 0.025363
# 5 0.021763 -0.016956 0.035941 0.037278 0.098713 0.047800
# 6 0.018242 -0.011153 0.024294 0.025363 0.047800 0.047815
#
#
# Mechanical properties :
#
#
# Convention : Reuss Voigt Hill
#
# Bulk Modulus (GPa) = 21.20187 62.43389 41.81788
# Shear Modulus (GPa) = 16.25765 35.87292 26.06529
#
# Velocity S-wave (km/s) = 2.57175 3.82017 3.25635
# Velocity P-wave (km/s) = 4.17658 6.69757 5.58127
#
# Compressibility (1/GPa) = 0.04716565
#
# Stress axis : x y z
#
# Youngs Moduli (GPa) = 49.90292 63.80023 25.30471
#
# Poissons Ratio (x) = 0.70248 -0.23804
# Poissons Ratio (y) = 0.54946 0.31451
# Poissons Ratio (z) = -0.46942 0.79296
#
# Static dielectric constant tensor:
#      x y z
#    x 1.956650 -0.012410 0.025510 
#    y -0.012410 2.016140 -0.030830 
#    z 0.025510 -0.030830 2.102260 
# 
# From -- ./inp_files/217071.got.cif
#   From: 2010.05.17/outbox.cif.g08.bks.cpg/sg2_109_cif.got.tgz:217071.got - 2010.06.03 11:33:40.
