data_PCOD9099847
_publ_section_title
;
Structure prediction by ZEFSAII (Michael W. Deem and Ramdas Pophale) SiO2 
 PCOD9099847
Probable space group: P -1
;
_chemical_formula_sum "Si O2"
_cell_formula_units_Z 14
_cell_length_a 8.851718
_cell_length_b 13.185160
_cell_length_c 13.665802
_cell_angle_alpha 48.898888
_cell_angle_beta 45.436174
_cell_angle_gamma 84.159359
_cell_volume 635.943759
_symmetry_space_group_name_H-M "P -1"
_symmetry_group_IT_number 2
_symmetry_cell_setting 'triclinic'
loop_
_space_group_symop_operation_xyz
x,y,z
-x,-y,-z
loop_
_atom_site_type_symbol
_atom_site_label
_atom_site_fract_x
_atom_site_fract_y
_atom_site_fract_z
Si Si1 0.046458 0.106432 0.226249
Si Si2 0.463761 0.794549 0.928447
Si Si3 0.229033 0.305622 0.368394
Si Si4 0.192685 0.815123 0.216164
Si Si5 0.798309 0.516237 0.909891
Si Si6 0.952892 0.989838 0.143919
Si Si7 0.655382 0.133543 0.502409
O O1 0.138293 0.147494 0.043780
O O2 0.824193 0.127040 0.344065
O O3 0.300752 0.198921 0.130030
O O4 0.891137 0.895859 0.444418
O O5 0.595820 0.990676 0.701509
O O6 0.256528 0.743930 0.143993
O O7 0.309284 0.653570 0.999112
O O8 0.214308 0.357518 0.233426
O O9 0.019118 0.315042 0.517673
O O10 0.567096 0.438350 0.150827
O O11 0.010913 0.861315 0.227333
O O12 0.500000 0.000000 0.000000
O O13 0.125906 0.655108 0.702206
O O14 0.645036 0.924383 0.344167
O O15 0.000000 0.000000 0.000000
#
# Coordination Sequence:
#
# PCOD9099847 Si02
#       7
#     2   2   2   2   2   2   2
#     4  11  21  40  68  97 127 179 219 267 325 383
#     4  12  22  40  73  97 132 171 224 271 322 390
#     4  10  20  37  61  98 131 160 226 264 317 383
#     4  11  21  42  68  96 128 174 224 272 324 390
#     4  11  23  38  65 103 133 169 217 275 323 385
#     4  11  24  40  68  98 130 178 222 264 334 395
#     4  12  23  43  67 100 136 170 217 272 331 394
#
# _framework density 22.014527999999999
#
# number of rings (size 3 to 8) (size 9 to 14) (size 15 to 20)
#    0.000    0.857    7.143    2.571    0.000    0.571 
#    0.000    5.000    6.286    0.000    0.000    0.000 
#    0.000    0.000    0.000    0.000    0.000    0.000 
#
# Total GULP energy -78025.861024 kJ/mol
# GULP energy per Si atom -5573.275787 kJ/mol
# Density = 2.196442 g / cm^3
# Si number density = 22.014528 Si / 1000 Ang^3
#
#
#
# Elastic Constant Matrix: (Units=GPa)
#
#
# Indices 1 2 3 4 5 6 
#
# 1 54.8467 13.4789 20.9201 8.9024 -12.2233 -0.8083
# 2 13.4789 105.0635 67.9386 21.5678 -2.7954 4.0479
# 3 20.9201 67.9386 97.9981 19.3769 -7.9461 14.4755
# 4 8.9024 21.5678 19.3769 48.1521 4.2431 -2.9235
# 5 -12.2233 -2.7954 -7.9461 4.2431 31.2967 13.6091
# 6 -0.8083 4.0479 14.4755 -2.9235 13.6091 29.7369
#
#
#
# Elastic Compliance Matrix: (Units=1/GPa)
#
#
# Indices 1 2 3 4 5 6 
#
# 1 0.022044 0.000205 -0.002828 -0.004062 0.009722 -0.002901
# 2 0.000205 0.018317 -0.013460 -0.002145 -0.003853 0.005617
# 3 -0.002828 -0.013460 0.024486 -0.005292 0.011577 -0.015982
# 4 -0.004062 -0.002145 -0.005292 0.026235 -0.011235 0.010479
# 5 0.009722 -0.003853 0.011577 -0.011235 0.053004 -0.030209
# 6 -0.002901 0.005617 -0.015982 0.010479 -0.030209 0.055420
#
#
# Mechanical properties :
#
#
# Convention : Reuss Voigt Hill
#
# Bulk Modulus (GPa) = 30.59970 51.39816 40.99893
# Shear Modulus (GPa) = 20.61291 32.20852 26.41072
#
# Velocity S-wave (km/s) = 3.06327 3.82914 3.46742
# Velocity P-wave (km/s) = 5.14213 6.55346 5.89022
#
# Compressibility (1/GPa) = 0.03268006
#
# Stress axis : x y z
#
# Youngs Moduli (GPa) = 45.36329 54.59315 40.84050
#
# Poissons Ratio (x) = -0.01118 0.11549
# Poissons Ratio (y) = -0.00929 0.54973
# Poissons Ratio (z) = 0.12828 0.73485
#
# Static dielectric constant tensor:
#      x y z
#    x 1.942940 0.135760 0.121310 
#    y 0.135760 1.921180 0.131600 
#    z 0.121310 0.131600 2.069590 
# 
# From -- ./inp_files/501725.got.cif
#   From: 2010.05.17/outbox.cif.g08.bks.cpg/sg2_251_cif.got.tgz:501725.got - 2010.06.03 11:33:40.
