data_PCOD9099648
_publ_section_title
;
Structure prediction by ZEFSAII (Michael W. Deem and Ramdas Pophale) SiO2 
 PCOD9099648
Probable space group: P -1
;
_chemical_formula_sum "Si O2"
_cell_formula_units_Z 16
_cell_length_a 11.956936
_cell_length_b 11.102951
_cell_length_c 12.313550
_cell_angle_alpha 56.555063
_cell_angle_beta 148.645489
_cell_angle_gamma 106.737084
_cell_volume 643.874072
_symmetry_space_group_name_H-M "P -1"
_symmetry_group_IT_number 2
_symmetry_cell_setting 'triclinic'
loop_
_space_group_symop_operation_xyz
x,y,z
-x,-y,-z
loop_
_atom_site_type_symbol
_atom_site_label
_atom_site_fract_x
_atom_site_fract_y
_atom_site_fract_z
Si Si1 0.761076 0.576731 0.610579
Si Si2 0.560005 0.865544 0.951776
Si Si3 0.061601 0.697622 0.663420
Si Si4 0.234314 0.282494 0.224758
Si Si5 0.088228 0.690451 0.444995
Si Si6 0.493166 0.480169 0.274439
Si Si7 0.231046 0.943004 0.832032
Si Si8 0.830349 0.001101 0.619910
O O1 0.723952 0.689411 0.627808
O O2 0.545528 0.544003 0.400218
O O3 0.854079 0.651351 0.553479
O O4 0.978479 0.412404 0.908894
O O5 0.412414 0.839222 0.942210
O O6 0.393164 0.916869 0.684863
O O7 0.811735 0.726334 0.197206
O O8 0.621504 0.005653 0.982848
O O9 0.162649 0.640499 0.655655
O O10 0.937574 0.888553 0.449856
O O11 0.265832 0.608551 0.962720
O O12 0.429659 0.327921 0.307276
O O13 0.228524 0.112384 0.292114
O O14 0.268779 0.569771 0.572414
O O15 0.102089 0.859588 0.350757
O O16 0.053552 0.895802 0.779219
#
# Coordination Sequence:
#
# PCOD9099648 Si02
#       8
#     2   2   2   2   2   2   2   2
#     4  10  22  41  64  89 119 161 212 266 308 353
#     4   9  18  34  56  87 123 159 198 245 309 373
#     4   9  20  38  63  93 122 159 208 258 310 365
#     4  10  23  42  62  91 122 160 215 260 306 358
#     4  10  24  40  59  96 130 163 204 244 310 382
#     4  11  23  41  64  88 126 172 208 248 301 370
#     4   9  19  35  58  94 125 153 202 260 317 364
#     4  10  20  37  61  87 124 162 199 260 312 362
#
# _framework density 24.84958
#
# number of rings (size 3 to 8) (size 9 to 14) (size 15 to 20)
#    0.000    2.500    0.000    1.875    0.000   10.000 
#    0.000   16.250    0.000    0.000    0.000    0.000 
#    0.000    0.000    0.000    0.000    0.000    0.000 
#
# Total GULP energy -89522.083564 kJ/mol
# GULP energy per Si atom -5595.130223 kJ/mol
# Density = 2.479302 g / cm^3
# Si number density = 24.849580 Si / 1000 Ang^3
#
#
#
# Elastic Constant Matrix: (Units=GPa)
#
#
# Indices 1 2 3 4 5 6 
#
# 1 89.7824 27.8078 34.6340 -9.3700 17.2006 10.9729
# 2 27.8078 86.5757 25.9626 -0.5144 -0.9622 23.4372
# 3 34.6340 25.9626 122.3293 6.1830 21.0003 5.2442
# 4 -9.3700 -0.5144 6.1830 19.7435 3.8086 7.5488
# 5 17.2006 -0.9622 21.0003 3.8086 35.2857 -4.2859
# 6 10.9729 23.4372 5.2442 7.5488 -4.2859 39.8242
#
#
#
# Elastic Compliance Matrix: (Units=1/GPa)
#
#
# Indices 1 2 3 4 5 6 
#
# 1 0.016953 -0.002940 -0.003095 0.012853 -0.008606 -0.005896
# 2 -0.002940 0.015552 -0.002610 0.002573 0.002130 -0.008257
# 3 -0.003095 -0.002610 0.010485 -0.004569 -0.004135 0.001429
# 4 0.012853 0.002573 -0.004569 0.067936 -0.013085 -0.018740
# 5 -0.008606 0.002130 -0.004135 -0.013085 0.037459 0.008174
# 6 -0.005896 -0.008257 0.001429 -0.018740 0.008174 0.035838
#
#
# Mechanical properties :
#
#
# Convention : Reuss Voigt Hill
#
# Bulk Modulus (GPa) = 38.91274 52.83291 45.87283
# Shear Modulus (GPa) = 23.80033 32.98954 28.39494
#
# Velocity S-wave (km/s) = 3.09815 3.64754 3.38401
# Velocity P-wave (km/s) = 5.33773 6.24873 5.81111
#
# Compressibility (1/GPa) = 0.02569852
#
# Stress axis : x y z
#
# Youngs Moduli (GPa) = 58.98550 64.30030 95.37850
#
# Poissons Ratio (x) = 0.18907 0.29523
# Poissons Ratio (y) = 0.17344 0.24893
# Poissons Ratio (z) = 0.18258 0.16782
#
# Static dielectric constant tensor:
#      x y z
#    x 1.954970 0.001880 0.002910 
#    y 0.001880 2.035230 0.028550 
#    z 0.002910 0.028550 1.943670 
# 
# From -- ./inp_files/123757.got.cif
#   From: 2010.05.17/outbox.cif.g08.bks.cpg/sg2_62_cif.got.tgz:123757.got - 2010.06.03 11:33:40.
