data_PCOD9099941
_publ_section_title
;
Structure prediction by ZEFSAII (Michael W. Deem and Ramdas Pophale) SiO2 
 PCOD9099941
Probable space group: P -1
;
_chemical_formula_sum "Si O2"
_cell_formula_units_Z 14
_cell_length_a 7.538148
_cell_length_b 8.457627
_cell_length_c 11.726243
_cell_angle_alpha 55.153818
_cell_angle_beta 65.420856
_cell_angle_gamma 82.702927
_cell_volume 551.789409
_symmetry_space_group_name_H-M "P -1"
_symmetry_group_IT_number 2
_symmetry_cell_setting 'triclinic'
loop_
_space_group_symop_operation_xyz
x,y,z
-x,-y,-z
loop_
_atom_site_type_symbol
_atom_site_label
_atom_site_fract_x
_atom_site_fract_y
_atom_site_fract_z
Si Si1 0.459817 0.038134 0.188211
Si Si2 0.770692 0.963169 0.972366
Si Si3 0.673236 0.372585 0.486044
Si Si4 0.921468 0.310239 0.026232
Si Si5 0.893802 0.399365 0.745189
Si Si6 0.170542 0.854073 0.647594
Si Si7 0.747865 0.755924 0.664556
O O1 0.376831 0.106967 0.062041
O O2 0.354310 0.828068 0.349854
O O3 0.423842 0.201238 0.221735
O O4 0.670996 0.996132 0.106120
O O5 0.866644 0.174211 0.813303
O O6 0.907756 0.803014 0.019086
O O7 0.500000 0.500000 0.500000
O O8 0.691706 0.287438 0.388583
O O9 0.888195 0.501450 0.389956
O O10 0.824499 0.169705 0.209536
O O11 0.840839 0.388260 0.899775
O O12 0.000000 0.500000 0.000000
O O13 0.747319 0.550199 0.686684
O O14 0.951357 0.798579 0.670451
O O15 0.236755 0.074245 0.502182
#
# Coordination Sequence:
#
# PCOD9099941 Si02
#       7
#     2   2   2   2   2   2   2
#     4  10  21  39  62  83 119 163 197 241 294 361
#     4  11  24  38  58  93 122 152 201 249 297 346
#     4  10  20  37  62  88 115 158 201 243 290 355
#     4  12  20  37  60  88 116 164 194 239 290 369
#     4  11  23  37  63  91 121 153 200 253 292 337
#     4   9  18  33  61  85 114 156 204 228 291 364
#     4   9  17  37  59  85 113 159 197 239 290 361
#
# _framework density 25.371998000000001
#
# number of rings (size 3 to 8) (size 9 to 14) (size 15 to 20)
#    0.000    1.714    4.286    2.143    0.000    1.143 
#    0.000    0.000    0.000    2.571    0.000    0.000 
#    0.000    0.000    0.000    0.000    0.000    0.000 
#
# Total GULP energy -78243.524528 kJ/mol
# GULP energy per Si atom -5588.823181 kJ/mol
# Density = 2.531425 g / cm^3
# Si number density = 25.371998 Si / 1000 Ang^3
#
#
#
# Elastic Constant Matrix: (Units=GPa)
#
#
# Indices 1 2 3 4 5 6 
#
# 1 53.4882 23.1388 16.2998 11.6653 0.1973 -13.9204
# 2 23.1388 134.5301 32.3819 -10.1479 -10.5956 -38.1995
# 3 16.2998 32.3819 108.4762 14.6460 -5.6795 -16.6135
# 4 11.6653 -10.1479 14.6460 40.6797 0.1429 -6.3057
# 5 0.1973 -10.5956 -5.6795 0.1429 33.9854 3.0749
# 6 -13.9204 -38.1995 -16.6135 -6.3057 3.0749 34.3456
#
#
#
# Elastic Compliance Matrix: (Units=1/GPa)
#
#
# Indices 1 2 3 4 5 6 
#
# 1 0.022838 -0.003019 -0.001107 -0.006221 -0.001628 0.004366
# 2 -0.003019 0.012928 -0.002197 0.006910 0.002463 0.013140
# 3 -0.001107 -0.002197 0.010859 -0.003903 0.001012 0.001553
# 4 -0.006221 0.006910 -0.003903 0.030871 0.000604 0.008889
# 5 -0.001628 0.002463 0.001012 0.000604 0.030372 -0.000039
# 6 0.004366 0.013140 0.001553 0.008889 -0.000039 0.047887
#
#
# Mechanical properties :
#
#
# Convention : Reuss Voigt Hill
#
# Bulk Modulus (GPa) = 29.43071 48.90395 39.16733
# Shear Modulus (GPa) = 27.82001 36.78042 32.30022
#
# Velocity S-wave (km/s) = 3.31491 3.81155 3.57188
# Velocity P-wave (km/s) = 5.12605 6.21990 5.69928
#
# Compressibility (1/GPa) = 0.03397811
#
# Stress axis : x y z
#
# Youngs Moduli (GPa) = 43.78590 77.35345 92.09304
#
# Poissons Ratio (x) = 0.23356 0.10194
# Poissons Ratio (y) = 0.13220 0.20233
# Poissons Ratio (z) = 0.04847 0.16995
#
# Static dielectric constant tensor:
#      x y z
#    x 2.147410 0.069550 -0.082220 
#    y 0.069550 2.011820 0.003340 
#    z -0.082220 0.003340 1.996320 
# 
# From -- ./inp_files/237762.got.cif
#   From: 2010.05.17/outbox.cif.g08.bks.cpg/sg2_119_cif.got.tgz:237762.got - 2010.06.03 11:33:40.
