data_PCOD9099611
_publ_section_title
;
Structure prediction by ZEFSAII (Michael W. Deem and Ramdas Pophale) SiO2 
 PCOD9099611
Probable space group: P -1
;
_chemical_formula_sum "Si O2"
_cell_formula_units_Z 16
_cell_length_a 9.336562
_cell_length_b 7.334384
_cell_length_c 16.253164
_cell_angle_alpha 66.803840
_cell_angle_beta 37.161370
_cell_angle_gamma 54.042904
_cell_volume 537.927113
_symmetry_space_group_name_H-M "P -1"
_symmetry_group_IT_number 2
_symmetry_cell_setting 'triclinic'
loop_
_space_group_symop_operation_xyz
x,y,z
-x,-y,-z
loop_
_atom_site_type_symbol
_atom_site_label
_atom_site_fract_x
_atom_site_fract_y
_atom_site_fract_z
Si Si1 0.736703 0.074875 0.273652
Si Si2 0.706836 0.297044 0.704920
Si Si3 0.542250 0.005341 0.723666
Si Si4 0.100277 0.194850 0.994737
Si Si5 0.135947 0.566766 0.541422
Si Si6 0.212553 0.608769 0.179485
Si Si7 0.193896 0.798430 0.617187
Si Si8 0.155232 0.389366 0.090933
O O1 0.561390 0.983241 0.323202
O O2 0.628608 0.181140 0.393933
O O3 0.045466 0.864476 0.177418
O O4 0.816434 0.231904 0.154114
O O5 0.756541 0.468523 0.594454
O O6 0.608864 0.401035 0.821849
O O7 0.552031 0.210998 0.729844
O O8 0.982465 0.057473 0.640660
O O9 0.842457 0.798618 0.628293
O O10 0.321908 0.972867 0.884595
O O11 0.012402 0.382323 0.927996
O O12 0.261668 0.210281 0.998804
O O13 0.036677 0.409174 0.658279
O O14 0.298088 0.648151 0.514112
O O15 0.304433 0.439224 0.089577
O O16 0.028813 0.692133 0.759077
#
# Coordination Sequence:
#
# PCOD9099611 Si02
#       8
#     2   2   2   2   2   2   2   2
#     4  10  20  37  62  84 118 153 192 236 288 340
#     4  10  21  40  62  80 120 160 187 237 303 338
#     4  11  21  37  60  91 112 156 198 236 277 357
#     4  10  20  37  61  86 119 157 185 234 299 341
#     4  10  21  41  62  81 118 158 191 238 299 339
#     4  10  20  40  61  85 115 156 192 243 287 342
#     4   8  17  35  59  83 111 153 187 234 285 340
#     4   9  18  35  61  83 114 154 189 231 292 339
#
# _framework density 29.743808000000001
#
# number of rings (size 3 to 8) (size 9 to 14) (size 15 to 20)
#    0.000    2.250    1.250    2.250    0.000    0.000 
#    6.750   30.000    2.750    0.000    0.000    0.000 
#    0.000    0.000    0.000    0.000    0.000    0.000 
#
# Total GULP energy -89545.331709 kJ/mol
# GULP energy per Si atom -5596.583232 kJ/mol
# Density = 2.967611 g / cm^3
# Si number density = 29.743808 Si / 1000 Ang^3
#
#
#
# Elastic Constant Matrix: (Units=GPa)
#
#
# Indices 1 2 3 4 5 6 
#
# 1 245.6325 53.6805 40.4288 4.0928 28.5688 42.6941
# 2 53.6805 68.2815 23.7512 -1.2398 22.6002 21.7202
# 3 40.4288 23.7512 154.4821 4.0285 44.3349 9.4125
# 4 4.0928 -1.2398 4.0285 49.1344 4.9282 15.0941
# 5 28.5688 22.6002 44.3349 4.9282 56.9089 8.2933
# 6 42.6941 21.7202 9.4125 15.0941 8.2933 76.3361
#
#
#
# Elastic Compliance Matrix: (Units=1/GPa)
#
#
# Indices 1 2 3 4 5 6 
#
# 1 0.005257 -0.003072 -0.000591 0.000204 -0.000691 -0.001959
# 2 -0.003072 0.020465 -0.000491 0.002605 -0.005857 -0.003923
# 3 -0.000591 -0.000491 0.008450 -0.000077 -0.006100 0.000106
# 4 0.000204 0.002605 -0.000077 0.022166 -0.002271 -0.004982
# 5 -0.000691 -0.005857 -0.006100 -0.002271 0.025117 0.000525
# 6 -0.001959 -0.003923 0.000106 -0.004982 0.000525 0.016227
#
#
# Mechanical properties :
#
#
# Convention : Reuss Voigt Hill
#
# Bulk Modulus (GPa) = 38.66396 78.23524 58.44960
# Shear Modulus (GPa) = 43.62656 59.84490 51.73573
#
# Velocity S-wave (km/s) = 3.83396 4.49041 4.17511
# Velocity P-wave (km/s) = 5.71194 7.29693 6.55254
#
# Compressibility (1/GPa) = 0.02586388
#
# Stress axis : x y z
#
# Youngs Moduli (GPa) = 190.21689 48.86474 118.35004
#
# Poissons Ratio (x) = 0.15011 0.06997
# Poissons Ratio (y) = 0.58434 0.05805
# Poissons Ratio (z) = 0.11247 0.02397
#
# Static dielectric constant tensor:
#      x y z
#    x 2.313980 0.014820 -0.070910 
#    y 0.014820 2.344130 -0.051570 
#    z -0.070910 -0.051570 2.339290 
# 
# From -- ./inp_files/494595.got.cif
#   From: 2010.05.17/outbox.cif.g08.bks.cpg/sg2_248_cif.got.tgz:494595.got - 2010.06.03 11:33:40.
