data_PCOD9099989
_publ_section_title
;
Structure prediction by ZEFSAII (Michael W. Deem and Ramdas Pophale) SiO2 
 PCOD9099989
Probable space group: P -1
;
_chemical_formula_sum "Si O2"
_cell_formula_units_Z 12
_cell_length_a 14.582421
_cell_length_b 19.950934
_cell_length_c 13.599007
_cell_angle_alpha 158.896586
_cell_angle_beta 150.909329
_cell_angle_gamma 26.076822
_cell_volume 609.871471
_symmetry_space_group_name_H-M "P -1"
_symmetry_group_IT_number 2
_symmetry_cell_setting 'triclinic'
loop_
_space_group_symop_operation_xyz
x,y,z
-x,-y,-z
loop_
_atom_site_type_symbol
_atom_site_label
_atom_site_fract_x
_atom_site_fract_y
_atom_site_fract_z
Si Si1 0.492268 0.810400 0.680358
Si Si2 0.893341 0.393159 0.480073
Si Si3 0.347264 0.826252 0.357805
Si Si4 0.822213 0.426012 0.245651
Si Si5 0.528594 0.440952 0.330364
Si Si6 0.644038 0.844466 0.334375
O O1 0.500000 0.500000 0.500000
O O2 0.350971 0.889401 0.559287
O O3 0.420949 0.665907 0.480019
O O4 0.500000 0.000000 0.000000
O O5 0.741440 0.643087 0.663133
O O6 0.135255 0.319916 0.632478
O O7 0.862574 0.311080 0.232836
O O8 0.775395 0.342469 0.389521
O O9 0.588238 0.630952 0.301193
O O10 0.314067 0.008475 0.501098
O O11 0.184185 0.735041 0.059845
O O12 0.000000 0.500000 0.500000
O O13 0.447059 0.285881 0.993884
O O14 0.500000 0.000000 0.500000
#
# Coordination Sequence:
#
# PCOD9099989 Si02
#       6
#     2   2   2   2   2   2
#     4   9  20  44  65  84 128 171 215 271 315 373
#     4   9  23  39  64  95 130 162 221 265 316 392
#     4  10  22  36  60  91 126 163 209 265 313 377
#     4  10  20  37  62  89 128 166 211 259 323 380
#     4  10  23  43  67  91 134 172 218 267 325 387
#     4  12  24  39  68  99 134 172 213 265 336 386
#
# _framework density 19.676276999999999
#
# number of rings (size 3 to 8) (size 9 to 14) (size 15 to 20)
#    1.000    1.000    0.000    3.000    4.667    4.667 
#    0.000    0.833    0.000    0.000    0.000    0.000 
#    0.000    0.000    0.000    0.000    0.000    0.000 
#
# Total GULP energy -66811.938837 kJ/mol
# GULP energy per Si atom -5567.661570 kJ/mol
# Density = 1.963149 g / cm^3
# Si number density = 19.676277 Si / 1000 Ang^3
#
#
#
# Elastic Constant Matrix: (Units=GPa)
#
#
# Indices 1 2 3 4 5 6 
#
# 1 68.5411 24.8113 47.9956 -15.0991 -10.5023 12.6603
# 2 24.8113 66.3004 34.5530 -10.9720 -11.2344 14.2809
# 3 47.9956 34.5530 184.5214 -8.5924 -21.8938 3.6767
# 4 -15.0991 -10.9720 -8.5924 26.4613 8.6748 9.0724
# 5 -10.5023 -11.2344 -21.8938 8.6748 32.9811 -10.1166
# 6 12.6603 14.2809 3.6767 9.0724 -10.1166 31.1208
#
#
#
# Elastic Compliance Matrix: (Units=1/GPa)
#
#
# Indices 1 2 3 4 5 6 
#
# 1 0.026004 -0.000240 -0.006209 0.021328 -0.007137 -0.018273
# 2 -0.000240 0.021874 -0.003459 0.013771 -0.002998 -0.014521
# 3 -0.006209 -0.003459 0.007946 -0.006860 0.006121 0.007164
# 4 0.021328 0.013771 -0.006860 0.078356 -0.027812 -0.046069
# 5 -0.007137 -0.002998 0.006121 -0.027812 0.046633 0.026823
# 6 -0.018273 -0.014521 0.007164 -0.046069 0.026823 0.067533
#
#
# Mechanical properties :
#
#
# Convention : Reuss Voigt Hill
#
# Bulk Modulus (GPa) = 27.77012 59.34253 43.55633
# Shear Modulus (GPa) = 17.84671 32.24617 25.04644
#
# Velocity S-wave (km/s) = 3.01494 4.05264 3.57168
# Velocity P-wave (km/s) = 5.12484 7.21966 6.26049
#
# Compressibility (1/GPa) = 0.03600992
#
# Stress axis : x y z
#
# Youngs Moduli (GPa) = 38.45563 45.71668 125.84683
#
# Poissons Ratio (x) = 0.01096 0.78133
# Poissons Ratio (y) = 0.00922 0.43528
# Poissons Ratio (z) = 0.23876 0.15812
#
# Static dielectric constant tensor:
#      x y z
#    x 1.780630 0.019220 -0.035320 
#    y 0.019220 1.685310 -0.003930 
#    z -0.035320 -0.003930 1.692120 
# 
# From -- ./inp_files/453445.got.cif
#   From: 2010.05.17/outbox.cif.g08.bks.cpg/sg2_227_cif.got.tgz:453445.got - 2010.06.03 11:33:40.
