data_PCOD9099112
_publ_section_title
;
Structure prediction by ZEFSAII (Michael W. Deem and Ramdas Pophale) SiO2 
 PCOD9099112
Probable space group: P -1
;
_chemical_formula_sum "Si O2"
_cell_formula_units_Z 14
_cell_length_a 9.276447
_cell_length_b 7.781996
_cell_length_c 11.735872
_cell_angle_alpha 78.176578
_cell_angle_beta 96.390964
_cell_angle_gamma 47.468458
_cell_volume 573.239267
_symmetry_space_group_name_H-M "P -1"
_symmetry_group_IT_number 2
_symmetry_cell_setting 'triclinic'
loop_
_space_group_symop_operation_xyz
x,y,z
-x,-y,-z
loop_
_atom_site_type_symbol
_atom_site_label
_atom_site_fract_x
_atom_site_fract_y
_atom_site_fract_z
Si Si1 0.253879 0.922575 0.417435
Si Si2 0.628818 0.834569 0.712045
Si Si3 0.975973 0.733505 0.190808
Si Si4 0.863361 0.192032 0.230142
Si Si5 0.805757 0.663050 0.374949
Si Si6 0.571086 0.506885 0.340149
Si Si7 0.893886 0.777153 0.928697
O O1 0.341120 0.749341 0.333536
O O2 0.356736 0.728213 0.554465
O O3 0.308050 0.080148 0.391538
O O4 0.008221 0.112792 0.362380
O O5 0.692251 0.889995 0.824515
O O6 0.778481 0.534303 0.761539
O O7 0.381516 0.035684 0.660239
O O8 0.880856 0.644332 0.256276
O O9 0.875131 0.867407 0.041677
O O10 0.917099 0.947277 0.235466
O O11 0.950993 0.240445 0.131457
O O12 0.630609 0.430131 0.223599
O O13 0.694023 0.572431 0.386953
O O14 0.000000 0.500000 0.500000
O O15 0.000000 0.500000 0.000000
#
# Coordination Sequence:
#
# PCOD9099112 Si02
#       7
#     2   2   2   2   2   2   2
#     4   9  19  36  59  83 114 160 204 244 297 358
#     4   9  21  40  62  87 120 161 205 252 299 357
#     4  11  23  38  59  91 127 161 200 248 304 362
#     4  11  21  36  60  88 122 157 196 250 304 362
#     4  11  23  39  62  91 119 157 206 256 305 358
#     4  10  20  37  59  85 118 159 203 247 302 359
#     4   9  19  40  65  87 118 162 207 250 297 353
#
# _framework density 24.422611
#
# number of rings (size 3 to 8) (size 9 to 14) (size 15 to 20)
#    0.000    2.000    0.000    4.286    0.000    3.429 
#    0.000    5.714    0.000   12.857    0.000    0.000 
#    0.000    0.000    0.000    0.000    0.000    0.000 
#
# Total GULP energy -78208.113793 kJ/mol
# GULP energy per Si atom -5586.293842 kJ/mol
# Density = 2.436702 g / cm^3
# Si number density = 24.422611 Si / 1000 Ang^3
#
#
#
# Elastic Constant Matrix: (Units=GPa)
#
#
# Indices 1 2 3 4 5 6 
#
# 1 66.5875 35.3018 22.1929 -0.1963 -6.7301 -1.5037
# 2 35.3018 124.8448 19.4559 6.7707 3.4712 -8.4271
# 3 22.1929 19.4559 104.2595 -3.7959 -12.0891 -11.6331
# 4 -0.1963 6.7707 -3.7959 36.1290 2.8197 -9.4823
# 5 -6.7301 3.4712 -12.0891 2.8197 30.8670 -4.9205
# 6 -1.5037 -8.4271 -11.6331 -9.4823 -4.9205 38.8610
#
#
#
# Elastic Compliance Matrix: (Units=1/GPa)
#
#
# Indices 1 2 3 4 5 6 
#
# 1 0.018975 -0.005098 -0.002745 0.000321 0.003499 -0.000672
# 2 -0.005098 0.009814 -0.000959 -0.001531 -0.002295 0.000980
# 3 -0.002745 -0.000959 0.011415 0.002114 0.004454 0.004183
# 4 0.000321 -0.001531 0.002114 0.030229 -0.000475 0.007629
# 5 0.003499 -0.002295 0.004454 -0.000475 0.036070 0.005422
# 6 -0.000672 0.000980 0.004183 0.007629 0.005422 0.029719
#
#
# Mechanical properties :
#
#
# Convention : Reuss Voigt Hill
#
# Bulk Modulus (GPa) = 44.24785 49.95478 47.10132
# Shear Modulus (GPa) = 30.98699 35.75417 33.37058
#
# Velocity S-wave (km/s) = 3.56586 3.83035 3.70047
# Velocity P-wave (km/s) = 5.92543 6.32936 6.13072
#
# Compressibility (1/GPa) = 0.02259997
#
# Stress axis : x y z
#
# Youngs Moduli (GPa) = 52.70163 101.89775 87.60548
#
# Poissons Ratio (x) = 0.51943 0.24051
# Poissons Ratio (y) = 0.26865 0.08399
# Poissons Ratio (z) = 0.14468 0.09770
#
# Static dielectric constant tensor:
#      x y z
#    x 1.924100 0.010050 0.040250 
#    y 0.010050 1.990870 0.085910 
#    z 0.040250 0.085910 2.094370 
# 
# From -- ./inp_files/414677.got.cif
#   From: 2010.05.17/outbox.cif.g08.bks.cpg/sg2_208_cif.got.tgz:414677.got - 2010.06.03 11:33:40.
