data_PCOD9099044
_publ_section_title
;
Structure prediction by ZEFSAII (Michael W. Deem and Ramdas Pophale) SiO2 
 PCOD9099044
Probable space group: P -1
;
_chemical_formula_sum "Si O2"
_cell_formula_units_Z 16
_cell_length_a 17.749928
_cell_length_b 6.484016
_cell_length_c 10.545560
_cell_angle_alpha 39.736059
_cell_angle_beta 113.456668
_cell_angle_gamma 107.782977
_cell_volume 711.741857
_symmetry_space_group_name_H-M "P -1"
_symmetry_group_IT_number 2
_symmetry_cell_setting 'triclinic'
loop_
_space_group_symop_operation_xyz
x,y,z
-x,-y,-z
loop_
_atom_site_type_symbol
_atom_site_label
_atom_site_fract_x
_atom_site_fract_y
_atom_site_fract_z
Si Si1 0.105813 0.664718 0.506367
Si Si2 0.191338 0.774105 0.002225
Si Si3 0.772931 0.905554 0.729487
Si Si4 0.948368 0.917305 0.383113
Si Si5 0.089249 0.090685 0.973575
Si Si6 0.323496 0.116179 0.081636
Si Si7 0.478361 0.723412 0.263184
Si Si8 0.435478 0.637477 0.994942
O O1 0.097689 0.406147 0.738453
O O2 0.026334 0.898428 0.347761
O O3 0.091513 0.436557 0.483307
O O4 0.192322 0.844328 0.468593
O O5 0.130087 0.861871 0.804743
O O6 0.126339 0.782784 0.068883
O O7 0.241559 0.445768 0.174363
O O8 0.253048 0.055220 0.958795
O O9 0.705897 0.014952 0.737154
O O10 0.852722 0.851422 0.896039
O O11 0.000000 0.000000 0.500000
O O12 0.000000 0.000000 0.000000
O O13 0.351003 0.479200 0.965100
O O14 0.400356 0.929922 0.161212
O O15 0.500000 0.500000 0.500000
O O16 0.458230 0.549567 0.197904
O O17 0.553089 0.977557 0.175419
O O18 0.500000 0.500000 0.000000
#
# Coordination Sequence:
#
# PCOD9099044 Si02
#       8
#     2   2   2   2   2   2   2   2
#     4  10  22  37  56  86 114 151 213 270 319 380
#     4  10  22  37  57  85 122 168 211 262 328 385
#     4  11  22  38  57  82 123 163 203 261 324 379
#     4  10  20  37  59  82 115 162 219 270 318 378
#     4  10  21  39  60  82 113 158 213 270 326 384
#     4  10  22  41  61  89 133 172 208 261 326 393
#     4  10  21  42  72 104 130 166 219 265 320 395
#     4   9  20  41  70 100 133 168 208 261 320 393
#
# _framework density 22.480060000000002
#
# number of rings (size 3 to 8) (size 9 to 14) (size 15 to 20)
#    0.000    2.000    0.000    3.750    0.000    8.000 
#    0.000   21.250    0.000    0.000    0.000    0.000 
#    0.000    0.000    0.000    0.000    0.000    0.000 
#
# Total GULP energy -89107.676783 kJ/mol
# GULP energy per Si atom -5569.229799 kJ/mol
# Density = 2.242889 g / cm^3
# Si number density = 22.480060 Si / 1000 Ang^3
#
#
#
# Elastic Constant Matrix: (Units=GPa)
#
#
# Indices 1 2 3 4 5 6 
#
# 1 92.7339 25.9351 15.7903 1.1818 -12.6365 -1.0381
# 2 25.9351 145.6000 27.5402 15.4853 -5.4249 3.6284
# 3 15.7903 27.5402 71.4453 17.5727 -18.8937 -1.3409
# 4 1.1818 15.4853 17.5727 24.0014 -3.9618 4.7085
# 5 -12.6365 -5.4249 -18.8937 -3.9618 27.0553 -3.2884
# 6 -1.0381 3.6284 -1.3409 4.7085 -3.2884 38.9625
#
#
#
# Elastic Compliance Matrix: (Units=1/GPa)
#
#
# Indices 1 2 3 4 5 6 
#
# 1 0.012191 -0.002023 -0.001164 0.002242 0.004878 0.000614
# 2 -0.002023 0.007976 -0.002125 -0.003617 -0.001427 -0.000553
# 3 -0.001164 -0.002125 0.021719 -0.013074 0.012716 0.003568
# 4 0.002242 -0.003617 -0.013074 0.054518 -0.001649 -0.006781
# 5 0.004878 -0.001427 0.012716 -0.001649 0.048196 0.004967
# 6 0.000614 -0.000553 0.003568 -0.006781 0.004967 0.027095
#
#
# Mechanical properties :
#
#
# Convention : Reuss Voigt Hill
#
# Bulk Modulus (GPa) = 31.99052 49.81225 40.90139
# Shear Modulus (GPa) = 25.94168 34.03806 29.98987
#
# Velocity S-wave (km/s) = 3.40072 3.89542 3.65645
# Velocity P-wave (km/s) = 5.44806 6.51452 6.00501
#
# Compressibility (1/GPa) = 0.03125926
#
# Stress axis : x y z
#
# Youngs Moduli (GPa) = 82.03006 125.37834 46.04314
#
# Poissons Ratio (x) = 0.25367 0.05361
# Poissons Ratio (y) = 0.16597 0.09786
# Poissons Ratio (z) = 0.09552 0.26647
#
# Static dielectric constant tensor:
#      x y z
#    x 1.914350 -0.034530 -0.036620 
#    y -0.034530 1.945450 0.011980 
#    z -0.036620 0.011980 1.909350 
# 
# From -- ./inp_files/458993.got.cif
#   From: 2010.05.17/outbox.cif.g08.bks.cpg/sg2_230_cif.got.tgz:458993.got - 2010.06.03 11:33:40.
