data_PCOD9099647
_publ_section_title
;
Structure prediction by ZEFSAII (Michael W. Deem and Ramdas Pophale) SiO2 
 PCOD9099647
Probable space group: P -1
;
_chemical_formula_sum "Si O2"
_cell_formula_units_Z 16
_cell_length_a 12.717684
_cell_length_b 9.140097
_cell_length_c 9.044295
_cell_angle_alpha 47.232703
_cell_angle_beta 74.303869
_cell_angle_gamma 97.503618
_cell_volume 665.498819
_symmetry_space_group_name_H-M "P -1"
_symmetry_group_IT_number 2
_symmetry_cell_setting 'triclinic'
loop_
_space_group_symop_operation_xyz
x,y,z
-x,-y,-z
loop_
_atom_site_type_symbol
_atom_site_label
_atom_site_fract_x
_atom_site_fract_y
_atom_site_fract_z
Si Si1 0.852901 0.267902 0.581899
Si Si2 0.224744 0.151668 0.672234
Si Si3 0.956849 0.284823 0.844653
Si Si4 0.766187 0.881874 0.655013
Si Si5 0.395102 0.912291 0.480451
Si Si6 0.648376 0.321389 0.787574
Si Si7 0.240807 0.591918 0.004164
Si Si8 0.536179 0.758008 0.307864
O O1 0.936857 0.272595 0.684071
O O2 0.725209 0.213534 0.748087
O O3 0.908807 0.515857 0.320320
O O4 0.845904 0.086782 0.590035
O O5 0.209423 0.087914 0.549573
O O6 0.275199 0.417250 0.463479
O O7 0.330383 0.125107 0.747042
O O8 0.097669 0.970697 0.909462
O O9 0.872203 0.381811 0.895703
O O10 0.774900 0.657020 0.847294
O O11 0.637264 0.895086 0.699169
O O12 0.442068 0.800766 0.416264
O O13 0.500000 0.000000 0.500000
O O14 0.282316 0.728877 0.742768
O O15 0.659439 0.313375 0.965533
O O16 0.510003 0.220536 0.853001
O O17 0.500000 0.500000 0.500000
#
# Coordination Sequence:
#
# PCOD9099647 Si02
#       8
#     2   2   2   2   2   2   2   2
#     4  10  22  39  61  88 119 159 204 256 299 362
#     4  10  20  39  59  88 125 159 199 252 304 356
#     4  10  21  42  61  83 124 161 198 256 310 345
#     4  11  22  39  61  91 116 161 204 245 302 358
#     4  12  22  41  61  88 128 160 199 251 300 354
#     4   9  20  39  61  90 122 159 208 242 300 368
#     4  10  23  41  61  88 126 161 198 252 300 359
#     4  10  20  37  61  87 124 159 194 250 295 357
#
# _framework density 24.042114999999999
#
# number of rings (size 3 to 8) (size 9 to 14) (size 15 to 20)
#    0.000    1.750    3.750    0.000    0.000    4.000 
#    2.250    1.875    0.000    0.000    0.000    0.000 
#    0.000    0.000    0.000    0.000    0.000    0.000 
#
# Total GULP energy -89268.710561 kJ/mol
# GULP energy per Si atom -5579.294410 kJ/mol
# Density = 2.398739 g / cm^3
# Si number density = 24.042115 Si / 1000 Ang^3
#
#
#
# Elastic Constant Matrix: (Units=GPa)
#
#
# Indices 1 2 3 4 5 6 
#
# 1 46.0414 30.6126 14.8478 -2.0793 -2.5057 -9.0770
# 2 30.6126 150.1217 50.8399 -5.8268 -1.6376 10.1421
# 3 14.8478 50.8399 111.5951 -26.4433 -2.5551 -13.1858
# 4 -2.0793 -5.8268 -26.4433 39.1784 -11.8117 1.0675
# 5 -2.5057 -1.6376 -2.5551 -11.8117 22.4701 -2.2110
# 6 -9.0770 10.1421 -13.1858 1.0675 -2.2110 25.2266
#
#
#
# Elastic Compliance Matrix: (Units=1/GPa)
#
#
# Indices 1 2 3 4 5 6 
#
# 1 0.029591 -0.007661 0.002348 0.003517 0.006369 0.015364
# 2 -0.007661 0.010821 -0.006136 -0.003796 -0.003790 -0.010486
# 3 0.002348 -0.006136 0.016054 0.012562 0.009424 0.011997
# 4 0.003517 -0.003796 0.012562 0.040539 0.023811 0.009729
# 5 0.006369 -0.003790 0.009424 0.023811 0.059803 0.012975
# 6 0.015364 -0.010486 0.011997 0.009729 0.012975 0.056381
#
#
# Mechanical properties :
#
#
# Convention : Reuss Voigt Hill
#
# Bulk Modulus (GPa) = 29.79055 55.59541 42.69298
# Shear Modulus (GPa) = 20.22036 31.47221 25.84629
#
# Velocity S-wave (km/s) = 2.90321 3.62200 3.28234
# Velocity P-wave (km/s) = 4.86375 6.37701 5.67108
#
# Compressibility (1/GPa) = 0.03356769
#
# Stress axis : x y z
#
# Youngs Moduli (GPa) = 33.79434 92.41155 62.29053
#
# Poissons Ratio (x) = 0.70798 -0.14625
# Poissons Ratio (y) = 0.25890 0.38219
# Poissons Ratio (z) = -0.07934 0.56701
#
# Static dielectric constant tensor:
#      x y z
#    x 1.982950 -0.003400 0.036820 
#    y -0.003400 1.914560 -0.023860 
#    z 0.036820 -0.023860 1.960820 
# 
# From -- ./inp_files/297395.got.cif
#   From: 2010.05.17/outbox.cif.g08.bks.cpg/sg2_149_cif.got.tgz:297395.got - 2010.06.03 11:33:40.
