data_PCOD9099621
_publ_section_title
;
Structure prediction by ZEFSAII (Michael W. Deem and Ramdas Pophale) SiO2 
 PCOD9099621
Probable space group: P -1
;
_chemical_formula_sum "Si O2"
_cell_formula_units_Z 14
_cell_length_a 14.531388
_cell_length_b 29.661574
_cell_length_c 14.092214
_cell_angle_alpha 157.770087
_cell_angle_beta 20.202037
_cell_angle_gamma 158.983983
_cell_volume 689.231732
_symmetry_space_group_name_H-M "P -1"
_symmetry_group_IT_number 2
_symmetry_cell_setting 'triclinic'
loop_
_space_group_symop_operation_xyz
x,y,z
-x,-y,-z
loop_
_atom_site_type_symbol
_atom_site_label
_atom_site_fract_x
_atom_site_fract_y
_atom_site_fract_z
Si Si1 0.796101 0.724764 0.113882
Si Si2 0.156007 0.095652 0.945943
Si Si3 0.527149 0.099618 0.251599
Si Si4 0.150959 0.474604 0.209034
Si Si5 0.979483 0.428216 0.664984
Si Si6 0.491343 0.580406 0.757447
Si Si7 0.381256 0.897431 0.626786
O O1 0.686103 0.835744 0.440577
O O2 0.507066 0.592715 0.090690
O O3 0.856933 0.668432 0.043351
O O4 0.113015 0.784825 0.868361
O O5 0.380339 0.054266 0.595509
O O6 0.348202 0.256651 0.101686
O O7 0.902642 0.084187 0.093063
O O8 0.000000 0.000000 0.000000
O O9 0.463860 0.036533 0.294689
O O10 0.500000 0.000000 0.000000
O O11 0.999312 0.487953 0.286287
O O12 0.000000 0.500000 0.500000
O O13 0.740216 0.266140 0.564642
O O14 0.297336 0.438491 0.406017
O O15 0.835824 0.467625 0.970245
O O16 0.500000 0.500000 0.500000
#
# Coordination Sequence:
#
# PCOD9099621 Si02
#       7
#     2   2   2   2   2   2   2
#     4  11  23  37  60  88 126 159 206 248 304 344
#     4  10  21  38  63  85 111 151 197 252 299 355
#     4  12  24  41  60  87 129 168 206 250 298 363
#     4  11  22  37  65  93 126 152 206 262 293 360
#     4  10  21  35  64  85 115 157 196 241 296 359
#     4  10  22  39  59  88 117 151 196 249 306 362
#     4  10  20  37  61  87 110 151 209 236 286 364
#
# _framework density 20.312470999999999
#
# number of rings (size 3 to 8) (size 9 to 14) (size 15 to 20)
#    0.000    1.429    2.857    2.143    8.000    0.000 
#    0.000    4.286    0.000    0.000    0.000    0.000 
#    0.000    0.000    0.000    0.000    0.000    0.000 
#
# Total GULP energy -78210.957207 kJ/mol
# GULP energy per Si atom -5586.496943 kJ/mol
# Density = 2.026624 g / cm^3
# Si number density = 20.312471 Si / 1000 Ang^3
#
#
#
# Elastic Constant Matrix: (Units=GPa)
#
#
# Indices 1 2 3 4 5 6 
#
# 1 72.3562 8.5532 -3.3647 18.1626 5.4505 -12.4048
# 2 8.5532 39.5732 -0.2942 -12.6602 1.8632 -10.3493
# 3 -3.3647 -0.2942 50.4507 -8.0405 -2.5647 1.4249
# 4 18.1626 -12.6602 -8.0405 25.7716 -0.9480 -3.1341
# 5 5.4505 1.8632 -2.5647 -0.9480 39.3232 4.5335
# 6 -12.4048 -10.3493 1.4249 -3.1341 4.5335 20.3150
#
#
#
# Elastic Compliance Matrix: (Units=1/GPa)
#
#
# Indices 1 2 3 4 5 6 
#
# 1 0.020934 -0.008811 -0.002072 -0.019097 -0.003811 0.006344
# 2 -0.008811 0.042837 0.003879 0.030989 -0.002282 0.021461
# 3 -0.002072 0.003879 0.021399 0.010153 0.001698 0.000397
# 4 -0.019097 0.030989 0.010153 0.072445 0.001956 0.014154
# 5 -0.003811 -0.002282 0.001698 0.001956 0.027308 -0.009401
# 6 0.006344 0.021461 0.000397 0.014154 -0.009401 0.068285
#
#
# Mechanical properties :
#
#
# Convention : Reuss Voigt Hill
#
# Bulk Modulus (GPa) = 14.05240 19.12984 16.59112
# Shear Modulus (GPa) = 17.18591 27.58099 22.38345
#
# Velocity S-wave (km/s) = 2.91190 3.68888 3.32317
# Velocity P-wave (km/s) = 4.27067 5.25186 4.78647
#
# Compressibility (1/GPa) = 0.07116221
#
# Stress axis : x y z
#
# Youngs Moduli (GPa) = 47.76925 23.34451 46.73127
#
# Poissons Ratio (x) = 0.20569 0.09681
# Poissons Ratio (y) = 0.42089 -0.18126
# Poissons Ratio (z) = 0.09896 -0.09055
#
# Static dielectric constant tensor:
#      x y z
#    x 1.733250 -0.001500 0.012950 
#    y -0.001500 1.747710 0.000000 
#    z 0.012950 0.000000 1.731900 
# 
# From -- ./inp_files/73339.got.cif
#   From: 2010.05.17/outbox.cif.g08.bks.cpg/sg2_37_cif.got.tgz:73339.got - 2010.06.03 11:33:40.
