data_PCOD9099451
_publ_section_title
;
Structure prediction by ZEFSAII (Michael W. Deem and Ramdas Pophale) SiO2 
 PCOD9099451
Probable space group: P -1
;
_chemical_formula_sum "Si O2"
_cell_formula_units_Z 16
_cell_length_a 17.821110
_cell_length_b 5.808271
_cell_length_c 8.979091
_cell_angle_alpha 123.760241
_cell_angle_beta 56.601891
_cell_angle_gamma 101.733507
_cell_volume 638.019154
_symmetry_space_group_name_H-M "P -1"
_symmetry_group_IT_number 2
_symmetry_cell_setting 'triclinic'
loop_
_space_group_symop_operation_xyz
x,y,z
-x,-y,-z
loop_
_atom_site_type_symbol
_atom_site_label
_atom_site_fract_x
_atom_site_fract_y
_atom_site_fract_z
Si Si1 0.399645 0.829481 0.129715
Si Si2 0.766036 0.101577 0.835906
Si Si3 0.225502 0.326860 0.853271
Si Si4 0.532617 0.626535 0.662969
Si Si5 0.937703 0.010515 0.429033
Si Si6 0.702652 0.308840 0.523957
Si Si7 0.130815 0.536105 0.735089
Si Si8 0.906460 0.874742 0.865759
O O1 0.324096 0.004251 0.164755
O O2 0.344001 0.687511 0.263022
O O3 0.453664 0.046099 0.236133
O O4 0.465404 0.624392 0.877554
O O5 0.834983 0.108341 0.624741
O O6 0.830817 0.951936 0.843588
O O7 0.729358 0.418224 0.041557
O O8 0.196902 0.407429 0.747855
O O9 0.275182 0.011271 0.677453
O O10 0.134859 0.331865 0.054439
O O11 0.500000 0.500000 0.500000
O O12 0.629585 0.460977 0.543771
O O13 0.938590 0.683633 0.274933
O O14 0.000000 0.000000 0.500000
O O15 0.989805 0.194068 0.327415
O O16 0.798967 0.427635 0.461255
O O17 0.090559 0.842256 0.942858
#
# Coordination Sequence:
#
# PCOD9099451 Si02
#       8
#     2   2   2   2   2   2   2   2
#     4  11  26  46  70 104 133 175 220 266 339 400
#     4  10  22  40  63  95 136 170 220 274 325 400
#     4  10  22  38  65  96 127 177 227 266 334 391
#     4  11  27  47  73 101 139 168 214 279 331 397
#     4  10  20  37  60  89 133 173 221 279 335 376
#     4  11  23  44  70  96 132 177 222 266 334 399
#     4  10  21  40  64  90 130 175 225 276 322 395
#     4   9  21  38  63  95 127 179 223 276 333 387
#
# _framework density 25.077618000000001
#
# number of rings (size 3 to 8) (size 9 to 14) (size 15 to 20)
#    0.000    1.750    0.000    3.000    7.000    4.500 
#    2.250    5.000    0.000    0.000    0.000    0.000 
#    0.000    0.000    0.000    0.000    0.000    0.000 
#
# Total GULP energy -89475.977303 kJ/mol
# GULP energy per Si atom -5592.248581 kJ/mol
# Density = 2.502054 g / cm^3
# Si number density = 25.077618 Si / 1000 Ang^3
#
#
#
# Elastic Constant Matrix: (Units=GPa)
#
#
# Indices 1 2 3 4 5 6 
#
# 1 107.9075 16.2216 34.5291 2.1646 2.4836 17.5429
# 2 16.2216 70.1381 31.7762 -15.4351 11.1875 15.2649
# 3 34.5291 31.7762 110.3606 -19.3674 5.1627 12.5216
# 4 2.1646 -15.4351 -19.3674 61.2324 10.9994 -1.5037
# 5 2.4836 11.1875 5.1627 10.9994 41.9373 11.0904
# 6 17.5429 15.2649 12.5216 -1.5037 11.0904 35.5044
#
#
#
# Elastic Compliance Matrix: (Units=1/GPa)
#
#
# Indices 1 2 3 4 5 6 
#
# 1 0.011164 -0.000862 -0.003154 -0.002033 0.001722 -0.004658
# 2 -0.000862 0.018794 -0.003639 0.004282 -0.004361 -0.004828
# 3 -0.003154 -0.003639 0.011744 0.003062 -0.000933 -0.000598
# 4 -0.002033 0.004282 0.003062 0.019707 -0.006847 0.001057
# 5 0.001722 -0.004361 -0.000933 -0.006847 0.028926 -0.007972
# 6 -0.004658 -0.004828 -0.000598 0.001057 -0.007972 0.035288
#
#
# Mechanical properties :
#
#
# Convention : Reuss Voigt Hill
#
# Bulk Modulus (GPa) = 37.88642 50.38444 44.13543
# Shear Modulus (GPa) = 33.39350 41.46011 37.42680
#
# Velocity S-wave (km/s) = 3.65308 4.07046 3.86740
# Velocity P-wave (km/s) = 5.73879 6.49819 6.13026
#
# Compressibility (1/GPa) = 0.02639468
#
# Stress axis : x y z
#
# Youngs Moduli (GPa) = 89.57155 53.20858 85.14638
#
# Poissons Ratio (x) = 0.04585 0.26854
# Poissons Ratio (y) = 0.07718 0.30981
# Poissons Ratio (z) = 0.28249 0.19360
#
# Static dielectric constant tensor:
#      x y z
#    x 1.955290 0.036120 0.023510 
#    y 0.036120 2.095880 0.047560 
#    z 0.023510 0.047560 2.064770 
# 
# From -- ./inp_files/324090.got.cif
#   From: 2010.05.17/outbox.cif.g08.bks.cpg/sg2_163_cif.got.tgz:324090.got - 2010.06.03 11:33:40.
