data_PCOD9099221
_publ_section_title
;
Structure prediction by ZEFSAII (Michael W. Deem and Ramdas Pophale) SiO2 
 PCOD9099221
Probable space group: P -1
;
_chemical_formula_sum "Si O2"
_cell_formula_units_Z 14
_cell_length_a 6.595693
_cell_length_b 24.864994
_cell_length_c 5.251396
_cell_angle_alpha 98.274169
_cell_angle_beta 72.561360
_cell_angle_gamma 54.389671
_cell_volume 609.120296
_symmetry_space_group_name_H-M "P -1"
_symmetry_group_IT_number 2
_symmetry_cell_setting 'triclinic'
loop_
_space_group_symop_operation_xyz
x,y,z
-x,-y,-z
loop_
_atom_site_type_symbol
_atom_site_label
_atom_site_fract_x
_atom_site_fract_y
_atom_site_fract_z
Si Si1 0.066517 0.607356 0.832195
Si Si2 0.814109 0.879197 0.298492
Si Si3 0.086905 0.784602 0.634875
Si Si4 0.414079 0.327736 0.329096
Si Si5 0.149505 0.998314 0.693368
Si Si6 0.353808 0.449052 0.685185
Si Si7 0.773227 0.337053 0.820807
O O1 0.117811 0.534998 0.816962
O O2 0.367644 0.576603 0.587116
O O3 0.815789 0.657962 0.762341
O O4 0.028281 0.651261 0.123445
O O5 0.989403 0.833579 0.454809
O O6 0.867923 0.933383 0.256275
O O7 0.482483 0.927368 0.516102
O O8 0.893913 0.832566 0.981260
O O9 0.410117 0.737967 0.581211
O O10 0.091820 0.720773 0.497326
O O11 0.278292 0.403571 0.566526
O O12 0.661849 0.311899 0.047358
O O13 0.000000 0.000000 0.500000
O O14 0.000000 0.000000 0.000000
O O15 0.489247 0.415804 0.887268
#
# Coordination Sequence:
#
# PCOD9099221 Si02
#       7
#     2   2   2   2   2   2   2
#     4  10  20  37  59  90 123 174 230 296 350 401
#     4  11  24  46  77 100 151 188 215 291 339 395
#     4  11  22  44  67  97 137 193 222 265 359 408
#     4  10  21  38  60  90 131 174 231 287 338 422
#     4  11  24  47  76 116 141 176 236 276 331 408
#     4   9  20  36  58  86 127 168 231 292 365 401
#     4  10  21  38  59  88 133 172 229 289 336 419
#
# _framework density 22.983967
#
# number of rings (size 3 to 8) (size 9 to 14) (size 15 to 20)
#    0.000    1.714    1.429    2.571    0.000    5.143 
#    2.571    7.143    0.000    0.000    0.000    0.000 
#    0.000    0.000    0.000    0.000    0.000    0.000 
#
# Total GULP energy -78315.758569 kJ/mol
# GULP energy per Si atom -5593.982755 kJ/mol
# Density = 2.293165 g / cm^3
# Si number density = 22.983967 Si / 1000 Ang^3
#
#
#
# Elastic Constant Matrix: (Units=GPa)
#
#
# Indices 1 2 3 4 5 6 
#
# 1 133.4342 55.0215 78.4624 8.2989 25.5165 -22.9545
# 2 55.0215 134.0577 77.0336 -4.2678 4.5622 -31.3020
# 3 78.4624 77.0336 169.6579 -1.6769 9.1310 -12.6867
# 4 8.2989 -4.2678 -1.6769 35.1708 -3.4291 5.3442
# 5 25.5165 4.5622 9.1310 -3.4291 40.2944 -18.1709
# 6 -22.9545 -31.3020 -12.6867 5.3442 -18.1709 27.2430
#
#
#
# Elastic Compliance Matrix: (Units=1/GPa)
#
#
# Indices 1 2 3 4 5 6 
#
# 1 0.012984 -0.001620 -0.004710 -0.004648 -0.005507 0.004124
# 2 -0.001620 0.015720 -0.005364 -0.000166 0.009818 0.020780
# 3 -0.004710 -0.005364 0.010100 0.001828 -0.001649 -0.006887
# 4 -0.004648 -0.000166 0.001828 0.031010 0.001395 -0.008409
# 5 -0.005507 0.009818 -0.001649 0.001395 0.043206 0.034417
# 6 0.004124 0.020780 -0.006887 -0.008409 0.034417 0.085455
#
#
# Mechanical properties :
#
#
# Convention : Reuss Voigt Hill
#
# Bulk Modulus (GPa) = 64.87656 95.35387 80.11521
# Shear Modulus (GPa) = 22.02627 35.65047 28.83837
#
# Velocity S-wave (km/s) = 3.09905 3.94268 3.54604
# Velocity P-wave (km/s) = 6.41043 7.89325 7.19017
#
# Compressibility (1/GPa) = 0.01541389
#
# Stress axis : x y z
#
# Youngs Moduli (GPa) = 77.01979 63.61519 99.00861
#
# Poissons Ratio (x) = 0.10306 0.46636
# Poissons Ratio (y) = 0.12477 0.53113
# Poissons Ratio (z) = 0.36278 0.34126
#
# Static dielectric constant tensor:
#      x y z
#    x 1.834740 0.020570 -0.021630 
#    y 0.020570 1.881850 -0.041880 
#    z -0.021630 -0.041880 1.923120 
# 
# From -- ./inp_files/13567.got.cif
#   From: 2010.05.17/outbox.cif.g08.bks.cpg/sg2_7_cif.got.tgz:13567.got - 2010.06.03 11:33:40.
