data_PCOD9099014
_publ_section_title
;
Structure prediction by ZEFSAII (Michael W. Deem and Ramdas Pophale) SiO2 
 PCOD9099014
Probable space group: P -1
;
_chemical_formula_sum "Si O2"
_cell_formula_units_Z 16
_cell_length_a 11.945518
_cell_length_b 12.024966
_cell_length_c 14.205248
_cell_angle_alpha 60.028967
_cell_angle_beta 159.173702
_cell_angle_gamma 112.286271
_cell_volume 602.452343
_symmetry_space_group_name_H-M "P -1"
_symmetry_group_IT_number 2
_symmetry_cell_setting 'triclinic'
loop_
_space_group_symop_operation_xyz
x,y,z
-x,-y,-z
loop_
_atom_site_type_symbol
_atom_site_label
_atom_site_fract_x
_atom_site_fract_y
_atom_site_fract_z
Si Si1 0.144861 0.988540 0.007406
Si Si2 0.812232 0.203044 0.344827
Si Si3 0.389013 0.855282 0.603441
Si Si4 0.400210 0.423320 0.048070
Si Si5 0.435668 0.041429 0.823670
Si Si6 0.899256 0.361858 0.983393
Si Si7 0.370520 0.721746 0.383772
Si Si8 0.676549 0.501169 0.410038
O O1 0.303629 0.927979 0.056226
O O2 0.125917 0.868390 0.110132
O O3 0.412975 0.052461 0.234460
O O4 0.797274 0.087139 0.661193
O O5 0.889691 0.160991 0.533717
O O6 0.559294 0.348784 0.107689
O O7 0.123575 0.174059 0.533931
O O8 0.648722 0.090108 0.228243
O O9 0.627447 0.705277 0.856007
O O10 0.632464 0.477525 0.275547
O O11 0.033761 0.514133 0.706773
O O12 0.500000 0.000000 0.000000
O O13 0.709134 0.349609 0.743451
O O14 0.633582 0.380376 0.849728
O O15 0.000000 0.500000 0.000000
O O16 0.259500 0.261202 0.327640
O O17 0.335532 0.629787 0.483008
#
# Coordination Sequence:
#
# PCOD9099014 Si02
#       8
#     2   2   2   2   2   2   2   2
#     4  11  20  34  52  78 111 145 171 221 261 309
#     4   8  19  29  49  76 105 133 181 223 242 296
#     4   9  19  33  48  70 115 139 170 212 248 298
#     4  10  20  33  53  79 110 136 184 215 248 321
#     4  10  16  31  54  73 103 147 178 215 262 289
#     4  10  20  38  59  78 101 131 181 238 271 304
#     4  11  22  36  55  82 109 134 179 223 271 318
#     4  11  20  35  56  77 101 142 174 222 272 313
#
# _framework density 26.558118
#
# number of rings (size 3 to 8) (size 9 to 14) (size 15 to 20)
#    0.750    1.250    1.250    5.250    1.750    0.000 
#    0.000    3.750    0.000    0.000    0.000    5.250 
#    0.000    0.000    0.000    0.000    0.000    0.000 
#
# Total GULP energy -89364.316878 kJ/mol
# GULP energy per Si atom -5585.269805 kJ/mol
# Density = 2.649767 g / cm^3
# Si number density = 26.558118 Si / 1000 Ang^3
#
#
#
# Elastic Constant Matrix: (Units=GPa)
#
#
# Indices 1 2 3 4 5 6 
#
# 1 123.9289 16.7854 49.0939 -0.0965 2.9182 -13.2196
# 2 16.7854 38.5528 24.8626 19.7433 -7.2959 -10.5161
# 3 49.0939 24.8626 158.8007 8.1447 -3.1169 -5.8064
# 4 -0.0965 19.7433 8.1447 29.3346 -11.9956 -5.7280
# 5 2.9182 -7.2959 -3.1169 -11.9956 56.4692 -2.2888
# 6 -13.2196 -10.5161 -5.8064 -5.7280 -2.2888 38.3354
#
#
#
# Elastic Compliance Matrix: (Units=1/GPa)
#
#
# Indices 1 2 3 4 5 6 
#
# 1 0.009890 -0.003982 -0.002543 0.003798 -0.000258 0.002485
# 2 -0.003982 0.047371 -0.004438 -0.029332 0.000117 0.006573
# 3 -0.002543 -0.004438 0.007714 0.000721 0.000104 -0.000812
# 4 0.003798 -0.029332 0.000721 0.057553 0.008380 0.002472
# 5 -0.000258 0.000117 0.000104 0.008380 0.019620 0.002382
# 6 0.002485 0.006573 -0.000812 0.002472 0.002382 0.029134
#
#
# Mechanical properties :
#
#
# Convention : Reuss Voigt Hill
#
# Bulk Modulus (GPa) = 23.23039 55.86293 39.54666
# Shear Modulus (GPa) = 24.08968 40.19719 32.14344
#
# Velocity S-wave (km/s) = 3.01500 3.89467 3.48272
# Velocity P-wave (km/s) = 4.57016 6.42685 5.57632
#
# Compressibility (1/GPa) = 0.04304705
#
# Stress axis : x y z
#
# Youngs Moduli (GPa) = 101.11155 21.11003 129.63987
#
# Poissons Ratio (x) = 0.08406 0.32969
# Poissons Ratio (y) = 0.40265 0.57540
# Poissons Ratio (z) = 0.25714 0.09370
#
# Static dielectric constant tensor:
#      x y z
#    x 2.190530 -0.039910 0.030160 
#    y -0.039910 2.200390 -0.112160 
#    z 0.030160 -0.112160 2.114680 
# 
# From -- ./inp_files/533312.got.cif
#   From: 2010.05.17/outbox.cif.g08.bks.cpg/sg2_267_cif.got.tgz:533312.got - 2010.06.03 11:33:40.
