data_PCOD9099473
_publ_section_title
;
Structure prediction by ZEFSAII (Michael W. Deem and Ramdas Pophale) SiO2 
 PCOD9099473
Probable space group: P -1
;
_chemical_formula_sum "Si O2"
_cell_formula_units_Z 14
_cell_length_a 9.175808
_cell_length_b 6.642114
_cell_length_c 16.804814
_cell_angle_alpha 111.457056
_cell_angle_beta 46.651797
_cell_angle_gamma 110.414027
_cell_volume 685.911924
_symmetry_space_group_name_H-M "P -1"
_symmetry_group_IT_number 2
_symmetry_cell_setting 'triclinic'
loop_
_space_group_symop_operation_xyz
x,y,z
-x,-y,-z
loop_
_atom_site_type_symbol
_atom_site_label
_atom_site_fract_x
_atom_site_fract_y
_atom_site_fract_z
Si Si1 0.928554 0.706358 0.016790
Si Si2 0.477515 0.562492 0.403017
Si Si3 0.050556 0.112747 0.126538
Si Si4 0.817982 0.689061 0.741977
Si Si5 0.763575 0.318401 0.351586
Si Si6 0.203657 0.109693 0.393415
Si Si7 0.484667 0.734290 0.248859
O O1 0.703440 0.746155 0.129270
O O2 0.070558 0.907386 0.034995
O O3 0.000000 0.500000 0.000000
O O4 0.941576 0.699239 0.915674
O O5 0.683240 0.480546 0.342718
O O6 0.403995 0.710550 0.521645
O O7 0.495053 0.686409 0.331833
O O8 0.314874 0.338848 0.422552
O O9 0.830991 0.110905 0.251037
O O10 0.202890 0.165542 0.150340
O O11 0.645071 0.486901 0.768410
O O12 0.026305 0.594732 0.670349
O O13 0.842715 0.826975 0.671238
O O14 0.365277 0.938784 0.308854
O O15 0.000000 0.000000 0.500000
#
# Coordination Sequence:
#
# PCOD9099473 Si02
#       7
#     2   2   2   2   2   2   2
#     4  11  23  42  66  89 119 162 211 257 309 362
#     4  10  20  37  60  90 129 160 200 258 304 365
#     4   9  22  42  60  87 123 159 200 261 301 357
#     4   9  22  41  60  88 129 159 200 258 301 363
#     4   9  18  39  60  85 122 164 196 251 310 357
#     4  11  22  38  61  94 129 168 200 243 310 374
#     4  11  23  39  63  95 122 164 206 248 309 369
#
# _framework density 20.410784
#
# number of rings (size 3 to 8) (size 9 to 14) (size 15 to 20)
#    0.857    1.143    0.000    3.429    0.000    7.429 
#    5.143    5.714    0.000    0.000    0.000    0.000 
#    0.000    0.000    0.000    0.000    0.000    0.000 
#
# Total GULP energy -78012.123563 kJ/mol
# GULP energy per Si atom -5572.294540 kJ/mol
# Density = 2.036433 g / cm^3
# Si number density = 20.410784 Si / 1000 Ang^3
#
#
#
# Elastic Constant Matrix: (Units=GPa)
#
#
# Indices 1 2 3 4 5 6 
#
# 1 124.5415 36.4417 33.4505 -5.6291 20.4573 -20.1592
# 2 36.4417 72.2585 29.8483 -12.9123 10.3093 -8.4135
# 3 33.4505 29.8483 84.7723 1.7368 11.0100 2.1385
# 4 -5.6291 -12.9123 1.7368 18.5175 -1.5292 -2.4796
# 5 20.4573 10.3093 11.0100 -1.5292 39.5262 -3.5255
# 6 -20.1592 -8.4135 2.1385 -2.4796 -3.5255 10.1133
#
#
#
# Elastic Compliance Matrix: (Units=1/GPa)
#
#
# Indices 1 2 3 4 5 6 
#
# 1 0.017170 0.002113 -0.008380 0.012549 -0.003071 0.039761
# 2 0.002113 0.025666 -0.011108 0.024007 -0.000774 0.033529
# 3 -0.008380 -0.011108 0.020555 -0.017137 -0.002302 -0.035296
# 4 0.012549 0.024007 -0.017137 0.085693 0.001591 0.070175
# 5 -0.003071 -0.000774 -0.002302 0.001591 0.028144 0.003921
# 6 0.039761 0.033529 -0.035296 0.070175 0.003921 0.232065
#
#
# Mechanical properties :
#
#
# Convention : Reuss Voigt Hill
#
# Bulk Modulus (GPa) = 34.91596 53.45038 44.18317
# Shear Modulus (GPa) = 11.02316 25.75354 18.38835
#
# Velocity S-wave (km/s) = 2.32645 3.55598 3.00478
# Velocity P-wave (km/s) = 4.93561 6.56538 5.80794
#
# Compressibility (1/GPa) = 0.02864020
#
# Stress axis : x y z
#
# Youngs Moduli (GPa) = 58.24195 38.96133 48.65073
#
# Poissons Ratio (x) = -0.08232 0.40770
# Poissons Ratio (y) = -0.12305 0.54041
# Poissons Ratio (z) = 0.48808 0.43278
#
# Static dielectric constant tensor:
#      x y z
#    x 1.843500 -0.045500 0.027470 
#    y -0.045500 1.777170 0.006770 
#    z 0.027470 0.006770 1.742260 
# 
# From -- ./inp_files/35189.got.cif
#   From: 2010.05.17/outbox.cif.g08.bks.cpg/sg2_18_cif.got.tgz:35189.got - 2010.06.03 11:33:40.
