data_PCOD9099526
_publ_section_title
;
Structure prediction by ZEFSAII (Michael W. Deem and Ramdas Pophale) SiO2 
 PCOD9099526
Probable space group: P -1
;
_chemical_formula_sum "Si O2"
_cell_formula_units_Z 16
_cell_length_a 13.183246
_cell_length_b 10.260079
_cell_length_c 9.828441
_cell_angle_alpha 77.329166
_cell_angle_beta 90.432383
_cell_angle_gamma 37.179221
_cell_volume 745.394982
_symmetry_space_group_name_H-M "P -1"
_symmetry_group_IT_number 2
_symmetry_cell_setting 'triclinic'
loop_
_space_group_symop_operation_xyz
x,y,z
-x,-y,-z
loop_
_atom_site_type_symbol
_atom_site_label
_atom_site_fract_x
_atom_site_fract_y
_atom_site_fract_z
Si Si1 0.403881 0.796035 0.346840
Si Si2 0.429136 0.731069 0.773937
Si Si3 0.730248 0.723698 0.154181
Si Si4 0.294299 0.618076 0.363770
Si Si5 0.636255 0.892199 0.408933
Si Si6 0.099895 0.281693 0.372323
Si Si7 0.944438 0.940717 0.411349
Si Si8 0.475947 0.794190 0.044846
O O1 0.310565 0.753748 0.381630
O O2 0.582069 0.599912 0.482298
O O3 0.444498 0.763515 0.196716
O O4 0.266986 0.054964 0.335788
O O5 0.605393 0.497028 0.752076
O O6 0.395280 0.919891 0.678591
O O7 0.255063 0.837534 0.700196
O O8 0.454227 0.716568 0.938288
O O9 0.640833 0.810474 0.284505
O O10 0.663372 0.669422 0.080164
O O11 0.937231 0.503820 0.230668
O O12 0.660035 0.936200 0.040100
O O13 0.094456 0.784478 0.332293
O O14 0.825616 0.687561 0.531290
O O15 0.500000 0.000000 0.500000
O O16 0.043244 0.211566 0.472234
O O17 0.000000 0.000000 0.500000
#
# Coordination Sequence:
#
# PCOD9099526 Si02
#       8
#     2   2   2   2   2   2   2   2
#     4  11  21  39  64  93 124 163 210 257 313 375
#     4  10  23  42  61  96 130 162 212 258 311 381
#     4  10  22  39  62  84 127 171 207 256 322 369
#     4  11  21  40  67  94 121 165 211 261 311 362
#     4  10  20  37  60  94 122 159 213 266 306 366
#     4  11  21  37  62 100 123 158 218 262 308 374
#     4  11  20  38  66  97 126 160 209 271 308 363
#     4  10  23  44  59  86 132 171 205 256 319 381
#
# _framework density 21.465131
#
# number of rings (size 3 to 8) (size 9 to 14) (size 15 to 20)
#    0.000    1.500    3.750    2.625    1.750    1.000 
#    2.250    0.625    0.000    0.000    0.000    0.000 
#    0.000    0.000    0.000    0.000    0.000    0.000 
#
# Total GULP energy -89450.719372 kJ/mol
# GULP energy per Si atom -5590.669961 kJ/mol
# Density = 2.141628 g / cm^3
# Si number density = 21.465131 Si / 1000 Ang^3
#
#
#
# Elastic Constant Matrix: (Units=GPa)
#
#
# Indices 1 2 3 4 5 6 
#
# 1 88.5281 22.1480 24.4673 8.2054 17.9173 -11.5700
# 2 22.1480 83.6263 24.2747 15.5626 7.5748 -20.6009
# 3 24.4673 24.2747 93.3649 15.9138 10.2663 -2.4837
# 4 8.2054 15.5626 15.9138 32.8311 0.2533 1.1914
# 5 17.9173 7.5748 10.2663 0.2533 34.5568 3.8988
# 6 -11.5700 -20.6009 -2.4837 1.1914 3.8988 30.0963
#
#
#
# Elastic Compliance Matrix: (Units=1/GPa)
#
#
# Indices 1 2 3 4 5 6 
#
# 1 0.014596 -0.000579 -0.002281 -0.002432 -0.007432 0.006086
# 2 -0.000579 0.017659 -0.002363 -0.007502 -0.004226 0.012514
# 3 -0.002281 -0.002363 0.012882 -0.004502 -0.001981 -0.000997
# 4 -0.002432 -0.007502 -0.004502 0.037077 0.004935 -0.008549
# 5 -0.007432 -0.004226 -0.001981 0.004935 0.035478 -0.010704
# 6 0.006086 0.012514 -0.000997 -0.008549 -0.010704 0.045775
#
#
# Mechanical properties :
#
#
# Convention : Reuss Voigt Hill
#
# Bulk Modulus (GPa) = 28.82635 45.25545 37.04090
# Shear Modulus (GPa) = 26.95765 32.47212 29.71489
#
# Velocity S-wave (km/s) = 3.54769 3.89367 3.72470
# Velocity P-wave (km/s) = 5.49909 6.42987 5.98261
#
# Compressibility (1/GPa) = 0.03469048
#
# Stress axis : x y z
#
# Youngs Moduli (GPa) = 68.51192 56.62840 77.63041
#
# Poissons Ratio (x) = 0.03277 0.17708
# Poissons Ratio (y) = 0.03964 0.18347
# Poissons Ratio (z) = 0.15628 0.13384
#
# Static dielectric constant tensor:
#      x y z
#    x 1.819440 0.025150 0.005510 
#    y 0.025150 1.807030 0.012890 
#    z 0.005510 0.012890 1.759560 
# 
# From -- ./inp_files/239753.got.cif
#   From: 2010.05.17/outbox.cif.g08.bks.cpg/sg2_120_cif.got.tgz:239753.got - 2010.06.03 11:33:40.
