data_PCOD9099806
_publ_section_title
;
Structure prediction by ZEFSAII (Michael W. Deem and Ramdas Pophale) SiO2 
 PCOD9099806
Probable space group: P -1
;
_chemical_formula_sum "Si O2"
_cell_formula_units_Z 16
_cell_length_a 11.211131
_cell_length_b 11.806876
_cell_length_c 12.613935
_cell_angle_alpha 32.021016
_cell_angle_beta 111.199670
_cell_angle_gamma 97.605783
_cell_volume 772.432744
_symmetry_space_group_name_H-M "P -1"
_symmetry_group_IT_number 2
_symmetry_cell_setting 'triclinic'
loop_
_space_group_symop_operation_xyz
x,y,z
-x,-y,-z
loop_
_atom_site_type_symbol
_atom_site_label
_atom_site_fract_x
_atom_site_fract_y
_atom_site_fract_z
Si Si1 0.354047 0.269382 0.124975
Si Si2 0.505692 0.228499 0.416545
Si Si3 0.851426 0.573849 0.448559
Si Si4 0.756422 0.868221 0.505142
Si Si5 0.866382 0.367275 0.839103
Si Si6 0.411980 0.358488 0.831124
Si Si7 0.294870 0.927402 0.890762
Si Si8 0.905812 0.704013 0.880811
O O1 0.458555 0.295039 0.227246
O O2 0.201281 0.392070 0.020184
O O3 0.367282 0.004224 0.348729
O O4 0.384717 0.321250 0.975305
O O5 0.386259 0.155476 0.487539
O O6 0.534391 0.430999 0.321927
O O7 0.868981 0.395826 0.691773
O O8 0.729625 0.580223 0.325110
O O9 0.000000 0.500000 0.500000
O O10 0.791875 0.831222 0.274496
O O11 0.831841 0.623058 0.669594
O O12 0.830946 0.891612 0.618487
O O13 0.738554 0.052769 0.261813
O O14 0.754259 0.262374 0.921637
O O15 0.006804 0.228029 0.055637
O O16 0.540103 0.146249 0.995348
O O17 0.000000 0.500000 0.000000
#
# Coordination Sequence:
#
# PCOD9099806 Si02
#       8
#     2   2   2   2   2   2   2   2
#     4  10  21  37  61  92 129 156 202 253 308 362
#     4  10  20  37  61  93 126 156 196 252 309 367
#     4  11  27  45  62  88 126 163 213 263 301 363
#     4   9  18  38  59  91 127 152 198 252 306 363
#     4  10  21  40  62  87 122 161 209 247 304 366
#     4  12  23  40  67  92 121 167 208 254 315 365
#     4  11  23  40  66  93 123 162 208 259 310 366
#     4   9  19  37  62  87 125 171 196 247 307 368
#
# _framework density 20.713778000000001
#
# number of rings (size 3 to 8) (size 9 to 14) (size 15 to 20)
#    0.000    1.750    2.500    1.500    0.000    3.500 
#    0.000    0.000    0.000    0.000    0.000    0.000 
#    0.000    0.000    0.000    0.000    0.000    0.000 
#
# Total GULP energy -89221.714805 kJ/mol
# GULP energy per Si atom -5576.357175 kJ/mol
# Density = 2.066663 g / cm^3
# Si number density = 20.713778 Si / 1000 Ang^3
#
#
#
# Elastic Constant Matrix: (Units=GPa)
#
#
# Indices 1 2 3 4 5 6 
#
# 1 130.9052 36.9874 70.4598 23.4249 5.3324 -22.0954
# 2 36.9874 53.9800 44.7935 16.9631 2.9983 -3.2621
# 3 70.4598 44.7935 90.7088 35.4103 -0.0838 -8.4332
# 4 23.4249 16.9631 35.4103 38.5842 -9.6642 2.5846
# 5 5.3324 2.9983 -0.0838 -9.6642 34.3275 4.8801
# 6 -22.0954 -3.2621 -8.4332 2.5846 4.8801 23.9415
#
#
#
# Elastic Compliance Matrix: (Units=1/GPa)
#
#
# Indices 1 2 3 4 5 6 
#
# 1 0.015877 -0.001022 -0.009851 -0.002158 -0.004749 0.012244
# 2 -0.001022 0.031732 -0.014947 -0.000147 -0.002497 -0.001360
# 3 -0.009851 -0.014947 0.034133 -0.019818 -0.003184 0.003683
# 4 -0.002158 -0.000147 -0.019818 0.050998 0.017217 -0.018008
# 5 -0.004749 -0.002497 -0.003184 0.017217 0.037097 -0.015265
# 6 0.012244 -0.001360 0.003683 -0.018008 -0.015265 0.059236
#
#
# Mechanical properties :
#
#
# Convention : Reuss Voigt Hill
#
# Bulk Modulus (GPa) = 33.22169 64.45280 48.83724
# Shear Modulus (GPa) = 17.19702 27.59421 22.39561
#
# Velocity S-wave (km/s) = 2.88448 3.65385 3.29172
# Velocity P-wave (km/s) = 5.21219 6.99887 6.17054
#
# Compressibility (1/GPa) = 0.03010082
#
# Stress axis : x y z
#
# Youngs Moduli (GPa) = 62.98487 31.51415 29.29683
#
# Poissons Ratio (x) = 0.03221 0.28861
# Poissons Ratio (y) = 0.06437 0.43791
# Poissons Ratio (z) = 0.62048 0.47105
#
# Static dielectric constant tensor:
#      x y z
#    x 1.772260 -0.038420 0.079920 
#    y -0.038420 1.755170 -0.016920 
#    z 0.079920 -0.016920 1.819830 
# 
# From -- ./inp_files/422854.got.cif
#   From: 2010.05.17/outbox.cif.g08.bks.cpg/sg2_212_cif.got.tgz:422854.got - 2010.06.03 11:33:40.
