data_PCOD9099776
_publ_section_title
;
Structure prediction by ZEFSAII (Michael W. Deem and Ramdas Pophale) SiO2 
 PCOD9099776
Probable space group: P -1
;
_chemical_formula_sum "Si O2"
_cell_formula_units_Z 14
_cell_length_a 9.713728
_cell_length_b 9.415467
_cell_length_c 7.805266
_cell_angle_alpha 68.036464
_cell_angle_beta 116.779461
_cell_angle_gamma 119.816961
_cell_volume 542.467984
_symmetry_space_group_name_H-M "P -1"
_symmetry_group_IT_number 2
_symmetry_cell_setting 'triclinic'
loop_
_space_group_symop_operation_xyz
x,y,z
-x,-y,-z
loop_
_atom_site_type_symbol
_atom_site_label
_atom_site_fract_x
_atom_site_fract_y
_atom_site_fract_z
Si Si1 0.125351 0.730417 0.297157
Si Si2 0.233631 0.461518 0.621317
Si Si3 0.674686 0.334978 0.091351
Si Si4 0.126104 0.320582 0.113022
Si Si5 0.731164 0.926931 0.624494
Si Si6 0.374453 0.189529 0.741719
Si Si7 0.896341 0.129052 0.335801
O O1 0.205290 0.594754 0.421739
O O2 0.262641 0.915290 0.335884
O O3 0.951459 0.652342 0.350878
O O4 0.043077 0.737098 0.066400
O O5 0.218801 0.767669 0.739486
O O6 0.346446 0.570976 0.793299
O O7 0.778734 0.486625 0.955513
O O8 0.519910 0.218907 0.945240
O O9 0.674524 0.651890 0.345384
O O10 0.063688 0.266570 0.293850
O O11 0.236689 0.212831 0.185760
O O12 0.897481 0.027792 0.553703
O O13 0.601894 0.845591 0.431797
O O14 0.218016 0.020995 0.782859
#
# Coordination Sequence:
#
# PCOD9099776 Si02
#       7
#     2   2   2   2   2   2   2
#     4  10  21  37  63  92 122 156 201 257 299 351
#     4  10  20  37  61  92 124 158 201 248 307 355
#     4  11  22  41  62  91 124 159 204 248 301 360
#     4  11  23  37  64  96 120 152 205 261 297 345
#     4  10  22  39  63  88 125 157 202 243 306 361
#     4  10  23  37  66  86 123 168 198 241 301 374
#     4  10  22  40  64  90 120 160 203 248 301 358
#
# _framework density 25.807973
#
# number of rings (size 3 to 8) (size 9 to 14) (size 15 to 20)
#    0.857    0.857    1.429    3.000    2.000    2.857 
#    0.000    0.000    0.000    2.571    0.000    0.000 
#    0.000    0.000    0.000    0.000    0.000    0.000 
#
# Total GULP energy -78220.717347 kJ/mol
# GULP energy per Si atom -5587.194096 kJ/mol
# Density = 2.574923 g / cm^3
# Si number density = 25.807973 Si / 1000 Ang^3
#
#
#
# Elastic Constant Matrix: (Units=GPa)
#
#
# Indices 1 2 3 4 5 6 
#
# 1 33.5460 20.4719 1.9364 -1.6403 7.4810 -4.8130
# 2 20.4719 139.5631 37.3879 19.8102 11.2442 -13.6995
# 3 1.9364 37.3879 96.1643 -8.2842 10.0379 11.5175
# 4 -1.6403 19.8102 -8.2842 42.4552 -2.9158 2.4996
# 5 7.4810 11.2442 10.0379 -2.9158 16.2597 2.8236
# 6 -4.8130 -13.6995 11.5175 2.4996 2.8236 24.8721
#
#
#
# Elastic Compliance Matrix: (Units=1/GPa)
#
#
# Indices 1 2 3 4 5 6 
#
# 1 0.036836 -0.004673 0.002335 0.002700 -0.015536 0.004966
# 2 -0.004673 0.011933 -0.005806 -0.007844 -0.005623 0.009783
# 3 0.002335 -0.005806 0.014641 0.006002 -0.003329 -0.009751
# 4 0.002700 -0.007844 0.006002 0.029625 0.007598 -0.010417
# 5 -0.015536 -0.005623 -0.003329 0.007598 0.078427 -0.014229
# 6 0.004966 0.009783 -0.009751 -0.010417 -0.014229 0.053733
#
#
# Mechanical properties :
#
#
# Convention : Reuss Voigt Hill
#
# Bulk Modulus (GPa) = 21.22151 43.20729 32.21440
# Shear Modulus (GPa) = 19.44092 30.68255 25.06173
#
# Velocity S-wave (km/s) = 2.74759 3.45175 3.11960
# Velocity P-wave (km/s) = 4.27860 5.71527 5.04830
#
# Compressibility (1/GPa) = 0.04712201
#
# Stress axis : x y z
#
# Youngs Moduli (GPa) = 27.14752 83.80342 68.29926
#
# Poissons Ratio (x) = 0.39160 -0.15945
# Poissons Ratio (y) = 0.12686 0.39653
# Poissons Ratio (z) = -0.06338 0.48654
#
# Static dielectric constant tensor:
#      x y z
#    x 2.179650 -0.047220 -0.101590 
#    y -0.047220 2.019080 0.057950 
#    z -0.101590 0.057950 2.034980 
# 
# From -- ./inp_files/302393.got.cif
#   From: 2010.05.17/outbox.cif.g08.bks.cpg/sg2_152_cif.got.tgz:302393.got - 2010.06.03 11:33:40.
