data_PCOD9099658
_publ_section_title
;
Structure prediction by ZEFSAII (Michael W. Deem and Ramdas Pophale) SiO2 
 PCOD9099658
Probable space group: P -1
;
_chemical_formula_sum "Si O2"
_cell_formula_units_Z 16
_cell_length_a 23.052261
_cell_length_b 14.004297
_cell_length_c 17.005003
_cell_angle_alpha 155.608999
_cell_angle_beta 23.304560
_cell_angle_gamma 156.686437
_cell_volume 776.028022
_symmetry_space_group_name_H-M "P -1"
_symmetry_group_IT_number 2
_symmetry_cell_setting 'triclinic'
loop_
_space_group_symop_operation_xyz
x,y,z
-x,-y,-z
loop_
_atom_site_type_symbol
_atom_site_label
_atom_site_fract_x
_atom_site_fract_y
_atom_site_fract_z
Si Si1 0.381751 0.485904 0.028740
Si Si2 0.261497 0.135502 0.210927
Si Si3 0.121525 0.120539 0.533962
Si Si4 0.026985 0.026277 0.741233
Si Si5 0.825320 0.305257 0.135776
Si Si6 0.803793 0.397334 0.536199
Si Si7 0.675768 0.085931 0.307683
Si Si8 0.016799 0.179288 0.187700
O O1 0.368780 0.661214 0.247529
O O2 0.215778 0.401034 0.117680
O O3 0.563183 0.623306 0.861864
O O4 0.330595 0.193446 0.905797
O O5 0.246354 0.112697 0.307358
O O6 0.076572 0.110250 0.405791
O O7 0.246765 0.884112 0.992203
O O8 0.113023 0.392423 0.736365
O O9 0.166175 0.109650 0.561276
O O10 0.899431 0.715156 0.648075
O O11 0.055360 0.005576 0.782640
O O12 0.947726 0.216385 0.962146
O O13 0.693207 0.237670 0.319562
O O14 0.797604 0.266893 0.362037
O O15 0.906733 0.314991 0.405017
O O16 0.500000 0.000000 0.500000
O O17 0.000000 0.000000 0.000000
#
# Coordination Sequence:
#
# PCOD9099658 Si02
#       8
#     2   2   2   2   2   2   2   2
#     4  11  22  39  60  93 126 158 207 257 312 368
#     4  10  22  37  58  86 127 166 202 246 300 366
#     4  10  23  39  60  88 129 171 206 241 306 370
#     4  10  20  37  61  88 115 158 210 252 295 366
#     4  11  21  38  56  89 128 162 206 242 300 376
#     4  11  23  40  63  88 125 163 204 258 314 365
#     4  12  24  33  59  98 129 160 196 253 324 370
#     4  11  21  44  65  91 119 163 210 259 316 365
#
# _framework density 20.617811
#
# number of rings (size 3 to 8) (size 9 to 14) (size 15 to 20)
#    0.000    1.250    3.750    4.500    8.750    1.000 
#    2.250    0.000    0.000    3.750    0.000    0.000 
#    0.000    0.000    0.000    0.000    0.000    0.000 
#
# Total GULP energy -89089.494974 kJ/mol
# GULP energy per Si atom -5568.093436 kJ/mol
# Density = 2.057088 g / cm^3
# Si number density = 20.617811 Si / 1000 Ang^3
#
#
#
# Elastic Constant Matrix: (Units=GPa)
#
#
# Indices 1 2 3 4 5 6 
#
# 1 102.7280 52.5714 45.4554 2.2959 33.6877 -24.1537
# 2 52.5714 110.3469 47.1745 -12.0219 17.4179 -28.0900
# 3 45.4554 47.1745 97.5516 -3.4511 16.5146 -13.9015
# 4 2.2959 -12.0219 -3.4511 22.6076 -11.4969 15.8063
# 5 33.6877 17.4179 16.5146 -11.4969 38.9909 -6.6744
# 6 -24.1537 -28.0900 -13.9015 15.8063 -6.6744 37.2472
#
#
#
# Elastic Compliance Matrix: (Units=1/GPa)
#
#
# Indices 1 2 3 4 5 6 
#
# 1 0.032261 -0.006377 -0.004402 -0.041650 -0.030886 0.026608
# 2 -0.006377 0.014912 -0.004114 0.007576 0.003331 0.002957
# 3 -0.004402 -0.004114 0.014205 0.001126 -0.000245 -0.001177
# 4 -0.041650 0.007576 0.001126 0.127626 0.058713 -0.064514
# 5 -0.030886 0.003331 -0.000245 0.058713 0.062911 -0.031251
# 6 0.026608 0.002957 -0.001177 -0.064514 -0.031251 0.067670
#
#
# Mechanical properties :
#
#
# Convention : Reuss Voigt Hill
#
# Bulk Modulus (GPa) = 31.65299 66.78102 49.21701
# Shear Modulus (GPa) = 13.89268 30.79749 22.34508
#
# Velocity S-wave (km/s) = 2.59862 3.86908 3.29565
# Velocity P-wave (km/s) = 4.93856 7.24016 6.19715
#
# Compressibility (1/GPa) = 0.03159259
#
# Stress axis : x y z
#
# Youngs Moduli (GPa) = 30.99692 67.06215 70.39729
#
# Poissons Ratio (x) = 0.42766 0.30986
# Poissons Ratio (y) = 0.19767 0.28962
# Poissons Ratio (z) = 0.13643 0.27590
#
# Static dielectric constant tensor:
#      x y z
#    x 1.912750 -0.038780 0.114410 
#    y -0.038780 1.802740 -0.048040 
#    z 0.114410 -0.048040 1.906990 
# 
# From -- ./inp_files/541008.got.cif
#   From: 2010.05.17/outbox.cif.g08.bks.cpg/sg2_271_cif.got.tgz:541008.got - 2010.06.03 11:33:40.
