data_PCOD9099093
_publ_section_title
;
Structure prediction by ZEFSAII (Michael W. Deem and Ramdas Pophale) SiO2 
 PCOD9099093
Probable space group: P -1
;
_chemical_formula_sum "Si O2"
_cell_formula_units_Z 16
_cell_length_a 7.787888
_cell_length_b 23.051517
_cell_length_c 9.135532
_cell_angle_alpha 142.839846
_cell_angle_beta 46.190020
_cell_angle_gamma 134.111690
_cell_volume 674.556454
_symmetry_space_group_name_H-M "P -1"
_symmetry_group_IT_number 2
_symmetry_cell_setting 'triclinic'
loop_
_space_group_symop_operation_xyz
x,y,z
-x,-y,-z
loop_
_atom_site_type_symbol
_atom_site_label
_atom_site_fract_x
_atom_site_fract_y
_atom_site_fract_z
Si Si1 0.410356 0.951818 0.298822
Si Si2 0.021106 0.394154 0.942738
Si Si3 0.218248 0.706120 0.402540
Si Si4 0.496038 0.562322 0.982284
Si Si5 0.228402 0.456077 0.493788
Si Si6 0.878686 0.094011 0.176938
Si Si7 0.240435 0.017900 0.242400
Si Si8 0.059145 0.190363 0.578707
O O1 0.250370 0.993850 0.360620
O O2 0.212454 0.844021 0.245461
O O3 0.500000 0.000000 0.500000
O O4 0.686396 0.986019 0.130664
O O5 0.235861 0.482276 0.907185
O O6 0.818678 0.328713 0.814731
O O7 0.135924 0.311764 0.774924
O O8 0.898379 0.455472 0.245865
O O9 0.258580 0.824364 0.621113
O O10 0.962892 0.642924 0.512624
O O11 0.433165 0.664682 0.249736
O O12 0.717351 0.571679 0.758156
O O13 0.500000 0.500000 0.000000
O O14 0.500000 0.500000 0.500000
O O15 0.029286 0.151109 0.346874
O O16 0.966662 0.062358 0.905260
O O17 0.214659 0.126604 0.437659
O O18 0.500000 0.000000 0.000000
#
# Coordination Sequence:
#
# PCOD9099093 Si02
#       8
#     2   2   2   2   2   2   2   2
#     4   9  19  38  60  82 119 158 197 246 300 357
#     4  10  21  39  63  91 121 158 208 250 303 373
#     4  10  20  39  63  89 124 158 206 252 301 372
#     4  11  23  39  60  91 126 158 197 266 310 350
#     4  11  19  40  67  88 117 166 208 243 309 373
#     4   9  20  38  58  88 119 158 200 250 305 362
#     4  10  20  37  59  84 121 159 198 246 300 359
#     4  10  20  38  59  88 120 159 198 252 308 360
#
# _framework density 23.719290000000001
#
# number of rings (size 3 to 8) (size 9 to 14) (size 15 to 20)
#    0.000    2.000    2.500    1.500    0.000    4.000 
#   11.250    1.250    0.000    0.000    0.000    0.000 
#    0.000    0.000    0.000    0.000    0.000    0.000 
#
# Total GULP energy -89119.395640 kJ/mol
# GULP energy per Si atom -5569.962227 kJ/mol
# Density = 2.366530 g / cm^3
# Si number density = 23.719290 Si / 1000 Ang^3
#
#
#
# Elastic Constant Matrix: (Units=GPa)
#
#
# Indices 1 2 3 4 5 6 
#
# 1 84.7586 21.0840 17.5867 2.3410 -2.7877 -29.0943
# 2 21.0840 104.0823 74.2818 12.0918 0.0477 -14.8308
# 3 17.5867 74.2818 127.6728 9.5236 -15.3149 -8.4094
# 4 2.3410 12.0918 9.5236 54.8471 -10.4813 2.4155
# 5 -2.7877 0.0477 -15.3149 -10.4813 33.8630 1.7710
# 6 -29.0943 -14.8308 -8.4094 2.4155 1.7710 44.5069
#
#
#
# Elastic Compliance Matrix: (Units=1/GPa)
#
#
# Indices 1 2 3 4 5 6 
#
# 1 0.015597 -0.001161 -0.000757 -0.000661 0.000232 0.009692
# 2 -0.001161 0.018574 -0.010892 -0.003534 -0.006341 0.003816
# 3 -0.000757 -0.010892 0.014931 0.001288 0.007191 -0.001660
# 4 -0.000661 -0.003534 0.001288 0.020265 0.006949 -0.002742
# 5 0.000232 -0.006341 0.007191 0.006949 0.035086 -0.002376
# 6 0.009692 0.003816 -0.001660 -0.002742 -0.002376 0.030006
#
#
# Mechanical properties :
#
#
# Convention : Reuss Voigt Hill
#
# Bulk Modulus (GPa) = 42.58835 60.26876 51.42856
# Shear Modulus (GPa) = 29.77819 40.21415 34.99617
#
# Velocity S-wave (km/s) = 3.54707 4.12201 3.84530
# Velocity P-wave (km/s) = 5.89658 6.93679 6.43773
#
# Compressibility (1/GPa) = 0.02348060
#
# Stress axis : x y z
#
# Youngs Moduli (GPa) = 64.11431 53.83900 66.97311
#
# Poissons Ratio (x) = 0.06252 0.05072
# Poissons Ratio (y) = 0.07445 0.72949
# Poissons Ratio (z) = 0.04856 0.58643
#
# Static dielectric constant tensor:
#      x y z
#    x 2.103990 0.001410 -0.008170 
#    y 0.001410 1.891960 -0.062320 
#    z -0.008170 -0.062320 1.916400 
# 
# From -- ./inp_files/224182.got.cif
#   From: 2010.05.17/outbox.cif.g08.bks.cpg/sg2_113_cif.got.tgz:224182.got - 2010.06.03 11:33:40.
