data_PCOD9099852
_publ_section_title
;
Structure prediction by ZEFSAII (Michael W. Deem and Ramdas Pophale) SiO2 
 PCOD9099852
Probable space group: P -1
;
_chemical_formula_sum "Si O2"
_cell_formula_units_Z 16
_cell_length_a 14.460186
_cell_length_b 14.387123
_cell_length_c 11.968883
_cell_angle_alpha 138.250523
_cell_angle_beta 35.764937
_cell_angle_gamma 151.683047
_cell_volume 685.788325
_symmetry_space_group_name_H-M "P -1"
_symmetry_group_IT_number 2
_symmetry_cell_setting 'triclinic'
loop_
_space_group_symop_operation_xyz
x,y,z
-x,-y,-z
loop_
_atom_site_type_symbol
_atom_site_label
_atom_site_fract_x
_atom_site_fract_y
_atom_site_fract_z
Si Si1 0.250224 0.052655 0.454905
Si Si2 0.449421 0.115513 0.094921
Si Si3 0.156366 0.674548 0.246268
Si Si4 0.336557 0.371562 0.148974
Si Si5 0.044411 0.860782 0.844593
Si Si6 0.644237 0.351981 0.504756
Si Si7 0.751854 0.276040 0.547649
Si Si8 0.882244 0.028900 0.895600
O O1 0.344845 0.144125 0.320968
O O2 0.457530 0.180230 0.451527
O O3 0.150765 0.834449 0.360243
O O4 0.066567 0.047353 0.672278
O O5 0.263386 0.981061 0.060800
O O6 0.684131 0.306075 0.979953
O O7 0.500000 0.000000 0.000000
O O8 0.283696 0.745086 0.304140
O O9 0.896655 0.470286 0.327357
O O10 0.387862 0.501292 0.319525
O O11 0.292217 0.186503 0.065038
O O12 0.106693 0.281498 0.238717
O O13 0.500000 0.500000 0.000000
O O14 0.246403 0.880384 0.642711
O O15 0.001072 0.813649 0.976693
O O16 0.000000 0.000000 0.000000
O O17 0.615094 0.281641 0.597682
O O18 0.000000 0.500000 0.500000
#
# Coordination Sequence:
#
# PCOD9099852 Si02
#       8
#     2   2   2   2   2   2   2   2
#     4  11  23  45  69  93 132 187 235 282 341 401
#     4  10  25  43  69  96 128 184 241 290 333 400
#     4  10  21  44  64  97 144 173 228 289 340 406
#     4  11  22  38  62 100 147 174 219 278 346 430
#     4  10  20  37  61  99 132 180 219 265 346 422
#     4  11  23  40  69 102 138 180 223 283 348 419
#     4  10  20  37  64  96 140 179 213 276 352 415
#     4  11  23  43  70  94 139 183 226 286 349 402
#
# _framework density 23.330815000000001
#
# number of rings (size 3 to 8) (size 9 to 14) (size 15 to 20)
#    0.000    1.500    3.750    1.875    5.250    2.000 
#    0.000    0.625    5.500    0.000    0.000    0.000 
#    0.000    0.000    0.000    0.000    0.000    0.000 
#
# Total GULP energy -89256.972083 kJ/mol
# GULP energy per Si atom -5578.560755 kJ/mol
# Density = 2.327771 g / cm^3
# Si number density = 23.330815 Si / 1000 Ang^3
#
#
#
# Elastic Constant Matrix: (Units=GPa)
#
#
# Indices 1 2 3 4 5 6 
#
# 1 124.3904 1.1689 19.5056 -4.5025 0.2970 2.5041
# 2 1.1689 55.6458 22.9275 -4.3103 -0.2120 -3.1062
# 3 19.5056 22.9275 119.6173 -26.2731 3.3403 -11.8295
# 4 -4.5025 -4.3103 -26.2731 31.1985 -6.0342 4.0709
# 5 0.2970 -0.2120 3.3403 -6.0342 34.6587 -4.3966
# 6 2.5041 -3.1062 -11.8295 4.0709 -4.3966 21.2955
#
#
#
# Elastic Compliance Matrix: (Units=1/GPa)
#
#
# Indices 1 2 3 4 5 6 
#
# 1 0.008326 0.000383 -0.001580 0.000141 -0.000127 -0.001854
# 2 0.000383 0.019561 -0.003849 -0.000499 0.000511 0.000871
# 3 -0.001580 -0.003849 0.011693 0.008665 0.000963 0.004662
# 4 0.000141 -0.000499 0.008665 0.040702 0.006017 -0.001814
# 5 -0.000127 0.000511 0.000963 0.006017 0.030545 0.005781
# 6 -0.001854 0.000871 0.004662 -0.001814 0.005781 0.051433
#
#
# Mechanical properties :
#
#
# Convention : Reuss Voigt Hill
#
# Bulk Modulus (GPa) = 33.91322 42.98414 38.44868
# Shear Modulus (GPa) = 27.44514 34.50063 30.97288
#
# Velocity S-wave (km/s) = 3.43351 3.84963 3.64751
# Velocity P-wave (km/s) = 5.50328 6.18250 5.85275
#
# Compressibility (1/GPa) = 0.02948703
#
# Stress axis : x y z
#
# Youngs Moduli (GPa) = 120.10432 51.12279 85.52257
#
# Poissons Ratio (x) = -0.01958 0.13512
# Poissons Ratio (y) = -0.04600 0.32922
# Poissons Ratio (z) = 0.18975 0.19680
#
# Static dielectric constant tensor:
#      x y z
#    x 1.836690 -0.050880 0.038950 
#    y -0.050880 1.918930 0.032210 
#    z 0.038950 0.032210 1.879060 
# 
# From -- ./inp_files/454925.got.cif
#   From: 2010.05.17/outbox.cif.g08.bks.cpg/sg2_228_cif.got.tgz:454925.got - 2010.06.03 11:33:40.
