data_PCOD9099046
_publ_section_title
;
Structure prediction by ZEFSAII (Michael W. Deem and Ramdas Pophale) SiO2 
 PCOD9099046
Probable space group: P -1
;
_chemical_formula_sum "Si O2"
_cell_formula_units_Z 16
_cell_length_a 6.672703
_cell_length_b 17.907407
_cell_length_c 10.961640
_cell_angle_alpha 117.292749
_cell_angle_beta 85.351181
_cell_angle_gamma 129.606722
_cell_volume 853.025654
_symmetry_space_group_name_H-M "P -1"
_symmetry_group_IT_number 2
_symmetry_cell_setting 'triclinic'
loop_
_space_group_symop_operation_xyz
x,y,z
-x,-y,-z
loop_
_atom_site_type_symbol
_atom_site_label
_atom_site_fract_x
_atom_site_fract_y
_atom_site_fract_z
Si Si1 0.439534 0.712888 0.404273
Si Si2 0.278317 0.174684 0.033839
Si Si3 0.931619 0.093334 0.497600
Si Si4 0.761051 0.674838 0.694013
Si Si5 0.733133 0.170434 0.387805
Si Si6 0.233848 0.515721 0.426964
Si Si7 0.722065 0.848050 0.266359
Si Si8 0.637876 0.955923 0.906763
O O1 0.260953 0.732682 0.494302
O O2 0.317577 0.589637 0.356322
O O3 0.472244 0.744682 0.284646
O O4 0.759446 0.813856 0.505070
O O5 0.308627 0.275833 0.164062
O O6 0.428319 0.146142 0.086873
O O7 0.337247 0.185329 0.895670
O O8 0.958966 0.061459 0.973330
O O9 0.758148 0.117562 0.463514
O O10 0.011591 0.120243 0.657454
O O11 0.788356 0.964810 0.376345
O O12 0.501717 0.595169 0.558422
O O13 0.829480 0.599995 0.679556
O O14 0.019780 0.777791 0.678462
O O15 0.463367 0.083143 0.255464
O O16 0.000000 0.500000 0.500000
O O17 0.500000 0.000000 0.000000
#
# Coordination Sequence:
#
# PCOD9099046 Si02
#       8
#     2   2   2   2   2   2   2   2
#     4  10  20  37  59  82 116 156 196 252 291 339
#     4  11  23  40  55  88 132 157 198 243 296 369
#     4   9  20  37  58  87 120 158 199 240 290 353
#     4  11  23  36  61  90 116 154 194 261 306 343
#     4  12  20  35  61  92 117 153 200 245 303 353
#     4  11  22  40  63  88 114 150 211 259 300 347
#     4   9  20  40  57  83 124 166 191 238 294 362
#     4  11  23  35  60  89 126 165 193 238 304 363
#
# _framework density 18.756762999999999
#
# number of rings (size 3 to 8) (size 9 to 14) (size 15 to 20)
#    0.750    0.750    3.750    2.250    1.750    0.500 
#    2.250    0.625    0.000    0.750    0.000    0.000 
#    0.000    0.000    0.000    0.000    0.000    0.000 
#
# Total GULP energy -89190.275191 kJ/mol
# GULP energy per Si atom -5574.392199 kJ/mol
# Density = 1.871407 g / cm^3
# Si number density = 18.756763 Si / 1000 Ang^3
#
#
#
# Elastic Constant Matrix: (Units=GPa)
#
#
# Indices 1 2 3 4 5 6 
#
# 1 69.3785 14.1138 11.0208 -1.1348 -1.8189 -23.4971
# 2 14.1138 88.3432 12.6581 -1.6245 -10.0370 -21.5759
# 3 11.0208 12.6581 61.8994 -6.5716 -7.9373 -18.6005
# 4 -1.1348 -1.6245 -6.5716 23.0696 -0.0587 -2.7132
# 5 -1.8189 -10.0370 -7.9373 -0.0587 26.5521 0.9050
# 6 -23.4971 -21.5759 -18.6005 -2.7132 0.9050 37.6971
#
#
#
# Elastic Compliance Matrix: (Units=1/GPa)
#
#
# Indices 1 2 3 4 5 6 
#
# 1 0.018434 0.000063 0.000736 0.002540 0.001102 0.012046
# 2 0.000063 0.013875 0.000516 0.002112 0.005127 0.008265
# 3 0.000736 0.000516 0.020937 0.007401 0.006130 0.011471
# 4 0.002540 0.002112 0.007401 0.046883 0.002957 0.009748
# 5 0.001102 0.005127 0.006130 0.002957 0.041314 0.005867
# 6 0.012046 0.008265 0.011471 0.009748 0.005867 0.044987
#
#
# Mechanical properties :
#
#
# Convention : Reuss Voigt Hill
#
# Bulk Modulus (GPa) = 17.89624 32.80072 25.34848
# Shear Modulus (GPa) = 24.70046 29.58564 27.14305
#
# Velocity S-wave (km/s) = 3.63282 3.97587 3.80821
# Velocity P-wave (km/s) = 5.21138 6.21306 5.73414
#
# Compressibility (1/GPa) = 0.05587765
#
# Stress axis : x y z
#
# Youngs Moduli (GPa) = 54.24747 72.07127 47.76153
#
# Poissons Ratio (x) = -0.00457 -0.03514
# Poissons Ratio (y) = -0.00344 -0.02467
# Poissons Ratio (z) = -0.03991 -0.03722
#
# Static dielectric constant tensor:
#      x y z
#    x 1.689200 -0.001790 -0.003280 
#    y -0.001790 1.684820 -0.022370 
#    z -0.003280 -0.022370 1.639670 
# 
# From -- ./inp_files/369082.got.cif
#   From: 2010.05.17/outbox.cif.g08.bks.cpg/sg2_185_cif.got.tgz:369082.got - 2010.06.03 11:33:40.
