data_PCOD9099555
_publ_section_title
;
Structure prediction by ZEFSAII (Michael W. Deem and Ramdas Pophale) SiO2 
 PCOD9099555
Probable space group: P -1
;
_chemical_formula_sum "Si O2"
_cell_formula_units_Z 12
_cell_length_a 16.356246
_cell_length_b 15.762287
_cell_length_c 9.585144
_cell_angle_alpha 44.991390
_cell_angle_beta 151.855547
_cell_angle_gamma 144.380338
_cell_volume 678.457898
_symmetry_space_group_name_H-M "P -1"
_symmetry_group_IT_number 2
_symmetry_cell_setting 'triclinic'
loop_
_space_group_symop_operation_xyz
x,y,z
-x,-y,-z
loop_
_atom_site_type_symbol
_atom_site_label
_atom_site_fract_x
_atom_site_fract_y
_atom_site_fract_z
Si Si1 0.677212 0.835406 0.115473
Si Si2 0.525564 0.649759 0.827132
Si Si3 0.062380 0.566659 0.170817
Si Si4 0.009547 0.829922 0.817490
Si Si5 0.678624 0.671863 0.730028
Si Si6 0.660756 0.392206 0.938234
O O1 0.842147 0.814888 0.470360
O O2 0.461881 0.746633 0.984133
O O3 0.635830 0.763323 0.986358
O O4 0.784627 0.007276 0.069308
O O5 0.293838 0.612592 0.500206
O O6 0.649954 0.704882 0.804536
O O7 0.500000 0.500000 0.000000
O O8 0.000000 0.500000 0.000000
O O9 0.049877 0.706100 0.996269
O O10 0.890630 0.451224 0.158312
O O11 0.890328 0.794875 0.826947
O O12 0.670252 0.523599 0.880116
O O13 0.484751 0.641520 0.377708
#
# Coordination Sequence:
#
# PCOD9099555 Si02
#       6
#     2   2   2   2   2   2
#     4  10  20  37  61  82 115 141 187 228 274 324
#     4  12  22  34  58  89 112 137 191 241 266 311
#     4  11  21  36  60  82 110 146 190 224 275 330
#     4   9  21  40  60  78 110 158 180 214 284 343
#     4   9  17  34  58  81 110 146 184 218 277 332
#     4   9  17  35  58  80 109 150 180 219 276 336
#
# _framework density 17.687169999999998
#
# number of rings (size 3 to 8) (size 9 to 14) (size 15 to 20)
#    0.000    2.000    3.333    2.000    0.000    2.000 
#    0.000    0.833    3.667    0.000    0.000    0.000 
#    0.000    0.000    0.000    0.000    0.000    0.000 
#
# Total GULP energy -66982.817155 kJ/mol
# GULP energy per Si atom -5581.901430 kJ/mol
# Density = 1.764691 g / cm^3
# Si number density = 17.687170 Si / 1000 Ang^3
#
#
#
# Elastic Constant Matrix: (Units=GPa)
#
#
# Indices 1 2 3 4 5 6 
#
# 1 174.1350 75.4769 51.8565 13.5025 -7.4418 10.0812
# 2 75.4769 119.8916 40.2778 9.2962 0.5174 18.6868
# 3 51.8565 40.2778 49.3229 0.8724 4.9471 -0.1811
# 4 13.5025 9.2962 0.8724 18.3283 -7.5658 -0.0232
# 5 -7.4418 0.5174 4.9471 -7.5658 25.3275 5.8497
# 6 10.0812 18.6868 -0.1811 -0.0232 5.8497 29.2135
#
#
#
# Elastic Compliance Matrix: (Units=1/GPa)
#
#
# Indices 1 2 3 4 5 6 
#
# 1 0.010214 -0.002749 -0.008857 -0.003971 0.004217 -0.002669
# 2 -0.002749 0.014996 -0.009454 -0.004542 0.001454 -0.008997
# 3 -0.008857 -0.009454 0.038375 0.004923 -0.011106 0.011569
# 4 -0.003971 -0.004542 0.004923 0.066888 0.017759 0.000803
# 5 0.004217 0.001454 -0.011106 0.017759 0.051093 -0.012671
# 6 -0.002669 -0.008997 0.011569 0.000803 -0.012671 0.043516
#
#
# Mechanical properties :
#
#
# Convention : Reuss Voigt Hill
#
# Bulk Modulus (GPa) = 46.58424 75.39690 60.99057
# Shear Modulus (GPa) = 18.22440 26.28975 22.25707
#
# Velocity S-wave (km/s) = 3.21343 3.85953 3.55120
# Velocity P-wave (km/s) = 6.33744 7.91087 7.16746
#
# Compressibility (1/GPa) = 0.02146649
#
# Stress axis : x y z
#
# Youngs Moduli (GPa) = 97.90038 66.68479 26.05834
#
# Poissons Ratio (x) = 0.18334 0.23079
# Poissons Ratio (y) = 0.26917 0.24635
# Poissons Ratio (z) = 0.86706 0.63042
#
# Static dielectric constant tensor:
#      x y z
#    x 1.596710 0.029470 -0.004740 
#    y 0.029470 1.587240 0.001730 
#    z -0.004740 0.001730 1.593370 
# 
# From -- ./inp_files/144653.got.cif
#   From: 2010.05.17/outbox.cif.g08.bks.cpg/sg2_73_cif.got.tgz:144653.got - 2010.06.03 11:33:40.
