data_PCOD9099888
_publ_section_title
;
Structure prediction by ZEFSAII (Michael W. Deem and Ramdas Pophale) SiO2 
 PCOD9099888
Probable space group: P -1
;
_chemical_formula_sum "Si O2"
_cell_formula_units_Z 14
_cell_length_a 20.933728
_cell_length_b 13.505882
_cell_length_c 11.072994
_cell_angle_alpha 42.357877
_cell_angle_beta 146.139508
_cell_angle_gamma 161.112447
_cell_volume 545.370841
_symmetry_space_group_name_H-M "P -1"
_symmetry_group_IT_number 2
_symmetry_cell_setting 'triclinic'
loop_
_space_group_symop_operation_xyz
x,y,z
-x,-y,-z
loop_
_atom_site_type_symbol
_atom_site_label
_atom_site_fract_x
_atom_site_fract_y
_atom_site_fract_z
Si Si1 0.038408 0.653922 0.238838
Si Si2 0.826292 0.188368 0.153260
Si Si3 0.132993 0.985483 0.408425
Si Si4 0.688167 0.608049 0.126505
Si Si5 0.155524 0.328262 0.450537
Si Si6 0.705551 0.297054 0.246577
Si Si7 0.606067 0.705545 0.707073
O O1 0.210280 0.756842 0.508852
O O2 0.999759 0.514011 0.185843
O O3 0.773230 0.364818 0.150245
O O4 0.177412 0.965556 0.174733
O O5 0.776419 0.019785 0.339854
O O6 0.970816 0.255295 0.221103
O O7 0.568902 0.968878 0.911291
O O8 0.986175 0.956871 0.258272
O O9 0.901025 0.636621 0.298461
O O10 0.316718 0.225631 0.371659
O O11 0.707945 0.502084 0.355890
O O12 0.500000 0.500000 0.000000
O O13 0.580363 0.521035 0.902071
O O14 0.369392 0.540450 0.499865
O O15 0.000000 0.000000 0.500000
#
# Coordination Sequence:
#
# PCOD9099888 Si02
#       7
#     2   2   2   2   2   2   2
#     4   9  19  36  57  90 116 147 191 236 289 343
#     4  10  20  37  62  85 118 154 188 233 291 350
#     4   9  19  36  59  90 114 148 198 236 285 341
#     4   9  19  36  59  79 112 159 187 230 296 340
#     4  10  23  41  56  83 115 154 198 239 290 345
#     4   9  18  34  61  86 119 151 183 237 291 347
#     4  10  20  38  59  81 119 149 189 247 283 340
#
# _framework density 25.670607
#
# number of rings (size 3 to 8) (size 9 to 14) (size 15 to 20)
#    0.000    2.571    0.000    1.714    4.000    0.571 
#    7.714    2.143    0.000    0.000    0.000    0.000 
#    0.000    0.000    0.000    0.000    0.000    0.000 
#
# Total GULP energy -78097.061632 kJ/mol
# GULP energy per Si atom -5578.361545 kJ/mol
# Density = 2.561218 g / cm^3
# Si number density = 25.670607 Si / 1000 Ang^3
#
#
#
# Elastic Constant Matrix: (Units=GPa)
#
#
# Indices 1 2 3 4 5 6 
#
# 1 116.9431 51.9485 38.0832 13.6982 10.8078 17.6300
# 2 51.9485 72.6923 26.5651 14.8775 3.2980 8.5534
# 3 38.0832 26.5651 110.2551 16.0157 26.4231 17.5131
# 4 13.6982 14.8775 16.0157 36.5576 10.9263 9.1025
# 5 10.8078 3.2980 26.4231 10.9263 37.5565 8.9733
# 6 17.6300 8.5534 17.5131 9.1025 8.9733 63.2322
#
#
#
# Elastic Compliance Matrix: (Units=1/GPa)
#
#
# Indices 1 2 3 4 5 6 
#
# 1 0.013401 -0.008621 -0.001967 0.000211 -0.001331 -0.001867
# 2 -0.008621 0.021768 -0.002412 -0.005830 0.003863 0.000418
# 3 -0.001967 -0.002412 0.012479 -0.001220 -0.007320 -0.001367
# 4 0.000211 -0.005830 -0.001220 0.033135 -0.007707 -0.002609
# 5 -0.001331 0.003863 -0.007320 -0.007707 0.034520 -0.001913
# 6 -0.001867 0.000418 -0.001367 -0.002609 -0.001913 0.017304
#
#
# Mechanical properties :
#
#
# Convention : Reuss Voigt Hill
#
# Bulk Modulus (GPa) = 46.19455 59.23157 52.71306
# Shear Modulus (GPa) = 30.15235 39.68883 34.92059
#
# Velocity S-wave (km/s) = 3.43094 3.93629 3.69227
# Velocity P-wave (km/s) = 5.80770 6.61687 6.22544
#
# Compressibility (1/GPa) = 0.02164758
#
# Stress axis : x y z
#
# Youngs Moduli (GPa) = 74.62027 45.93887 80.13353
#
# Poissons Ratio (x) = 0.39606 0.15761
# Poissons Ratio (y) = 0.64333 0.19330
# Poissons Ratio (z) = 0.14676 0.11081
#
# Static dielectric constant tensor:
#      x y z
#    x 2.271400 -0.070480 0.038120 
#    y -0.070480 2.050370 -0.001780 
#    z 0.038120 -0.001780 2.006390 
# 
# From -- ./inp_files/131601.got.cif
#   From: 2010.05.17/outbox.cif.g08.bks.cpg/sg2_66_cif.got.tgz:131601.got - 2010.06.03 11:33:40.
