data_PCOD9099190
_publ_section_title
;
Structure prediction by ZEFSAII (Michael W. Deem and Ramdas Pophale) SiO2 
 PCOD9099190
Probable space group: P -1
;
_chemical_formula_sum "Si O2"
_cell_formula_units_Z 14
_cell_length_a 9.485305
_cell_length_b 11.818703
_cell_length_c 11.761284
_cell_angle_alpha 131.939904
_cell_angle_beta 86.492496
_cell_angle_gamma 130.369643
_cell_volume 564.024518
_symmetry_space_group_name_H-M "P -1"
_symmetry_group_IT_number 2
_symmetry_cell_setting 'triclinic'
loop_
_space_group_symop_operation_xyz
x,y,z
-x,-y,-z
loop_
_atom_site_type_symbol
_atom_site_label
_atom_site_fract_x
_atom_site_fract_y
_atom_site_fract_z
Si Si1 0.458774 0.285224 0.680299
Si Si2 0.344277 0.664302 0.088196
Si Si3 0.264974 0.150598 0.210880
Si Si4 0.890699 0.235699 0.425386
Si Si5 0.770622 0.725032 0.488092
Si Si6 0.081736 0.313443 0.237772
Si Si7 0.906560 0.318350 0.717937
O O1 0.575082 0.402780 0.878577
O O2 0.296992 0.281379 0.638687
O O3 0.676544 0.455605 0.693362
O O4 0.298877 0.992411 0.485262
O O5 0.202937 0.647916 0.174234
O O6 0.599991 0.964913 0.237289
O O7 0.157603 0.480957 0.871071
O O8 0.544808 0.423845 0.344208
O O9 0.233648 0.127557 0.332780
O O10 0.125270 0.182903 0.203545
O O11 0.144445 0.907285 0.985766
O O12 0.942851 0.394356 0.634833
O O13 0.990239 0.163517 0.427399
O O14 0.029429 0.368266 0.387852
#
# Coordination Sequence:
#
# PCOD9099190 Si02
#       7
#     2   2   2   2   2   2   2
#     4  10  20  37  59  89 114 150 181 235 277 343
#     4  10  23  43  59  78 105 161 195 234 286 332
#     4   8  16  32  50  82 127 159 168 212 277 362
#     4  10  20  37  59  89 114 150 181 235 277 343
#     4   9  18  31  56  90 122 146 180 218 288 336
#     4   9  18  32  59  86 114 149 190 219 282 328
#     4  10  23  43  61  73 112 154 199 234 286 330
#
# _framework density 24.821615000000001
#
# number of rings (size 3 to 8) (size 9 to 14) (size 15 to 20)
#    0.000    2.571    0.000    2.571    4.000    2.286 
#    0.000    4.286    0.000    3.429    0.000    0.000 
#    0.000    0.000    0.000    0.000    0.000    0.000 
#
# Total GULP energy -78258.990103 kJ/mol
# GULP energy per Si atom -5589.927864 kJ/mol
# Density = 2.476512 g / cm^3
# Si number density = 24.821615 Si / 1000 Ang^3
#
#
#
# Elastic Constant Matrix: (Units=GPa)
#
#
# Indices 1 2 3 4 5 6 
#
# 1 68.7843 4.4714 27.4763 -2.0853 11.0411 7.4223
# 2 4.4714 91.8037 33.2708 -18.5017 6.0005 5.4915
# 3 27.4763 33.2708 135.1037 -3.7832 26.1559 10.8781
# 4 -2.0853 -18.5017 -3.7832 15.0757 1.4291 4.3616
# 5 11.0411 6.0005 26.1559 1.4291 47.5917 -10.1048
# 6 7.4223 5.4915 10.8781 4.3616 -10.1048 32.4733
#
#
#
# Elastic Compliance Matrix: (Units=1/GPa)
#
#
# Indices 1 2 3 4 5 6 
#
# 1 0.016833 0.001874 -0.002489 0.005956 -0.004100 -0.005407
# 2 0.001874 0.016919 -0.002828 0.022422 -0.003024 -0.006295
# 3 -0.002489 -0.002828 0.009990 0.000375 -0.005425 -0.004038
# 4 0.005956 0.022422 0.000375 0.102563 -0.012357 -0.022900
# 5 -0.004100 -0.003024 -0.005425 -0.012357 0.028635 0.013836
# 6 -0.005407 -0.006295 -0.004038 -0.022900 0.013836 0.041829
#
#
# Mechanical properties :
#
#
# Convention : Reuss Voigt Hill
#
# Bulk Modulus (GPa) = 27.13174 47.34763 37.23968
# Shear Modulus (GPa) = 21.19185 34.39302 27.79244
#
# Velocity S-wave (km/s) = 2.92510 3.72641 3.34980
# Velocity P-wave (km/s) = 4.72892 6.13445 5.47696
#
# Compressibility (1/GPa) = 0.03685721
#
# Stress axis : x y z
#
# Youngs Moduli (GPa) = 59.40800 59.10441 100.09841
#
# Poissons Ratio (x) = -0.11076 0.24913
# Poissons Ratio (y) = -0.11133 0.28304
# Poissons Ratio (z) = 0.14786 0.16712
#
# Static dielectric constant tensor:
#      x y z
#    x 2.062220 -0.052110 -0.035830 
#    y -0.052110 1.991160 -0.038650 
#    z -0.035830 -0.038650 1.993090 
# 
# From -- ./inp_files/253419.got.cif
#   From: 2010.05.17/outbox.cif.g08.bks.cpg/sg2_127_cif.got.tgz:253419.got - 2010.06.03 11:33:40.
