data_PCOD9099196
_publ_section_title
;
Structure prediction by ZEFSAII (Michael W. Deem and Ramdas Pophale) SiO2 
 PCOD9099196
Probable space group: P -1
;
_chemical_formula_sum "Si O2"
_cell_formula_units_Z 16
_cell_length_a 15.486840
_cell_length_b 15.834925
_cell_length_c 12.208601
_cell_angle_alpha 39.834882
_cell_angle_beta 56.396246
_cell_angle_gamma 26.768588
_cell_volume 767.831853
_symmetry_space_group_name_H-M "P -1"
_symmetry_group_IT_number 2
_symmetry_cell_setting 'triclinic'
loop_
_space_group_symop_operation_xyz
x,y,z
-x,-y,-z
loop_
_atom_site_type_symbol
_atom_site_label
_atom_site_fract_x
_atom_site_fract_y
_atom_site_fract_z
Si Si1 0.216244 0.384546 0.557043
Si Si2 0.517598 0.450045 0.368738
Si Si3 0.203358 0.273551 0.434156
Si Si4 0.753093 0.058153 0.778488
Si Si5 0.481128 0.927695 0.982073
Si Si6 0.618136 0.659851 0.811179
Si Si7 0.767208 0.418222 0.167706
Si Si8 0.218077 0.672047 0.179483
O O1 0.201520 0.335740 0.496226
O O2 0.197004 0.560862 0.375423
O O3 0.016564 0.556865 0.597782
O O4 0.422343 0.090562 0.761655
O O5 0.605376 0.233290 0.598157
O O6 0.336240 0.728933 0.289353
O O7 0.718282 0.326970 0.337111
O O8 0.410798 0.531515 0.247288
O O9 0.248285 0.353144 0.253296
O O10 0.399951 0.952445 0.615399
O O11 0.701068 0.979808 0.955196
O O12 0.997411 0.815329 0.813152
O O13 0.692231 0.607434 0.122227
O O14 0.500000 0.000000 0.000000
O O15 0.727475 0.437032 0.872700
O O16 0.597539 0.623135 0.981963
O O17 0.000000 0.000000 0.000000
#
# Coordination Sequence:
#
# PCOD9099196 Si02
#       8
#     2   2   2   2   2   2   2   2
#     4  10  20  38  61  84 122 158 199 248 310 359
#     4  10  23  42  62  88 129 163 206 252 298 364
#     4   9  19  36  61  86 115 158 199 245 306 364
#     4  10  22  43  65  89 121 166 207 251 304 363
#     4  11  23  40  63  93 122 154 205 263 307 357
#     4  10  20  37  59  89 120 154 202 250 298 367
#     4  11  22  39  67  86 122 166 209 245 308 365
#     4  11  24  39  59  90 127 161 200 254 307 361
#
# _framework density 20.837895
#
# number of rings (size 3 to 8) (size 9 to 14) (size 15 to 20)
#    0.000    1.750    1.250    2.625    1.750    3.000 
#    4.500    0.000    0.000    0.000    0.000    0.000 
#    0.000    0.000    0.000    0.000    0.000    0.000 
#
# Total GULP energy -89298.580850 kJ/mol
# GULP energy per Si atom -5581.161303 kJ/mol
# Density = 2.079047 g / cm^3
# Si number density = 20.837895 Si / 1000 Ang^3
#
#
#
# Elastic Constant Matrix: (Units=GPa)
#
#
# Indices 1 2 3 4 5 6 
#
# 1 50.2078 15.9430 12.6943 -11.1385 -8.4454 6.6133
# 2 15.9430 94.2623 3.2100 -13.9748 -17.4437 -6.5636
# 3 12.6943 3.2100 93.2059 2.5234 -15.3168 6.1229
# 4 -11.1385 -13.9748 2.5234 33.5369 4.2833 0.8481
# 5 -8.4454 -17.4437 -15.3168 4.2833 22.3685 -1.8218
# 6 6.6133 -6.5636 6.1229 0.8481 -1.8218 20.0026
#
#
#
# Elastic Compliance Matrix: (Units=1/GPa)
#
#
# Indices 1 2 3 4 5 6 
#
# 1 0.024675 -0.003042 -0.002341 0.006891 0.003335 -0.008428
# 2 -0.003042 0.013896 0.001154 0.003219 0.010352 0.006018
# 3 -0.002341 0.001154 0.012668 -0.002353 0.008995 -0.001806
# 4 0.006891 0.003219 -0.002353 0.034092 -0.003210 -0.002240
# 5 0.003335 0.010352 0.008995 -0.003210 0.061240 0.005255
# 6 -0.008428 0.006018 -0.001806 -0.002240 0.005255 0.055881
#
#
# Mechanical properties :
#
#
# Convention : Reuss Voigt Hill
#
# Bulk Modulus (GPa) = 23.37357 33.48562 28.42959
# Shear Modulus (GPa) = 22.20558 28.90351 25.55454
#
# Velocity S-wave (km/s) = 3.26795 3.72837 3.50573
# Velocity P-wave (km/s) = 5.04782 5.88547 5.48267
#
# Compressibility (1/GPa) = 0.04278337
#
# Stress axis : x y z
#
# Youngs Moduli (GPa) = 40.52723 71.96374 78.93639
#
# Poissons Ratio (x) = 0.21889 0.18476
# Poissons Ratio (y) = 0.12327 -0.09113
# Poissons Ratio (z) = 0.09486 -0.08308
#
# Static dielectric constant tensor:
#      x y z
#    x 1.742380 -0.036950 -0.003390 
#    y -0.036950 1.778450 0.000160 
#    z -0.003390 0.000160 1.761360 
# 
# From -- ./inp_files/455461.got.cif
#   From: 2010.05.17/outbox.cif.g08.bks.cpg/sg2_228_cif.got.tgz:455461.got - 2010.06.03 11:33:40.
