data_PCOD9099318
_publ_section_title
;
Structure prediction by ZEFSAII (Michael W. Deem and Ramdas Pophale) SiO2 
 PCOD9099318
Probable space group: P -1
;
_chemical_formula_sum "Si O2"
_cell_formula_units_Z 16
_cell_length_a 14.734638
_cell_length_b 11.809127
_cell_length_c 13.046450
_cell_angle_alpha 35.073055
_cell_angle_beta 30.035509
_cell_angle_gamma 36.612531
_cell_volume 616.942665
_symmetry_space_group_name_H-M "P -1"
_symmetry_group_IT_number 2
_symmetry_cell_setting 'triclinic'
loop_
_space_group_symop_operation_xyz
x,y,z
-x,-y,-z
loop_
_atom_site_type_symbol
_atom_site_label
_atom_site_fract_x
_atom_site_fract_y
_atom_site_fract_z
Si Si1 0.753243 0.310997 0.921445
Si Si2 0.488931 0.779021 0.586515
Si Si3 0.138969 0.284139 0.074098
Si Si4 0.118258 0.252201 0.337033
Si Si5 0.620714 0.448431 0.316975
Si Si6 0.561504 0.791536 0.797551
Si Si7 0.980100 0.930725 0.818522
Si Si8 0.081204 0.272271 0.764465
O O1 0.653797 0.240306 0.170374
O O2 0.650431 0.232207 0.986721
O O3 0.684422 0.563162 0.802191
O O4 0.975308 0.245834 0.784330
O O5 0.493625 0.604568 0.626432
O O6 0.700386 0.744446 0.446515
O O7 0.433138 0.005545 0.420115
O O8 0.069676 0.203567 0.304984
O O9 0.170235 0.123517 0.070156
O O10 0.309676 0.351972 0.904748
O O11 0.000000 0.500000 0.000000
O O12 0.338022 0.189912 0.207293
O O13 0.031788 0.499594 0.250799
O O14 0.012909 0.143561 0.598841
O O15 0.500000 0.500000 0.500000
O O16 0.811769 0.243377 0.285195
O O17 0.940988 0.879239 0.010989
#
# Coordination Sequence:
#
# PCOD9099318 Si02
#       8
#     2   2   2   2   2   2   2   2
#     4  10  22  45  66  96 131 170 210 273 324 377
#     4  12  23  41  68  95 130 174 216 264 322 381
#     4  10  20  37  60  84 122 164 214 259 309 377
#     4  11  20  40  66  90 125 175 211 261 328 376
#     4  11  21  37  61  89 130 168 210 260 316 372
#     4  10  22  41  69  94 131 169 216 266 325 383
#     4  11  21  40  62  90 127 173 214 263 316 383
#     4  11  23  40  67  95 130 169 212 266 320 380
#
# _framework density 25.934339999999999
#
# number of rings (size 3 to 8) (size 9 to 14) (size 15 to 20)
#    0.000    1.250    5.000    2.250    1.750    1.500 
#    0.000    6.250    0.000    0.000    0.000    0.000 
#    0.000    0.000    0.000    0.000    0.000    0.000 
#
# Total GULP energy -89556.737917 kJ/mol
# GULP energy per Si atom -5597.296120 kJ/mol
# Density = 2.587531 g / cm^3
# Si number density = 25.934340 Si / 1000 Ang^3
#
#
#
# Elastic Constant Matrix: (Units=GPa)
#
#
# Indices 1 2 3 4 5 6 
#
# 1 202.4762 42.9990 69.1588 -3.7364 -22.7569 -3.7146
# 2 42.9990 56.1015 19.0918 0.3528 -14.6448 -13.9104
# 3 69.1588 19.0918 126.0774 -8.2726 -16.9667 -12.9660
# 4 -3.7364 0.3528 -8.2726 44.1166 4.8219 -3.8376
# 5 -22.7569 -14.6448 -16.9667 4.8219 51.7862 -4.8786
# 6 -3.7146 -13.9104 -12.9660 -3.8376 -4.8786 53.4995
#
#
#
# Elastic Compliance Matrix: (Units=1/GPa)
#
#
# Indices 1 2 3 4 5 6 
#
# 1 0.007045 -0.004472 -0.003257 -0.000172 0.000646 -0.001416
# 2 -0.004472 0.024284 0.000164 -0.000590 0.005624 0.006514
# 3 -0.003257 0.000164 0.010357 0.001665 0.002102 0.002638
# 4 -0.000172 -0.000590 0.001665 0.023308 -0.001702 0.001755
# 5 0.000646 0.005624 0.002102 -0.001702 0.022403 0.003937
# 6 -0.001416 0.006514 0.002638 0.001755 0.003937 0.021411
#
#
# Mechanical properties :
#
#
# Convention : Reuss Voigt Hill
#
# Bulk Modulus (GPa) = 37.65833 71.90601 54.78217
# Shear Modulus (GPa) = 37.65359 46.77417 42.21388
#
# Velocity S-wave (km/s) = 3.81449 4.25144 4.03888
# Velocity P-wave (km/s) = 5.82689 7.20320 6.55128
#
# Compressibility (1/GPa) = 0.02655455
#
# Stress axis : x y z
#
# Youngs Moduli (GPa) = 141.95295 41.17963 96.55566
#
# Poissons Ratio (x) = 0.18417 0.31448
# Poissons Ratio (y) = 0.63486 -0.01584
# Poissons Ratio (z) = 0.46234 -0.00675
#
# Static dielectric constant tensor:
#      x y z
#    x 2.088390 0.015020 0.049210 
#    y 0.015020 2.149810 0.079530 
#    z 0.049210 0.079530 2.142230 
# 
# From -- ./inp_files/350212.got.cif
#   From: 2010.05.17/outbox.cif.g08.bks.cpg/sg2_176_cif.got.tgz:350212.got - 2010.06.03 11:33:40.
