data_PCOD9099705
_publ_section_title
;
Structure prediction by ZEFSAII (Michael W. Deem and Ramdas Pophale) SiO2 
 PCOD9099705
Probable space group: P -1
;
_chemical_formula_sum "Si O2"
_cell_formula_units_Z 16
_cell_length_a 9.668696
_cell_length_b 16.353670
_cell_length_c 8.267104
_cell_angle_alpha 112.950055
_cell_angle_beta 131.779020
_cell_angle_gamma 96.532648
_cell_volume 753.188942
_symmetry_space_group_name_H-M "P -1"
_symmetry_group_IT_number 2
_symmetry_cell_setting 'triclinic'
loop_
_space_group_symop_operation_xyz
x,y,z
-x,-y,-z
loop_
_atom_site_type_symbol
_atom_site_label
_atom_site_fract_x
_atom_site_fract_y
_atom_site_fract_z
Si Si1 0.096161 0.013940 0.263735
Si Si2 0.266865 0.697837 0.083123
Si Si3 0.412308 0.205578 0.854946
Si Si4 0.384568 0.103874 0.064634
Si Si5 0.689555 0.105914 0.543557
Si Si6 0.140911 0.461980 0.169611
Si Si7 0.489923 0.317492 0.448600
Si Si8 0.150585 0.273583 0.924457
O O1 0.249252 0.966955 0.368326
O O2 0.245733 0.135182 0.527823
O O3 0.877532 0.953483 0.158368
O O4 0.000000 0.000000 0.000000
O O5 0.353719 0.713474 0.981430
O O6 0.311481 0.809344 0.271330
O O7 0.416505 0.670172 0.289568
O O8 0.012143 0.607817 0.853438
O O9 0.303688 0.257743 0.910849
O O10 0.422603 0.122858 0.918342
O O11 0.479228 0.053943 0.219618
O O12 0.514194 0.225540 0.323103
O O13 0.899893 0.176749 0.643989
O O14 0.373788 0.571537 0.455448
O O15 0.162157 0.382213 0.009116
O O16 0.000000 0.500000 0.000000
O O17 0.237731 0.274413 0.176348
#
# Coordination Sequence:
#
# PCOD9099705 Si02
#       8
#     2   2   2   2   2   2   2   2
#     4  12  24  41  66  90 122 166 214 253 301 373
#     4   9  20  37  59  91 124 155 208 257 297 366
#     4  11  23  40  60  90 131 160 202 263 315 352
#     4  10  22  40  61  91 129 159 204 258 304 367
#     4  10  21  41  63  86 123 165 212 247 304 366
#     4   9  18  35  63  89 118 164 212 245 299 376
#     4   9  16  35  63  87 118 163 203 250 297 365
#     4  10  20  37  61  89 122 162 207 248 313 366
#
# _framework density 21.243010000000002
#
# number of rings (size 3 to 8) (size 9 to 14) (size 15 to 20)
#    0.000    2.000    2.500    3.000    0.000    2.500 
#    2.250    5.000    0.000    0.000    0.000    0.000 
#    0.000    0.000    0.000    0.000    0.000    0.000 
#
# Total GULP energy -89186.971295 kJ/mol
# GULP energy per Si atom -5574.185706 kJ/mol
# Density = 2.119466 g / cm^3
# Si number density = 21.243010 Si / 1000 Ang^3
#
#
#
# Elastic Constant Matrix: (Units=GPa)
#
#
# Indices 1 2 3 4 5 6 
#
# 1 96.9486 43.3760 -8.0613 2.0137 13.5739 0.3598
# 2 43.3760 91.8009 13.6399 -5.1061 3.0346 -13.7806
# 3 -8.0613 13.6399 45.4927 -7.1853 9.0917 -4.8847
# 4 2.0137 -5.1061 -7.1853 43.9990 0.6846 8.8898
# 5 13.5739 3.0346 9.0917 0.6846 25.7741 2.4773
# 6 0.3598 -13.7806 -4.8847 8.8898 2.4773 46.3499
#
#
#
# Elastic Compliance Matrix: (Units=1/GPa)
#
#
# Indices 1 2 3 4 5 6 
#
# 1 0.016163 -0.008599 0.007261 -0.000122 -0.009927 -0.001363
# 2 -0.008599 0.016435 -0.006911 0.000308 0.004647 0.003917
# 3 0.007261 -0.006911 0.028663 0.003564 -0.013305 0.000937
# 4 -0.000122 0.000308 0.003564 0.024202 -0.001479 -0.004094
# 5 -0.009927 0.004647 -0.013305 -0.001479 0.048428 -0.002248
# 6 -0.001363 0.003917 0.000937 -0.004094 -0.002248 0.023754
#
#
# Mechanical properties :
#
#
# Convention : Reuss Voigt Hill
#
# Bulk Modulus (GPa) = 22.34023 36.90570 29.62297
# Shear Modulus (GPa) = 26.44604 35.57712 31.01158
#
# Velocity S-wave (km/s) = 3.53218 4.09683 3.82494
# Velocity P-wave (km/s) = 5.21291 6.30790 5.78636
#
# Compressibility (1/GPa) = 0.04476229
#
# Stress axis : x y z
#
# Youngs Moduli (GPa) = 61.86843 60.84698 34.88845
#
# Poissons Ratio (x) = 0.52324 -0.25331
# Poissons Ratio (y) = 0.53202 0.24110
# Poissons Ratio (z) = -0.44920 0.42049
#
# Static dielectric constant tensor:
#      x y z
#    x 1.803640 0.011970 0.024190 
#    y 0.011970 1.852360 0.013850 
#    z 0.024190 0.013850 1.821630 
# 
# From -- ./inp_files/218109.got.cif
#   From: 2010.05.17/outbox.cif.g08.bks.cpg/sg2_110_cif.got.tgz:218109.got - 2010.06.03 11:33:40.
