data_PCOD9099511
_publ_section_title
;
Structure prediction by ZEFSAII (Michael W. Deem and Ramdas Pophale) SiO2 
 PCOD9099511
Probable space group: P -1
;
_chemical_formula_sum "Si O2"
_cell_formula_units_Z 16
_cell_length_a 13.650048
_cell_length_b 9.395198
_cell_length_c 13.373379
_cell_angle_alpha 133.409716
_cell_angle_beta 137.893599
_cell_angle_gamma 79.143976
_cell_volume 627.585826
_symmetry_space_group_name_H-M "P -1"
_symmetry_group_IT_number 2
_symmetry_cell_setting 'triclinic'
loop_
_space_group_symop_operation_xyz
x,y,z
-x,-y,-z
loop_
_atom_site_type_symbol
_atom_site_label
_atom_site_fract_x
_atom_site_fract_y
_atom_site_fract_z
Si Si1 0.271979 0.929179 0.893345
Si Si2 0.928567 0.776154 0.417350
Si Si3 0.735390 0.193349 0.550031
Si Si4 0.514357 0.795866 0.006127
Si Si5 0.322415 0.257894 0.620440
Si Si6 0.179824 0.280052 0.315092
Si Si7 0.389921 0.163634 0.312273
Si Si8 0.922033 0.388145 0.105795
O O1 0.310770 0.730637 0.841086
O O2 0.091667 0.837008 0.646573
O O3 0.444754 0.141250 0.050126
O O4 0.287677 0.039433 0.067074
O O5 0.782346 0.755578 0.368109
O O6 0.860030 0.527314 0.184038
O O7 0.000000 0.000000 0.500000
O O8 0.605050 0.265949 0.513830
O O9 0.962547 0.444793 0.826414
O O10 0.682537 0.978322 0.486045
O O11 0.656251 0.028940 0.305052
O O12 0.514092 0.562327 0.908206
O O13 0.210903 0.236829 0.429233
O O14 0.361431 0.358298 0.425496
O O15 0.100295 0.428741 0.315178
O O16 0.000000 0.000000 0.000000
O O17 0.265195 0.917918 0.177096
#
# Coordination Sequence:
#
# PCOD9099511 Si02
#       8
#     2   2   2   2   2   2   2   2
#     4  10  20  37  60  92 127 163 216 267 325 387
#     4  12  21  36  62  95 131 166 207 263 341 398
#     4  11  23  43  66  98 141 164 214 275 334 400
#     4  10  21  38  61  97 134 162 210 274 332 398
#     4  12  24  39  67  96 133 176 211 273 336 386
#     4  10  24  45  67  93 129 173 236 275 309 383
#     4  10  24  43  67  91 132 177 225 275 316 377
#     4  11  22  43  67  95 131 173 215 274 329 392
#
# _framework density 25.494520000000001
#
# number of rings (size 3 to 8) (size 9 to 14) (size 15 to 20)
#    0.000    1.250    2.500    4.125    3.500    3.500 
#    0.000    2.500    0.000    0.000    0.000    0.000 
#    0.000    0.000    0.000    0.000    0.000    0.000 
#
# Total GULP energy -89473.283257 kJ/mol
# GULP energy per Si atom -5592.080204 kJ/mol
# Density = 2.543649 g / cm^3
# Si number density = 25.494520 Si / 1000 Ang^3
#
#
#
# Elastic Constant Matrix: (Units=GPa)
#
#
# Indices 1 2 3 4 5 6 
#
# 1 130.5584 30.5088 2.9749 4.4128 0.5595 2.5296
# 2 30.5088 131.8628 11.1023 12.4575 -11.9254 2.3568
# 3 2.9749 11.1023 48.4796 7.6605 -1.7846 10.8112
# 4 4.4128 12.4575 7.6605 37.8091 6.7298 -0.1749
# 5 0.5595 -11.9254 -1.7846 6.7298 30.9642 -5.0705
# 6 2.5296 2.3568 10.8112 -0.1749 -5.0705 50.7816
#
#
#
# Elastic Compliance Matrix: (Units=1/GPa)
#
#
# Indices 1 2 3 4 5 6 
#
# 1 0.008131 -0.001946 0.000029 -0.000150 -0.000930 -0.000414
# 2 -0.001946 0.008805 -0.001334 -0.003130 0.004090 0.000370
# 3 0.000029 -0.001334 0.022702 -0.004358 0.000973 -0.004690
# 4 -0.000150 -0.003130 -0.004358 0.029782 -0.007862 0.000398
# 5 -0.000930 0.004090 0.000973 -0.007862 0.036182 0.003235
# 6 -0.000414 0.000370 -0.004690 0.000398 0.003235 0.021019
#
#
# Mechanical properties :
#
#
# Convention : Reuss Voigt Hill
#
# Bulk Modulus (GPa) = 30.18099 44.45255 37.31677
# Shear Modulus (GPa) = 34.68175 41.66528 38.17351
#
# Velocity S-wave (km/s) = 3.69231 4.04701 3.87372
# Velocity P-wave (km/s) = 5.48101 6.26991 5.88868
#
# Compressibility (1/GPa) = 0.03313344
#
# Stress axis : x y z
#
# Youngs Moduli (GPa) = 122.99215 113.56827 44.04988
#
# Poissons Ratio (x) = 0.22102 -0.00126
# Poissons Ratio (y) = 0.23936 0.05878
# Poissons Ratio (z) = -0.00351 0.15155
#
# Static dielectric constant tensor:
#      x y z
#    x 1.990210 -0.011170 0.071240 
#    y -0.011170 2.100580 -0.005440 
#    z 0.071240 -0.005440 2.359420 
# 
# From -- ./inp_files/530160.got.cif
#   From: 2010.05.17/outbox.cif.g08.bks.cpg/sg2_266_cif.got.tgz:530160.got - 2010.06.03 11:33:40.
