data_PCOD9099617
_publ_section_title
;
Structure prediction by ZEFSAII (Michael W. Deem and Ramdas Pophale) SiO2 
 PCOD9099617
Probable space group: P -1
;
_chemical_formula_sum "Si O2"
_cell_formula_units_Z 14
_cell_length_a 7.310332
_cell_length_b 12.404705
_cell_length_c 18.454615
_cell_angle_alpha 140.738119
_cell_angle_beta 130.787192
_cell_angle_gamma 47.415345
_cell_volume 749.162655
_symmetry_space_group_name_H-M "P -1"
_symmetry_group_IT_number 2
_symmetry_cell_setting 'triclinic'
loop_
_space_group_symop_operation_xyz
x,y,z
-x,-y,-z
loop_
_atom_site_type_symbol
_atom_site_label
_atom_site_fract_x
_atom_site_fract_y
_atom_site_fract_z
Si Si1 0.507390 0.664178 0.140362
Si Si2 0.448976 0.346717 0.360709
Si Si3 0.955408 0.394053 0.179999
Si Si4 0.139477 0.618472 0.142544
Si Si5 0.276077 0.877639 0.975038
Si Si6 0.426216 0.315162 0.175131
Si Si7 0.372597 0.065612 0.786871
O O1 0.795904 0.592064 0.211433
O O2 0.301997 0.684811 0.160875
O O3 0.476453 0.846137 0.182794
O O4 0.500000 0.500000 0.000000
O O5 0.500000 0.500000 0.500000
O O6 0.526945 0.351231 0.298295
O O7 0.141526 0.384499 0.290878
O O8 0.584819 0.144801 0.323176
O O9 0.736344 0.314547 0.101120
O O10 0.161626 0.282471 0.113808
O O11 0.314691 0.488723 0.183100
O O12 0.917873 0.793243 0.209919
O O13 0.000000 0.500000 0.000000
O O14 0.358175 0.843174 0.895008
O O15 0.495212 0.928396 0.098334
O O16 0.000000 0.000000 0.000000
#
# Coordination Sequence:
#
# PCOD9099617 Si02
#       7
#     2   2   2   2   2   2   2
#     4  12  20  34  61  94 131 160 189 252 322 389
#     4  10  25  46  63  82 124 179 223 258 294 352
#     4  10  20  37  61  86 124 159 204 250 314 366
#     4  12  20  35  61  97 131 158 193 250 333 388
#     4  12  21  34  60 100 126 156 196 255 325 383
#     4  10  21  39  63  88 127 164 201 258 314 367
#     4  12  23  36  61  95 129 159 203 251 323 381
#
# _framework density 18.687529999999999
#
# number of rings (size 3 to 8) (size 9 to 14) (size 15 to 20)
#    0.857    0.000    8.571    0.000    0.000    3.429 
#    0.000    3.571    0.000    1.714    0.000    0.000 
#    0.000    0.000    0.000    0.000    0.000    0.000 
#
# Total GULP energy -77965.370565 kJ/mol
# GULP energy per Si atom -5568.955040 kJ/mol
# Density = 1.864500 g / cm^3
# Si number density = 18.687530 Si / 1000 Ang^3
#
#
#
# Elastic Constant Matrix: (Units=GPa)
#
#
# Indices 1 2 3 4 5 6 
#
# 1 136.9079 30.4342 33.9424 12.2775 -12.1581 6.2882
# 2 30.4342 103.2114 40.0278 15.8489 -1.0874 6.7591
# 3 33.9424 40.0278 84.2894 26.4602 -5.9036 7.8227
# 4 12.2775 15.8489 26.4602 18.6268 3.8241 3.8841
# 5 -12.1581 -1.0874 -5.9036 3.8241 13.7785 -0.3951
# 6 6.2882 6.7591 7.8227 3.8841 -0.3951 34.7094
#
#
#
# Elastic Compliance Matrix: (Units=1/GPa)
#
#
# Indices 1 2 3 4 5 6 
#
# 1 0.009132 -0.001490 -0.000344 -0.006104 0.009473 -0.000496
# 2 -0.001490 0.012297 -0.004407 -0.002738 -0.001496 -0.000842
# 3 -0.000344 -0.004407 0.028866 -0.041667 0.023262 -0.000658
# 4 -0.006104 -0.002738 -0.041667 0.132561 -0.060375 -0.004492
# 5 0.009473 -0.001496 0.023262 -0.060375 0.107579 0.001313
# 6 -0.000496 -0.000842 -0.000658 -0.004492 0.001313 0.029730
#
#
# Mechanical properties :
#
#
# Convention : Reuss Voigt Hill
#
# Bulk Modulus (GPa) = 26.44576 59.24640 42.84608
# Shear Modulus (GPa) = 14.48223 28.08989 21.28606
#
# Velocity S-wave (km/s) = 2.78684 3.88124 3.37865
# Velocity P-wave (km/s) = 4.95355 7.20124 6.18043
#
# Compressibility (1/GPa) = 0.03781324
#
# Stress axis : x y z
#
# Youngs Moduli (GPa) = 109.50387 81.32015 34.64327
#
# Poissons Ratio (x) = 0.12114 0.01193
# Poissons Ratio (y) = 0.16313 0.15267
# Poissons Ratio (z) = 0.03770 0.35837
#
# Static dielectric constant tensor:
#      x y z
#    x 1.809460 0.124460 -0.001760 
#    y 0.124460 1.847210 0.019010 
#    z -0.001760 0.019010 1.625580 
# 
# From -- ./inp_files/590322.got.cif
#   From: 2010.05.17/outbox.cif.g08.bks.cpg/sg2_296_cif.got.tgz:590322.got - 2010.06.03 11:33:40.
