data_PCOD9099057
_publ_section_title
;
Structure prediction by ZEFSAII (Michael W. Deem and Ramdas Pophale) SiO2 
 PCOD9099057
Probable space group: P -1
;
_chemical_formula_sum "Si O2"
_cell_formula_units_Z 16
_cell_length_a 23.603558
_cell_length_b 8.745582
_cell_length_c 22.230678
_cell_angle_alpha 141.647468
_cell_angle_beta 17.624408
_cell_angle_gamma 133.615887
_cell_volume 820.658297
_symmetry_space_group_name_H-M "P -1"
_symmetry_group_IT_number 2
_symmetry_cell_setting 'triclinic'
loop_
_space_group_symop_operation_xyz
x,y,z
-x,-y,-z
loop_
_atom_site_type_symbol
_atom_site_label
_atom_site_fract_x
_atom_site_fract_y
_atom_site_fract_z
Si Si1 0.446290 0.254930 0.823120
Si Si2 0.502005 0.256618 0.465133
Si Si3 0.675092 0.603025 0.878199
Si Si4 0.052617 0.645279 0.293772
Si Si5 0.810990 0.265718 0.391384
Si Si6 0.802808 0.242530 0.261678
Si Si7 0.063909 0.170940 0.398755
Si Si8 0.063915 0.326909 0.939397
O O1 0.651059 0.309665 0.619110
O O2 0.456304 0.992473 0.696868
O O3 0.400075 0.243012 0.936385
O O4 0.271713 0.485718 0.042672
O O5 0.500000 0.500000 0.500000
O O6 0.653844 0.205078 0.350783
O O7 0.284207 0.306831 0.727834
O O8 0.756625 0.771440 0.800227
O O9 0.864202 0.359547 0.629649
O O10 0.500000 0.500000 0.000000
O O11 0.949276 0.444674 0.310676
O O12 0.938772 0.756532 0.505417
O O13 0.057857 0.877072 0.315937
O O14 0.708401 0.315086 0.444610
O O15 0.930787 0.961009 0.176186
O O16 0.906014 0.433127 0.184281
O O17 0.000000 0.000000 0.000000
O O18 0.000000 0.500000 0.000000
#
# Coordination Sequence:
#
# PCOD9099057 Si02
#       8
#     2   2   2   2   2   2   2   2
#     4  10  22  38  60  88 118 161 199 248 308 357
#     4  11  22  39  61  85 124 162 206 258 301 363
#     4  10  20  40  64  89 123 152 194 250 305 360
#     4  10  20  40  61  85 124 157 199 247 301 365
#     4  10  22  37  58  87 120 156 207 251 300 362
#     4  10  21  38  58  83 117 159 206 254 306 356
#     4   9  21  39  62  90 117 159 197 241 306 369
#     4  10  20  37  59  83 115 162 208 250 309 352
#
# _framework density 19.496542999999999
#
# number of rings (size 3 to 8) (size 9 to 14) (size 15 to 20)
#    0.000    2.000    1.250    2.250    0.000    6.500 
#    6.750    5.000    0.000    0.000    0.000    0.000 
#    0.000    0.000    0.000    0.000    0.000    0.000 
#
# Total GULP energy -89211.252859 kJ/mol
# GULP energy per Si atom -5575.703304 kJ/mol
# Density = 1.945217 g / cm^3
# Si number density = 19.496543 Si / 1000 Ang^3
#
#
#
# Elastic Constant Matrix: (Units=GPa)
#
#
# Indices 1 2 3 4 5 6 
#
# 1 84.4905 42.1849 26.5448 -8.9931 -8.5391 -11.0671
# 2 42.1849 141.8305 31.9052 -9.8290 -1.9219 -15.1018
# 3 26.5448 31.9052 63.1765 -21.9048 4.6649 -4.4069
# 4 -8.9931 -9.8290 -21.9048 29.9663 -2.1464 -0.9183
# 5 -8.5391 -1.9219 4.6649 -2.1464 29.6038 -11.9059
# 6 -11.0671 -15.1018 -4.4069 -0.9183 -11.9059 36.4227
#
#
#
# Elastic Compliance Matrix: (Units=1/GPa)
#
#
# Indices 1 2 3 4 5 6 
#
# 1 0.016640 -0.002961 -0.005388 0.000821 0.007831 0.005757
# 2 -0.002961 0.008976 -0.003231 -0.000119 0.001388 0.002882
# 3 -0.005388 -0.003231 0.025386 0.015476 -0.005120 -0.001189
# 4 0.000821 -0.000119 0.015476 0.045212 0.002718 0.004101
# 5 0.007831 0.001388 -0.005120 0.002718 0.043866 0.016743
# 6 0.005757 0.002882 -0.001189 0.004101 0.016743 0.035832
#
#
# Mechanical properties :
#
#
# Convention : Reuss Voigt Hill
#
# Bulk Modulus (GPa) = 35.91961 54.52972 45.22466
# Shear Modulus (GPa) = 23.99783 31.78939 27.89361
#
# Velocity S-wave (km/s) = 3.51219 4.04234 3.78656
# Velocity P-wave (km/s) = 5.90854 7.05812 6.50876
#
# Compressibility (1/GPa) = 0.02783995
#
# Stress axis : x y z
#
# Youngs Moduli (GPa) = 60.09651 111.41168 39.39233
#
# Poissons Ratio (x) = 0.32991 0.21225
# Poissons Ratio (y) = 0.17795 0.12730
# Poissons Ratio (z) = 0.32380 0.36002
#
# Static dielectric constant tensor:
#      x y z
#    x 1.582760 0.021840 0.018810 
#    y 0.021840 1.693880 -0.013080 
#    z 0.018810 -0.013080 1.707860 
# 
# From -- ./inp_files/317813.got.cif
#   From: 2010.05.17/outbox.cif.g08.bks.cpg/sg2_159_cif.got.tgz:317813.got - 2010.06.03 11:33:40.
