data_PCOD9099159
_publ_section_title
;
Structure prediction by ZEFSAII (Michael W. Deem and Ramdas Pophale) SiO2 
 PCOD9099159
Probable space group: P -1
;
_chemical_formula_sum "Si O2"
_cell_formula_units_Z 16
_cell_length_a 22.782572
_cell_length_b 13.728828
_cell_length_c 8.949801
_cell_angle_alpha 128.792331
_cell_angle_beta 30.957163
_cell_angle_gamma 147.778897
_cell_volume 716.018236
_symmetry_space_group_name_H-M "P -1"
_symmetry_group_IT_number 2
_symmetry_cell_setting 'triclinic'
loop_
_space_group_symop_operation_xyz
x,y,z
-x,-y,-z
loop_
_atom_site_type_symbol
_atom_site_label
_atom_site_fract_x
_atom_site_fract_y
_atom_site_fract_z
Si Si1 0.957789 0.866565 0.093249
Si Si2 0.311637 0.154710 0.793107
Si Si3 0.850344 0.408183 0.619878
Si Si4 0.761445 0.866484 0.749952
Si Si5 0.746905 0.176099 0.334332
Si Si6 0.618036 0.322382 0.616905
Si Si7 0.685191 0.429578 0.225651
Si Si8 0.956960 0.679718 0.389468
O O1 0.812972 0.801564 0.462321
O O2 0.865064 0.662806 0.041279
O O3 0.000000 0.000000 0.000000
O O4 0.144255 0.007316 0.908084
O O5 0.506871 0.357974 0.507875
O O6 0.338418 0.033022 0.672625
O O7 0.264447 0.194816 0.080703
O O8 0.795144 0.257496 0.475443
O O9 0.000000 0.500000 0.500000
O O10 0.925667 0.579923 0.514052
O O11 0.691570 0.324522 0.989977
O O12 0.930530 0.102345 0.612919
O O13 0.578777 0.786154 0.032267
O O14 0.636638 0.196300 0.518482
O O15 0.921541 0.299458 0.969618
O O16 0.674695 0.378987 0.373407
O O17 0.765248 0.526353 0.582033
#
# Coordination Sequence:
#
# PCOD9099159 Si02
#       8
#     2   2   2   2   2   2   2   2
#     4  12  26  44  63  87 124 163 207 259 302 352
#     4  10  24  43  64  92 122 159 207 251 300 364
#     4  11  20  33  58  88 124 165 197 240 302 361
#     4  10  23  40  65  89 116 162 206 251 304 356
#     4  10  21  39  64  92 126 161 196 248 304 366
#     4  10  21  39  64  94 125 156 200 249 302 367
#     4  11  24  40  62  93 124 160 204 250 305 362
#     4  10  20  37  59  87 121 159 202 245 296 359
#
# _framework density 22.345800000000001
#
# number of rings (size 3 to 8) (size 9 to 14) (size 15 to 20)
#    0.000    1.500    0.000    6.375    0.000   11.500 
#    0.000    0.000    0.000    0.000    0.000    0.000 
#    0.000    0.000    0.000    0.000    0.000    0.000 
#
# Total GULP energy -89437.074385 kJ/mol
# GULP energy per Si atom -5589.817149 kJ/mol
# Density = 2.229494 g / cm^3
# Si number density = 22.345800 Si / 1000 Ang^3
#
#
#
# Elastic Constant Matrix: (Units=GPa)
#
#
# Indices 1 2 3 4 5 6 
#
# 1 112.1869 40.3131 51.7197 -11.6396 -5.6992 13.0448
# 2 40.3131 59.7147 28.9015 9.1603 -9.5894 17.8291
# 3 51.7197 28.9015 79.5894 -1.7378 3.0777 20.8123
# 4 -11.6396 9.1603 -1.7378 37.5363 16.5264 -4.3820
# 5 -5.6992 -9.5894 3.0777 16.5264 41.1535 0.1146
# 6 13.0448 17.8291 20.8123 -4.3820 0.1146 27.7237
#
#
#
# Elastic Compliance Matrix: (Units=1/GPa)
#
#
# Indices 1 2 3 4 5 6 
#
# 1 0.017088 -0.012057 -0.008341 0.010543 -0.004074 0.007658
# 2 -0.012057 0.038260 -0.001600 -0.022985 0.016655 -0.021433
# 3 -0.008341 -0.001600 0.021642 -0.001417 -0.002545 -0.011507
# 4 0.010543 -0.022985 -0.001417 0.047750 -0.023017 0.018527
# 5 -0.004074 0.016655 -0.002545 -0.023017 0.037079 -0.010674
# 6 0.007658 -0.021433 -0.011507 0.018527 -0.010674 0.057861
#
#
# Mechanical properties :
#
#
# Convention : Reuss Voigt Hill
#
# Bulk Modulus (GPa) = 30.30816 54.81775 42.56295
# Shear Modulus (GPa) = 18.20346 29.98647 24.09497
#
# Velocity S-wave (km/s) = 2.85726 3.66721 3.28728
# Velocity P-wave (km/s) = 4.94752 6.52043 5.78766
#
# Compressibility (1/GPa) = 0.03299442
#
# Stress axis : x y z
#
# Youngs Moduli (GPa) = 58.52081 26.13706 46.20663
#
# Poissons Ratio (x) = 0.31514 0.38540
# Poissons Ratio (y) = 0.70560 0.07391
# Poissons Ratio (z) = 0.48811 0.04181
#
# Static dielectric constant tensor:
#      x y z
#    x 1.821010 -0.002820 -0.047520 
#    y -0.002820 1.846070 -0.031850 
#    z -0.047520 -0.031850 1.904890 
# 
# From -- ./inp_files/354571.got.cif
#   From: 2010.05.17/outbox.cif.g08.bks.cpg/sg2_178_cif.got.tgz:354571.got - 2010.06.03 11:33:40.
