data_PCOD9099792
_publ_section_title
;
Structure prediction by ZEFSAII (Michael W. Deem and Ramdas Pophale) SiO2 
 PCOD9099792
Probable space group: P -1
;
_chemical_formula_sum "Si O2"
_cell_formula_units_Z 16
_cell_length_a 8.424733
_cell_length_b 13.376579
_cell_length_c 18.038999
_cell_angle_alpha 157.264591
_cell_angle_beta 92.024728
_cell_angle_gamma 98.745120
_cell_volume 689.658907
_symmetry_space_group_name_H-M "P -1"
_symmetry_group_IT_number 2
_symmetry_cell_setting 'triclinic'
loop_
_space_group_symop_operation_xyz
x,y,z
-x,-y,-z
loop_
_atom_site_type_symbol
_atom_site_label
_atom_site_fract_x
_atom_site_fract_y
_atom_site_fract_z
Si Si1 0.310023 0.104919 0.907858
Si Si2 0.220270 0.864834 0.250922
Si Si3 0.792949 0.140711 0.475005
Si Si4 0.051027 0.161982 0.366907
Si Si5 0.014052 0.316970 0.731901
Si Si6 0.572218 0.446785 0.647901
Si Si7 0.623414 0.473543 0.063556
Si Si8 0.576605 0.248138 0.235949
O O1 0.406843 0.910203 0.798644
O O2 0.100003 0.927071 0.760026
O O3 0.424542 0.300809 0.974511
O O4 0.340603 0.310914 0.120614
O O5 0.076724 0.713078 0.210072
O O6 0.323013 0.680502 0.106692
O O7 0.127439 0.932055 0.224181
O O8 0.376359 0.193014 0.499707
O O9 0.889634 0.346707 0.688266
O O10 0.687569 0.279452 0.524606
O O11 0.947200 0.144714 0.429069
O O12 0.672954 0.805913 0.271416
O O13 0.218672 0.487751 0.588318
O O14 0.000000 0.000000 0.500000
O O15 0.229042 0.516395 0.867475
O O16 0.543336 0.589662 0.670205
O O17 0.500000 0.000000 0.000000
#
# Coordination Sequence:
#
# PCOD9099792 Si02
#       8
#     2   2   2   2   2   2   2   2
#     4  11  24  43  68  97 132 173 221 275 329 390
#     4  11  22  41  62  94 138 180 217 261 328 391
#     4  11  24  40  65 101 136 172 223 267 331 393
#     4  11  23  41  67  99 133 167 221 275 324 393
#     4  10  20  37  61  92 130 176 212 260 319 392
#     4  10  23  42  66  96 128 178 220 274 327 388
#     4  11  24  39  64  98 137 178 213 268 329 395
#     4   9  22  46  72  91 127 174 222 274 335 387
#
# _framework density 23.199871000000002
#
# number of rings (size 3 to 8) (size 9 to 14) (size 15 to 20)
#    0.000    1.500    2.500    3.000    5.250    4.000 
#    0.000    9.375    0.000    0.000    0.000    0.000 
#    0.000    0.000    0.000    0.000    0.000    0.000 
#
# Total GULP energy -89362.366459 kJ/mol
# GULP energy per Si atom -5585.147904 kJ/mol
# Density = 2.314707 g / cm^3
# Si number density = 23.199871 Si / 1000 Ang^3
#
#
#
# Elastic Constant Matrix: (Units=GPa)
#
#
# Indices 1 2 3 4 5 6 
#
# 1 87.4537 17.8848 31.2807 2.2776 2.3913 -36.5060
# 2 17.8848 66.6358 24.6162 0.6361 3.5138 -38.3671
# 3 31.2807 24.6162 98.4219 -0.4760 17.9362 -19.0182
# 4 2.2776 0.6361 -0.4760 38.0278 -6.4750 0.8654
# 5 2.3913 3.5138 17.9362 -6.4750 42.7847 -0.3710
# 6 -36.5060 -38.3671 -19.0182 0.8654 -0.3710 45.6963
#
#
#
# Elastic Compliance Matrix: (Units=1/GPa)
#
#
# Indices 1 2 3 4 5 6 
#
# 1 0.020407 0.008772 -0.004448 -0.001939 -0.000100 0.021852
# 2 0.008772 0.033650 -0.004502 -0.002144 -0.001401 0.033416
# 3 -0.004448 -0.004502 0.013251 -0.000301 -0.004999 -0.001853
# 4 -0.001939 -0.002144 -0.000301 0.027302 0.004508 -0.003955
# 5 -0.000100 -0.001401 -0.004999 0.004508 0.026244 -0.003209
# 6 0.021852 0.033416 -0.001853 -0.003955 -0.003209 0.066675
#
#
# Mechanical properties :
#
#
# Convention : Reuss Voigt Hill
#
# Bulk Modulus (GPa) = 14.93614 44.45278 29.69446
# Shear Modulus (GPa) = 23.78641 37.21707 30.50174
#
# Velocity S-wave (km/s) = 3.20548 4.00958 3.62986
# Velocity P-wave (km/s) = 4.48911 6.37480 5.51317
#
# Compressibility (1/GPa) = 0.06695169
#
# Stress axis : x y z
#
# Youngs Moduli (GPa) = 49.00320 29.71730 75.46342
#
# Poissons Ratio (x) = -0.26068 0.33568
# Poissons Ratio (y) = -0.42985 0.33974
# Poissons Ratio (z) = 0.21798 0.13379
#
# Static dielectric constant tensor:
#      x y z
#    x 1.855840 -0.080550 0.031080 
#    y -0.080550 1.885940 -0.062870 
#    z 0.031080 -0.062870 1.964290 
# 
# From -- ./inp_files/590358.got.cif
#   From: 2010.05.17/outbox.cif.g08.bks.cpg/sg2_296_cif.got.tgz:590358.got - 2010.06.03 11:33:40.
