data_PCOD9099986
_publ_section_title
;
Structure prediction by ZEFSAII (Michael W. Deem and Ramdas Pophale) SiO2 
 PCOD9099986
Probable space group: P -1
;
_chemical_formula_sum "Si O2"
_cell_formula_units_Z 16
_cell_length_a 15.100192
_cell_length_b 11.735593
_cell_length_c 16.048311
_cell_angle_alpha 116.632234
_cell_angle_beta 152.796246
_cell_angle_gamma 45.124787
_cell_volume 767.423691
_symmetry_space_group_name_H-M "P -1"
_symmetry_group_IT_number 2
_symmetry_cell_setting 'triclinic'
loop_
_space_group_symop_operation_xyz
x,y,z
-x,-y,-z
loop_
_atom_site_type_symbol
_atom_site_label
_atom_site_fract_x
_atom_site_fract_y
_atom_site_fract_z
Si Si1 0.357686 0.028761 0.268494
Si Si2 0.775539 0.726036 0.394377
Si Si3 0.169555 0.269361 0.882497
Si Si4 0.790853 0.273535 0.184443
Si Si5 0.180681 0.000701 0.272836
Si Si6 0.431455 0.872257 0.982583
Si Si7 0.293508 0.272975 0.166874
Si Si8 0.485210 0.368104 0.486010
O O1 0.555410 0.037932 0.484355
O O2 0.234847 0.171914 0.135461
O O3 0.567756 0.821263 0.332709
O O4 0.152447 0.061467 0.174271
O O5 0.586781 0.822846 0.184639
O O6 0.000000 0.500000 0.500000
O O7 0.961004 0.762261 0.577434
O O8 0.321534 0.251872 0.922844
O O9 0.835610 0.476848 0.687838
O O10 0.349650 0.219587 0.099976
O O11 0.207118 0.098174 0.850677
O O12 0.500000 0.500000 0.000000
O O13 0.720583 0.187904 0.154491
O O14 0.908378 0.166783 0.158500
O O15 0.282781 0.804643 0.310690
O O16 0.515342 0.252190 0.396792
O O17 0.000000 0.500000 0.000000
O O18 0.500000 0.500000 0.500000
#
# Coordination Sequence:
#
# PCOD9099986 Si02
#       8
#     2   2   2   2   2   2   2   2
#     4   9  18  36  61  88 118 156 205 253 312 370
#     4  11  22  39  66  88 129 167 201 259 321 371
#     4  10  22  40  62  88 120 171 208 257 313 373
#     4  11  23  40  63  92 125 163 207 257 315 378
#     4   9  20  35  61  91 118 159 203 259 314 365
#     4  11  23  42  63  89 128 164 215 256 308 378
#     4   9  18  35  59  83 117 158 199 246 309 364
#     4  10  20  37  62  89 126 161 205 258 314 376
#
# _framework density 20.848979
#
# number of rings (size 3 to 8) (size 9 to 14) (size 15 to 20)
#    0.000    2.000    2.500    0.750    1.750    3.000 
#    2.250    1.875    0.000    0.000    0.000    0.000 
#    0.000    0.000    0.000    0.000    0.000    0.000 
#
# Total GULP energy -89292.247079 kJ/mol
# GULP energy per Si atom -5580.765442 kJ/mol
# Density = 2.080153 g / cm^3
# Si number density = 20.848979 Si / 1000 Ang^3
#
#
#
# Elastic Constant Matrix: (Units=GPa)
#
#
# Indices 1 2 3 4 5 6 
#
# 1 142.0567 59.0489 13.9101 3.2720 6.4358 2.4545
# 2 59.0489 113.4236 9.2243 -10.1435 14.0915 3.8221
# 3 13.9101 9.2243 31.7101 1.8242 -0.3637 -0.5822
# 4 3.2720 -10.1435 1.8242 38.6602 -2.2536 2.6243
# 5 6.4358 14.0915 -0.3637 -2.2536 23.9745 0.0897
# 6 2.4545 3.8221 -0.5822 2.6243 0.0897 28.8225
#
#
#
# Elastic Compliance Matrix: (Units=1/GPa)
#
#
# Indices 1 2 3 4 5 6 
#
# 1 0.009344 -0.004841 -0.002579 -0.001930 0.000117 -0.000030
# 2 -0.004841 0.012577 -0.001836 0.003568 -0.005779 -0.001599
# 3 -0.002579 -0.001836 0.033353 -0.001803 0.002103 0.001294
# 4 -0.001930 0.003568 -0.001803 0.027300 0.000971 -0.002834
# 5 0.000117 -0.005779 0.002103 0.000971 0.045198 0.000570
# 6 -0.000030 -0.001599 0.001294 -0.002834 0.000570 0.035192
#
#
# Mechanical properties :
#
#
# Convention : Reuss Voigt Hill
#
# Bulk Modulus (GPa) = 27.20187 50.17299 38.68743
# Shear Modulus (GPa) = 25.80932 31.95858 28.88395
#
# Velocity S-wave (km/s) = 3.52222 3.91942 3.72612
# Velocity P-wave (km/s) = 5.44213 6.67830 6.09166
#
# Compressibility (1/GPa) = 0.03676217
#
# Stress axis : x y z
#
# Youngs Moduli (GPa) = 107.02215 79.51044 29.98270
#
# Poissons Ratio (x) = 0.38490 0.07732
# Poissons Ratio (y) = 0.51808 0.05505
# Poissons Ratio (z) = 0.27599 0.14598
#
# Static dielectric constant tensor:
#      x y z
#    x 1.741470 0.003250 -0.029230 
#    y 0.003250 1.774850 0.072210 
#    z -0.029230 0.072210 2.091050 
# 
# From -- ./inp_files/532637.got.cif
#   From: 2010.05.17/outbox.cif.g08.bks.cpg/sg2_267_cif.got.tgz:532637.got - 2010.06.03 11:33:40.
