data_PCOD9099370
_publ_section_title
;
Structure prediction by ZEFSAII (Michael W. Deem and Ramdas Pophale) SiO2 
 PCOD9099370
Probable space group: P -1
;
_chemical_formula_sum "Si O2"
_cell_formula_units_Z 16
_cell_length_a 23.382066
_cell_length_b 10.770624
_cell_length_c 8.214066
_cell_angle_alpha 137.864449
_cell_angle_beta 50.972883
_cell_angle_gamma 147.144463
_cell_volume 752.791174
_symmetry_space_group_name_H-M "P -1"
_symmetry_group_IT_number 2
_symmetry_cell_setting 'triclinic'
loop_
_space_group_symop_operation_xyz
x,y,z
-x,-y,-z
loop_
_atom_site_type_symbol
_atom_site_label
_atom_site_fract_x
_atom_site_fract_y
_atom_site_fract_z
Si Si1 0.301601 0.294204 0.033131
Si Si2 0.436470 0.543972 0.564188
Si Si3 0.545212 0.165196 0.883477
Si Si4 0.382671 0.068142 0.591082
Si Si5 0.979720 0.267238 0.722380
Si Si6 0.681911 0.210454 0.217502
Si Si7 0.856996 0.731412 0.605705
Si Si8 0.756500 0.953213 0.736932
O O1 0.407172 0.600169 0.103200
O O2 0.210888 0.282379 0.151016
O O3 0.276828 0.180498 0.151538
O O4 0.311388 0.120995 0.746438
O O5 0.500000 0.500000 0.500000
O O6 0.496811 0.657191 0.392604
O O7 0.317873 0.278485 0.483662
O O8 0.446819 0.728319 0.851815
O O9 0.618882 0.115829 0.697613
O O10 0.424208 0.911399 0.798427
O O11 0.359410 0.948541 0.693311
O O12 0.081221 0.347641 0.541714
O O13 0.938031 0.035403 0.697134
O O14 0.878015 0.124278 0.655952
O O15 0.000000 0.500000 0.000000
O O16 0.772266 0.518252 0.409357
O O17 0.733301 0.130835 0.952613
#
# Coordination Sequence:
#
# PCOD9099370 Si02
#       8
#     2   2   2   2   2   2   2   2
#     4  10  21  38  59  85 119 153 198 244 282 345
#     4  12  23  39  54  85 129 163 195 229 282 358
#     4  12  23  37  58  87 124 160 195 230 287 357
#     4  11  23  37  56  86 119 162 197 234 288 344
#     4  10  20  37  60  87 118 145 191 248 305 343
#     4  11  20  35  60  92 119 150 196 243 287 346
#     4  10  21  35  58  92 116 144 189 251 299 339
#     4  10  21  37  61  86 120 158 190 241 297 338
#
# _framework density 21.254235000000001
#
# number of rings (size 3 to 8) (size 9 to 14) (size 15 to 20)
#    0.000    1.250    5.000    1.500    3.500    2.000 
#    0.000    0.000    0.000    0.750    0.000    5.250 
#    0.000    0.000    0.000    0.000    0.000    0.000 
#
# Total GULP energy -89154.332956 kJ/mol
# GULP energy per Si atom -5572.145810 kJ/mol
# Density = 2.120586 g / cm^3
# Si number density = 21.254235 Si / 1000 Ang^3
#
#
#
# Elastic Constant Matrix: (Units=GPa)
#
#
# Indices 1 2 3 4 5 6 
#
# 1 76.8168 39.0979 58.8473 -5.6561 -27.0909 22.1835
# 2 39.0979 66.1700 41.5544 9.1597 -8.0202 17.8921
# 3 58.8473 41.5544 161.1987 -4.1134 -48.0948 32.2289
# 4 -5.6561 9.1597 -4.1134 36.2050 7.1677 -7.6311
# 5 -27.0909 -8.0202 -48.0948 7.1677 45.5415 -5.1227
# 6 22.1835 17.8921 32.2289 -7.6311 -5.1227 32.6435
#
#
#
# Elastic Compliance Matrix: (Units=1/GPa)
#
#
# Indices 1 2 3 4 5 6 
#
# 1 0.026404 -0.011564 -0.002135 0.003305 0.010092 -0.007141
# 2 -0.011564 0.026231 -0.002791 -0.009268 -0.004495 -0.006635
# 3 -0.002135 -0.002791 0.012527 -0.002079 0.010877 -0.008166
# 4 0.003305 -0.009268 -0.002079 0.033913 -0.005861 0.011894
# 5 0.010092 -0.004495 0.010877 -0.005861 0.038400 -0.010477
# 6 -0.007141 -0.006635 -0.008166 0.011894 -0.010477 0.048322
#
#
# Mechanical properties :
#
#
# Convention : Reuss Voigt Hill
#
# Bulk Modulus (GPa) = 31.07403 64.79831 47.93617
# Shear Modulus (GPa) = 21.78599 33.85705 27.82152
#
# Velocity S-wave (km/s) = 3.20507 3.99551 3.62192
# Velocity P-wave (km/s) = 5.32433 7.19993 6.33196
#
# Compressibility (1/GPa) = 0.03218121
#
# Stress axis : x y z
#
# Youngs Moduli (GPa) = 37.87295 38.12338 79.82572
#
# Poissons Ratio (x) = 0.44086 0.17042
# Poissons Ratio (y) = 0.43797 0.22282
# Poissons Ratio (z) = 0.08086 0.10642
#
# Static dielectric constant tensor:
#      x y z
#    x 1.821680 -0.044300 -0.063670 
#    y -0.044300 1.879060 0.009770 
#    z -0.063670 0.009770 1.797830 
# 
# From -- ./inp_files/272344.got.cif
#   From: 2010.05.17/outbox.cif.g08.bks.cpg/sg2_137_cif.got.tgz:272344.got - 2010.06.03 11:33:40.
