data_PCOD9099245
_publ_section_title
;
Structure prediction by ZEFSAII (Michael W. Deem and Ramdas Pophale) SiO2 
 PCOD9099245
Probable space group: P -1
;
_chemical_formula_sum "Si O2"
_cell_formula_units_Z 16
_cell_length_a 11.441694
_cell_length_b 17.808281
_cell_length_c 5.331268
_cell_angle_alpha 109.167122
_cell_angle_beta 128.137194
_cell_angle_gamma 62.355971
_cell_volume 755.503571
_symmetry_space_group_name_H-M "P -1"
_symmetry_group_IT_number 2
_symmetry_cell_setting 'triclinic'
loop_
_space_group_symop_operation_xyz
x,y,z
-x,-y,-z
loop_
_atom_site_type_symbol
_atom_site_label
_atom_site_fract_x
_atom_site_fract_y
_atom_site_fract_z
Si Si1 0.896275 0.239749 0.509367
Si Si2 0.288540 0.618592 0.268531
Si Si3 0.425568 0.717831 0.160539
Si Si4 0.348652 0.956956 0.742871
Si Si5 0.836269 0.878868 0.571176
Si Si6 0.521951 0.878679 0.407512
Si Si7 0.423593 0.453591 0.044251
Si Si8 0.953928 0.076397 0.724045
O O1 0.860398 0.328155 0.701919
O O2 0.951056 0.162639 0.689034
O O3 0.031063 0.208243 0.441718
O O4 0.722374 0.246864 0.188433
O O5 0.336361 0.682690 0.219178
O O6 0.275819 0.533687 0.032760
O O7 0.445116 0.582061 0.606198
O O8 0.495921 0.792216 0.360264
O O9 0.571211 0.633622 0.171404
O O10 0.471100 0.937466 0.651116
O O11 0.226071 0.911867 0.440625
O O12 0.252555 0.057895 0.703399
O O13 0.415050 0.919661 0.062598
O O14 0.700627 0.864667 0.543738
O O15 0.928496 0.932230 0.898759
O O16 0.500000 0.500000 0.000000
O O17 0.000000 0.000000 0.500000
#
# Coordination Sequence:
#
# PCOD9099245 Si02
#       8
#     2   2   2   2   2   2   2   2
#     4  11  21  36  61  87 124 158 213 259 324 372
#     4   9  17  33  59  93 122 160 203 261 308 377
#     4  10  20  37  59  93 124 168 206 261 314 382
#     4  12  25  45  64  87 123 176 223 271 319 381
#     4  12  27  40  61  91 125 168 217 272 325 376
#     4  12  27  43  64  91 131 171 220 267 325 383
#     4   8  16  31  57  91 127 153 202 257 312 368
#     4  12  24  42  64  89 120 166 220 273 325 375
#
# _framework density 21.177928000000001
#
# number of rings (size 3 to 8) (size 9 to 14) (size 15 to 20)
#    0.000    1.250    2.500    4.125    3.500    0.000 
#    0.000    0.000    0.000    0.750    0.000   35.875 
#    0.000    0.000    0.000    0.000    0.000    0.000 
#
# Total GULP energy -89206.945715 kJ/mol
# GULP energy per Si atom -5575.434107 kJ/mol
# Density = 2.112973 g / cm^3
# Si number density = 21.177928 Si / 1000 Ang^3
#
#
#
# Elastic Constant Matrix: (Units=GPa)
#
#
# Indices 1 2 3 4 5 6 
#
# 1 92.6735 40.7561 13.8931 4.6143 7.6523 -28.1955
# 2 40.7561 143.4524 19.1349 14.5098 -5.5300 -29.6097
# 3 13.8931 19.1349 81.3264 -12.3314 -2.7912 1.7537
# 4 4.6143 14.5098 -12.3314 21.7782 4.8902 -14.1919
# 5 7.6523 -5.5300 -2.7912 4.8902 31.9758 1.0724
# 6 -28.1955 -29.6097 1.7537 -14.1919 1.0724 47.5631
#
#
#
# Elastic Compliance Matrix: (Units=1/GPa)
#
#
# Indices 1 2 3 4 5 6 
#
# 1 0.015204 -0.002999 -0.001534 0.004810 -0.005320 0.008757
# 2 -0.002999 0.009380 -0.002598 -0.006325 0.003006 0.002202
# 3 -0.001534 -0.002598 0.014755 0.010562 -0.000413 0.000090
# 4 0.004810 -0.006325 0.010562 0.071015 -0.012854 0.020004
# 5 -0.005320 0.003006 -0.000413 -0.012854 0.035194 -0.005896
# 6 0.008757 0.002202 0.000090 0.020004 -0.005896 0.033685
#
#
# Mechanical properties :
#
#
# Convention : Reuss Voigt Hill
#
# Bulk Modulus (GPa) = 39.87744 51.66895 45.77319
# Shear Modulus (GPa) = 24.77054 36.50796 30.63925
#
# Velocity S-wave (km/s) = 3.42371 4.15645 3.80775
# Velocity P-wave (km/s) = 5.87364 6.89096 6.40254
#
# Compressibility (1/GPa) = 0.02507684
#
# Stress axis : x y z
#
# Youngs Moduli (GPa) = 65.77393 106.61323 67.77458
#
# Poissons Ratio (x) = 0.31972 0.10395
# Poissons Ratio (y) = 0.19725 0.17607
# Poissons Ratio (z) = 0.10089 0.27698
#
# Static dielectric constant tensor:
#      x y z
#    x 1.849330 -0.119280 -0.003670 
#    y -0.119280 1.750400 0.100230 
#    z -0.003670 0.100230 1.730170 
# 
# From -- ./inp_files/55132.got.cif
#   From: 2010.05.17/outbox.cif.g08.bks.cpg/sg2_28_cif.got.tgz:55132.got - 2010.06.03 11:33:40.
