data_PCOD9099148
_publ_section_title
;
Structure prediction by ZEFSAII (Michael W. Deem and Ramdas Pophale) SiO2 
 PCOD9099148
Probable space group: P -1
;
_chemical_formula_sum "Si O2"
_cell_formula_units_Z 16
_cell_length_a 9.334490
_cell_length_b 18.042373
_cell_length_c 21.069856
_cell_angle_alpha 160.915610
_cell_angle_beta 40.193830
_cell_angle_gamma 139.580601
_cell_volume 735.585288
_symmetry_space_group_name_H-M "P -1"
_symmetry_group_IT_number 2
_symmetry_cell_setting 'triclinic'
loop_
_space_group_symop_operation_xyz
x,y,z
-x,-y,-z
loop_
_atom_site_type_symbol
_atom_site_label
_atom_site_fract_x
_atom_site_fract_y
_atom_site_fract_z
Si Si1 0.652079 0.140227 0.117268
Si Si2 0.446805 0.088857 0.805294
Si Si3 0.821233 0.307516 0.494620
Si Si4 0.463264 0.272031 0.415090
Si Si5 0.018830 0.720036 0.217151
Si Si6 0.871383 0.537163 0.796433
Si Si7 0.267734 0.330344 0.277412
Si Si8 0.983207 0.202891 0.579602
O O1 0.526917 0.257096 0.308448
O O2 0.881940 0.301689 0.147124
O O3 0.500000 0.000000 0.000000
O O4 0.719030 0.921742 0.953700
O O5 0.713062 0.183630 0.787997
O O6 0.351150 0.929994 0.649322
O O7 0.422606 0.907064 0.725622
O O8 0.307024 0.295651 0.020903
O O9 0.881230 0.381569 0.605161
O O10 0.724037 0.511630 0.658944
O O11 0.040617 0.299380 0.370978
O O12 0.547897 0.525022 0.620775
O O13 0.197607 0.210847 0.467521
O O14 0.933583 0.681824 0.287395
O O15 0.906068 0.929461 0.397631
O O16 0.000000 0.500000 0.000000
O O17 0.824667 0.359061 0.726852
#
# Coordination Sequence:
#
# PCOD9099148 Si02
#       8
#     2   2   2   2   2   2   2   2
#     4  12  25  35  58  93 137 178 217 250 306 374
#     4  10  23  41  67  95 123 164 217 267 318 377
#     4  10  21  37  61  89 131 171 209 257 303 369
#     4  10  22  41  62  91 133 179 213 254 306 377
#     4  10  24  50  74  91 119 164 215 268 331 394
#     4  12  24  38  63  98 135 165 209 265 320 367
#     4  10  20  37  59  86 130 179 216 244 298 370
#     4  10  25  43  67  96 127 164 213 266 325 384
#
# _framework density 21.751387000000001
#
# number of rings (size 3 to 8) (size 9 to 14) (size 15 to 20)
#    0.000    1.500    2.500    1.500    1.750   11.500 
#    0.000    1.250    0.000    0.000    0.000    0.000 
#    0.000    0.000    0.000    0.000    0.000    0.000 
#
# Total GULP energy -89340.977916 kJ/mol
# GULP energy per Si atom -5583.811120 kJ/mol
# Density = 2.170188 g / cm^3
# Si number density = 21.751387 Si / 1000 Ang^3
#
#
#
# Elastic Constant Matrix: (Units=GPa)
#
#
# Indices 1 2 3 4 5 6 
#
# 1 80.6427 19.7292 41.8137 9.4667 5.0956 -5.6672
# 2 19.7292 45.0897 20.6200 3.6866 0.4855 0.4295
# 3 41.8137 20.6200 134.4633 14.3295 -1.5992 -20.5189
# 4 9.4667 3.6866 14.3295 22.4556 4.6748 1.4866
# 5 5.0956 0.4855 -1.5992 4.6748 38.5389 7.4133
# 6 -5.6672 0.4295 -20.5189 1.4866 7.4133 35.4362
#
#
#
# Elastic Compliance Matrix: (Units=1/GPa)
#
#
# Indices 1 2 3 4 5 6 
#
# 1 0.016180 -0.005076 -0.003778 -0.003220 -0.002038 0.001023
# 2 -0.005076 0.025705 -0.002761 -0.000298 0.000823 -0.002882
# 3 -0.003778 -0.002761 0.010435 -0.005088 0.000512 0.005578
# 4 -0.003220 -0.000298 -0.005088 0.050535 -0.005042 -0.004523
# 5 -0.002038 0.000823 0.000512 -0.005042 0.027931 -0.005671
# 6 0.001023 -0.002882 0.005578 -0.004523 -0.005671 0.033024
#
#
# Mechanical properties :
#
#
# Convention : Reuss Voigt Hill
#
# Bulk Modulus (GPa) = 34.37829 47.16906 40.77367
# Shear Modulus (GPa) = 25.41461 31.15500 28.28480
#
# Velocity S-wave (km/s) = 3.42191 3.78871 3.60997
# Velocity P-wave (km/s) = 5.60822 6.39310 6.01348
#
# Compressibility (1/GPa) = 0.02908812
#
# Stress axis : x y z
#
# Youngs Moduli (GPa) = 61.80507 38.90283 95.83349
#
# Poissons Ratio (x) = 0.19749 0.36205
# Poissons Ratio (y) = 0.31375 0.26464
# Poissons Ratio (z) = 0.23349 0.10743
#
# Static dielectric constant tensor:
#      x y z
#    x 1.860300 -0.013140 -0.072290 
#    y -0.013140 1.787150 0.010070 
#    z -0.072290 0.010070 1.815870 
# 
# From -- ./inp_files/94317.got.cif
#   From: 2010.05.17/outbox.cif.g08.bks.cpg/sg2_48_cif.got.tgz:94317.got - 2010.06.03 11:33:40.
