data_PCOD9099869
_publ_section_title
;
Structure prediction by ZEFSAII (Michael W. Deem and Ramdas Pophale) SiO2 
 PCOD9099869
Probable space group: P -1
;
_chemical_formula_sum "Si O2"
_cell_formula_units_Z 16
_cell_length_a 11.779978
_cell_length_b 9.917361
_cell_length_c 15.425245
_cell_angle_alpha 135.518227
_cell_angle_beta 40.141053
_cell_angle_gamma 115.667781
_cell_volume 788.471789
_symmetry_space_group_name_H-M "P -1"
_symmetry_group_IT_number 2
_symmetry_cell_setting 'triclinic'
loop_
_space_group_symop_operation_xyz
x,y,z
-x,-y,-z
loop_
_atom_site_type_symbol
_atom_site_label
_atom_site_fract_x
_atom_site_fract_y
_atom_site_fract_z
Si Si1 0.670032 0.055101 0.376220
Si Si2 0.878567 0.585353 0.692277
Si Si3 0.281583 0.317085 0.920556
Si Si4 0.639898 0.287179 0.320913
Si Si5 0.410854 0.083250 0.918168
Si Si6 0.799446 0.966265 0.582691
Si Si7 0.683511 0.253637 0.625747
Si Si8 0.069611 0.494930 0.716523
O O1 0.620225 0.186583 0.379372
O O2 0.754371 0.172640 0.452643
O O3 0.500000 0.000000 0.500000
O O4 0.779339 0.843561 0.178336
O O5 0.767665 0.418531 0.694508
O O6 0.000000 0.500000 0.500000
O O7 0.009774 0.575232 0.692511
O O8 0.727827 0.795853 0.873604
O O9 0.343135 0.214356 0.930870
O O10 0.467654 0.349269 0.788863
O O11 0.113288 0.498989 0.120171
O O12 0.500000 0.500000 0.500000
O O13 0.829805 0.348064 0.231314
O O14 0.615315 0.133206 0.190789
O O15 0.628003 0.060801 0.789548
O O16 0.730965 0.066676 0.576659
O O17 0.817589 0.731149 0.459484
O O18 0.000000 0.000000 0.500000
#
# Coordination Sequence:
#
# PCOD9099869 Si02
#       8
#     2   2   2   2   2   2   2   2
#     4   9  19  37  61  84 119 161 205 242 301 363
#     4  11  23  38  59  87 118 162 210 248 307 365
#     4   8  19  35  59  90 111 156 207 249 301 362
#     4  11  21  38  64  91 125 157 201 259 311 362
#     4   9  21  38  60  89 116 158 205 249 303 366
#     4  11  21  37  62  89 121 157 202 253 307 368
#     4  10  20  37  62  82 124 161 198 255 305 363
#     4  11  22  36  62  90 119 153 210 254 306 364
#
# _framework density 20.292418000000001
#
# number of rings (size 3 to 8) (size 9 to 14) (size 15 to 20)
#    0.000    2.000    2.500    1.500    1.750    7.000 
#    0.000    1.250    5.500    0.000    0.000    0.000 
#    0.000    0.000    0.000    0.000    0.000    0.000 
#
# Total GULP energy -89137.145071 kJ/mol
# GULP energy per Si atom -5571.071567 kJ/mol
# Density = 2.024623 g / cm^3
# Si number density = 20.292418 Si / 1000 Ang^3
#
#
#
# Elastic Constant Matrix: (Units=GPa)
#
#
# Indices 1 2 3 4 5 6 
#
# 1 54.9046 3.7194 28.6899 -7.0860 -8.3666 18.2674
# 2 3.7194 56.2673 23.4028 3.9357 -13.6775 8.8239
# 3 28.6899 23.4028 156.0312 0.4429 -10.4597 -3.0559
# 4 -7.0860 3.9357 0.4429 23.2820 -1.8138 -1.4424
# 5 -8.3666 -13.6775 -10.4597 -1.8138 19.3109 -2.4868
# 6 18.2674 8.8239 -3.0559 -1.4424 -2.4868 28.0830
#
#
#
# Elastic Compliance Matrix: (Units=1/GPa)
#
#
# Indices 1 2 3 4 5 6 
#
# 1 0.031189 0.006425 -0.006293 0.008184 0.012661 -0.021450
# 2 0.006425 0.024914 -0.004011 -0.001564 0.016688 -0.011047
# 3 -0.006293 -0.004011 0.008265 -0.001043 -0.000395 0.006165
# 4 0.008184 -0.001564 -0.001043 0.046062 0.005935 -0.002054
# 5 0.012661 0.016688 -0.000395 0.005935 0.068512 -0.007151
# 6 -0.021450 -0.011047 0.006165 -0.002054 -0.007151 0.052964
#
#
# Mechanical properties :
#
#
# Convention : Reuss Voigt Hill
#
# Bulk Modulus (GPa) = 17.66516 42.09193 29.87855
# Shear Modulus (GPa) = 19.33978 28.22791 23.78384
#
# Velocity S-wave (km/s) = 3.09051 3.73373 3.42724
# Velocity P-wave (km/s) = 4.63241 6.27498 5.51519
#
# Compressibility (1/GPa) = 0.05660859
#
# Stress axis : x y z
#
# Youngs Moduli (GPa) = 32.06306 40.13759 120.99291
#
# Poissons Ratio (x) = -0.25787 0.76140
# Poissons Ratio (y) = -0.20600 0.48535
# Poissons Ratio (z) = 0.20177 0.16101
#
# Static dielectric constant tensor:
#      x y z
#    x 1.762950 0.046460 0.001980 
#    y 0.046460 1.734850 -0.024930 
#    z 0.001980 -0.024930 1.775060 
# 
# From -- ./inp_files/178067.got.cif
#   From: 2010.05.17/outbox.cif.g08.bks.cpg/sg2_90_cif.got.tgz:178067.got - 2010.06.03 11:33:40.
