data_PCOD9099930
_publ_section_title
;
Structure prediction by ZEFSAII (Michael W. Deem and Ramdas Pophale) SiO2 
 PCOD9099930
Probable space group: P -1
;
_chemical_formula_sum "Si O2"
_cell_formula_units_Z 16
_cell_length_a 23.411574
_cell_length_b 16.556840
_cell_length_c 10.256656
_cell_angle_alpha 137.009129
_cell_angle_beta 32.122787
_cell_angle_gamma 158.008688
_cell_volume 762.154860
_symmetry_space_group_name_H-M "P -1"
_symmetry_group_IT_number 2
_symmetry_cell_setting 'triclinic'
loop_
_space_group_symop_operation_xyz
x,y,z
-x,-y,-z
loop_
_atom_site_type_symbol
_atom_site_label
_atom_site_fract_x
_atom_site_fract_y
_atom_site_fract_z
Si Si1 0.738700 0.341880 0.598598
Si Si2 0.950431 0.544078 0.980033
Si Si3 0.207047 0.452648 0.502130
Si Si4 0.403065 0.965992 0.016783
Si Si5 0.068730 0.112968 0.191812
Si Si6 0.901121 0.158708 0.405165
Si Si7 0.427969 0.326425 0.843569
Si Si8 0.948517 0.147326 0.012262
O O1 0.683419 0.380850 0.634982
O O2 0.918710 0.578579 0.607305
O O3 0.565711 0.145985 0.803157
O O4 0.842474 0.325940 0.310395
O O5 0.942752 0.593115 0.196514
O O6 0.926557 0.634102 0.037423
O O7 0.766320 0.281649 0.004342
O O8 0.093196 0.231851 0.401768
O O9 0.373757 0.568466 0.422865
O O10 0.285998 0.973244 0.302178
O O11 0.500000 0.000000 0.000000
O O12 0.980249 0.105427 0.236929
O O13 0.945514 0.879816 0.195008
O O14 0.296597 0.270015 0.918503
O O15 0.860036 0.115385 0.280699
O O16 0.500000 0.500000 0.000000
O O17 0.247026 0.076568 0.958116
#
# Coordination Sequence:
#
# PCOD9099930 Si02
#       8
#     2   2   2   2   2   2   2   2
#     4  10  23  43  60  87 124 158 197 257 299 342
#     4  11  24  38  60  93 119 160 206 240 298 365
#     4  10  20  40  62  88 121 157 203 243 297 363
#     4  11  24  40  63  90 121 159 203 248 298 357
#     4   8  19  38  62  86 123 157 193 251 299 351
#     4  10  20  40  64  90 119 158 203 245 299 359
#     4   8  18  37  59  89 119 162 195 242 298 355
#     4  10  20  37  62  87 125 158 192 249 299 345
#
# _framework density 20.993110000000001
#
# number of rings (size 3 to 8) (size 9 to 14) (size 15 to 20)
#    0.750    1.500    0.000    2.250    3.500    3.000 
#    6.750    2.500    0.000    5.250    0.000    0.000 
#    0.000    0.000    0.000    0.000    0.000    0.000 
#
# Total GULP energy -89115.072053 kJ/mol
# GULP energy per Si atom -5569.692003 kJ/mol
# Density = 2.094533 g / cm^3
# Si number density = 20.993110 Si / 1000 Ang^3
#
#
#
# Elastic Constant Matrix: (Units=GPa)
#
#
# Indices 1 2 3 4 5 6 
#
# 1 72.0740 21.8193 46.8388 -0.7795 -1.7360 -12.9965
# 2 21.8193 58.5678 54.5866 8.3430 4.0231 -19.0547
# 3 46.8388 54.5866 127.3779 -5.9920 10.9498 -19.6964
# 4 -0.7795 8.3430 -5.9920 25.6840 -0.2932 -0.5944
# 5 -1.7360 4.0231 10.9498 -0.2932 29.8098 -0.9286
# 6 -12.9965 -19.0547 -19.6964 -0.5944 -0.9286 32.5780
#
#
#
# Elastic Compliance Matrix: (Units=1/GPa)
#
#
# Indices 1 2 3 4 5 6 
#
# 1 0.019028 0.000618 -0.007051 -0.001138 0.003721 0.003774
# 2 0.000618 0.036907 -0.014875 -0.015140 0.000762 0.012585
# 3 -0.007051 -0.014875 0.017492 0.008623 -0.004772 -0.000916
# 4 -0.001138 -0.015140 0.008623 0.045744 -0.000843 -0.003285
# 5 0.003721 0.000762 -0.004772 -0.000843 0.035406 0.000039
# 6 0.003774 0.012585 -0.000916 -0.003285 0.000039 0.038949
#
#
# Mechanical properties :
#
#
# Convention : Reuss Voigt Hill
#
# Bulk Modulus (GPa) = 32.45712 56.05656 44.25684
# Shear Modulus (GPa) = 20.29113 26.59937 23.44525
#
# Velocity S-wave (km/s) = 3.11233 3.56343 3.34549
# Velocity P-wave (km/s) = 5.33009 6.60992 6.00420
#
# Compressibility (1/GPa) = 0.03080988
#
# Stress axis : x y z
#
# Youngs Moduli (GPa) = 52.55396 27.09544 57.16825
#
# Poissons Ratio (x) = -0.01674 0.40312
# Poissons Ratio (y) = -0.03247 0.85037
# Poissons Ratio (z) = 0.37058 0.40304
#
# Static dielectric constant tensor:
#      x y z
#    x 1.811780 0.000850 -0.021530 
#    y 0.000850 1.760970 0.021980 
#    z -0.021530 0.021980 1.780500 
# 
# From -- ./inp_files/476960.got.cif
#   From: 2010.05.17/outbox.cif.g08.bks.cpg/sg2_239_cif.got.tgz:476960.got - 2010.06.03 11:33:40.
