data_PCOD9099009
_publ_section_title
;
Structure prediction by ZEFSAII (Michael W. Deem and Ramdas Pophale) SiO2 
 PCOD9099009
Probable space group: P -1
;
_chemical_formula_sum "Si O2"
_cell_formula_units_Z 16
_cell_length_a 17.842862
_cell_length_b 6.304910
_cell_length_c 15.350938
_cell_angle_alpha 134.259332
_cell_angle_beta 39.598427
_cell_angle_gamma 113.909190
_cell_volume 754.427971
_symmetry_space_group_name_H-M "P -1"
_symmetry_group_IT_number 2
_symmetry_cell_setting 'triclinic'
loop_
_space_group_symop_operation_xyz
x,y,z
-x,-y,-z
loop_
_atom_site_type_symbol
_atom_site_label
_atom_site_fract_x
_atom_site_fract_y
_atom_site_fract_z
Si Si1 0.432855 0.423569 0.122422
Si Si2 0.656639 0.152045 0.976639
Si Si3 0.488263 0.416004 0.348602
Si Si4 0.934546 0.336067 0.197063
Si Si5 0.277867 0.724330 0.507080
Si Si6 0.779827 0.561247 0.227861
Si Si7 0.167292 0.533340 0.045969
Si Si8 0.621937 0.095449 0.281162
O O1 0.554697 0.282237 0.031888
O O2 0.331044 0.656418 0.342042
O O3 0.500000 0.500000 0.000000
O O4 0.359065 0.183102 0.090643
O O5 0.603517 0.362003 0.167990
O O6 0.791279 0.194925 0.864762
O O7 0.372819 0.454506 0.400933
O O8 0.524286 0.127247 0.299852
O O9 0.455967 0.741274 0.520170
O O10 0.850953 0.294944 0.342098
O O11 0.860516 0.519014 0.232144
O O12 0.038685 0.488020 0.177102
O O13 0.000000 0.000000 0.000000
O O14 0.279757 0.072332 0.625615
O O15 0.690985 0.351068 0.267336
O O16 0.842194 0.443739 0.044891
O O17 0.275052 0.220405 0.885699
#
# Coordination Sequence:
#
# PCOD9099009 Si02
#       8
#     2   2   2   2   2   2   2   2
#     4  10  25  46  67  90 126 168 223 283 328 378
#     4  10  24  41  65  92 124 171 221 269 330 384
#     4  10  20  37  58  92 133 163 208 265 326 392
#     4  12  23  42  63  98 141 174 215 258 316 398
#     4  11  24  41  64  95 131 175 220 261 329 391
#     4  12  21  37  62  97 136 174 208 256 326 394
#     4  12  24  40  62 101 134 175 216 262 321 397
#     4  11  22  33  58  97 141 165 203 264 334 395
#
# _framework density 21.208120999999998
#
# number of rings (size 3 to 8) (size 9 to 14) (size 15 to 20)
#    0.000    1.000    6.250    0.375    3.500    5.000 
#    0.000    0.625    0.000    1.500    0.000    0.000 
#    0.000    0.000    0.000    0.000    0.000    0.000 
#
# Total GULP energy -89151.839217 kJ/mol
# GULP energy per Si atom -5571.989951 kJ/mol
# Density = 2.115985 g / cm^3
# Si number density = 21.208121 Si / 1000 Ang^3
#
#
#
# Elastic Constant Matrix: (Units=GPa)
#
#
# Indices 1 2 3 4 5 6 
#
# 1 82.0206 45.8072 23.6238 -3.4261 3.9240 10.5745
# 2 45.8072 98.8304 38.6545 -14.2158 19.2626 25.1081
# 3 23.6238 38.6545 69.6791 -23.6487 8.7426 4.6789
# 4 -3.4261 -14.2158 -23.6487 25.0353 -10.4879 -8.9708
# 5 3.9240 19.2626 8.7426 -10.4879 14.0467 -2.5012
# 6 10.5745 25.1081 4.6789 -8.9708 -2.5012 48.1137
#
#
#
# Elastic Compliance Matrix: (Units=1/GPa)
#
#
# Indices 1 2 3 4 5 6 
#
# 1 0.017499 -0.009887 -0.001854 0.000035 0.010211 0.002031
# 2 -0.009887 0.035869 -0.018424 -0.034436 -0.065044 -0.024556
# 3 -0.001854 -0.018424 0.034133 0.044941 0.041161 0.017222
# 4 0.000035 -0.034436 0.044941 0.131262 0.125185 0.044574
# 5 0.010211 -0.065044 0.041161 0.125185 0.236663 0.063340
# 6 0.002031 -0.024556 0.017222 0.044574 0.063340 0.043081
#
#
# Mechanical properties :
#
#
# Convention : Reuss Voigt Hill
#
# Bulk Modulus (GPa) = 36.80317 51.85568 44.32943
# Shear Modulus (GPa) = 8.80449 26.93545 17.86997
#
# Velocity S-wave (km/s) = 2.03973 3.56765 2.90591
# Velocity P-wave (km/s) = 4.78940 6.44009 5.67508
#
# Compressibility (1/GPa) = 0.02717157
#
# Stress axis : x y z
#
# Youngs Moduli (GPa) = 57.14751 27.87903 29.29739
#
# Poissons Ratio (x) = 0.27563 0.05431
# Poissons Ratio (y) = 0.56500 0.53978
# Poissons Ratio (z) = 0.10593 0.51365
#
# Static dielectric constant tensor:
#      x y z
#    x 1.872890 -0.014210 0.005330 
#    y -0.014210 1.832250 -0.011240 
#    z 0.005330 -0.011240 1.776510 
# 
# From -- ./inp_files/536460.got.cif
#   From: 2010.05.17/outbox.cif.g08.bks.cpg/sg2_269_cif.got.tgz:536460.got - 2010.06.03 11:33:40.
