data_PCOD9099519
_publ_section_title
;
Structure prediction by ZEFSAII (Michael W. Deem and Ramdas Pophale) SiO2 
 PCOD9099519
Probable space group: P -1
;
_chemical_formula_sum "Si O2"
_cell_formula_units_Z 15
_cell_length_a 15.710916
_cell_length_b 9.281066
_cell_length_c 7.995094
_cell_angle_alpha 74.080469
_cell_angle_beta 78.752710
_cell_angle_gamma 30.828519
_cell_volume 572.581268
_symmetry_space_group_name_H-M "P -1"
_symmetry_group_IT_number 2
_symmetry_cell_setting 'triclinic'
loop_
_space_group_symop_operation_xyz
x,y,z
-x,-y,-z
loop_
_atom_site_type_symbol
_atom_site_label
_atom_site_fract_x
_atom_site_fract_y
_atom_site_fract_z
Si Si1 0.169563 0.497502 0.139651
Si Si2 0.501587 0.863445 0.177730
Si Si3 0.685418 0.448611 0.801539
Si Si4 0.203521 0.528157 0.570855
Si Si5 0.937827 0.766181 0.446830
Si Si6 0.295956 0.046199 0.718859
Si Si7 0.272651 0.960578 0.108426
Si Si8 0.000000 0.500000 0.000000
O O1 0.338762 0.163143 0.247237
O O2 0.226178 0.586610 0.075917
O O3 0.026706 0.700484 0.267460
O O4 0.097251 0.523862 0.996758
O O5 0.677767 0.593627 0.285940
O O6 0.439130 0.796560 0.152279
O O7 0.500000 0.000000 0.000000
O O8 0.742246 0.445065 0.610432
O O9 0.719798 0.223132 0.862803
O O10 0.486960 0.754454 0.787433
O O11 0.261077 0.268478 0.615333
O O12 0.004666 0.790973 0.545955
O O13 0.747813 0.012687 0.386129
O O14 0.000000 0.500000 0.500000
O O15 0.200246 0.147426 0.902346
O O16 0.120196 0.245178 0.185029
#
# Coordination Sequence:
#
# PCOD9099519 Si02
#       8
#     2   2   2   2   2   2   2   1
#     4  10  20  37  60  93 119 163 208 254 308 373
#     4  11  21  37  64  90 122 170 215 252 308 384
#     4  11  23  37  64  98 124 155 213 271 316 357
#     4  10  21  38  62  88 125 165 213 254 310 381
#     4   9  20  32  59  91 120 157 206 257 304 366
#     4  11  19  39  63  93 123 163 209 259 309 377
#     4  11  23  39  63  94 124 165 207 264 316 368
#     4  10  22  40  60  88 126 168 202 248 308 386
#
# _framework density 26.197157000000001
#
# number of rings (size 3 to 8) (size 9 to 14) (size 15 to 20)
#    0.000    1.600    4.000    0.800    3.733    1.067 
#    0.000    0.000    0.000    1.600    0.000    0.000 
#    0.000    0.000    0.000    0.000    0.000    0.000 
#
# Total GULP energy -83552.351175 kJ/mol
# GULP energy per Si atom -5570.156745 kJ/mol
# Density = 2.613753 g / cm^3
# Si number density = 26.197157 Si / 1000 Ang^3
#
#
#
# Elastic Constant Matrix: (Units=GPa)
#
#
# Indices 1 2 3 4 5 6 
#
# 1 314.2956 50.8924 64.2833 -19.5613 35.3451 1.2384
# 2 50.8924 34.3220 -2.7981 -3.8671 -12.8732 9.0247
# 3 64.2833 -2.7981 82.3693 1.8871 0.4184 5.7968
# 4 -19.5613 -3.8671 1.8871 15.2664 -6.3528 -6.7682
# 5 35.3451 -12.8732 0.4184 -6.3528 52.7252 -12.7729
# 6 1.2384 9.0247 5.7968 -6.7682 -12.7729 46.5932
#
#
#
# Elastic Compliance Matrix: (Units=1/GPa)
#
#
# Indices 1 2 3 4 5 6 
#
# 1 0.008839 -0.017065 -0.007724 0.005356 -0.008805 0.002396
# 2 -0.017065 0.067578 0.015975 0.000913 0.026149 -0.007322
# 3 -0.007724 0.015975 0.019153 -0.007270 0.006981 -0.004414
# 4 0.005356 0.000913 -0.007270 0.085031 0.010786 0.015894
# 5 -0.008805 0.026149 0.006981 0.010786 0.033737 0.005116
# 6 0.002396 -0.007322 -0.004414 0.015894 0.005116 0.027077
#
#
# Mechanical properties :
#
#
# Convention : Reuss Voigt Hill
#
# Bulk Modulus (GPa) = 12.83017 72.86024 42.84521
# Shear Modulus (GPa) = 17.54244 44.15757 30.85000
#
# Velocity S-wave (km/s) = 2.59053 4.11004 3.43535
# Velocity P-wave (km/s) = 3.72236 7.09901 5.66798
#
# Compressibility (1/GPa) = 0.07794128
#
# Stress axis : x y z
#
# Youngs Moduli (GPa) = 113.13611 14.79781 52.21056
#
# Poissons Ratio (x) = 0.25252 0.40330
# Poissons Ratio (y) = 1.93065 -0.83407
# Poissons Ratio (z) = 0.87391 -0.23640
#
# Static dielectric constant tensor:
#      x y z
#    x 2.072110 -0.105770 0.009610 
#    y -0.105770 2.676820 0.287620 
#    z 0.009610 0.287620 2.393440 
# 
# From -- ./inp_files/297854.got.cif
#   From: 2010.05.17/outbox.cif.g08.bks.cpg/sg2_149_cif.got.tgz:297854.got - 2010.06.03 11:33:40.
