data_PCOD9099082
_publ_section_title
;
Structure prediction by ZEFSAII (Michael W. Deem and Ramdas Pophale) SiO2 
 PCOD9099082
Probable space group: P -1
;
_chemical_formula_sum "Si O2"
_cell_formula_units_Z 14
_cell_length_a 14.954839
_cell_length_b 13.983749
_cell_length_c 14.752111
_cell_angle_alpha 159.959901
_cell_angle_beta 144.161383
_cell_angle_gamma 35.208380
_cell_volume 594.848477
_symmetry_space_group_name_H-M "P -1"
_symmetry_group_IT_number 2
_symmetry_cell_setting 'triclinic'
loop_
_space_group_symop_operation_xyz
x,y,z
-x,-y,-z
loop_
_atom_site_type_symbol
_atom_site_label
_atom_site_fract_x
_atom_site_fract_y
_atom_site_fract_z
Si Si1 0.544667 0.359497 0.202876
Si Si2 0.112029 0.182602 0.294668
Si Si3 0.114979 0.050640 0.561168
Si Si4 0.824333 0.379593 0.929869
Si Si5 0.485215 0.780500 0.675120
Si Si6 0.716863 0.630151 0.252141
Si Si7 0.634165 0.177194 0.922942
O O1 0.362568 0.499014 0.143409
O O2 0.650586 0.260209 0.113333
O O3 0.546851 0.063414 0.996373
O O4 0.577907 0.616944 0.517321
O O5 0.204314 0.145711 0.433967
O O6 0.000000 0.500000 0.500000
O O7 0.251480 0.125287 0.284691
O O8 0.000000 0.000000 0.000000
O O9 0.297930 0.910029 0.616474
O O10 0.089064 0.391332 0.833575
O O11 0.104738 0.910647 0.328737
O O12 0.000000 0.000000 0.500000
O O13 0.820785 0.437109 0.086417
O O14 0.500000 0.500000 0.500000
O O15 0.548607 0.809656 0.232908
O O16 0.676301 0.414332 0.101586
#
# Coordination Sequence:
#
# PCOD9099082 Si02
#       7
#     2   2   2   2   2   2   2
#     4   9  20  36  60  90 117 151 200 257 306 348
#     4  12  25  42  59  86 132 174 204 254 322 373
#     4  10  20  37  59  85 120 155 196 249 311 365
#     4   9  20  36  60  90 119 153 200 260 304 350
#     4  10  20  37  59  84 118 153 194 251 308 363
#     4  10  22  41  68  96 123 166 225 262 302 372
#     4  10  22  41  68  95 123 166 222 262 300 373
#
# _framework density 23.535402999999999
#
# number of rings (size 3 to 8) (size 9 to 14) (size 15 to 20)
#    0.000    2.000    1.429    1.286    4.000    0.000 
#    0.000    4.286    0.000    0.000    0.000    0.000 
#    0.000    0.000    0.000    0.000    0.000    0.000 
#
# Total GULP energy -78146.201267 kJ/mol
# GULP energy per Si atom -5581.871519 kJ/mol
# Density = 2.348184 g / cm^3
# Si number density = 23.535403 Si / 1000 Ang^3
#
#
#
# Elastic Constant Matrix: (Units=GPa)
#
#
# Indices 1 2 3 4 5 6 
#
# 1 98.4379 -0.2291 2.5427 4.6303 -20.1570 -4.0759
# 2 -0.2291 33.4146 13.4355 3.9406 -2.3129 -10.0864
# 3 2.5427 13.4355 136.8108 3.3060 -11.9252 -15.3170
# 4 4.6303 3.9406 3.3060 29.6865 -2.7847 -4.9137
# 5 -20.1570 -2.3129 -11.9252 -2.7847 35.3956 14.8863
# 6 -4.0759 -10.0864 -15.3170 -4.9137 14.8863 28.0915
#
#
#
# Elastic Compliance Matrix: (Units=1/GPa)
#
#
# Indices 1 2 3 4 5 6 
#
# 1 0.011692 -0.000060 0.000210 -0.001541 0.007675 -0.002548
# 2 -0.000060 0.034781 -0.002260 -0.002595 -0.004203 0.013021
# 3 0.000210 -0.002260 0.007968 -0.000022 0.001489 0.002770
# 4 -0.001541 -0.002595 -0.000022 0.035092 -0.000494 0.005233
# 5 0.007675 -0.004203 0.001489 -0.000494 0.042042 -0.021949
# 6 -0.002548 0.013021 0.002770 0.005233 -0.021949 0.053961
#
#
# Mechanical properties :
#
#
# Convention : Reuss Voigt Hill
#
# Bulk Modulus (GPa) = 19.91298 33.35128 26.63213
# Shear Modulus (GPa) = 24.21339 35.49567 29.85453
#
# Velocity S-wave (km/s) = 3.21098 3.88774 3.56546
# Velocity P-wave (km/s) = 4.71449 5.86125 5.31886
#
# Compressibility (1/GPa) = 0.05021850
#
# Stress axis : x y z
#
# Youngs Moduli (GPa) = 85.53042 28.75143 125.50268
#
# Poissons Ratio (x) = 0.00173 -0.02631
# Poissons Ratio (y) = 0.00515 0.28370
# Poissons Ratio (z) = -0.01793 0.06499
#
# Static dielectric constant tensor:
#      x y z
#    x 1.937320 0.099740 0.008180 
#    y 0.099740 1.984330 -0.001300 
#    z 0.008180 -0.001300 1.921530 
# 
# From -- ./inp_files/533956.got.cif
#   From: 2010.05.17/outbox.cif.g08.bks.cpg/sg2_267_cif.got.tgz:533956.got - 2010.06.03 11:33:40.
