data_PCOD9099959
_publ_section_title
;
Structure prediction by ZEFSAII (Michael W. Deem and Ramdas Pophale) SiO2 
 PCOD9099959
Probable space group: P -1
;
_chemical_formula_sum "Si O2"
_cell_formula_units_Z 16
_cell_length_a 9.634962
_cell_length_b 10.046145
_cell_length_c 6.542079
_cell_angle_alpha 91.152809
_cell_angle_beta 80.519074
_cell_angle_gamma 75.826073
_cell_volume 604.360267
_symmetry_space_group_name_H-M "P -1"
_symmetry_group_IT_number 2
_symmetry_cell_setting 'triclinic'
loop_
_space_group_symop_operation_xyz
x,y,z
-x,-y,-z
loop_
_atom_site_type_symbol
_atom_site_label
_atom_site_fract_x
_atom_site_fract_y
_atom_site_fract_z
Si Si1 0.841448 0.517837 0.129726
Si Si2 0.461195 0.316042 0.532524
Si Si3 0.599417 0.428381 0.154115
Si Si4 0.356520 0.084528 0.413920
Si Si5 0.831271 0.065584 0.092421
Si Si6 0.758091 0.812800 0.961036
Si Si7 0.935630 0.270750 0.356486
Si Si8 0.757469 0.158878 0.669224
O O1 0.761309 0.412872 0.034363
O O2 0.882282 0.434035 0.334946
O O3 0.759476 0.670844 0.069267
O O4 0.000000 0.500000 0.000000
O O5 0.527870 0.327005 0.292285
O O6 0.395112 0.460494 0.661876
O O7 0.339740 0.233329 0.522940
O O8 0.600794 0.249141 0.636042
O O9 0.500000 0.500000 0.000000
O O10 0.367243 0.119561 0.169687
O O11 0.500000 0.000000 0.500000
O O12 0.241314 0.990756 0.434582
O O13 0.753897 0.135945 0.909884
O O14 0.767718 0.931499 0.125139
O O15 0.836820 0.182044 0.259031
O O16 0.000000 0.000000 0.000000
O O17 0.903825 0.778498 0.779314
O O18 0.893742 0.222516 0.586374
#
# Coordination Sequence:
#
# PCOD9099959 Si02
#       8
#     2   2   2   2   2   2   2   2
#     4  10  21  39  62  90 126 163 205 257 316 375
#     4  10  22  39  60  92 121 159 213 248 309 378
#     4  11  23  39  65  88 126 167 206 258 312 371
#     4   9  19  37  59  86 125 160 202 264 303 370
#     4   9  20  35  57  87 120 161 209 254 304 372
#     4   9  19  37  59  89 124 163 209 257 311 374
#     4  10  20  37  62  89 124 165 205 256 318 375
#     4  10  20  37  62  88 123 157 206 256 314 368
#
# _framework density 26.474276
#
# number of rings (size 3 to 8) (size 9 to 14) (size 15 to 20)
#    0.000    2.250    1.250    0.750    1.750    5.500 
#    0.000    2.500    0.000   18.750    0.000    0.000 
#    0.000    0.000    0.000    0.000    0.000    0.000 
#
# Total GULP energy -89148.486596 kJ/mol
# GULP energy per Si atom -5571.780412 kJ/mol
# Density = 2.641402 g / cm^3
# Si number density = 26.474276 Si / 1000 Ang^3
#
#
#
# Elastic Constant Matrix: (Units=GPa)
#
#
# Indices 1 2 3 4 5 6 
#
# 1 75.9994 16.5092 18.2055 -13.1623 -4.9171 15.9129
# 2 16.5092 134.5374 33.3810 -32.5269 -8.3607 26.9205
# 3 18.2055 33.3810 75.6159 -17.8605 1.6465 3.8480
# 4 -13.1623 -32.5269 -17.8605 58.1142 3.4449 -3.7439
# 5 -4.9171 -8.3607 1.6465 3.4449 37.6718 -14.7173
# 6 15.9129 26.9205 3.8480 -3.7439 -14.7173 51.6320
#
#
#
# Elastic Compliance Matrix: (Units=1/GPa)
#
#
# Indices 1 2 3 4 5 6 
#
# 1 0.015156 0.000368 -0.003024 0.002411 0.000257 -0.004389
# 2 0.000368 0.010280 -0.003322 0.004493 0.000168 -0.004852
# 3 -0.003024 -0.003322 0.015993 0.002543 -0.001594 0.001202
# 4 0.002411 0.004493 0.002543 0.021002 -0.001580 -0.002203
# 5 0.000257 0.000168 -0.001594 -0.001580 0.030121 0.008423
# 6 -0.004389 -0.004852 0.001202 -0.002203 0.008423 0.025402
#
#
# Mechanical properties :
#
#
# Convention : Reuss Voigt Hill
#
# Bulk Modulus (GPa) = 33.93011 46.92712 40.42861
# Shear Modulus (GPa) = 35.78233 44.02074 39.90154
#
# Velocity S-wave (km/s) = 3.68038 4.08214 3.88646
# Velocity P-wave (km/s) = 5.55917 6.32317 5.95344
#
# Compressibility (1/GPa) = 0.02947235
#
# Stress axis : x y z
#
# Youngs Moduli (GPa) = 65.98157 97.28014 62.52546
#
# Poissons Ratio (x) = -0.03577 0.18908
# Poissons Ratio (y) = -0.02426 0.20771
# Poissons Ratio (z) = 0.19953 0.32316
#
# Static dielectric constant tensor:
#      x y z
#    x 1.714300 -0.126580 0.096830 
#    y -0.126580 2.219750 0.009920 
#    z 0.096830 0.009920 2.088130 
# 
# From -- ./inp_files/70566.got.cif
#   From: 2010.05.17/outbox.cif.g08.bks.cpg/sg2_36_cif.got.tgz:70566.got - 2010.06.03 11:33:40.
