data_PCOD9099747
_publ_section_title
;
Structure prediction by ZEFSAII (Michael W. Deem and Ramdas Pophale) SiO2 
 PCOD9099747
Probable space group: P -1
;
_chemical_formula_sum "Si O2"
_cell_formula_units_Z 16
_cell_length_a 15.047639
_cell_length_b 6.327799
_cell_length_c 8.164460
_cell_angle_alpha 80.801956
_cell_angle_beta 102.714102
_cell_angle_gamma 116.633607
_cell_volume 676.207524
_symmetry_space_group_name_H-M "P -1"
_symmetry_group_IT_number 2
_symmetry_cell_setting 'triclinic'
loop_
_space_group_symop_operation_xyz
x,y,z
-x,-y,-z
loop_
_atom_site_type_symbol
_atom_site_label
_atom_site_fract_x
_atom_site_fract_y
_atom_site_fract_z
Si Si1 0.661696 0.484829 0.791201
Si Si2 0.071231 0.778803 0.465963
Si Si3 0.805649 0.920644 0.988380
Si Si4 0.820093 0.448685 0.645232
Si Si5 0.677786 0.134453 0.093311
Si Si6 0.259788 0.460932 0.705215
Si Si7 0.458629 0.398943 0.814134
Si Si8 0.012327 0.877098 0.772920
O O1 0.713038 0.383071 0.693219
O O2 0.554169 0.486007 0.721925
O O3 0.745794 0.748720 0.837518
O O4 0.640978 0.305477 0.958728
O O5 0.159673 0.765698 0.392113
O O6 0.000000 0.500000 0.500000
O O7 0.081077 0.866226 0.647384
O O8 0.023977 0.924473 0.323429
O O9 0.786030 0.727344 0.147438
O O10 0.750259 0.078478 0.006784
O O11 0.924418 0.073968 0.039621
O O12 0.812707 0.603812 0.470310
O O13 0.914112 0.623806 0.769804
O O14 0.731348 0.290384 0.252707
O O15 0.594505 0.884452 0.150552
O O16 0.370378 0.473382 0.716202
O O17 0.500000 0.500000 0.000000
#
# Coordination Sequence:
#
# PCOD9099747 Si02
#       8
#     2   2   2   2   2   2   2   2
#     4  11  24  38  58  90 127 153 194 249 302 350
#     4   9  18  35  58  82 113 158 200 238 287 345
#     4  10  20  37  61  91 110 160 211 240 282 349
#     4  11  24  39  55  92 129 156 191 246 303 351
#     4  10  20  38  66  85 114 154 203 248 288 352
#     4  10  21  36  62  89 116 151 204 244 287 357
#     4  11  20  41  66  90 110 154 205 243 292 357
#     4  10  20  37  63  82 120 163 203 243 284 344
#
# _framework density 23.661375
#
# number of rings (size 3 to 8) (size 9 to 14) (size 15 to 20)
#    0.000    1.750    3.750    3.375    0.000    6.000 
#    0.000    1.875    0.000    0.000    0.000    0.000 
#    0.000    0.000    0.000    0.000    0.000    0.000 
#
# Total GULP energy -89352.346937 kJ/mol
# GULP energy per Si atom -5584.521684 kJ/mol
# Density = 2.360752 g / cm^3
# Si number density = 23.661375 Si / 1000 Ang^3
#
#
#
# Elastic Constant Matrix: (Units=GPa)
#
#
# Indices 1 2 3 4 5 6 
#
# 1 144.9066 15.1822 11.4414 21.5062 -18.6599 -24.6606
# 2 15.1822 95.1331 14.0066 11.1734 4.5831 -17.2530
# 3 11.4414 14.0066 14.7827 2.5570 2.1665 -2.8766
# 4 21.5062 11.1734 2.5570 23.3502 -2.6138 -1.3125
# 5 -18.6599 4.5831 2.1665 -2.6138 39.1929 4.6928
# 6 -24.6606 -17.2530 -2.8766 -1.3125 4.6928 24.7477
#
#
#
# Elastic Compliance Matrix: (Units=1/GPa)
#
#
# Indices 1 2 3 4 5 6 
#
# 1 0.010815 0.002126 -0.007301 -0.009214 0.003460 0.010266
# 2 0.002126 0.014914 -0.012072 -0.007361 -0.001882 0.011079
# 3 -0.007301 -0.012072 0.084313 0.002334 -0.006015 -0.004626
# 4 -0.009214 -0.007361 0.002334 0.054085 0.001320 -0.011424
# 5 0.003460 -0.001882 -0.006015 0.001320 0.028264 -0.003853
# 6 0.010266 0.011079 -0.004626 -0.011424 -0.003853 0.057948
#
#
# Mechanical properties :
#
#
# Convention : Reuss Voigt Hill
#
# Bulk Modulus (GPa) = 13.23639 37.34254 25.28947
# Shear Modulus (GPa) = 16.12829 31.73767 23.93298
#
# Velocity S-wave (km/s) = 2.61364 3.66639 3.18383
# Velocity P-wave (km/s) = 3.83593 5.80857 4.92209
#
# Compressibility (1/GPa) = 0.07554927
#
# Stress axis : x y z
#
# Youngs Moduli (GPa) = 92.46586 67.05044 11.86062
#
# Poissons Ratio (x) = -0.14256 0.08659
# Poissons Ratio (y) = -0.19660 0.14318
# Poissons Ratio (z) = 0.67506 0.80942
#
# Static dielectric constant tensor:
#      x y z
#    x 1.956630 0.015260 -0.020880 
#    y 0.015260 1.888690 0.011270 
#    z -0.020880 0.011270 1.978640 
# 
# From -- ./inp_files/94054.got.cif
#   From: 2010.05.17/outbox.cif.g08.bks.cpg/sg2_48_cif.got.tgz:94054.got - 2010.06.03 11:33:40.
