data_PCOD9099101
_publ_section_title
;
Structure prediction by ZEFSAII (Michael W. Deem and Ramdas Pophale) SiO2 
 PCOD9099101
Probable space group: P -1
;
_chemical_formula_sum "Si O2"
_cell_formula_units_Z 16
_cell_length_a 11.753052
_cell_length_b 10.053836
_cell_length_c 11.334061
_cell_angle_alpha 92.272693
_cell_angle_beta 63.410835
_cell_angle_gamma 143.943016
_cell_volume 557.410934
_symmetry_space_group_name_H-M "P -1"
_symmetry_group_IT_number 2
_symmetry_cell_setting 'triclinic'
loop_
_space_group_symop_operation_xyz
x,y,z
-x,-y,-z
loop_
_atom_site_type_symbol
_atom_site_label
_atom_site_fract_x
_atom_site_fract_y
_atom_site_fract_z
Si Si1 0.735843 0.781720 0.977980
Si Si2 0.440029 0.198617 0.320268
Si Si3 0.188067 0.843782 0.661643
Si Si4 0.695122 0.211175 0.069407
Si Si5 0.617188 0.324167 0.811455
Si Si6 0.085887 0.450472 0.735766
Si Si7 0.881347 0.725431 0.488248
Si Si8 0.687024 0.761150 0.273179
O O1 0.658199 0.863218 0.020969
O O2 0.720203 0.731208 0.123214
O O3 0.500000 0.500000 0.000000
O O4 0.027448 0.020504 0.795657
O O5 0.284863 0.975148 0.490236
O O6 0.189822 0.059705 0.383268
O O7 0.549565 0.215179 0.159569
O O8 0.734279 0.482112 0.261487
O O9 0.241410 0.738009 0.661498
O O10 0.858167 0.544635 0.802038
O O11 0.290174 0.056221 0.708927
O O12 0.472659 0.898989 0.208958
O O13 0.000000 0.500000 0.000000
O O14 0.790852 0.230657 0.905416
O O15 0.740541 0.539192 0.665515
O O16 0.072493 0.360676 0.617525
O O17 0.615837 0.556949 0.554148
#
# Coordination Sequence:
#
# PCOD9099101 Si02
#       8
#     2   2   2   2   2   2   2   2
#     4  10  20  37  59  85 115 142 187 249 298 329
#     4  10  21  36  52  85 117 153 191 230 278 339
#     4  11  20  34  59  86 117 151 191 237 282 340
#     4  10  23  37  54  85 122 159 191 224 279 351
#     4  10  21  37  59  86 117 150 191 240 289 333
#     4  11  22  35  55  82 123 154 193 221 280 347
#     4  10  21  35  59  82 115 153 191 238 281 334
#     4  10  21  34  56  89 111 143 189 238 295 337
#
# _framework density 28.704136999999999
#
# number of rings (size 3 to 8) (size 9 to 14) (size 15 to 20)
#    0.000    1.750    2.500    1.875    7.000    4.000 
#    0.000    0.000    0.000    0.750    0.000    7.000 
#    0.000    0.000    0.000    0.000    0.000    0.000 
#
# Total GULP energy -89289.195992 kJ/mol
# GULP energy per Si atom -5580.574750 kJ/mol
# Density = 2.863880 g / cm^3
# Si number density = 28.704137 Si / 1000 Ang^3
#
#
#
# Elastic Constant Matrix: (Units=GPa)
#
#
# Indices 1 2 3 4 5 6 
#
# 1 78.0608 31.6733 32.1654 -17.3672 -20.1944 32.8613
# 2 31.6733 173.6700 36.5180 -11.9488 -12.2966 2.6573
# 3 32.1654 36.5180 181.1379 -18.6538 -29.9978 21.4960
# 4 -17.3672 -11.9488 -18.6538 54.3673 22.1909 -11.1873
# 5 -20.1944 -12.2966 -29.9978 22.1909 53.7259 -21.5492
# 6 32.8613 2.6573 21.4960 -11.1873 -21.5492 38.9392
#
#
#
# Elastic Compliance Matrix: (Units=1/GPa)
#
#
# Indices 1 2 3 4 5 6 
#
# 1 0.022632 -0.003521 -0.001082 0.002913 -0.001408 -0.018204
# 2 -0.003521 0.006639 -0.000949 0.000362 0.001001 0.003700
# 3 -0.001082 -0.000949 0.006478 0.000478 0.002324 -0.001175
# 4 0.002913 0.000362 0.000478 0.022786 -0.008281 -0.000783
# 5 -0.001408 0.001001 0.002324 -0.008281 0.028291 0.013114
# 6 -0.018204 0.003700 -0.001175 -0.000783 0.013114 0.048472
#
#
# Mechanical properties :
#
#
# Convention : Reuss Voigt Hill
#
# Bulk Modulus (GPa) = 40.57641 70.39802 55.48721
# Shear Modulus (GPa) = 32.33783 51.57395 41.95589
#
# Velocity S-wave (km/s) = 3.36011 4.24340 3.82732
# Velocity P-wave (km/s) = 5.40561 6.97045 6.23730
#
# Compressibility (1/GPa) = 0.02464486
#
# Stress axis : x y z
#
# Youngs Moduli (GPa) = 44.18447 150.62733 154.37596
#
# Poissons Ratio (x) = 0.53033 0.16702
# Poissons Ratio (y) = 0.15557 0.14656
# Poissons Ratio (z) = 0.04780 0.14300
#
# Static dielectric constant tensor:
#      x y z
#    x 2.454290 0.048140 0.036060 
#    y 0.048140 2.268480 -0.038760 
#    z 0.036060 -0.038760 2.209790 
# 
# From -- ./inp_files/531880.got.cif
#   From: 2010.05.17/outbox.cif.g08.bks.cpg/sg2_266_cif.got.tgz:531880.got - 2010.06.03 11:33:40.
