data_PCOD9099354
_publ_section_title
;
Structure prediction by ZEFSAII (Michael W. Deem and Ramdas Pophale) SiO2 
 PCOD9099354
Probable space group: P -1
;
_chemical_formula_sum "Si O2"
_cell_formula_units_Z 12
_cell_length_a 13.393572
_cell_length_b 14.877283
_cell_length_c 9.157515
_cell_angle_alpha 104.114767
_cell_angle_beta 85.344184
_cell_angle_gamma 159.919542
_cell_volume 544.385514
_symmetry_space_group_name_H-M "P -1"
_symmetry_group_IT_number 2
_symmetry_cell_setting 'triclinic'
loop_
_space_group_symop_operation_xyz
x,y,z
-x,-y,-z
loop_
_atom_site_type_symbol
_atom_site_label
_atom_site_fract_x
_atom_site_fract_y
_atom_site_fract_z
Si Si1 0.532555 0.597110 0.395042
Si Si2 0.797126 0.405053 0.561655
Si Si3 0.980801 0.305676 0.618069
Si Si4 0.013232 0.875950 0.304097
Si Si5 0.823164 0.751986 0.974511
Si Si6 0.147526 0.644861 0.882218
O O1 0.500000 0.500000 0.500000
O O2 0.789889 0.766311 0.333325
O O3 0.661266 0.805877 0.527211
O O4 0.253002 0.365861 0.216055
O O5 0.000000 0.500000 0.500000
O O6 0.919714 0.598005 0.524599
O O7 0.923200 0.513200 0.755168
O O8 0.412945 0.044167 0.457265
O O9 0.105473 0.322849 0.688441
O O10 0.135468 0.532294 0.765234
O O11 0.025779 0.880250 0.129461
O O12 0.500000 0.500000 0.000000
O O13 0.000000 0.000000 0.000000
O O14 0.000000 0.500000 0.000000
O O15 0.500000 0.000000 0.000000
#
# Coordination Sequence:
#
# PCOD9099354 Si02
#       6
#     2   2   2   2   2   2
#     4  10  20  39  65  85 125 172 209 251 317 373
#     4  10  21  41  65  88 121 168 202 244 320 382
#     4  11  23  40  65  92 124 164 211 257 303 376
#     4  10  23  39  61  93 126 164 213 260 308 366
#     4  10  20  37  60  86 119 165 205 252 313 369
#     4  11  21  40  65  91 125 161 202 253 319 375
#
# _framework density 22.043199999999999
#
# number of rings (size 3 to 8) (size 9 to 14) (size 15 to 20)
#    0.000    1.667    1.667    5.000    2.333    0.000 
#    6.000    0.000    0.000    0.000    0.000    0.000 
#    0.000    0.000    0.000    0.000    0.000    0.000 
#
# Total GULP energy -66915.958492 kJ/mol
# GULP energy per Si atom -5576.329874 kJ/mol
# Density = 2.199303 g / cm^3
# Si number density = 22.043200 Si / 1000 Ang^3
#
#
#
# Elastic Constant Matrix: (Units=GPa)
#
#
# Indices 1 2 3 4 5 6 
#
# 1 59.8809 24.3524 26.8507 1.6779 7.7198 -19.4147
# 2 24.3524 154.4181 62.1263 -3.5079 5.7590 -19.6291
# 3 26.8507 62.1263 213.8090 -16.6414 4.6839 -32.9904
# 4 1.6779 -3.5079 -16.6414 51.2471 -10.5414 8.8056
# 5 7.7198 5.7590 4.6839 -10.5414 17.7395 -2.6264
# 6 -19.4147 -19.6291 -32.9904 8.8056 -2.6264 51.2926
#
#
#
# Elastic Compliance Matrix: (Units=1/GPa)
#
#
# Indices 1 2 3 4 5 6 
#
# 1 0.021683 -0.001744 -0.001269 -0.004539 -0.010198 0.006981
# 2 -0.001744 0.007675 -0.001849 -0.000489 -0.001372 0.001101
# 3 -0.001269 -0.001849 0.005839 0.001595 0.000905 0.002340
# 4 -0.004539 -0.000489 0.001595 0.024033 0.015369 -0.004218
# 5 -0.010198 -0.001372 0.000905 0.015369 0.069724 -0.002871
# 6 0.006981 0.001101 0.002340 -0.004218 -0.002871 0.024642
#
#
# Mechanical properties :
#
#
# Convention : Reuss Voigt Hill
#
# Bulk Modulus (GPa) = 39.25803 72.75186 56.00494
# Shear Modulus (GPa) = 29.10165 45.04109 37.07137
#
# Velocity S-wave (km/s) = 3.63741 4.52520 4.10538
# Velocity P-wave (km/s) = 5.95729 7.77040 6.92345
#
# Compressibility (1/GPa) = 0.02547250
#
# Stress axis : x y z
#
# Youngs Moduli (GPa) = 46.11822 130.29245 171.25776
#
# Poissons Ratio (x) = 0.22729 0.21731
# Poissons Ratio (y) = 0.08045 0.31668
# Poissons Ratio (z) = 0.05852 0.24093
#
# Static dielectric constant tensor:
#      x y z
#    x 1.812840 0.053570 0.053870 
#    y 0.053570 1.827460 0.009560 
#    z 0.053870 0.009560 1.911190 
# 
# From -- ./inp_files/54493.got.cif
#   From: 2010.05.17/outbox.cif.g08.bks.cpg/sg2_28_cif.got.tgz:54493.got - 2010.06.03 11:33:40.
