data_PCOD9099993
_publ_section_title
;
Structure prediction by ZEFSAII (Michael W. Deem and Ramdas Pophale) SiO2 
 PCOD9099993
Probable space group: P -1
;
_chemical_formula_sum "Si O2"
_cell_formula_units_Z 13
_cell_length_a 17.626995
_cell_length_b 7.386354
_cell_length_c 9.417452
_cell_angle_alpha 119.567073
_cell_angle_beta 34.762284
_cell_angle_gamma 130.455760
_cell_volume 529.739289
_symmetry_space_group_name_H-M "P -1"
_symmetry_group_IT_number 2
_symmetry_cell_setting 'triclinic'
loop_
_space_group_symop_operation_xyz
x,y,z
-x,-y,-z
loop_
_atom_site_type_symbol
_atom_site_label
_atom_site_fract_x
_atom_site_fract_y
_atom_site_fract_z
Si Si1 0.402301 0.125414 0.242586
Si Si2 0.512565 0.354283 0.674894
Si Si3 0.215346 0.481363 0.903420
Si Si4 0.747085 0.940254 0.247110
Si Si5 0.821925 0.328888 0.684753
Si Si6 0.768933 0.395712 0.473056
Si Si7 0.000000 0.500000 0.000000
O O1 0.481084 0.402287 0.192598
O O2 0.359087 0.103692 0.467469
O O3 0.241933 0.954496 0.343389
O O4 0.500000 0.000000 0.000000
O O5 0.631900 0.422840 0.387765
O O6 0.352647 0.160251 0.780641
O O7 0.597212 0.292593 0.644366
O O8 0.166079 0.206692 0.911966
O O9 0.256277 0.621198 0.042788
O O10 0.094002 0.524202 0.022972
O O11 0.834407 0.229785 0.224980
O O12 0.783840 0.397382 0.616438
O O13 0.000000 0.500000 0.500000
O O14 0.894570 0.623452 0.286452
#
# Coordination Sequence:
#
# PCOD9099993 Si02
#       7
#     2   2   2   2   2   2   1
#     4  10  20  37  63  88 120 160 198 242 302 356
#     4  10  20  39  62  91 118 152 203 245 293 355
#     4  10  20  37  63  83 121 154 200 237 300 350
#     4  10  20  37  62  90 115 160 199 244 298 358
#     4  11  21  39  59  89 122 161 194 244 300 357
#     4  10  22  38  59  87 122 153 200 246 296 350
#     4  10  20  38  56  84 114 158 196 248 280 354
#
# _framework density 24.540372000000001
#
# number of rings (size 3 to 8) (size 9 to 14) (size 15 to 20)
#    0.000    1.846    1.538    4.154    0.000    0.615 
#    5.538   12.308    0.000    0.000    0.000    0.000 
#    0.000    0.000    0.000    0.000    0.000    0.000 
#
# Total GULP energy -72472.237529 kJ/mol
# GULP energy per Si atom -5574.787502 kJ/mol
# Density = 2.448452 g / cm^3
# Si number density = 24.540372 Si / 1000 Ang^3
#
#
#
# Elastic Constant Matrix: (Units=GPa)
#
#
# Indices 1 2 3 4 5 6 
#
# 1 140.6273 50.9534 29.1619 18.3490 26.0079 20.0934
# 2 50.9534 118.8523 20.0412 15.5806 -1.9433 23.6956
# 3 29.1619 20.0412 79.3639 17.4876 20.1226 6.2385
# 4 18.3490 15.5806 17.4876 40.1085 8.6393 0.7317
# 5 26.0079 -1.9433 20.1226 8.6393 35.3339 1.4126
# 6 20.0934 23.6956 6.2385 0.7317 1.4126 39.9651
#
#
#
# Elastic Compliance Matrix: (Units=1/GPa)
#
#
# Indices 1 2 3 4 5 6 
#
# 1 0.010500 -0.003799 -0.000545 -0.001500 -0.007154 -0.002661
# 2 -0.003799 0.011853 -0.001913 -0.003127 0.005501 -0.004956
# 3 -0.000545 -0.001913 0.016316 -0.004408 -0.007887 -0.000779
# 4 -0.001500 -0.003127 -0.004408 0.029542 -0.003896 0.002893
# 5 -0.007154 0.005501 -0.007887 -0.003896 0.039304 0.000249
# 6 -0.002661 -0.004956 -0.000779 0.002893 0.000249 0.029358
#
#
# Mechanical properties :
#
#
# Convention : Reuss Voigt Hill
#
# Bulk Modulus (GPa) = 38.23578 59.90629 49.07103
# Shear Modulus (GPa) = 31.62459 38.99398 35.30928
#
# Velocity S-wave (km/s) = 3.59371 3.99052 3.79730
# Velocity P-wave (km/s) = 5.73012 6.75993 6.26621
#
# Compressibility (1/GPa) = 0.02615351
#
# Stress axis : x y z
#
# Youngs Moduli (GPa) = 95.24232 84.36621 61.28983
#
# Poissons Ratio (x) = 0.32052 0.03341
# Poissons Ratio (y) = 0.36184 0.11727
# Poissons Ratio (z) = 0.05191 0.16142
#
# Static dielectric constant tensor:
#      x y z
#    x 2.012780 -0.052570 -0.034530 
#    y -0.052570 2.070560 -0.057110 
#    z -0.034530 -0.057110 2.037630 
# 
# From -- ./inp_files/168240.got.cif
#   From: 2010.05.17/outbox.cif.g08.bks.cpg/sg2_85_cif.got.tgz:168240.got - 2010.06.03 11:33:40.
