data_PCOD9099550
_publ_section_title
;
Structure prediction by ZEFSAII (Michael W. Deem and Ramdas Pophale) SiO2 
 PCOD9099550
Probable space group: P -1
;
_chemical_formula_sum "Si O2"
_cell_formula_units_Z 16
_cell_length_a 8.651779
_cell_length_b 12.327478
_cell_length_c 18.348500
_cell_angle_alpha 152.559970
_cell_angle_beta 76.483071
_cell_angle_gamma 115.712639
_cell_volume 756.627496
_symmetry_space_group_name_H-M "P -1"
_symmetry_group_IT_number 2
_symmetry_cell_setting 'triclinic'
loop_
_space_group_symop_operation_xyz
x,y,z
-x,-y,-z
loop_
_atom_site_type_symbol
_atom_site_label
_atom_site_fract_x
_atom_site_fract_y
_atom_site_fract_z
Si Si1 0.845659 0.077234 0.643918
Si Si2 0.222588 0.061793 0.593555
Si Si3 0.059306 0.944228 0.883546
Si Si4 0.132753 0.658620 0.489740
Si Si5 0.735843 0.299201 0.341889
Si Si6 0.365293 0.493886 0.948787
Si Si7 0.962890 0.706773 0.030238
Si Si8 0.649278 0.963356 0.745892
O O1 0.710413 0.929762 0.638634
O O2 0.020761 0.034428 0.600017
O O3 0.745705 0.979927 0.518730
O O4 0.923687 0.401992 0.838359
O O5 0.364199 0.346214 0.786354
O O6 0.215043 0.835820 0.514782
O O7 0.232705 0.894991 0.832555
O O8 0.899060 0.644777 0.695953
O O9 0.092972 0.178402 0.963519
O O10 0.000000 0.000000 0.000000
O O11 0.239326 0.779565 0.625043
O O12 0.921229 0.590580 0.483159
O O13 0.541420 0.277711 0.345692
O O14 0.161476 0.317374 0.901255
O O15 0.500000 0.500000 0.000000
O O16 0.393345 0.788850 0.107990
O O17 0.173815 0.917313 0.151108
#
# Coordination Sequence:
#
# PCOD9099550 Si02
#       8
#     2   2   2   2   2   2   2   2
#     4  10  22  34  60  86 125 149 188 244 309 337
#     4  11  19  38  58  90 117 156 189 246 295 349
#     4  10  20  37  61  82 109 154 195 239 287 336
#     4   9  20  38  61  79 115 157 198 231 291 345
#     4   9  21  38  61  83 114 156 198 239 283 357
#     4  11  21  35  63  88 116 160 197 243 288 353
#     4  11  20  38  58  87 118 153 197 242 291 358
#     4  11  20  39  57  92 117 152 202 235 300 354
#
# _framework density 21.146470999999998
#
# number of rings (size 3 to 8) (size 9 to 14) (size 15 to 20)
#    0.750    1.000    2.500    3.750    0.000    0.000 
#    0.000   11.250    0.000    0.000    0.000    0.000 
#    0.000    0.000    0.000    0.000    0.000    0.000 
#
# Total GULP energy -89307.918874 kJ/mol
# GULP energy per Si atom -5581.744930 kJ/mol
# Density = 2.109834 g / cm^3
# Si number density = 21.146471 Si / 1000 Ang^3
#
#
#
# Elastic Constant Matrix: (Units=GPa)
#
#
# Indices 1 2 3 4 5 6 
#
# 1 64.4270 -9.3286 21.9411 -3.0959 9.0100 16.9912
# 2 -9.3286 57.4935 31.2255 -19.8405 -6.5117 0.9732
# 3 21.9411 31.2255 68.2776 -29.4352 0.7972 6.6644
# 4 -3.0959 -19.8405 -29.4352 40.5436 -7.0479 -4.2910
# 5 9.0100 -6.5117 0.7972 -7.0479 31.3770 4.5849
# 6 16.9912 0.9732 6.6644 -4.2910 4.5849 29.0530
#
#
#
# Elastic Compliance Matrix: (Units=1/GPa)
#
#
# Indices 1 2 3 4 5 6 
#
# 1 0.024813 0.009083 -0.013176 -0.005239 -0.004346 -0.011881
# 2 0.009083 0.028757 -0.013380 0.005656 0.005442 -0.003229
# 3 -0.013176 -0.013380 0.031762 0.016401 0.003483 0.002741
# 4 -0.005239 0.005656 0.016401 0.041222 0.011015 0.003462
# 5 -0.004346 0.005442 0.003483 0.011015 0.037022 -0.002655
# 6 -0.011881 -0.003229 0.002741 0.003462 -0.002655 0.041778
#
#
# Mechanical properties :
#
#
# Convention : Reuss Voigt Hill
#
# Bulk Modulus (GPa) = 19.84690 30.87493 25.36091
# Shear Modulus (GPa) = 19.44805 29.95205 24.70005
#
# Velocity S-wave (km/s) = 3.03592 3.76760 3.42138
# Velocity P-wave (km/s) = 4.65778 5.79298 5.25612
#
# Compressibility (1/GPa) = 0.05038571
#
# Stress axis : x y z
#
# Youngs Moduli (GPa) = 40.30102 34.77431 31.48417
#
# Poissons Ratio (x) = -0.31585 0.41484
# Poissons Ratio (y) = -0.36605 0.42126
# Poissons Ratio (z) = 0.53101 0.46528
#
# Static dielectric constant tensor:
#      x y z
#    x 1.805610 0.029340 0.004270 
#    y 0.029340 1.733590 0.020040 
#    z 0.004270 0.020040 1.802900 
# 
# From -- ./inp_files/560159.got.cif
#   From: 2010.05.17/outbox.cif.g08.bks.cpg/sg2_281_cif.got.tgz:560159.got - 2010.06.03 11:33:40.
