data_PCOD9099315
_publ_section_title
;
Structure prediction by ZEFSAII (Michael W. Deem and Ramdas Pophale) SiO2 
 PCOD9099315
Probable space group: P -1
;
_chemical_formula_sum "Si O2"
_cell_formula_units_Z 16
_cell_length_a 8.483291
_cell_length_b 20.848245
_cell_length_c 12.598598
_cell_angle_alpha 26.452872
_cell_angle_beta 58.970223
_cell_angle_gamma 55.560812
_cell_volume 818.354253
_symmetry_space_group_name_H-M "P -1"
_symmetry_group_IT_number 2
_symmetry_cell_setting 'triclinic'
loop_
_space_group_symop_operation_xyz
x,y,z
-x,-y,-z
loop_
_atom_site_type_symbol
_atom_site_label
_atom_site_fract_x
_atom_site_fract_y
_atom_site_fract_z
Si Si1 0.450833 0.247425 0.411485
Si Si2 0.515674 0.732314 0.140395
Si Si3 0.777162 0.438189 0.573556
Si Si4 0.020682 0.992812 0.676635
Si Si5 0.621888 0.951509 0.925839
Si Si6 0.385808 0.014297 0.626987
Si Si7 0.176126 0.471708 0.337222
Si Si8 0.157785 0.755085 0.797486
O O1 0.321739 0.356965 0.379436
O O2 0.619169 0.308581 0.214287
O O3 0.554793 0.094525 0.661576
O O4 0.358909 0.174975 0.454847
O O5 0.678063 0.576749 0.324526
O O6 0.323472 0.687051 0.243787
O O7 0.552415 0.810406 0.120569
O O8 0.512696 0.868737 0.860883
O O9 0.744185 0.481104 0.647633
O O10 0.003316 0.402718 0.531094
O O11 0.849696 0.930363 0.875469
O O12 0.175308 0.998446 0.702219
O O13 0.126442 0.880907 0.713118
O O14 0.945334 0.154434 0.404070
O O15 0.500000 0.000000 0.000000
O O16 0.500000 0.000000 0.500000
O O17 0.094642 0.620471 0.073354
#
# Coordination Sequence:
#
# PCOD9099315 Si02
#       8
#     2   2   2   2   2   2   2   2
#     4  10  22  37  56  91 120 155 199 249 300 357
#     4  10  22  40  59  89 120 154 201 250 296 353
#     4  10  23  39  61  89 118 163 199 245 300 364
#     4  10  21  37  62  91 113 159 207 241 302 353
#     4  10  21  38  62  87 121 155 197 253 299 353
#     4  11  22  38  63  89 121 154 202 251 301 352
#     4  11  22  39  61  86 121 161 204 239 306 359
#     4  10  20  37  60  84 120 155 202 251 287 359
#
# _framework density 19.551435999999999
#
# number of rings (size 3 to 8) (size 9 to 14) (size 15 to 20)
#    0.000    1.750    1.250    2.625    3.500    4.000 
#    0.000    4.375    0.000    0.000    0.000    0.000 
#    0.000    0.000    0.000    0.000    0.000    0.000 
#
# Total GULP energy -89068.383180 kJ/mol
# GULP energy per Si atom -5566.773949 kJ/mol
# Density = 1.950694 g / cm^3
# Si number density = 19.551436 Si / 1000 Ang^3
#
#
#
# Elastic Constant Matrix: (Units=GPa)
#
#
# Indices 1 2 3 4 5 6 
#
# 1 76.9526 43.0672 11.5210 5.4780 -18.1537 1.8614
# 2 43.0672 105.5917 23.4418 11.6194 -24.7424 -11.3811
# 3 11.5210 23.4418 81.9048 -0.2020 0.1119 0.2738
# 4 5.4780 11.6194 -0.2020 25.1971 -2.2758 1.5344
# 5 -18.1537 -24.7424 0.1119 -2.2758 32.6175 -2.5742
# 6 1.8614 -11.3811 0.2738 1.5344 -2.5742 16.9043
#
#
#
# Elastic Compliance Matrix: (Units=1/GPa)
#
#
# Indices 1 2 3 4 5 6 
#
# 1 0.018105 -0.006865 -0.000568 -0.000016 0.004402 -0.005934
# 2 -0.006865 0.018130 -0.004306 -0.006869 0.010674 0.015281
# 3 -0.000568 -0.004306 0.013545 0.002109 -0.003784 -0.003824
# 4 -0.000016 -0.006869 0.002109 0.043160 -0.002928 -0.009021
# 5 0.004402 0.010674 -0.003784 -0.002928 0.042074 0.013436
# 6 -0.005934 0.015281 -0.003824 -0.009021 0.013436 0.073025
#
#
# Mechanical properties :
#
#
# Convention : Reuss Voigt Hill
#
# Bulk Modulus (GPa) = 38.01945 46.72322 42.37134
# Shear Modulus (GPa) = 20.80864 27.37173 24.09018
#
# Velocity S-wave (km/s) = 3.26590 3.74570 3.51400
# Velocity P-wave (km/s) = 5.80600 6.53119 6.17924
#
# Compressibility (1/GPa) = 0.02630233
#
# Stress axis : x y z
#
# Youngs Moduli (GPa) = 55.23305 55.15607 73.82905
#
# Poissons Ratio (x) = 0.37863 0.04195
# Poissons Ratio (y) = 0.37916 0.31791
# Poissons Ratio (z) = 0.03138 0.23751
#
# Static dielectric constant tensor:
#      x y z
#    x 1.734690 -0.006130 -0.006400 
#    y -0.006130 1.626180 -0.016870 
#    z -0.006400 -0.016870 1.740450 
# 
# From -- ./inp_files/189471.got.cif
#   From: 2010.05.17/outbox.cif.g08.bks.cpg/sg2_95_cif.got.tgz:189471.got - 2010.06.03 11:33:40.
