data_PCOD9099972
_publ_section_title
;
Structure prediction by ZEFSAII (Michael W. Deem and Ramdas Pophale) SiO2 
 PCOD9099972
Probable space group: P -1
;
_chemical_formula_sum "Si O2"
_cell_formula_units_Z 16
_cell_length_a 12.523383
_cell_length_b 12.135186
_cell_length_c 8.895886
_cell_angle_alpha 98.846988
_cell_angle_beta 121.654556
_cell_angle_gamma 48.158380
_cell_volume 815.242140
_symmetry_space_group_name_H-M "P -1"
_symmetry_group_IT_number 2
_symmetry_cell_setting 'triclinic'
loop_
_space_group_symop_operation_xyz
x,y,z
-x,-y,-z
loop_
_atom_site_type_symbol
_atom_site_label
_atom_site_fract_x
_atom_site_fract_y
_atom_site_fract_z
Si Si1 0.924758 0.374635 0.601406
Si Si2 0.263656 0.953745 0.019419
Si Si3 0.689634 0.719650 0.567410
Si Si4 0.193418 0.257538 0.042837
Si Si5 0.076794 0.879386 0.393672
Si Si6 0.702229 0.101771 0.634367
Si Si7 0.477463 0.887511 0.903463
Si Si8 0.790785 0.853491 0.473278
O O1 0.768794 0.559179 0.520503
O O2 0.873813 0.276447 0.554361
O O3 0.051595 0.298969 0.534217
O O4 0.036487 0.337808 0.825911
O O5 0.282001 0.880322 0.174572
O O6 0.261412 0.088366 0.079520
O O7 0.416777 0.847023 0.985932
O O8 0.083082 0.033755 0.823309
O O9 0.818567 0.683914 0.787445
O O10 0.497882 0.815075 0.511884
O O11 0.679237 0.823593 0.457802
O O12 0.337706 0.246909 0.066035
O O13 0.237062 0.838682 0.418568
O O14 0.000000 0.000000 0.500000
O O15 0.828363 0.919187 0.645761
O O16 0.317058 0.003570 0.694427
O O17 0.500000 0.000000 0.000000
#
# Coordination Sequence:
#
# PCOD9099972 Si02
#       8
#     2   2   2   2   2   2   2   2
#     4  11  24  40  59  86 125 163 192 238 301 357
#     4  10  20  36  60  92 115 146 204 250 288 337
#     4  12  24  36  59  95 126 151 190 249 303 353
#     4  10  19  35  59  87 122 155 190 238 303 355
#     4  11  22  42  65  84 114 159 210 241 284 351
#     4  12  23  36  64  90 118 157 200 249 285 344
#     4  10  16  31  58  85 115 148 193 244 285 346
#     4  12  20  37  59  88 118 155 194 241 298 349
#
# _framework density 19.626071
#
# number of rings (size 3 to 8) (size 9 to 14) (size 15 to 20)
#    0.000    1.000    7.500    3.000    0.000    0.500 
#    0.000    0.000    0.000    0.750    0.000    0.000 
#    0.000    0.000    0.000    0.000    0.000    0.000 
#
# Total GULP energy -89219.834129 kJ/mol
# GULP energy per Si atom -5576.239633 kJ/mol
# Density = 1.958140 g / cm^3
# Si number density = 19.626071 Si / 1000 Ang^3
#
#
#
# Elastic Constant Matrix: (Units=GPa)
#
#
# Indices 1 2 3 4 5 6 
#
# 1 138.5660 25.6515 22.3047 11.2325 -9.2915 -3.0023
# 2 25.6515 76.8826 15.7765 15.5191 0.2202 -0.5634
# 3 22.3047 15.7765 56.8009 18.2839 -12.3215 -1.2440
# 4 11.2325 15.5191 18.2839 16.7666 -1.3954 0.2979
# 5 -9.2915 0.2202 -12.3215 -1.3954 23.0374 6.2620
# 6 -3.0023 -0.5634 -1.2440 0.2979 6.2620 16.2963
#
#
#
# Elastic Compliance Matrix: (Units=1/GPa)
#
#
# Indices 1 2 3 4 5 6 
#
# 1 0.008149 -0.002065 -0.001619 -0.001607 0.002211 0.000486
# 2 -0.002065 0.016573 0.000570 -0.014759 -0.001918 0.001243
# 3 -0.001619 0.000570 0.031928 -0.032935 0.015268 -0.003106
# 4 -0.001607 -0.014759 -0.032935 0.109380 -0.011223 -0.001007
# 5 0.002211 -0.001918 0.015268 -0.011223 0.057326 -0.020316
# 6 0.000486 0.001243 -0.003106 -0.001007 -0.020316 0.069084
#
#
# Mechanical properties :
#
#
# Convention : Reuss Voigt Hill
#
# Bulk Modulus (GPa) = 19.83256 44.41275 32.12266
# Shear Modulus (GPa) = 15.84912 25.12116 20.48514
#
# Velocity S-wave (km/s) = 2.84483 3.58157 3.23425
# Velocity P-wave (km/s) = 4.57361 6.30731 5.50909
#
# Compressibility (1/GPa) = 0.05042212
#
# Stress axis : x y z
#
# Youngs Moduli (GPa) = 122.71927 60.34001 31.32031
#
# Poissons Ratio (x) = 0.12460 0.05070
# Poissons Ratio (y) = 0.25341 -0.01785
# Poissons Ratio (z) = 0.19864 -0.03439
#
# Static dielectric constant tensor:
#      x y z
#    x 1.739020 -0.020150 0.009320 
#    y -0.020150 1.676850 0.021660 
#    z 0.009320 0.021660 1.787160 
# 
# From -- ./inp_files/258228.got.cif
#   From: 2010.05.17/outbox.cif.g08.bks.cpg/sg2_130_cif.got.tgz:258228.got - 2010.06.03 11:33:40.
