data_PCOD9099292
_publ_section_title
;
Structure prediction by ZEFSAII (Michael W. Deem and Ramdas Pophale) SiO2 
 PCOD9099292
Probable space group: P -1
;
_chemical_formula_sum "Si O2"
_cell_formula_units_Z 14
_cell_length_a 6.779454
_cell_length_b 16.556742
_cell_length_c 17.766100
_cell_angle_alpha 21.764345
_cell_angle_beta 110.500123
_cell_angle_gamma 113.900673
_cell_volume 674.010956
_symmetry_space_group_name_H-M "P -1"
_symmetry_group_IT_number 2
_symmetry_cell_setting 'triclinic'
loop_
_space_group_symop_operation_xyz
x,y,z
-x,-y,-z
loop_
_atom_site_type_symbol
_atom_site_label
_atom_site_fract_x
_atom_site_fract_y
_atom_site_fract_z
Si Si1 0.956690 0.746265 0.684285
Si Si2 0.156904 0.182905 0.758114
Si Si3 0.238672 0.237302 0.896462
Si Si4 0.011841 0.972656 0.343755
Si Si5 0.812126 0.303945 0.513391
Si Si6 0.425777 0.042581 0.787719
Si Si7 0.259156 0.438536 0.047645
O O1 0.757188 0.600201 0.830960
O O2 0.946254 0.778296 0.566280
O O3 0.000000 0.000000 0.500000
O O4 0.145862 0.631917 0.836811
O O5 0.222804 0.258141 0.785901
O O6 0.035117 0.345700 0.555386
O O7 0.354439 0.135910 0.776170
O O8 0.965919 0.956391 0.936943
O O9 0.217223 0.471732 0.724177
O O10 0.458884 0.161867 0.008511
O O11 0.160642 0.885133 0.378601
O O12 0.135574 0.204469 0.196539
O O13 0.794910 0.009604 0.243834
O O14 0.608373 0.219181 0.614052
O O15 0.500000 0.500000 0.000000
#
# Coordination Sequence:
#
# PCOD9099292 Si02
#       7
#     2   2   2   2   2   2   2
#     4   9  21  40  61  86 113 145 185 231 284 345
#     4   9  20  38  57  83 118 152 198 248 283 332
#     4  10  20  37  60  83 114 157 199 240 285 336
#     4  10  23  40  56  84 124 151 184 239 290 345
#     4  10  22  36  56  86 117 155 196 236 289 341
#     4  10  22  37  54  84 118 153 194 237 289 341
#     4  10  22  41  65  88 111 148 193 235 285 345
#
# _framework density 20.771176000000001
#
# number of rings (size 3 to 8) (size 9 to 14) (size 15 to 20)
#    0.000    2.286    0.000    0.857    0.000   14.286 
#    0.000    0.000    0.000    0.000    0.000    0.000 
#    0.000    0.000    0.000    0.000    0.000    0.000 
#
# Total GULP energy -78156.379222 kJ/mol
# GULP energy per Si atom -5582.598516 kJ/mol
# Density = 2.072390 g / cm^3
# Si number density = 20.771176 Si / 1000 Ang^3
#
#
#
# Elastic Constant Matrix: (Units=GPa)
#
#
# Indices 1 2 3 4 5 6 
#
# 1 142.8232 20.2658 47.5072 -3.9094 5.8769 -14.2997
# 2 20.2658 45.5309 23.9106 3.4011 -1.3625 -11.2684
# 3 47.5072 23.9106 107.6121 -4.0401 23.1160 -4.1029
# 4 -3.9094 3.4011 -4.0401 20.7408 -12.7089 -5.3312
# 5 5.8769 -1.3625 23.1160 -12.7089 23.9652 2.3085
# 6 -14.2997 -11.2684 -4.1029 -5.3312 2.3085 23.4764
#
#
#
# Elastic Compliance Matrix: (Units=1/GPa)
#
#
# Indices 1 2 3 4 5 6 
#
# 1 0.009002 -0.000747 -0.004265 0.004639 0.003837 0.005055
# 2 -0.000747 0.029372 -0.007658 0.002329 0.009327 0.011916
# 3 -0.004265 -0.007658 0.016743 -0.009643 -0.020312 -0.003540
# 4 0.004639 0.002329 -0.009643 0.081552 0.050016 0.015860
# 5 0.003837 0.009327 -0.020312 0.050016 0.086846 0.006083
# 6 0.005055 0.011916 -0.003540 0.015860 0.006083 0.053779
#
#
# Mechanical properties :
#
#
# Convention : Reuss Voigt Hill
#
# Bulk Modulus (GPa) = 33.58473 53.25925 43.42199
# Shear Modulus (GPa) = 15.99691 27.25532 21.62611
#
# Velocity S-wave (km/s) = 2.77817 3.62632 3.23020
# Velocity P-wave (km/s) = 5.14733 6.57497 5.90445
#
# Compressibility (1/GPa) = 0.02977544
#
# Stress axis : x y z
#
# Youngs Moduli (GPa) = 111.09044 34.04652 59.72518
#
# Poissons Ratio (x) = 0.02545 0.25475
# Poissons Ratio (y) = 0.08303 0.45737
# Poissons Ratio (z) = 0.47383 0.26073
#
# Static dielectric constant tensor:
#      x y z
#    x 1.717850 -0.045880 -0.002720 
#    y -0.045880 1.812360 -0.014320 
#    z -0.002720 -0.014320 1.773270 
# 
# From -- ./inp_files/7400.got.cif
#   From: 2010.05.17/outbox.cif.g08.bks.cpg/sg2_4_cif.got.tgz:7400.got - 2010.06.03 11:33:40.
