data_PCOD9099710
_publ_section_title
;
Structure prediction by ZEFSAII (Michael W. Deem and Ramdas Pophale) SiO2 
 PCOD9099710
Probable space group: P -1
;
_chemical_formula_sum "Si O2"
_cell_formula_units_Z 15
_cell_length_a 10.023986
_cell_length_b 20.941493
_cell_length_c 5.867697
_cell_angle_alpha 91.300221
_cell_angle_beta 105.666379
_cell_angle_gamma 35.841827
_cell_volume 651.035253
_symmetry_space_group_name_H-M "P -1"
_symmetry_group_IT_number 2
_symmetry_cell_setting 'triclinic'
loop_
_space_group_symop_operation_xyz
x,y,z
-x,-y,-z
loop_
_atom_site_type_symbol
_atom_site_label
_atom_site_fract_x
_atom_site_fract_y
_atom_site_fract_z
Si Si1 0.347202 0.888324 0.279744
Si Si2 0.433761 0.951459 0.957039
Si Si3 0.223504 0.276649 0.154705
Si Si4 0.213009 0.625128 0.802216
Si Si5 0.913289 0.117495 0.602629
Si Si6 0.486192 0.277872 0.035322
Si Si7 0.341491 0.683072 0.166361
Si Si8 0.500000 0.500000 0.500000
O O1 0.576365 0.800893 0.554404
O O2 0.116014 0.942380 0.306399
O O3 0.422957 0.809646 0.110530
O O4 0.333103 0.961268 0.151452
O O5 0.202428 0.024280 0.684631
O O6 0.674525 0.817234 0.977820
O O7 0.500000 0.000000 0.000000
O O8 0.250305 0.335419 0.055035
O O9 0.960139 0.358275 0.146746
O O10 0.236108 0.614099 0.541987
O O11 0.500000 0.500000 0.000000
O O12 0.168847 0.710403 0.908620
O O13 0.713312 0.199010 0.313489
O O14 0.816020 0.206077 0.750988
O O15 0.457139 0.354751 0.893168
O O16 0.472871 0.582127 0.386300
#
# Coordination Sequence:
#
# PCOD9099710 Si02
#       8
#     2   2   2   2   2   2   2   1
#     4   9  21  37  57  85 125 168 204 247 296 354
#     4  11  23  36  57  92 128 163 204 248 298 358
#     4  10  22  40  61  89 125 161 204 255 305 359
#     4  10  22  40  63  88 118 157 200 253 313 370
#     4  10  20  37  61  89 124 166 205 244 298 362
#     4   9  20  38  63  90 120 162 208 253 299 356
#     4  10  20  38  64  91 120 156 201 249 304 367
#     4  10  22  38  60  88 116 154 198 248 312 368
#
# _framework density 23.040227999999999
#
# number of rings (size 3 to 8) (size 9 to 14) (size 15 to 20)
#    0.000    2.133    0.000    2.000    0.000   13.867 
#    0.000    2.667    0.000   32.800    0.000    0.000 
#    0.000    0.000    0.000    0.000    0.000    0.000 
#
# Total GULP energy -83507.302924 kJ/mol
# GULP energy per Si atom -5567.153528 kJ/mol
# Density = 2.298779 g / cm^3
# Si number density = 23.040228 Si / 1000 Ang^3
#
#
#
# Elastic Constant Matrix: (Units=GPa)
#
#
# Indices 1 2 3 4 5 6 
#
# 1 247.2672 58.1468 47.7722 -15.8787 -41.7724 -10.5702
# 2 58.1468 70.7178 25.7691 6.0934 -5.9324 -9.3094
# 3 47.7722 25.7691 40.5489 6.2069 -18.2374 -3.4010
# 4 -15.8787 6.0934 6.2069 20.7713 -1.6460 -10.3172
# 5 -41.7724 -5.9324 -18.2374 -1.6460 38.1343 -12.2607
# 6 -10.5702 -9.3094 -3.4010 -10.3172 -12.2607 39.5785
#
#
#
# Elastic Compliance Matrix: (Units=1/GPa)
#
#
# Indices 1 2 3 4 5 6 
#
# 1 0.009107 -0.005270 -0.004365 0.014465 0.010182 0.007742
# 2 -0.005270 0.022054 -0.010340 -0.009096 -0.008343 -0.002064
# 3 -0.004365 -0.010340 0.045250 -0.011590 0.015406 0.002042
# 4 0.014465 -0.009096 -0.011590 0.081246 0.021587 0.028594
# 5 0.010182 -0.008343 0.015406 0.021587 0.052039 0.023828
# 6 0.007742 -0.002064 0.002042 0.028594 0.023828 0.041859
#
#
# Mechanical properties :
#
#
# Convention : Reuss Voigt Hill
#
# Bulk Modulus (GPa) = 27.42711 69.10111 48.26411
# Shear Modulus (GPa) = 16.46587 34.81989 25.64288
#
# Velocity S-wave (km/s) = 2.67621 3.89172 3.33973
# Velocity P-wave (km/s) = 4.63458 7.08876 5.98873
#
# Compressibility (1/GPa) = 0.03646028
#
# Stress axis : x y z
#
# Youngs Moduli (GPa) = 109.80803 45.34329 22.09952
#
# Poissons Ratio (x) = 0.23898 0.09647
# Poissons Ratio (y) = 0.57873 0.22850
# Poissons Ratio (z) = 0.47933 0.46883
#
# Static dielectric constant tensor:
#      x y z
#    x 1.881180 -0.003820 -0.008540 
#    y -0.003820 1.891950 0.056320 
#    z -0.008540 0.056320 1.979980 
# 
# From -- ./inp_files/51551.got.cif
#   From: 2010.05.17/outbox.cif.g08.bks.cpg/sg2_26_cif.got.tgz:51551.got - 2010.06.03 11:33:40.
