data_PCOD9099059
_publ_section_title
;
Structure prediction by ZEFSAII (Michael W. Deem and Ramdas Pophale) SiO2 
 PCOD9099059
Probable space group: P -1
;
_chemical_formula_sum "Si O2"
_cell_formula_units_Z 14
_cell_length_a 21.732500
_cell_length_b 8.802799
_cell_length_c 18.707703
_cell_angle_alpha 149.228748
_cell_angle_beta 163.468803
_cell_angle_gamma 31.010894
_cell_volume 507.119921
_symmetry_space_group_name_H-M "P -1"
_symmetry_group_IT_number 2
_symmetry_cell_setting 'triclinic'
loop_
_space_group_symop_operation_xyz
x,y,z
-x,-y,-z
loop_
_atom_site_type_symbol
_atom_site_label
_atom_site_fract_x
_atom_site_fract_y
_atom_site_fract_z
Si Si1 0.162855 0.091859 0.620879
Si Si2 0.380404 0.196937 0.050388
Si Si3 0.243726 0.789952 0.854239
Si Si4 0.611165 0.930482 0.412386
Si Si5 0.315185 0.142011 0.294792
Si Si6 0.969599 0.152241 0.820261
Si Si7 0.950808 0.530440 0.739699
O O1 0.073070 0.811880 0.440051
O O2 0.953673 0.345273 0.457996
O O3 0.287952 0.216214 0.874344
O O4 0.356235 0.912216 0.710821
O O5 0.338747 0.941492 0.954988
O O6 0.217222 0.504001 0.025278
O O7 0.072213 0.023256 0.807674
O O8 0.461442 0.721057 0.120958
O O9 0.452798 0.170030 0.386528
O O10 0.732082 0.100071 0.557533
O O11 0.794781 0.734021 0.590044
O O12 0.152501 0.377335 0.260516
O O13 0.500000 0.000000 0.500000
O O14 0.141697 0.967925 0.996549
O O15 0.000000 0.500000 0.000000
#
# Coordination Sequence:
#
# PCOD9099059 Si02
#       7
#     2   2   2   2   2   2   2
#     4  10  21  39  62  88 110 146 195 241 289 336
#     4  10  21  38  63  87 113 145 192 244 286 338
#     4  10  20  37  59  83 116 150 190 235 282 341
#     4  10  23  38  56  86 121 154 188 232 283 339
#     4   9  21  37  56  85 117 151 189 231 278 341
#     4  11  22  36  55  83 116 153 193 231 279 335
#     4  10  20  37  60  85 115 153 191 234 285 338
#
# _framework density 27.606884999999998
#
# number of rings (size 3 to 8) (size 9 to 14) (size 15 to 20)
#    0.000    2.000    0.000    4.286    0.000   10.286 
#    0.000    4.286    0.000    9.429    0.000    0.000 
#    0.000    0.000    0.000    0.000    0.000    0.000 
#
# Total GULP energy -77974.198075 kJ/mol
# GULP energy per Si atom -5569.585577 kJ/mol
# Density = 2.754405 g / cm^3
# Si number density = 27.606885 Si / 1000 Ang^3
#
#
#
# Elastic Constant Matrix: (Units=GPa)
#
#
# Indices 1 2 3 4 5 6 
#
# 1 156.8526 48.3585 60.5378 -9.4699 22.0017 -12.2597
# 2 48.3585 80.7317 34.1235 -20.6025 13.3634 -3.3548
# 3 60.5378 34.1235 152.7314 -37.3816 6.0414 -8.7020
# 4 -9.4699 -20.6025 -37.3816 41.5368 -6.3875 2.3882
# 5 22.0017 13.3634 6.0414 -6.3875 54.8450 -16.9091
# 6 -12.2597 -3.3548 -8.7020 2.3882 -16.9091 30.4027
#
#
#
# Elastic Compliance Matrix: (Units=1/GPa)
#
#
# Indices 1 2 3 4 5 6 
#
# 1 0.009313 -0.004654 -0.003381 -0.003649 -0.002251 0.001309
# 2 -0.004654 0.017379 -0.000333 0.007045 -0.002049 -0.001747
# 3 -0.003381 -0.000333 0.010015 0.008258 0.001868 0.001857
# 4 -0.003649 0.007045 0.008258 0.034604 0.003071 0.000659
# 5 -0.002251 -0.002049 0.001868 0.003071 0.023570 0.012269
# 6 0.001309 -0.001747 0.001857 0.000659 0.012269 0.040530
#
#
# Mechanical properties :
#
#
# Convention : Reuss Voigt Hill
#
# Bulk Modulus (GPa) = 50.06857 75.15059 62.60958
# Shear Modulus (GPa) = 31.48562 41.84329 36.66446
#
# Velocity S-wave (km/s) = 3.38079 3.89740 3.64825
# Velocity P-wave (km/s) = 5.78060 6.89447 6.36196
#
# Compressibility (1/GPa) = 0.01997261
#
# Stress axis : x y z
#
# Youngs Moduli (GPa) = 107.37867 57.53979 99.85065
#
# Poissons Ratio (x) = 0.26776 0.33761
# Poissons Ratio (y) = 0.49969 0.03320
# Poissons Ratio (z) = 0.36307 0.01913
#
# Static dielectric constant tensor:
#      x y z
#    x 2.117530 0.003130 -0.025850 
#    y 0.003130 2.295020 -0.062070 
#    z -0.025850 -0.062070 2.315090 
# 
# From -- ./inp_files/577492.got.cif
#   From: 2010.05.17/outbox.cif.g08.bks.cpg/sg2_289_cif.got.tgz:577492.got - 2010.06.03 11:33:40.
