data_PCOD9099963
_publ_section_title
;
Structure prediction by ZEFSAII (Michael W. Deem and Ramdas Pophale) SiO2 
 PCOD9099963
Probable space group: P -1
;
_chemical_formula_sum "Si O2"
_cell_formula_units_Z 16
_cell_length_a 22.190986
_cell_length_b 12.851945
_cell_length_c 15.341675
_cell_angle_alpha 152.364083
_cell_angle_beta 157.062920
_cell_angle_gamma 27.084402
_cell_volume 720.718545
_symmetry_space_group_name_H-M "P -1"
_symmetry_group_IT_number 2
_symmetry_cell_setting 'triclinic'
loop_
_space_group_symop_operation_xyz
x,y,z
-x,-y,-z
loop_
_atom_site_type_symbol
_atom_site_label
_atom_site_fract_x
_atom_site_fract_y
_atom_site_fract_z
Si Si1 0.960720 0.022741 0.725304
Si Si2 0.285913 0.256284 0.483076
Si Si3 0.222968 0.317518 0.738228
Si Si4 0.537552 0.701172 0.419114
Si Si5 0.931183 0.242315 0.028591
Si Si6 0.284441 0.590844 0.878015
Si Si7 0.696415 0.466862 0.640929
Si Si8 0.509239 0.851988 0.812085
O O1 0.886945 0.248631 0.727838
O O2 0.888448 0.814545 0.465561
O O3 0.160683 0.870213 0.894393
O O4 0.881743 0.157896 0.810713
O O5 0.326354 0.286819 0.459731
O O6 0.090842 0.308344 0.274426
O O7 0.335391 0.434527 0.742466
O O8 0.400417 0.978393 0.458353
O O9 0.175457 0.474541 0.702824
O O10 0.217637 0.523386 0.953397
O O11 0.396642 0.085782 0.776446
O O12 0.623074 0.578623 0.532193
O O13 0.431652 0.581459 0.132526
O O14 0.000000 0.000000 0.000000
O O15 0.666139 0.677455 0.830891
O O16 0.587558 0.317147 0.416363
O O17 0.500000 0.000000 0.000000
#
# Coordination Sequence:
#
# PCOD9099963 Si02
#       8
#     2   2   2   2   2   2   2   2
#     4  11  22  37  60  93 128 160 200 262 311 378
#     4  11  24  40  66  89 121 163 221 261 304 370
#     4  11  21  34  61  95 125 153 206 258 318 365
#     4  11  24  44  62  88 125 169 210 261 309 374
#     4  12  21  37  63  97 126 159 200 265 322 360
#     4  12  21  39  65  92 121 163 211 261 314 367
#     4  10  23  40  59  91 130 164 206 251 321 372
#     4  10  20  37  62  88 128 167 203 253 309 381
#
# _framework density 22.200066
#
# number of rings (size 3 to 8) (size 9 to 14) (size 15 to 20)
#    0.000    1.000    3.750    3.750    0.000    4.000 
#    0.000    1.250    0.000    0.000    0.000    0.000 
#    0.000    0.000    0.000    0.000    0.000    0.000 
#
# Total GULP energy -89291.907749 kJ/mol
# GULP energy per Si atom -5580.744234 kJ/mol
# Density = 2.214954 g / cm^3
# Si number density = 22.200066 Si / 1000 Ang^3
#
#
#
# Elastic Constant Matrix: (Units=GPa)
#
#
# Indices 1 2 3 4 5 6 
#
# 1 55.3080 46.2295 22.5398 2.5218 -16.1985 14.0519
# 2 46.2295 140.1983 26.5420 16.1182 -13.8374 24.6808
# 3 22.5398 26.5420 73.8216 13.3015 -18.0886 0.3798
# 4 2.5218 16.1182 13.3015 33.0990 -8.7960 -13.3037
# 5 -16.1985 -13.8374 -18.0886 -8.7960 40.8021 -0.5042
# 6 14.0519 24.6808 0.3798 -13.3037 -0.5042 31.9156
#
#
#
# Elastic Compliance Matrix: (Units=1/GPa)
#
#
# Indices 1 2 3 4 5 6 
#
# 1 0.030059 -0.007475 -0.005118 0.003043 0.007711 -0.006003
# 2 -0.007475 0.012608 -0.000730 -0.009870 -0.001274 -0.010584
# 3 -0.005118 -0.000730 0.017297 -0.004765 0.004370 0.000695
# 4 0.003043 -0.009870 -0.004765 0.049351 0.006721 0.027027
# 5 0.007711 -0.001274 0.004370 0.006721 0.030534 0.000822
# 6 -0.006003 -0.010584 0.000695 0.027027 0.000822 0.053431
#
#
# Mechanical properties :
#
#
# Convention : Reuss Voigt Hill
#
# Bulk Modulus (GPa) = 30.01404 51.10561 40.55983
# Shear Modulus (GPa) = 21.64190 32.76445 27.20317
#
# Velocity S-wave (km/s) = 3.12566 3.84588 3.50432
# Velocity P-wave (km/s) = 5.15514 6.54152 5.88927
#
# Compressibility (1/GPa) = 0.03331774
#
# Stress axis : x y z
#
# Youngs Moduli (GPa) = 33.26767 79.31467 57.81257
#
# Poissons Ratio (x) = 0.59287 0.29590
# Poissons Ratio (y) = 0.24867 0.04221
# Poissons Ratio (z) = 0.17028 0.05791
#
# Static dielectric constant tensor:
#      x y z
#    x 1.812260 0.000670 -0.008420 
#    y 0.000670 1.904770 -0.060140 
#    z -0.008420 -0.060140 1.899670 
# 
# From -- ./inp_files/455411.got.cif
#   From: 2010.05.17/outbox.cif.g08.bks.cpg/sg2_228_cif.got.tgz:455411.got - 2010.06.03 11:33:40.
