data_PCOD9099404
_publ_section_title
;
Structure prediction by ZEFSAII (Michael W. Deem and Ramdas Pophale) SiO2 
 PCOD9099404
Probable space group: P -1
;
_chemical_formula_sum "Si O2"
_cell_formula_units_Z 16
_cell_length_a 7.109610
_cell_length_b 11.730007
_cell_length_c 12.512477
_cell_angle_alpha 105.013668
_cell_angle_beta 138.812923
_cell_angle_gamma 71.971986
_cell_volume 652.851708
_symmetry_space_group_name_H-M "P -1"
_symmetry_group_IT_number 2
_symmetry_cell_setting 'triclinic'
loop_
_space_group_symop_operation_xyz
x,y,z
-x,-y,-z
loop_
_atom_site_type_symbol
_atom_site_label
_atom_site_fract_x
_atom_site_fract_y
_atom_site_fract_z
Si Si1 0.000126 0.305735 0.699612
Si Si2 0.974599 0.564907 0.844173
Si Si3 0.183389 0.744478 0.718294
Si Si4 0.304140 0.968197 0.185710
Si Si5 0.521990 0.784420 0.652510
Si Si6 0.543543 0.875003 0.049913
Si Si7 0.614481 0.744938 0.364364
Si Si8 0.459097 0.507060 0.191825
O O1 0.171269 0.228525 0.850871
O O2 0.194506 0.287347 0.670513
O O3 0.960118 0.446151 0.742053
O O4 0.707046 0.257656 0.535692
O O5 0.818477 0.687476 0.754973
O O6 0.768341 0.555469 0.855790
O O7 0.297189 0.559257 0.026950
O O8 0.365967 0.782059 0.702728
O O9 0.271153 0.600254 0.734519
O O10 0.846338 0.778676 0.554482
O O11 0.292345 0.809455 0.881915
O O12 0.522168 0.919542 0.172277
O O13 0.351454 0.855286 0.258241
O O14 0.403488 0.085217 0.302895
O O15 0.000000 0.000000 0.000000
O O16 0.500000 0.000000 0.000000
O O17 0.517932 0.618630 0.313482
#
# Coordination Sequence:
#
# PCOD9099404 Si02
#       8
#     2   2   2   2   2   2   2   2
#     4  10  22  38  59  93 112 150 200 237 286 339
#     4  10  20  37  62  87 117 154 196 232 286 343
#     4  10  20  39  61  89 112 154 200 234 285 339
#     4  11  24  42  57  86 121 153 191 233 301 344
#     4  10  21  38  62  83 121 157 188 239 284 344
#     4  11  22  38  65  84 114 153 198 241 277 350
#     4  10  23  38  62  85 121 151 187 246 288 339
#     4  10  20  37  60  88 120 153 188 240 289 339
#
# _framework density 24.507860999999998
#
# number of rings (size 3 to 8) (size 9 to 14) (size 15 to 20)
#    0.000    1.750    2.500    1.500    1.750    3.000 
#    4.500    0.625    0.000    0.000    0.000    0.000 
#    0.000    0.000    0.000    0.000    0.000    0.000 
#
# Total GULP energy -89515.071304 kJ/mol
# GULP energy per Si atom -5594.691956 kJ/mol
# Density = 2.445208 g / cm^3
# Si number density = 24.507861 Si / 1000 Ang^3
#
#
#
# Elastic Constant Matrix: (Units=GPa)
#
#
# Indices 1 2 3 4 5 6 
#
# 1 43.4582 4.6938 3.2350 0.4082 0.1872 -0.7099
# 2 4.6938 148.9449 41.3046 10.9637 1.7863 -6.7274
# 3 3.2350 41.3046 119.4638 12.4543 2.4252 -4.8967
# 4 0.4082 10.9637 12.4543 45.4453 -4.3546 -5.1304
# 5 0.1872 1.7863 2.4252 -4.3546 27.3554 5.4685
# 6 -0.7099 -6.7274 -4.8967 -5.1304 5.4685 27.7282
#
#
#
# Elastic Compliance Matrix: (Units=1/GPa)
#
#
# Indices 1 2 3 4 5 6 
#
# 1 0.023113 -0.000601 -0.000406 0.000081 -0.000154 0.000420
# 2 -0.000601 0.007550 -0.002413 -0.001072 -0.000712 0.001332
# 3 -0.000406 -0.002413 0.009490 -0.002023 -0.001191 0.000941
# 4 0.000081 -0.001072 -0.002023 0.023486 0.003375 0.003065
# 5 -0.000154 -0.000712 -0.001191 0.003375 0.038726 -0.007400
# 6 0.000420 0.001332 0.000941 0.003065 -0.007400 0.038591
#
#
# Mechanical properties :
#
#
# Convention : Reuss Voigt Hill
#
# Bulk Modulus (GPa) = 30.01987 45.59262 37.80625
# Shear Modulus (GPa) = 31.46655 37.61466 34.54061
#
# Velocity S-wave (km/s) = 3.58709 3.92190 3.75823
# Velocity P-wave (km/s) = 5.42513 6.25716 5.85594
#
# Compressibility (1/GPa) = 0.03331127
#
# Stress axis : x y z
#
# Youngs Moduli (GPa) = 43.26656 132.45581 105.37744
#
# Poissons Ratio (x) = 0.07959 0.04281
# Poissons Ratio (y) = 0.02600 0.25429
# Poissons Ratio (z) = 0.01758 0.31964
#
# Static dielectric constant tensor:
#      x y z
#    x 2.080360 0.021740 -0.015950 
#    y 0.021740 1.970140 -0.062870 
#    z -0.015950 -0.062870 1.908740 
# 
# From -- ./inp_files/176134.got.cif
#   From: 2010.05.17/outbox.cif.g08.bks.cpg/sg2_89_cif.got.tgz:176134.got - 2010.06.03 11:33:40.
