data_PCOD9099922
_publ_section_title
;
Structure prediction by ZEFSAII (Michael W. Deem and Ramdas Pophale) SiO2 
 PCOD9099922
Probable space group: P -1
;
_chemical_formula_sum "Si O2"
_cell_formula_units_Z 12
_cell_length_a 8.946628
_cell_length_b 9.842754
_cell_length_c 10.361693
_cell_angle_alpha 65.986736
_cell_angle_beta 115.961762
_cell_angle_gamma 121.079652
_cell_volume 682.926980
_symmetry_space_group_name_H-M "P -1"
_symmetry_group_IT_number 2
_symmetry_cell_setting 'triclinic'
loop_
_space_group_symop_operation_xyz
x,y,z
-x,-y,-z
loop_
_atom_site_type_symbol
_atom_site_label
_atom_site_fract_x
_atom_site_fract_y
_atom_site_fract_z
Si Si1 0.635620 0.541372 0.154844
Si Si2 0.993080 0.132894 0.846369
Si Si3 0.431461 0.360924 0.635650
Si Si4 0.393013 0.866260 0.320348
Si Si5 0.666928 0.214433 0.371379
Si Si6 0.011405 0.134290 0.555961
O O1 0.538028 0.571175 0.234061
O O2 0.679348 0.385644 0.260176
O O3 0.822476 0.701688 0.139897
O O4 0.500000 0.500000 0.000000
O O5 0.810852 0.163732 0.786381
O O6 0.978750 0.071492 0.715905
O O7 0.000000 0.000000 0.000000
O O8 0.500000 0.500000 0.500000
O O9 0.518696 0.231563 0.692860
O O10 0.213729 0.272497 0.573434
O O11 0.387400 0.806326 0.489683
O O12 0.518895 0.059937 0.299222
O O13 0.859207 0.200680 0.442273
O O14 0.000000 0.000000 0.500000
#
# Coordination Sequence:
#
# PCOD9099922 Si02
#       6
#     2   2   2   2   2   2
#     4  11  24  41  59  86 122 159 194 242 295 347
#     4  10  23  40  61  84 121 158 194 239 296 349
#     4  11  22  37  62  91 119 148 200 245 286 347
#     4  10  20  37  63  89 115 156 195 240 292 348
#     4  10  20  37  62  87 120 155 193 237 296 351
#     4  10  21  38  61  90 117 152 195 241 291 347
#
# _framework density 17.571424
#
# number of rings (size 3 to 8) (size 9 to 14) (size 15 to 20)
#    0.000    1.667    3.333    1.000    2.333    3.333 
#    3.000    3.333    0.000    0.000    0.000    0.000 
#    0.000    0.000    0.000    0.000    0.000    0.000 
#
# Total GULP energy -67000.002771 kJ/mol
# GULP energy per Si atom -5583.333564 kJ/mol
# Density = 1.753143 g / cm^3
# Si number density = 17.571424 Si / 1000 Ang^3
#
#
#
# Elastic Constant Matrix: (Units=GPa)
#
#
# Indices 1 2 3 4 5 6 
#
# 1 130.5362 60.4752 61.9028 6.7002 -3.3702 -11.5796
# 2 60.4752 117.2452 83.1269 -6.2751 -3.5665 -15.9389
# 3 61.9028 83.1269 118.0207 -1.4239 3.9209 -6.5249
# 4 6.7002 -6.2751 -1.4239 39.6480 0.9515 -2.4521
# 5 -3.3702 -3.5665 3.9209 0.9515 20.2023 1.6176
# 6 -11.5796 -15.9389 -6.5249 -2.4521 1.6176 33.4220
#
#
#
# Elastic Compliance Matrix: (Units=1/GPa)
#
#
# Indices 1 2 3 4 5 6 
#
# 1 0.011118 -0.002913 -0.003799 -0.002437 0.002077 0.001442
# 2 -0.002913 0.019877 -0.012251 0.003462 0.004749 0.006102
# 3 -0.003799 -0.012251 0.019118 -0.000657 -0.006222 -0.003173
# 4 -0.002437 0.003462 -0.000657 0.026350 -0.001122 0.002666
# 5 0.002077 0.004749 -0.006222 -0.001122 0.052011 -0.000830
# 6 0.001442 0.006102 -0.003173 0.002666 -0.000830 0.032946
#
#
# Mechanical properties :
#
#
# Convention : Reuss Voigt Hill
#
# Bulk Modulus (GPa) = 82.04814 86.31245 84.18030
# Shear Modulus (GPa) = 24.58122 29.34095 26.96109
#
# Velocity S-wave (km/s) = 3.74429 4.09076 3.92135
# Velocity P-wave (km/s) = 8.09249 8.45813 8.27733
#
# Compressibility (1/GPa) = 0.01218797
#
# Stress axis : x y z
#
# Youngs Moduli (GPa) = 89.94287 50.31012 52.30747
#
# Poissons Ratio (x) = 0.14654 0.19870
# Poissons Ratio (y) = 0.26197 0.64081
# Poissons Ratio (z) = 0.34167 0.61635
#
# Static dielectric constant tensor:
#      x y z
#    x 1.643410 0.056350 -0.009020 
#    y 0.056350 1.638110 0.020060 
#    z -0.009020 0.020060 1.580340 
# 
# From -- ./inp_files/145310.got.cif
#   From: 2010.05.17/outbox.cif.g08.bks.cpg/sg2_73_cif.got.tgz:145310.got - 2010.06.03 11:33:40.
