data_PCOD9099486
_publ_section_title
;
Structure prediction by ZEFSAII (Michael W. Deem and Ramdas Pophale) SiO2 
 PCOD9099486
Probable space group: P -1
;
_chemical_formula_sum "Si O2"
_cell_formula_units_Z 14
_cell_length_a 10.947126
_cell_length_b 9.914078
_cell_length_c 12.670405
_cell_angle_alpha 40.129422
_cell_angle_beta 127.692312
_cell_angle_gamma 136.950961
_cell_volume 600.651458
_symmetry_space_group_name_H-M "P -1"
_symmetry_group_IT_number 2
_symmetry_cell_setting 'triclinic'
loop_
_space_group_symop_operation_xyz
x,y,z
-x,-y,-z
loop_
_atom_site_type_symbol
_atom_site_label
_atom_site_fract_x
_atom_site_fract_y
_atom_site_fract_z
Si Si1 0.751941 0.904747 0.111499
Si Si2 0.113823 0.440646 0.516429
Si Si3 0.713957 0.679447 0.013324
Si Si4 0.469578 0.778961 0.398756
Si Si5 0.893264 0.631978 0.942233
Si Si6 0.180993 0.698315 0.714110
Si Si7 0.405262 0.599487 0.242413
O O1 0.824221 0.735677 0.297667
O O2 0.753556 0.884006 0.997636
O O3 0.552059 0.785314 0.124266
O O4 0.896369 0.173650 0.064995
O O5 0.290839 0.690831 0.424519
O O6 0.000000 0.500000 0.500000
O O7 0.986077 0.310394 0.425521
O O8 0.790275 0.511282 0.196726
O O9 0.500000 0.500000 0.000000
O O10 0.803165 0.747367 0.903712
O O11 0.415466 0.740638 0.269917
O O12 0.535578 0.592286 0.576455
O O13 0.634265 0.047372 0.347153
O O14 0.784951 0.553495 0.824343
O O15 0.857775 0.394479 0.130599
#
# Coordination Sequence:
#
# PCOD9099486 Si02
#       7
#     2   2   2   2   2   2   2
#     4  11  20  39  63  89 122 159 201 247 295 364
#     4  11  22  39  62  91 121 154 199 246 307 352
#     4  10  20  37  60  91 124 153 201 244 300 354
#     4  10  24  42  63  85 126 156 203 253 292 358
#     4  10  22  36  62  88 120 160 199 245 299 349
#     4  10  23  39  58  95 121 156 198 251 302 350
#     4  10  22  43  62  88 115 168 205 241 299 355
#
# _framework density 23.308026999999999
#
# number of rings (size 3 to 8) (size 9 to 14) (size 15 to 20)
#    0.857    0.857    2.857    1.286    0.000    5.714 
#    0.000    5.714    0.000    0.000    0.000    0.000 
#    0.000    0.000    0.000    0.000    0.000    0.000 
#
# Total GULP energy -78313.981037 kJ/mol
# GULP energy per Si atom -5593.855788 kJ/mol
# Density = 2.325498 g / cm^3
# Si number density = 23.308027 Si / 1000 Ang^3
#
#
#
# Elastic Constant Matrix: (Units=GPa)
#
#
# Indices 1 2 3 4 5 6 
#
# 1 69.3269 6.4383 10.2299 -11.2933 0.5041 -8.4317
# 2 6.4383 143.8614 20.1855 -3.4574 -11.7186 7.9576
# 3 10.2299 20.1855 57.1826 2.3835 -6.3767 -6.1736
# 4 -11.2933 -3.4574 2.3835 49.0793 5.4476 -13.1269
# 5 0.5041 -11.7186 -6.3767 5.4476 17.8348 3.4466
# 6 -8.4317 7.9576 -6.1736 -13.1269 3.4466 16.8040
#
#
#
# Elastic Compliance Matrix: (Units=1/GPa)
#
#
# Indices 1 2 3 4 5 6 
#
# 1 0.019341 -0.002298 -0.002000 0.011078 -0.010175 0.020799
# 2 -0.002298 0.008574 -0.002737 -0.003479 0.007820 -0.010541
# 3 -0.002000 -0.002737 0.020003 -0.000365 0.004269 0.006480
# 4 0.011078 -0.003479 -0.000365 0.035516 -0.021144 0.039153
# 5 -0.010175 0.007820 0.004269 -0.021144 0.077129 -0.039577
# 6 0.020799 -0.010541 0.006480 0.039153 -0.039577 0.116021
#
#
# Mechanical properties :
#
#
# Convention : Reuss Voigt Hill
#
# Bulk Modulus (GPa) = 29.54271 38.23091 33.88681
# Shear Modulus (GPa) = 16.55982 32.31145 24.43564
#
# Velocity S-wave (km/s) = 2.66837 3.72732 3.24138
# Velocity P-wave (km/s) = 4.71127 5.91286 5.34593
#
# Compressibility (1/GPa) = 0.03384930
#
# Stress axis : x y z
#
# Youngs Moduli (GPa) = 51.70319 116.62644 49.99360
#
# Poissons Ratio (x) = 0.26801 0.09998
# Poissons Ratio (y) = 0.11882 0.13681
# Poissons Ratio (z) = 0.10340 0.31915
#
# Static dielectric constant tensor:
#      x y z
#    x 1.918130 -0.025870 0.005280 
#    y -0.025870 1.815960 0.014150 
#    z 0.005280 0.014150 1.874920 
# 
# From -- ./inp_files/518672.got.cif
#   From: 2010.05.17/outbox.cif.g08.bks.cpg/sg2_260_cif.got.tgz:518672.got - 2010.06.03 11:33:40.
