data_PCOD9099393
_publ_section_title
;
Structure prediction by ZEFSAII (Michael W. Deem and Ramdas Pophale) SiO2 
 PCOD9099393
Probable space group: P -1
;
_chemical_formula_sum "Si O2"
_cell_formula_units_Z 16
_cell_length_a 11.581760
_cell_length_b 17.847270
_cell_length_c 9.489731
_cell_angle_alpha 54.240788
_cell_angle_beta 59.147202
_cell_angle_gamma 31.148621
_cell_volume 822.977120
_symmetry_space_group_name_H-M "P -1"
_symmetry_group_IT_number 2
_symmetry_cell_setting 'triclinic'
loop_
_space_group_symop_operation_xyz
x,y,z
-x,-y,-z
loop_
_atom_site_type_symbol
_atom_site_label
_atom_site_fract_x
_atom_site_fract_y
_atom_site_fract_z
Si Si1 0.295326 0.873850 0.648371
Si Si2 0.800348 0.443979 0.166580
Si Si3 0.285684 0.212598 0.026198
Si Si4 0.566644 0.410271 0.199343
Si Si5 0.418170 0.927869 0.262503
Si Si6 0.571468 0.201678 0.035034
Si Si7 0.200558 0.891350 0.279012
Si Si8 0.606026 0.530825 0.475286
O O1 0.350603 0.736864 0.730922
O O2 0.429310 0.867033 0.467869
O O3 0.353305 0.861918 0.786193
O O4 0.029303 0.030025 0.621832
O O5 0.751093 0.370362 0.211490
O O6 0.802563 0.445654 0.335080
O O7 0.024419 0.363441 0.052493
O O8 0.586686 0.621735 0.060711
O O9 0.425931 0.201362 0.053703
O O10 0.352100 0.069892 0.167187
O O11 0.363248 0.194606 0.838860
O O12 0.368633 0.506470 0.334812
O O13 0.500000 0.500000 0.000000
O O14 0.231000 0.974318 0.239996
O O15 0.775314 0.110027 0.902013
O O16 0.417804 0.713706 0.384632
O O17 0.500000 0.500000 0.500000
#
# Coordination Sequence:
#
# PCOD9099393 Si02
#       8
#     2   2   2   2   2   2   2   2
#     4  12  22  36  60  87 121 151 182 244 302 332
#     4  10  20  39  63  82 113 157 193 233 285 346
#     4  10  22  41  61  81 108 160 204 229 279 337
#     4  11  21  37  58  90 123 141 181 244 298 339
#     4  10  22  38  61  84 115 145 200 246 269 343
#     4  10  22  39  55  85 122 151 191 241 278 342
#     4  10  20  37  60  88 114 151 190 234 293 345
#     4   9  20  34  58  88 116 144 189 231 280 351
#
# _framework density 19.441611000000002
#
# number of rings (size 3 to 8) (size 9 to 14) (size 15 to 20)
#    0.000    1.750    2.500    1.875    3.500    0.500 
#    0.000    1.875    0.000    0.000    0.000    0.000 
#    0.000    0.000    0.000    0.000    0.000    0.000 
#
# Total GULP energy -89271.201680 kJ/mol
# GULP energy per Si atom -5579.450105 kJ/mol
# Density = 1.939736 g / cm^3
# Si number density = 19.441611 Si / 1000 Ang^3
#
#
#
# Elastic Constant Matrix: (Units=GPa)
#
#
# Indices 1 2 3 4 5 6 
#
# 1 50.7286 9.5317 21.2259 2.3101 -5.9458 18.2895
# 2 9.5317 39.4204 30.2386 14.3322 -3.6852 8.3964
# 3 21.2259 30.2386 170.8746 23.9285 11.3678 2.0938
# 4 2.3101 14.3322 23.9285 27.7891 7.3094 -11.1949
# 5 -5.9458 -3.6852 11.3678 7.3094 34.0387 1.6154
# 6 18.2895 8.3964 2.0938 -11.1949 1.6154 28.5539
#
#
#
# Elastic Compliance Matrix: (Units=1/GPa)
#
#
# Indices 1 2 3 4 5 6 
#
# 1 0.035241 0.013054 -0.003712 -0.025641 0.016076 -0.037101
# 2 0.013054 0.056373 -0.005628 -0.049625 0.023068 -0.045286
# 3 -0.003712 -0.005628 0.007673 -0.001104 -0.003737 0.003249
# 4 -0.025641 -0.049625 -0.001104 0.103626 -0.035234 0.073718
# 5 0.016076 0.023068 -0.003737 -0.035234 0.045072 -0.033170
# 6 -0.037101 -0.045286 0.003249 0.073718 -0.033170 0.102643
#
#
# Mechanical properties :
#
#
# Convention : Reuss Voigt Hill
#
# Bulk Modulus (GPa) = 9.37080 42.55734 25.96407
# Shear Modulus (GPa) = 13.20052 31.41148 22.30600
#
# Velocity S-wave (km/s) = 2.60856 4.02392 3.39091
# Velocity P-wave (km/s) = 3.72870 6.59747 5.35863
#
# Compressibility (1/GPa) = 0.10671446
#
# Stress axis : x y z
#
# Youngs Moduli (GPa) = 28.37577 17.73895 130.33224
#
# Poissons Ratio (x) = -0.23156 0.48378
# Poissons Ratio (y) = -0.37041 0.73352
# Poissons Ratio (z) = 0.10533 0.09984
#
# Static dielectric constant tensor:
#      x y z
#    x 1.665400 0.026800 -0.012370 
#    y 0.026800 1.691730 0.019640 
#    z -0.012370 0.019640 1.735010 
# 
# From -- ./inp_files/202110.got.cif
#   From: 2010.05.17/outbox.cif.g08.bks.cpg/sg2_102_cif.got.tgz:202110.got - 2010.06.03 11:33:40.
