data_PCOD9099545
_publ_section_title
;
Structure prediction by ZEFSAII (Michael W. Deem and Ramdas Pophale) SiO2 
 PCOD9099545
Probable space group: P -1
;
_chemical_formula_sum "Si O2"
_cell_formula_units_Z 16
_cell_length_a 9.458976
_cell_length_b 10.542042
_cell_length_c 8.053023
_cell_angle_alpha 102.153374
_cell_angle_beta 76.915421
_cell_angle_gamma 66.835777
_cell_volume 677.681670
_symmetry_space_group_name_H-M "P -1"
_symmetry_group_IT_number 2
_symmetry_cell_setting 'triclinic'
loop_
_space_group_symop_operation_xyz
x,y,z
-x,-y,-z
loop_
_atom_site_type_symbol
_atom_site_label
_atom_site_fract_x
_atom_site_fract_y
_atom_site_fract_z
Si Si1 0.208588 0.970534 0.243814
Si Si2 0.493126 0.691603 0.978113
Si Si3 0.622111 0.449338 0.610474
Si Si4 0.890366 0.110801 0.199528
Si Si5 0.301204 0.306419 0.777018
Si Si6 0.895282 0.411648 0.306262
Si Si7 0.366261 0.857217 0.501354
Si Si8 0.745984 0.791211 0.902486
O O1 0.278330 0.970184 0.407830
O O2 0.257288 0.066801 0.135159
O O3 0.307009 0.805226 0.100282
O O4 0.012973 0.046752 0.307596
O O5 0.533342 0.555629 0.814309
O O6 0.583930 0.778700 0.896614
O O7 0.597216 0.644398 0.108091
O O8 0.500000 0.500000 0.500000
O O9 0.785610 0.457262 0.513692
O O10 0.664076 0.282005 0.576198
O O11 0.865818 0.273956 0.214091
O O12 0.724363 0.104230 0.287727
O O13 0.000000 0.000000 0.000000
O O14 0.171085 0.448877 0.758031
O O15 0.440016 0.198689 0.582669
O O16 0.238515 0.225985 0.904234
O O17 0.089387 0.341800 0.250342
#
# Coordination Sequence:
#
# PCOD9099545 Si02
#       8
#     2   2   2   2   2   2   2   2
#     4  10  20  38  62  81 120 153 193 243 286 347
#     4   9  22  34  61  87 113 156 194 239 287 347
#     4  11  22  37  56  87 120 149 195 247 298 338
#     4  10  23  35  57  86 119 154 190 235 294 355
#     4   9  19  36  61  86 114 152 197 238 290 345
#     4  10  20  37  61  80 121 155 186 251 289 339
#     4  10  21  36  59  86 114 152 191 239 298 339
#     4   9  20  39  60  87 115 158 200 233 295 336
#
# _framework density 23.609905999999999
#
# number of rings (size 3 to 8) (size 9 to 14) (size 15 to 20)
#    0.750    1.500    1.250    1.125    3.500    3.500 
#    0.000    0.000    5.500    4.500    0.000    0.000 
#    0.000    0.000    0.000    0.000    0.000    0.000 
#
# Total GULP energy -89275.564460 kJ/mol
# GULP energy per Si atom -5579.722779 kJ/mol
# Density = 2.355617 g / cm^3
# Si number density = 23.609906 Si / 1000 Ang^3
#
#
#
# Elastic Constant Matrix: (Units=GPa)
#
#
# Indices 1 2 3 4 5 6 
#
# 1 45.8587 8.6545 12.5405 2.8944 -19.2774 -10.5023
# 2 8.6545 109.1121 21.9029 -10.4909 -5.9564 -9.4875
# 3 12.5405 21.9029 96.3316 2.3645 -25.2193 9.4362
# 4 2.8944 -10.4909 2.3645 33.5749 2.8260 -11.2754
# 5 -19.2774 -5.9564 -25.2193 2.8260 38.7332 2.1573
# 6 -10.5023 -9.4875 9.4362 -11.2754 2.1573 34.4175
#
#
#
# Elastic Compliance Matrix: (Units=1/GPa)
#
#
# Indices 1 2 3 4 5 6 
#
# 1 0.029899 -0.000915 -0.000770 -0.001373 0.013907 0.007761
# 2 -0.000915 0.010904 -0.003540 0.005808 -0.001826 0.005714
# 3 -0.000770 -0.003540 0.014626 -0.005408 0.009412 -0.007583
# 4 -0.001373 0.005808 -0.005408 0.037892 -0.006940 0.015513
# 5 0.013907 -0.001826 0.009412 -0.006940 0.039292 -0.003577
# 6 0.007761 0.005714 -0.007583 0.015513 -0.003577 0.040384
#
#
# Mechanical properties :
#
#
# Convention : Reuss Voigt Hill
#
# Bulk Modulus (GPa) = 22.23323 37.49980 29.86651
# Shear Modulus (GPa) = 25.19656 35.22544 30.21100
#
# Velocity S-wave (km/s) = 3.27035 3.86680 3.58102
# Velocity P-wave (km/s) = 4.86802 5.98780 5.45671
#
# Compressibility (1/GPa) = 0.04497773
#
# Stress axis : x y z
#
# Youngs Moduli (GPa) = 33.44561 91.71146 68.37349
#
# Poissons Ratio (x) = 0.08392 0.05265
# Poissons Ratio (y) = 0.03060 0.24207
# Poissons Ratio (z) = 0.02576 0.32469
#
# Static dielectric constant tensor:
#      x y z
#    x 1.916030 0.014880 -0.009680 
#    y 0.014880 1.896320 -0.021640 
#    z -0.009680 -0.021640 1.975960 
# 
# From -- ./inp_files/254069.got.cif
#   From: 2010.05.17/outbox.cif.g08.bks.cpg/sg2_128_cif.got.tgz:254069.got - 2010.06.03 11:33:40.
