data_PCOD9099906
_publ_section_title
;
Structure prediction by ZEFSAII (Michael W. Deem and Ramdas Pophale) SiO2 
 PCOD9099906
Probable space group: P -1
;
_chemical_formula_sum "Si O2"
_cell_formula_units_Z 16
_cell_length_a 23.439744
_cell_length_b 10.575270
_cell_length_c 8.875164
_cell_angle_alpha 107.030150
_cell_angle_beta 141.210350
_cell_angle_gamma 41.195995
_cell_volume 637.727039
_symmetry_space_group_name_H-M "P -1"
_symmetry_group_IT_number 2
_symmetry_cell_setting 'triclinic'
loop_
_space_group_symop_operation_xyz
x,y,z
-x,-y,-z
loop_
_atom_site_type_symbol
_atom_site_label
_atom_site_fract_x
_atom_site_fract_y
_atom_site_fract_z
Si Si1 0.167906 0.391261 0.316847
Si Si2 0.902392 0.030187 0.430991
Si Si3 0.799719 0.350526 0.570557
Si Si4 0.219718 0.091838 0.823062
Si Si5 0.540495 0.568559 0.720356
Si Si6 0.717811 0.742278 0.821295
Si Si7 0.655243 0.537120 0.646026
Si Si8 0.622169 0.068468 0.227896
O O1 0.106914 0.622652 0.257829
O O2 0.278463 0.223514 0.331856
O O3 0.298057 0.177558 0.648365
O O4 0.000000 0.500000 0.000000
O O5 0.921409 0.085578 0.643894
O O6 0.914738 0.856654 0.384321
O O7 0.680671 0.330664 0.047304
O O8 0.000000 0.000000 0.500000
O O9 0.745561 0.353386 0.621068
O O10 0.591414 0.653949 0.178197
O O11 0.251518 0.043883 0.691960
O O12 0.431758 0.816226 0.239024
O O13 0.171294 0.297837 0.860698
O O14 0.500000 0.500000 0.500000
O O15 0.649315 0.522434 0.808109
O O16 0.384911 0.837711 0.597699
O O17 0.777497 0.515711 0.875862
O O18 0.500000 0.000000 0.500000
#
# Coordination Sequence:
#
# PCOD9099906 Si02
#       8
#     2   2   2   2   2   2   2   2
#     4  11  23  39  64  94 124 155 202 262 312 353
#     4  11  25  40  57  88 128 166 196 249 311 357
#     4   9  22  40  63  86 124 162 203 246 299 374
#     4  10  20  37  62  86 123 156 202 247 300 362
#     4  11  22  37  66  89 117 162 210 248 289 371
#     4   9  19  37  62  88 118 162 199 255 298 361
#     4   9  18  37  62  90 112 151 214 253 290 345
#     4  10  22  38  63  91 116 160 204 248 306 361
#
# _framework density 25.089103999999999
#
# number of rings (size 3 to 8) (size 9 to 14) (size 15 to 20)
#    0.000    2.000    1.250    2.625    3.500    3.500 
#    4.500    1.250    0.000    0.000    0.000    0.000 
#    0.000    0.000    0.000    0.000    0.000    0.000 
#
# Total GULP energy -89085.264458 kJ/mol
# GULP energy per Si atom -5567.829029 kJ/mol
# Density = 2.503200 g / cm^3
# Si number density = 25.089104 Si / 1000 Ang^3
#
#
#
# Elastic Constant Matrix: (Units=GPa)
#
#
# Indices 1 2 3 4 5 6 
#
# 1 119.6303 22.4802 16.0532 19.0368 12.6580 4.8807
# 2 22.4802 68.2508 -11.7090 23.1344 8.3708 -0.4849
# 3 16.0532 -11.7090 76.7446 3.8177 -3.4196 13.2754
# 4 19.0368 23.1344 3.8177 28.3613 11.3722 -1.3670
# 5 12.6580 8.3708 -3.4196 11.3722 47.8204 9.5800
# 6 4.8807 -0.4849 13.2754 -1.3670 9.5800 36.5826
#
#
#
# Elastic Compliance Matrix: (Units=1/GPa)
#
#
# Indices 1 2 3 4 5 6 
#
# 1 0.009849 -0.002058 -0.002168 -0.004115 -0.001352 -0.000354
# 2 -0.002058 0.022182 0.005244 -0.018298 0.001892 -0.002514
# 3 -0.002168 0.005244 0.015941 -0.006791 0.003745 -0.006660
# 4 -0.004115 -0.018298 -0.006791 0.058999 -0.011842 0.008076
# 5 -0.001352 0.001892 0.003745 -0.011842 0.025690 -0.008324
# 6 -0.000354 -0.002514 -0.006660 0.008076 -0.008324 0.032248
#
#
# Mechanical properties :
#
#
# Convention : Reuss Voigt Hill
#
# Bulk Modulus (GPa) = 19.99712 35.36386 27.68049
# Shear Modulus (GPa) = 27.84866 38.40627 33.12747
#
# Velocity S-wave (km/s) = 3.33527 3.91678 3.63766
# Velocity P-wave (km/s) = 4.77700 5.88055 5.35726
#
# Compressibility (1/GPa) = 0.05000721
#
# Stress axis : x y z
#
# Youngs Moduli (GPa) = 101.53132 45.08213 62.73241
#
# Poissons Ratio (x) = 0.09277 0.13603
# Poissons Ratio (y) = 0.20893 -0.32897
# Poissons Ratio (z) = 0.22017 -0.23641
#
# Static dielectric constant tensor:
#      x y z
#    x 2.242230 0.097900 -0.127330 
#    y 0.097900 2.157860 0.006720 
#    z -0.127330 0.006720 2.097590 
# 
# From -- ./inp_files/179335.got.cif
#   From: 2010.05.17/outbox.cif.g08.bks.cpg/sg2_90_cif.got.tgz:179335.got - 2010.06.03 11:33:40.
