data_PCOD9099018
_publ_section_title
;
Structure prediction by ZEFSAII (Michael W. Deem and Ramdas Pophale) SiO2 
 PCOD9099018
Probable space group: P -1
;
_chemical_formula_sum "Si O2"
_cell_formula_units_Z 14
_cell_length_a 9.106452
_cell_length_b 10.898280
_cell_length_c 13.267302
_cell_angle_alpha 77.318223
_cell_angle_beta 42.436543
_cell_angle_gamma 101.918578
_cell_volume 718.239462
_symmetry_space_group_name_H-M "P -1"
_symmetry_group_IT_number 2
_symmetry_cell_setting 'triclinic'
loop_
_space_group_symop_operation_xyz
x,y,z
-x,-y,-z
loop_
_atom_site_type_symbol
_atom_site_label
_atom_site_fract_x
_atom_site_fract_y
_atom_site_fract_z
Si Si1 0.912446 0.678504 0.067383
Si Si2 0.233703 0.931848 0.710450
Si Si3 0.683515 0.830688 0.962945
Si Si4 0.619792 0.845579 0.217109
Si Si5 0.247525 0.655769 0.072414
Si Si6 0.515359 0.485383 0.156514
Si Si7 0.021164 0.584403 0.576217
O O1 0.778499 0.765552 0.155089
O O2 0.669815 0.516266 0.177859
O O3 0.084373 0.679097 0.069066
O O4 0.102431 0.765738 0.858435
O O5 0.994571 0.917202 0.770527
O O6 0.500000 0.000000 0.500000
O O7 0.282110 0.031848 0.767261
O O8 0.650969 0.892650 0.074642
O O9 0.483676 0.807100 0.981400
O O10 0.584164 0.654011 0.066088
O O11 0.313157 0.727340 0.413486
O O12 0.053171 0.534328 0.275404
O O13 0.373862 0.576797 0.967130
O O14 0.201509 0.380990 0.328310
O O15 0.000000 0.500000 0.500000
#
# Coordination Sequence:
#
# PCOD9099018 Si02
#       7
#     2   2   2   2   2   2   2
#     4  10  21  39  53  82 114 145 177 223 279 316
#     4  10  22  38  61  77 100 146 195 224 260 322
#     4   9  18  36  56  80 107 148 186 214 265 326
#     4  10  20  37  59  78 110 145 184 221 262 333
#     4  11  21  33  58  83 117 142 171 230 276 316
#     4   9  19  34  55  80 114 148 177 215 269 328
#     4  11  18  35  58  85 108 141 188 215 264 329
#
# _framework density 19.492106
#
# number of rings (size 3 to 8) (size 9 to 14) (size 15 to 20)
#    0.000    2.286    4.286    3.857    6.000    0.571 
#    0.000    3.571    0.000    0.000    0.000    0.000 
#    0.000    0.000    0.000    0.000    0.000    0.000 
#
# Total GULP energy -78009.441110 kJ/mol
# GULP energy per Si atom -5572.102936 kJ/mol
# Density = 1.944774 g / cm^3
# Si number density = 19.492106 Si / 1000 Ang^3
#
#
#
# Elastic Constant Matrix: (Units=GPa)
#
#
# Indices 1 2 3 4 5 6 
#
# 1 136.1405 4.0960 49.3324 -8.7747 -9.3072 23.8647
# 2 4.0960 37.5184 11.8154 8.8934 -2.9309 17.1663
# 3 49.3324 11.8154 130.7700 -3.0740 -25.5975 5.7677
# 4 -8.7747 8.8934 -3.0740 30.5039 17.4280 -7.4723
# 5 -9.3072 -2.9309 -25.5975 17.4280 26.0558 -3.4079
# 6 23.8647 17.1663 5.7677 -7.4723 -3.4079 23.8793
#
#
#
# Elastic Compliance Matrix: (Units=1/GPa)
#
#
# Indices 1 2 3 4 5 6 
#
# 1 0.012044 0.012454 -0.003979 -0.008657 0.004698 -0.022067
# 2 0.012454 0.090275 -0.000130 -0.075974 0.053061 -0.093513
# 3 -0.003979 -0.000130 0.012232 -0.009418 0.016957 0.000589
# 4 -0.008657 -0.075974 -0.009418 0.128045 -0.094487 0.092126
# 5 0.004698 0.053061 0.016957 -0.094487 0.118083 -0.059651
# 6 -0.022067 -0.093513 0.000589 0.092126 -0.059651 0.151329
#
#
# Mechanical properties :
#
#
# Convention : Reuss Voigt Hill
#
# Bulk Modulus (GPa) = 7.61956 48.32405 27.97181
# Shear Modulus (GPa) = 9.27532 32.03349 20.65440
#
# Velocity S-wave (km/s) = 2.18376 4.05830 3.25873
# Velocity P-wave (km/s) = 3.20562 6.84143 5.34233
#
# Compressibility (1/GPa) = 0.13124112
#
# Stress axis : x y z
#
# Youngs Moduli (GPa) = 83.02797 11.07724 81.75327
#
# Poissons Ratio (x) = -0.13796 0.32533
# Poissons Ratio (y) = -1.03405 0.01061
# Poissons Ratio (z) = 0.33041 0.00144
#
# Static dielectric constant tensor:
#      x y z
#    x 1.739590 0.008350 0.050810 
#    y 0.008350 1.691160 0.067920 
#    z 0.050810 0.067920 1.319180 
# 
# From -- ./inp_files/167649.got.cif
#   From: 2010.05.17/outbox.cif.g08.bks.cpg/sg2_84_cif.got.tgz:167649.got - 2010.06.03 11:33:40.
