data_PCOD9099685
_publ_section_title
;
Structure prediction by ZEFSAII (Michael W. Deem and Ramdas Pophale) SiO2 
 PCOD9099685
Probable space group: P -1
;
_chemical_formula_sum "Si O2"
_cell_formula_units_Z 15
_cell_length_a 8.120952
_cell_length_b 11.787346
_cell_length_c 14.807844
_cell_angle_alpha 81.905205
_cell_angle_beta 111.205354
_cell_angle_gamma 144.491023
_cell_volume 736.025486
_symmetry_space_group_name_H-M "P -1"
_symmetry_group_IT_number 2
_symmetry_cell_setting 'triclinic'
loop_
_space_group_symop_operation_xyz
x,y,z
-x,-y,-z
loop_
_atom_site_type_symbol
_atom_site_label
_atom_site_fract_x
_atom_site_fract_y
_atom_site_fract_z
Si Si1 0.225765 0.172562 0.899647
Si Si2 0.101640 0.980601 0.719840
Si Si3 0.127552 0.739818 0.728230
Si Si4 0.560925 0.993001 0.411546
Si Si5 0.000000 0.000000 0.500000
Si Si6 0.817734 0.338938 0.759994
Si Si7 0.905270 0.571735 0.011979
Si Si8 0.284544 0.986724 0.056500
O O1 0.060639 0.036730 0.792756
O O2 0.989777 0.119521 0.918055
O O3 0.557159 0.414293 0.926598
O O4 0.321684 0.109649 0.980728
O O5 0.480892 0.169300 0.762486
O O6 0.977856 0.783044 0.719344
O O7 0.969200 0.972248 0.607233
O O8 0.906655 0.511464 0.720776
O O9 0.265570 0.827492 0.644196
O O10 0.410769 0.872362 0.839374
O O11 0.245783 0.783312 0.320034
O O12 0.781511 0.999326 0.456098
O O13 0.500000 0.000000 0.500000
O O14 0.061562 0.424475 0.873211
O O15 0.153414 0.801083 0.006443
O O16 0.000000 0.500000 0.000000
#
# Coordination Sequence:
#
# PCOD9099685 Si02
#       8
#     2   2   2   2   1   2   2   2
#     4  11  24  35  58  86 126 158 198 243 306 357
#     4  10  21  39  60  87 113 164 193 251 302 347
#     4  10  20  38  62  84 121 150 201 246 294 366
#     4  10  22  41  65  89 116 167 198 253 313 351
#     4   8  20  40  60  86 120 144 212 246 290 364
#     4  10  20  37  61  89 116 147 207 246 291 366
#     4  12  21  37  59  85 115 160 195 244 293 357
#     4  11  23  38  53  89 125 159 195 248 294 371
#
# _framework density 20.379731
#
# number of rings (size 3 to 8) (size 9 to 14) (size 15 to 20)
#    0.000    1.867    5.333    0.400    3.733    1.600 
#    0.000   10.667    5.867    0.000    0.000    0.000 
#    0.000    0.000    0.000    0.000    0.000    0.000 
#
# Total GULP energy -83511.440939 kJ/mol
# GULP energy per Si atom -5567.429396 kJ/mol
# Density = 2.033335 g / cm^3
# Si number density = 20.379731 Si / 1000 Ang^3
#
#
#
# Elastic Constant Matrix: (Units=GPa)
#
#
# Indices 1 2 3 4 5 6 
#
# 1 46.1421 3.2468 13.3045 2.3755 -16.5807 -5.1629
# 2 3.2468 83.5929 -1.7859 0.3219 -10.9248 -17.9953
# 3 13.3045 -1.7859 92.9567 -20.4332 -9.7349 -15.6496
# 4 2.3755 0.3219 -20.4332 22.5614 -11.6012 0.1200
# 5 -16.5807 -10.9248 -9.7349 -11.6012 31.2392 -1.3990
# 6 -5.1629 -17.9953 -15.6496 0.1200 -1.3990 18.8338
#
#
#
# Elastic Compliance Matrix: (Units=1/GPa)
#
#
# Indices 1 2 3 4 5 6 
#
# 1 0.031219 0.007419 0.006065 0.016473 0.028188 0.022675
# 2 0.007419 0.024264 0.015164 0.027353 0.029089 0.039804
# 3 0.006065 0.015164 0.032520 0.048206 0.038606 0.045734
# 4 0.016473 0.027353 0.048206 0.128975 0.084640 0.076172
# 5 0.028188 0.029089 0.038606 0.084640 0.103957 0.074783
# 6 0.022675 0.039804 0.045734 0.076172 0.074783 0.140416
#
#
# Mechanical properties :
#
#
# Convention : Reuss Voigt Hill
#
# Bulk Modulus (GPa) = 6.88239 28.02473 17.45356
# Shear Modulus (GPa) = 11.05001 28.38862 19.71932
#
# Velocity S-wave (km/s) = 2.33106 3.73632 3.11399
# Velocity P-wave (km/s) = 3.26029 5.69162 4.63811
#
# Compressibility (1/GPa) = 0.14529844
#
# Stress axis : x y z
#
# Youngs Moduli (GPa) = 32.03129 41.21394 30.75023
#
# Poissons Ratio (x) = -0.30575 -0.18649
# Poissons Ratio (y) = -0.23763 -0.46631
# Poissons Ratio (z) = -0.19426 -0.62499
#
# Static dielectric constant tensor:
#      x y z
#    x 1.739190 -0.001270 -0.030670 
#    y -0.001270 1.760180 0.014220 
#    z -0.030670 0.014220 1.726140 
# 
# From -- ./inp_files/280695.got.cif
#   From: 2010.05.17/outbox.cif.g08.bks.cpg/sg2_141_cif.got.tgz:280695.got - 2010.06.03 11:33:40.
