data_PCOD9099862
_publ_section_title
;
Structure prediction by ZEFSAII (Michael W. Deem and Ramdas Pophale) SiO2 
 PCOD9099862
Probable space group: P -1
;
_chemical_formula_sum "Si O2"
_cell_formula_units_Z 16
_cell_length_a 15.637903
_cell_length_b 8.306581
_cell_length_c 9.350867
_cell_angle_alpha 30.634242
_cell_angle_beta 102.186631
_cell_angle_gamma 107.267336
_cell_volume 588.583463
_symmetry_space_group_name_H-M "P -1"
_symmetry_group_IT_number 2
_symmetry_cell_setting 'triclinic'
loop_
_space_group_symop_operation_xyz
x,y,z
-x,-y,-z
loop_
_atom_site_type_symbol
_atom_site_label
_atom_site_fract_x
_atom_site_fract_y
_atom_site_fract_z
Si Si1 0.952176 0.018372 0.618150
Si Si2 0.638517 0.771522 0.413479
Si Si3 0.421424 0.000678 0.360145
Si Si4 0.228588 0.997754 0.323308
Si Si5 0.539658 0.619937 0.212017
Si Si6 0.949213 0.310455 0.881687
Si Si7 0.806117 0.729085 0.179117
Si Si8 0.754213 0.272275 0.924451
O O1 0.846488 0.995787 0.591614
O O2 0.000000 0.000000 0.500000
O O3 0.002065 0.371627 0.428439
O O4 0.977930 0.755580 0.931266
O O5 0.559457 0.596805 0.625742
O O6 0.705751 0.525551 0.638739
O O7 0.574847 0.815094 0.219253
O O8 0.704475 0.131507 0.161564
O O9 0.332113 0.065056 0.349426
O O10 0.396443 0.632772 0.578391
O O11 0.500000 0.000000 0.500000
O O12 0.452841 0.209759 0.069220
O O13 0.200504 0.645275 0.502263
O O14 0.221741 0.264240 0.999573
O O15 0.862112 0.390303 0.872133
O O16 0.096222 0.025074 0.957223
O O17 0.747105 0.937263 0.086480
#
# Coordination Sequence:
#
# PCOD9099862 Si02
#       8
#     2   2   2   2   2   2   2   2
#     4  12  26  47  67  98 142 184 232 274 336 424
#     4  11  20  38  66 104 134 179 223 278 371 410
#     4  12  26  47  64  97 138 188 243 286 334 414
#     4  12  24  43  72  95 132 185 229 288 358 402
#     4  11  24  40  68  95 137 176 231 297 342 413
#     4  10  24  43  68 105 139 175 218 295 335 414
#     4  10  22  39  70 106 132 173 226 291 353 405
#     4  10  20  37  62 102 143 170 213 278 352 418
#
# _framework density 27.183910000000001
#
# number of rings (size 3 to 8) (size 9 to 14) (size 15 to 20)
#    0.750    0.250    0.000    8.250    0.000    5.000 
#    6.750    0.000    0.000    0.000    0.000    0.000 
#    0.000    0.000    0.000    0.000    0.000    0.000 
#
# Total GULP energy -89507.371595 kJ/mol
# GULP energy per Si atom -5594.210725 kJ/mol
# Density = 2.712204 g / cm^3
# Si number density = 27.183910 Si / 1000 Ang^3
#
#
#
# Elastic Constant Matrix: (Units=GPa)
#
#
# Indices 1 2 3 4 5 6 
#
# 1 226.8973 38.3346 56.8751 30.1562 0.8827 9.7570
# 2 38.3346 58.0844 14.1948 5.7397 2.9193 5.9161
# 3 56.8751 14.1948 185.9654 19.3767 -3.0526 3.8727
# 4 30.1562 5.7397 19.3767 22.4746 3.3827 3.2788
# 5 0.8827 2.9193 -3.0526 3.3827 45.8945 -1.3809
# 6 9.7570 5.9161 3.8727 3.2788 -1.3809 36.2161
#
#
#
# Elastic Compliance Matrix: (Units=1/GPa)
#
#
# Indices 1 2 3 4 5 6 
#
# 1 0.006046 -0.003103 -0.000914 -0.006547 0.000490 -0.000413
# 2 -0.003103 0.019691 -0.000541 0.000147 -0.001311 -0.002386
# 3 -0.000914 -0.000541 0.006131 -0.004047 0.000760 0.000074
# 4 -0.006547 0.000147 -0.004047 0.057883 -0.004516 -0.003240
# 5 0.000490 -0.001311 0.000760 -0.004516 0.022284 0.001259
# 6 -0.000413 -0.002386 0.000074 -0.003240 0.001259 0.028446
#
#
# Mechanical properties :
#
#
# Convention : Reuss Voigt Hill
#
# Bulk Modulus (GPa) = 43.95103 76.63957 60.29530
# Shear Modulus (GPa) = 31.81040 45.01989 38.41514
#
# Velocity S-wave (km/s) = 3.42452 4.07396 3.76328
# Velocity P-wave (km/s) = 5.64266 7.09815 6.41184
#
# Compressibility (1/GPa) = 0.02275260
#
# Stress axis : x y z
#
# Youngs Moduli (GPa) = 165.38578 50.78486 163.11463
#
# Poissons Ratio (x) = 0.15758 0.14902
# Poissons Ratio (y) = 0.51318 0.08827
# Poissons Ratio (z) = 0.15110 0.02748
#
# Static dielectric constant tensor:
#      x y z
#    x 2.209060 -0.069250 -0.040220 
#    y -0.069250 2.258210 -0.020070 
#    z -0.040220 -0.020070 2.037450 
# 
# From -- ./inp_files/452094.got.cif
#   From: 2010.05.17/outbox.cif.g08.bks.cpg/sg2_227_cif.got.tgz:452094.got - 2010.06.03 11:33:40.
