data_PCOD9099000
_publ_section_title
;
Structure prediction by ZEFSAII (Michael W. Deem and Ramdas Pophale) SiO2 
 PCOD9099000
Probable space group: P -1
;
_chemical_formula_sum "Si O2"
_cell_formula_units_Z 14
_cell_length_a 16.584975
_cell_length_b 8.359423
_cell_length_c 4.934813
_cell_angle_alpha 66.870468
_cell_angle_beta 80.969904
_cell_angle_gamma 122.777913
_cell_volume 464.635404
_symmetry_space_group_name_H-M "P -1"
_symmetry_group_IT_number 2
_symmetry_cell_setting 'triclinic'
loop_
_space_group_symop_operation_xyz
x,y,z
-x,-y,-z
loop_
_atom_site_type_symbol
_atom_site_label
_atom_site_fract_x
_atom_site_fract_y
_atom_site_fract_z
Si Si1 0.968955 0.245302 0.870636
Si Si2 0.467690 0.110473 0.637927
Si Si3 0.117852 0.236226 0.495839
Si Si4 0.166377 0.716400 0.763812
Si Si5 0.605342 0.640558 0.550947
Si Si6 0.746000 0.802889 0.858405
Si Si7 0.317064 0.696412 0.399786
O O1 0.022920 0.246338 0.565427
O O2 0.067485 0.474513 0.831508
O O3 0.877067 0.265389 0.940862
O O4 0.925691 0.004987 0.188106
O O5 0.416447 0.192974 0.442315
O O6 0.585768 0.305460 0.594534
O O7 0.500000 0.000000 0.500000
O O8 0.381254 0.928836 0.030440
O O9 0.168710 0.235105 0.191502
O O10 0.219158 0.468283 0.442346
O O11 0.264471 0.717605 0.673287
O O12 0.201389 0.942532 0.439996
O O13 0.500000 0.500000 0.500000
O O14 0.646852 0.614779 0.827022
O O15 0.704566 0.772487 0.200740
#
# Coordination Sequence:
#
# PCOD9099000 Si02
#       7
#     2   2   2   2   2   2   2
#     4   8  16  31  65  97 119 166 208 269 324 382
#     4  11  24  37  58  88 126 171 214 259 314 380
#     4   9  18  35  62  94 127 162 213 265 324 381
#     4   9  16  35  62  93 127 161 213 262 321 384
#     4  12  26  42  64  94 133 174 219 262 314 378
#     4  11  23  41  65  95 129 174 210 265 319 378
#     4  10  20  37  58  91 123 165 213 261 316 380
#
# _framework density 30.131153000000001
#
# number of rings (size 3 to 8) (size 9 to 14) (size 15 to 20)
#    0.000    2.000    1.429    2.143    4.000    0.000 
#    0.000    0.000    0.000   27.429    7.429    0.000 
#    0.000    0.000    0.000    0.000    0.000    0.000 
#
# Total GULP energy -78424.627328 kJ/mol
# GULP energy per Si atom -5601.759095 kJ/mol
# Density = 3.006257 g / cm^3
# Si number density = 30.131153 Si / 1000 Ang^3
#
#
#
# Elastic Constant Matrix: (Units=GPa)
#
#
# Indices 1 2 3 4 5 6 
#
# 1 133.7501 26.0781 77.9499 23.4822 -51.9166 -25.4853
# 2 26.0781 177.2865 45.1039 -15.4994 -27.1979 35.8738
# 3 77.9499 45.1039 132.3834 6.6503 -29.7571 -14.5457
# 4 23.4822 -15.4994 6.6503 71.4695 -22.1606 -11.9959
# 5 -51.9166 -27.1979 -29.7571 -22.1606 58.8748 12.6228
# 6 -25.4853 35.8738 -14.5457 -11.9959 12.6228 66.1591
#
#
#
# Elastic Compliance Matrix: (Units=1/GPa)
#
#
# Indices 1 2 3 4 5 6 
#
# 1 0.015891 0.000368 -0.006981 -0.001077 0.009749 0.002332
# 2 0.000368 0.008360 -0.002677 0.002565 0.004970 -0.005463
# 3 -0.006981 -0.002677 0.012459 0.000453 -0.001318 0.001835
# 4 -0.001077 0.002565 0.000453 0.016994 0.006846 0.000069
# 5 0.009749 0.004970 -0.001318 0.006846 0.030610 -0.003828
# 6 0.002332 -0.005463 0.001835 0.000069 -0.003828 0.020122
#
#
# Mechanical properties :
#
#
# Convention : Reuss Voigt Hill
#
# Bulk Modulus (GPa) = 55.15494 82.40931 68.78213
# Shear Modulus (GPa) = 38.74259 58.91987 48.83123
#
# Velocity S-wave (km/s) = 3.58969 4.42684 4.03006
# Velocity P-wave (km/s) = 5.96036 7.31702 6.67326
#
# Compressibility (1/GPa) = 0.01813074
#
# Stress axis : x y z
#
# Youngs Moduli (GPa) = 62.92953 119.62268 80.26513
#
# Poissons Ratio (x) = -0.04404 0.56029
# Poissons Ratio (y) = -0.02317 0.21485
# Poissons Ratio (z) = 0.43928 0.32021
#
# Static dielectric constant tensor:
#      x y z
#    x 2.349050 0.211140 -0.051600 
#    y 0.211140 3.055440 -0.115070 
#    z -0.051600 -0.115070 2.290910 
# 
# From -- ./inp_files/42945.got.cif
#   From: 2010.05.17/outbox.cif.g08.bks.cpg/sg2_22_cif.got.tgz:42945.got - 2010.06.03 11:33:40.
