data_PCOD9099616
_publ_section_title
;
Structure prediction by ZEFSAII (Michael W. Deem and Ramdas Pophale) SiO2 
 PCOD9099616
Probable space group: P -1
;
_chemical_formula_sum "Si O2"
_cell_formula_units_Z 16
_cell_length_a 9.884712
_cell_length_b 16.150979
_cell_length_c 8.173210
_cell_angle_alpha 95.704421
_cell_angle_beta 66.659964
_cell_angle_gamma 41.980053
_cell_volume 614.794230
_symmetry_space_group_name_H-M "P -1"
_symmetry_group_IT_number 2
_symmetry_cell_setting 'triclinic'
loop_
_space_group_symop_operation_xyz
x,y,z
-x,-y,-z
loop_
_atom_site_type_symbol
_atom_site_label
_atom_site_fract_x
_atom_site_fract_y
_atom_site_fract_z
Si Si1 0.197999 0.794135 0.411590
Si Si2 0.661788 0.353649 0.008419
Si Si3 0.604385 0.144283 0.492576
Si Si4 0.425274 0.944484 0.182691
Si Si5 0.875751 0.475994 0.636063
Si Si6 0.292772 0.550657 0.731791
Si Si7 0.033507 0.510946 0.803684
Si Si8 0.522316 0.891504 0.761989
O O1 0.192566 0.886529 0.521786
O O2 0.485325 0.613579 0.305860
O O3 0.193121 0.779977 0.214575
O O4 0.918388 0.881841 0.623422
O O5 0.415915 0.427353 0.247853
O O6 0.838298 0.321912 0.048435
O O7 0.500000 0.500000 0.000000
O O8 0.508195 0.137459 0.697124
O O9 0.346135 0.323647 0.574826
O O10 0.663110 0.059249 0.286926
O O11 0.542695 0.980156 0.156946
O O12 0.493949 0.870978 0.957875
O O13 0.000000 0.500000 0.500000
O O14 0.799385 0.560819 0.855150
O O15 0.141654 0.284436 0.481439
O O16 0.500000 0.500000 0.500000
O O17 0.062383 0.596078 0.778945
O O18 0.000000 0.500000 0.000000
#
# Coordination Sequence:
#
# PCOD9099616 Si02
#       8
#     2   2   2   2   2   2   2   2
#     4  10  22  40  62  89 124 160 212 255 307 383
#     4  10  20  37  61  86 123 162 202 251 309 375
#     4  10  22  42  61  88 124 162 213 260 313 370
#     4  11  23  43  64  89 126 172 209 257 313 373
#     4  11  22  37  63  93 123 161 200 262 320 367
#     4  10  20  38  57  90 127 159 200 257 316 371
#     4  10  21  36  58  90 120 155 208 259 308 377
#     4  10  24  41  63  93 127 162 213 261 307 380
#
# _framework density 26.02497
#
# number of rings (size 3 to 8) (size 9 to 14) (size 15 to 20)
#    0.000    1.750    0.000    5.250    3.500    1.500 
#    4.500    0.000    0.000    0.000    0.000    0.000 
#    0.000    0.000    0.000    0.000    0.000    0.000 
#
# Total GULP energy -89201.661237 kJ/mol
# GULP energy per Si atom -5575.103827 kJ/mol
# Density = 2.596574 g / cm^3
# Si number density = 26.024970 Si / 1000 Ang^3
#
#
#
# Elastic Constant Matrix: (Units=GPa)
#
#
# Indices 1 2 3 4 5 6 
#
# 1 174.7360 35.7718 50.7193 6.8438 40.6596 4.2310
# 2 35.7718 79.0774 11.3738 -4.3117 14.3667 10.1454
# 3 50.7193 11.3738 102.9566 -11.9955 28.4607 8.7879
# 4 6.8438 -4.3117 -11.9955 42.3306 -0.1892 1.8942
# 5 40.6596 14.3667 28.4607 -0.1892 53.7465 3.9399
# 6 4.2310 10.1454 8.7879 1.8942 3.9399 40.1420
#
#
#
# Elastic Compliance Matrix: (Units=1/GPa)
#
#
# Indices 1 2 3 4 5 6 
#
# 1 0.008155 -0.002814 -0.003006 -0.002520 -0.003908 0.001012
# 2 -0.002814 0.014739 0.000892 0.002358 -0.002016 -0.003537
# 3 -0.003006 0.000892 0.013125 0.004388 -0.004714 -0.002526
# 4 -0.002520 0.002358 0.004388 0.025620 -0.000780 -0.002423
# 5 -0.003908 -0.002016 -0.004714 -0.000780 0.024626 -0.000427
# 6 0.001012 -0.003537 -0.002526 -0.002423 -0.000427 0.026408
#
#
# Mechanical properties :
#
#
# Convention : Reuss Voigt Hill
#
# Bulk Modulus (GPa) = 38.22181 61.38887 49.80534
# Shear Modulus (GPa) = 38.09497 44.50417 41.29957
#
# Velocity S-wave (km/s) = 3.83010 4.13977 3.98794
# Velocity P-wave (km/s) = 5.85474 6.81835 6.35484
#
# Compressibility (1/GPa) = 0.02616307
#
# Stress axis : x y z
#
# Youngs Moduli (GPa) = 122.62099 67.84681 76.18930
#
# Poissons Ratio (x) = 0.19092 0.22904
# Poissons Ratio (y) = 0.34505 -0.06795
# Poissons Ratio (z) = 0.36862 -0.06051
#
# Static dielectric constant tensor:
#      x y z
#    x 1.967540 0.060680 0.011790 
#    y 0.060680 2.071420 0.040180 
#    z 0.011790 0.040180 2.094820 
# 
# From -- ./inp_files/207608.got.cif
#   From: 2010.05.17/outbox.cif.g08.bks.cpg/sg2_104_cif.got.tgz:207608.got - 2010.06.03 11:33:40.
