data_PCOD9099104
_publ_section_title
;
Structure prediction by ZEFSAII (Michael W. Deem and Ramdas Pophale) SiO2 
 PCOD9099104
Probable space group: P -1
;
_chemical_formula_sum "Si O2"
_cell_formula_units_Z 16
_cell_length_a 9.793943
_cell_length_b 22.628275
_cell_length_c 12.349460
_cell_angle_alpha 38.157581
_cell_angle_beta 131.581337
_cell_angle_gamma 153.961062
_cell_volume 732.975083
_symmetry_space_group_name_H-M "P -1"
_symmetry_group_IT_number 2
_symmetry_cell_setting 'triclinic'
loop_
_space_group_symop_operation_xyz
x,y,z
-x,-y,-z
loop_
_atom_site_type_symbol
_atom_site_label
_atom_site_fract_x
_atom_site_fract_y
_atom_site_fract_z
Si Si1 0.743551 0.332784 0.445132
Si Si2 0.430548 0.708577 0.235437
Si Si3 0.664714 0.642324 0.963471
Si Si4 0.746934 0.192261 0.851547
Si Si5 0.709819 0.739160 0.546352
Si Si6 0.480113 0.728357 0.992756
Si Si7 0.140092 0.420628 0.156592
Si Si8 0.238743 0.118414 0.309991
O O1 0.752346 0.251681 0.655408
O O2 0.581990 0.352437 0.398696
O O3 0.536138 0.216460 0.399257
O O4 0.088510 0.512505 0.332019
O O5 0.367352 0.783126 0.151730
O O6 0.626074 0.730413 0.392137
O O7 0.585821 0.785914 0.088409
O O8 0.858035 0.819900 0.778035
O O9 0.500000 0.500000 0.000000
O O10 0.349503 0.552040 0.979722
O O11 0.900741 0.691150 0.099617
O O12 0.500000 0.000000 0.000000
O O13 0.809454 0.670858 0.695889
O O14 0.984565 0.927309 0.457014
O O15 0.715586 0.841863 0.852387
O O16 0.210640 0.692208 0.878458
O O17 0.310999 0.551391 0.154184
#
# Coordination Sequence:
#
# PCOD9099104 Si02
#       8
#     2   2   2   2   2   2   2   2
#     4  11  22  40  64  90 123 160 200 249 304 360
#     4  11  22  41  64  88 124 161 199 248 300 365
#     4  11  20  36  63  90 117 160 206 247 296 357
#     4  11  23  39  61  95 128 154 194 253 315 359
#     4  11  23  38  61  93 121 153 201 260 313 351
#     4  10  23  41  60  86 121 166 207 244 298 363
#     4  10  20  37  59  85 116 155 209 248 287 361
#     4  11  24  41  61  89 127 162 202 252 302 363
#
# _framework density 21.828847
#
# number of rings (size 3 to 8) (size 9 to 14) (size 15 to 20)
#    0.000    1.250    0.000    9.375    0.000    3.500 
#    0.000    3.750    0.000    0.000    0.000    0.000 
#    0.000    0.000    0.000    0.000    0.000    0.000 
#
# Total GULP energy -89299.523872 kJ/mol
# GULP energy per Si atom -5581.220242 kJ/mol
# Density = 2.177916 g / cm^3
# Si number density = 21.828847 Si / 1000 Ang^3
#
#
#
# Elastic Constant Matrix: (Units=GPa)
#
#
# Indices 1 2 3 4 5 6 
#
# 1 70.9798 15.5175 45.4001 -6.5783 -8.2610 -13.7121
# 2 15.5175 114.6209 56.5834 -1.8021 3.6266 -15.5662
# 3 45.4001 56.5834 127.5384 -1.2228 3.2683 -12.0524
# 4 -6.5783 -1.8021 -1.2228 35.6540 -11.4875 -1.0326
# 5 -8.2610 3.6266 3.2683 -11.4875 49.8187 10.2500
# 6 -13.7121 -15.5662 -12.0524 -1.0326 10.2500 24.4239
#
#
#
# Elastic Compliance Matrix: (Units=1/GPa)
#
#
# Indices 1 2 3 4 5 6 
#
# 1 0.020931 0.001994 -0.007608 0.005004 0.003314 0.008088
# 2 0.001994 0.012095 -0.005389 0.000515 -0.001479 0.006811
# 3 -0.007608 -0.005389 0.012922 -0.001907 -0.002043 -0.000553
# 4 0.005004 0.000515 -0.001907 0.031568 0.008176 0.000100
# 5 0.003314 -0.001479 -0.002043 0.008176 0.024842 -0.010170
# 6 0.008088 0.006811 -0.000553 0.000100 -0.010170 0.053824
#
#
# Mechanical properties :
#
#
# Convention : Reuss Voigt Hill
#
# Bulk Modulus (GPa) = 41.76901 60.90456 51.33678
# Shear Modulus (GPa) = 26.85729 35.02187 30.93958
#
# Velocity S-wave (km/s) = 3.51145 4.00982 3.76888
# Velocity P-wave (km/s) = 5.96797 7.02850 6.51983
#
# Compressibility (1/GPa) = 0.02394120
#
# Stress axis : x y z
#
# Youngs Moduli (GPa) = 47.77618 82.68014 77.38737
#
# Poissons Ratio (x) = -0.16491 0.58879
# Poissons Ratio (y) = -0.09529 0.41708
# Poissons Ratio (z) = 0.36350 0.44560
#
# Static dielectric constant tensor:
#      x y z
#    x 1.840400 -0.035090 -0.022900 
#    y -0.035090 1.850740 -0.005550 
#    z -0.022900 -0.005550 1.855100 
# 
# From -- ./inp_files/405443.got.cif
#   From: 2010.05.17/outbox.cif.g08.bks.cpg/sg2_203_cif.got.tgz:405443.got - 2010.06.03 11:33:40.
