data_PCOD9099182
_publ_section_title
;
Structure prediction by ZEFSAII (Michael W. Deem and Ramdas Pophale) SiO2 
 PCOD9099182
Probable space group: P -1
;
_chemical_formula_sum "Si O2"
_cell_formula_units_Z 16
_cell_length_a 17.777642
_cell_length_b 10.487240
_cell_length_c 11.754312
_cell_angle_alpha 59.632487
_cell_angle_beta 32.015183
_cell_angle_gamma 42.290419
_cell_volume 734.861475
_symmetry_space_group_name_H-M "P -1"
_symmetry_group_IT_number 2
_symmetry_cell_setting 'triclinic'
loop_
_space_group_symop_operation_xyz
x,y,z
-x,-y,-z
loop_
_atom_site_type_symbol
_atom_site_label
_atom_site_fract_x
_atom_site_fract_y
_atom_site_fract_z
Si Si1 0.061292 0.328259 0.361914
Si Si2 0.501994 0.152937 0.359697
Si Si3 0.626164 0.100864 0.736393
Si Si4 0.809846 0.535369 0.228650
Si Si5 0.225797 0.784541 0.926571
Si Si6 0.800635 0.213727 0.299326
Si Si7 0.355323 0.134161 0.890224
Si Si8 0.729230 0.547550 0.844876
O O1 0.138301 0.434442 0.257005
O O2 0.837808 0.471862 0.618617
O O3 0.181240 0.120614 0.373242
O O4 0.146108 0.249568 0.162389
O O5 0.298538 0.371396 0.553992
O O6 0.660733 0.152613 0.204001
O O7 0.500000 0.000000 0.500000
O O8 0.556760 0.063258 0.204036
O O9 0.672128 0.211529 0.552318
O O10 0.499965 0.082379 0.826958
O O11 0.489396 0.241183 0.954301
O O12 0.844166 0.343505 0.235778
O O13 0.673907 0.707215 0.229223
O O14 0.000000 0.500000 0.000000
O O15 0.282060 0.713663 0.755157
O O16 0.265521 0.616383 0.030586
O O17 0.998918 0.981804 0.135190
#
# Coordination Sequence:
#
# PCOD9099182 Si02
#       8
#     2   2   2   2   2   2   2   2
#     4  10  21  40  61  92 124 159 208 254 300 361
#     4  10  21  39  58  82 121 160 197 245 310 365
#     4  11  21  38  64  94 126 156 206 259 299 365
#     4  11  23  40  59  91 125 157 200 254 308 371
#     4  11  22  37  61  91 122 157 205 258 304 365
#     4  11  21  35  62  93 120 156 202 254 315 358
#     4  10  21  39  62  86 120 169 200 245 313 360
#     4  10  20  37  59  88 123 156 200 257 300 348
#
# _framework density 21.77281
#
# number of rings (size 3 to 8) (size 9 to 14) (size 15 to 20)
#    0.000    1.500    1.250    6.750    0.000    2.500 
#    9.000    0.625    0.000    3.750    0.000    0.000 
#    0.000    0.000    0.000    0.000    0.000    0.000 
#
# Total GULP energy -89436.523346 kJ/mol
# GULP energy per Si atom -5589.782709 kJ/mol
# Density = 2.172325 g / cm^3
# Si number density = 21.772810 Si / 1000 Ang^3
#
#
#
# Elastic Constant Matrix: (Units=GPa)
#
#
# Indices 1 2 3 4 5 6 
#
# 1 48.7745 28.0415 34.2492 3.3124 15.3035 16.8816
# 2 28.0415 90.8640 26.7001 -8.2668 12.3297 18.5256
# 3 34.2492 26.7001 146.9494 7.9358 24.2341 18.7469
# 4 3.3124 -8.2668 7.9358 53.0109 9.2755 2.6087
# 5 15.3035 12.3297 24.2341 9.2755 32.9205 7.0076
# 6 16.8816 18.5256 18.7469 2.6087 7.0076 29.2845
#
#
#
# Elastic Compliance Matrix: (Units=1/GPa)
#
#
# Indices 1 2 3 4 5 6 
#
# 1 0.032772 -0.005741 -0.003903 -0.000465 -0.007768 -0.010862
# 2 -0.005741 0.014626 -0.000433 0.003371 -0.002287 -0.005419
# 3 -0.003903 -0.000433 0.008723 -0.000344 -0.003902 -0.002096
# 4 -0.000465 0.003371 -0.000344 0.020651 -0.006185 -0.002004
# 5 -0.007768 -0.002287 -0.003902 -0.006185 0.039564 -0.000494
# 6 -0.010862 -0.005419 -0.002096 -0.002004 -0.000494 0.045476
#
#
# Mechanical properties :
#
#
# Convention : Reuss Voigt Hill
#
# Bulk Modulus (GPa) = 27.80310 51.61880 39.71095
# Shear Modulus (GPa) = 25.77921 36.21632 30.99776
#
# Velocity S-wave (km/s) = 3.44468 4.08287 3.77728
# Velocity P-wave (km/s) = 5.34962 6.78129 6.10755
#
# Compressibility (1/GPa) = 0.03596721
#
# Stress axis : x y z
#
# Youngs Moduli (GPa) = 30.51388 68.37025 114.64166
#
# Poissons Ratio (x) = 0.39248 0.44747
# Poissons Ratio (y) = 0.17517 0.04966
# Poissons Ratio (z) = 0.11910 0.02962
#
# Static dielectric constant tensor:
#      x y z
#    x 1.839920 -0.015420 0.038120 
#    y -0.015420 1.792720 0.045810 
#    z 0.038120 0.045810 1.821290 
# 
# From -- ./inp_files/461978.got.cif
#   From: 2010.05.17/outbox.cif.g08.bks.cpg/sg2_231_cif.got.tgz:461978.got - 2010.06.03 11:33:40.
