data_PCOD9099350
_publ_section_title
;
Structure prediction by ZEFSAII (Michael W. Deem and Ramdas Pophale) SiO2 
 PCOD9099350
Probable space group: P -1
;
_chemical_formula_sum "Si O2"
_cell_formula_units_Z 16
_cell_length_a 9.067831
_cell_length_b 13.683097
_cell_length_c 17.244897
_cell_angle_alpha 29.908947
_cell_angle_beta 119.479916
_cell_angle_gamma 137.751720
_cell_volume 642.009650
_symmetry_space_group_name_H-M "P -1"
_symmetry_group_IT_number 2
_symmetry_cell_setting 'triclinic'
loop_
_space_group_symop_operation_xyz
x,y,z
-x,-y,-z
loop_
_atom_site_type_symbol
_atom_site_label
_atom_site_fract_x
_atom_site_fract_y
_atom_site_fract_z
Si Si1 0.428954 0.108753 0.981328
Si Si2 0.807637 0.565933 0.344868
Si Si3 0.327072 0.801703 0.301938
Si Si4 0.991530 0.131137 0.058379
Si Si5 0.567986 0.520665 0.171502
Si Si6 0.193940 0.766687 0.808940
Si Si7 0.067027 0.274769 0.365489
Si Si8 0.011052 0.033739 0.309182
O O1 0.355690 0.202227 0.966294
O O2 0.662949 0.419156 0.794791
O O3 0.221436 0.903493 0.003978
O O4 0.445933 0.924854 0.163133
O O5 0.700234 0.413788 0.504499
O O6 0.613682 0.412002 0.330578
O O7 0.045816 0.636576 0.338038
O O8 0.906461 0.864328 0.176673
O O9 0.533008 0.086812 0.212042
O O10 0.000279 0.077437 0.186466
O O11 0.255603 0.399742 0.906679
O O12 0.289747 0.305139 0.221345
O O13 0.102810 0.714330 0.733482
O O14 0.179206 0.973980 0.696552
O O15 0.000000 0.500000 0.000000
O O16 0.000000 0.000000 0.500000
O O17 0.041910 0.219351 0.489277
#
# Coordination Sequence:
#
# PCOD9099350 Si02
#       8
#     2   2   2   2   2   2   2   2
#     4  11  19  38  63  85 118 155 203 240 282 355
#     4  10  22  36  66  87 114 156 203 248 281 352
#     4  11  20  37  59  90 115 152 207 237 291 342
#     4  11  23  38  59  92 120 154 196 251 300 334
#     4  11  18  40  64  86 114 156 203 248 280 351
#     4  11  21  37  63  86 116 156 197 239 286 362
#     4  10  20  37  60  86 116 154 201 241 281 350
#     4  11  24  38  60  93 120 153 196 246 302 343
#
# _framework density 24.921744
#
# number of rings (size 3 to 8) (size 9 to 14) (size 15 to 20)
#    0.000    1.250    6.250    1.875    5.250    0.500 
#    0.000    1.875    0.000    3.750    0.000    0.000 
#    0.000    0.000    0.000    0.000    0.000    0.000 
#
# Total GULP energy -89249.674585 kJ/mol
# GULP energy per Si atom -5578.104662 kJ/mol
# Density = 2.486502 g / cm^3
# Si number density = 24.921744 Si / 1000 Ang^3
#
#
#
# Elastic Constant Matrix: (Units=GPa)
#
#
# Indices 1 2 3 4 5 6 
#
# 1 38.9645 30.7453 15.4952 -1.8724 -15.6405 3.7450
# 2 30.7453 167.0764 53.3808 33.2837 -19.0330 29.5119
# 3 15.4952 53.3808 158.4436 29.2423 -22.7993 9.7084
# 4 -1.8724 33.2837 29.2423 61.9598 -1.1708 -2.7654
# 5 -15.6405 -19.0330 -22.7993 -1.1708 28.8577 2.8897
# 6 3.7450 29.5119 9.7084 -2.7654 2.8897 26.2498
#
#
#
# Elastic Compliance Matrix: (Units=1/GPa)
#
#
# Indices 1 2 3 4 5 6 
#
# 1 0.037116 -0.005853 -0.000175 0.004658 0.016302 0.000046
# 2 -0.005853 0.011402 -0.000555 -0.006527 0.004947 -0.013010
# 3 -0.000175 -0.000555 0.008316 -0.003669 0.006312 -0.003508
# 4 0.004658 -0.006527 -0.003669 0.021911 -0.004879 0.010876
# 5 0.016302 0.004947 0.006312 -0.004879 0.053201 -0.016592
# 6 0.000046 -0.013010 -0.003508 0.010876 -0.016592 0.056986
#
#
# Mechanical properties :
#
#
# Convention : Reuss Voigt Hill
#
# Bulk Modulus (GPa) = 22.90066 62.63634 42.76850
# Shear Modulus (GPa) = 23.07839 41.07101 32.07470
#
# Velocity S-wave (km/s) = 3.04638 4.06396 3.59139
# Velocity P-wave (km/s) = 4.64574 6.87087 5.86480
#
# Compressibility (1/GPa) = 0.04366687
#
# Stress axis : x y z
#
# Youngs Moduli (GPa) = 26.94287 87.70637 120.25274
#
# Poissons Ratio (x) = 0.51337 0.02099
# Poissons Ratio (y) = 0.15770 0.06677
# Poissons Ratio (z) = 0.00470 0.04870
#
# Static dielectric constant tensor:
#      x y z
#    x 2.045890 0.013940 0.023040 
#    y 0.013940 2.020310 0.038670 
#    z 0.023040 0.038670 2.032870 
# 
# From -- ./inp_files/216467.got.cif
#   From: 2010.05.17/outbox.cif.g08.bks.cpg/sg2_109_cif.got.tgz:216467.got - 2010.06.03 11:33:40.
