data_PCOD9099870
_publ_section_title
;
Structure prediction by ZEFSAII (Michael W. Deem and Ramdas Pophale) SiO2 
 PCOD9099870
Probable space group: P -1
;
_chemical_formula_sum "Si O2"
_cell_formula_units_Z 14
_cell_length_a 16.059767
_cell_length_b 5.661590
_cell_length_c 7.011157
_cell_angle_alpha 109.220644
_cell_angle_beta 77.436907
_cell_angle_gamma 92.365116
_cell_volume 587.215765
_symmetry_space_group_name_H-M "P -1"
_symmetry_group_IT_number 2
_symmetry_cell_setting 'triclinic'
loop_
_space_group_symop_operation_xyz
x,y,z
-x,-y,-z
loop_
_atom_site_type_symbol
_atom_site_label
_atom_site_fract_x
_atom_site_fract_y
_atom_site_fract_z
Si Si1 0.915732 0.326323 0.712755
Si Si2 0.663783 0.332391 0.964857
Si Si3 0.113044 0.251208 0.468982
Si Si4 0.626214 0.394889 0.567413
Si Si5 0.563618 0.688028 0.339873
Si Si6 0.294782 0.991080 0.846361
Si Si7 0.823973 0.622510 0.124676
O O1 0.875493 0.537038 0.642861
O O2 0.014071 0.286239 0.594024
O O3 0.876674 0.047929 0.659524
O O4 0.903269 0.464438 0.958211
O O5 0.578860 0.425353 0.146046
O O6 0.744631 0.463623 0.052806
O O7 0.683315 0.052953 0.954748
O O8 0.658662 0.401449 0.767063
O O9 0.168960 0.320394 0.642134
O O10 0.598002 0.639511 0.524074
O O11 0.536278 0.251597 0.591319
O O12 0.693633 0.247917 0.361221
O O13 0.627856 0.851853 0.234252
O O14 0.201663 0.113688 0.892498
#
# Coordination Sequence:
#
# PCOD9099870 Si02
#       7
#     2   2   2   2   2   2   2
#     4  10  24  44  71 101 129 177 221 269 330 389
#     4  10  23  37  57  91 124 166 217 264 329 396
#     4  10  24  45  70 100 133 171 226 269 323 398
#     4  10  20  37  62  82 124 167 217 269 328 388
#     4   9  20  39  57  86 118 168 214 277 321 380
#     4  10  23  37  56  91 125 165 216 264 329 390
#     4  11  25  39  65  92 136 168 212 269 330 393
#
# _framework density 23.841321000000001
#
# number of rings (size 3 to 8) (size 9 to 14) (size 15 to 20)
#    0.000    2.000    0.000    1.286    6.000    5.143 
#    0.000    4.286    0.000    0.000    0.000    0.000 
#    0.000    0.000    0.000    0.000    0.000    0.000 
#
# Total GULP energy -78079.803086 kJ/mol
# GULP energy per Si atom -5577.128792 kJ/mol
# Density = 2.378706 g / cm^3
# Si number density = 23.841321 Si / 1000 Ang^3
#
#
#
# Elastic Constant Matrix: (Units=GPa)
#
#
# Indices 1 2 3 4 5 6 
#
# 1 68.1572 37.4942 35.4781 -0.8027 9.8287 -0.6030
# 2 37.4942 100.1388 32.4949 -4.8409 10.7085 -5.3123
# 3 35.4781 32.4949 95.6383 -5.6510 10.6117 -8.1106
# 4 -0.8027 -4.8409 -5.6510 36.7185 -14.1743 -11.5042
# 5 9.8287 10.7085 10.6117 -14.1743 42.6295 1.3097
# 6 -0.6030 -5.3123 -8.1106 -11.5042 1.3097 27.4671
#
#
#
# Elastic Compliance Matrix: (Units=1/GPa)
#
#
# Indices 1 2 3 4 5 6 
#
# 1 0.021616 -0.006165 -0.006140 -0.003677 -0.003009 -0.003928
# 2 -0.006165 0.013196 -0.001756 0.001822 -0.000934 0.002706
# 3 -0.006140 -0.001756 0.014019 0.003055 -0.000770 0.004982
# 4 -0.003677 0.001822 0.003055 0.037442 0.011578 0.016304
# 5 -0.003009 -0.000934 -0.000770 0.011578 0.028335 0.003024
# 6 -0.003928 0.002706 0.004982 0.016304 0.003024 0.045000
#
#
# Mechanical properties :
#
#
# Convention : Reuss Voigt Hill
#
# Bulk Modulus (GPa) = 48.29135 52.76318 50.52726
# Shear Modulus (GPa) = 25.68957 31.92750 28.80854
#
# Velocity S-wave (km/s) = 3.28613 3.66343 3.47990
# Velocity P-wave (km/s) = 5.89045 6.33035 6.11436
#
# Compressibility (1/GPa) = 0.02070764
#
# Stress axis : x y z
#
# Youngs Moduli (GPa) = 46.26290 75.78211 71.33243
#
# Poissons Ratio (x) = 0.46721 0.43801
# Poissons Ratio (y) = 0.28522 0.12524
# Poissons Ratio (z) = 0.28407 0.13305
#
# Static dielectric constant tensor:
#      x y z
#    x 1.890100 0.006740 -0.022180 
#    y 0.006740 2.234990 0.041960 
#    z -0.022180 0.041960 1.911520 
# 
# From -- ./inp_files/7504.got.cif
#   From: 2010.05.17/outbox.cif.g08.bks.cpg/sg2_4_cif.got.tgz:7504.got - 2010.06.03 11:33:40.
