data_PCOD9099750
_publ_section_title
;
Structure prediction by ZEFSAII (Michael W. Deem and Ramdas Pophale) SiO2 
 PCOD9099750
Probable space group: P -1
;
_chemical_formula_sum "Si O2"
_cell_formula_units_Z 16
_cell_length_a 11.861080
_cell_length_b 13.199760
_cell_length_c 11.947697
_cell_angle_alpha 74.092814
_cell_angle_beta 135.903406
_cell_angle_gamma 70.339661
_cell_volume 756.306689
_symmetry_space_group_name_H-M "P -1"
_symmetry_group_IT_number 2
_symmetry_cell_setting 'triclinic'
loop_
_space_group_symop_operation_xyz
x,y,z
-x,-y,-z
loop_
_atom_site_type_symbol
_atom_site_label
_atom_site_fract_x
_atom_site_fract_y
_atom_site_fract_z
Si Si1 0.822330 0.690191 0.060716
Si Si2 0.495069 0.164461 0.517232
Si Si3 0.740807 0.386072 0.013128
Si Si4 0.181021 0.304534 0.453491
Si Si5 0.386779 0.769144 0.614655
Si Si6 0.154351 0.902958 0.756591
Si Si7 0.634681 0.817919 0.133704
Si Si8 0.931708 0.764429 0.914549
O O1 0.791188 0.735233 0.153841
O O2 0.024313 0.489746 0.250985
O O3 0.543029 0.784470 0.785912
O O4 0.936337 0.726219 0.057354
O O5 0.457779 0.171490 0.621672
O O6 0.539906 0.250137 0.458155
O O7 0.220443 0.255635 0.246333
O O8 0.733847 0.965937 0.706535
O O9 0.726272 0.275865 0.083835
O O10 0.004754 0.297506 0.288799
O O11 0.810880 0.345399 0.943125
O O12 0.506211 0.595316 0.795120
O O13 0.200569 0.290546 0.604269
O O14 0.073871 0.947721 0.361077
O O15 0.402028 0.852730 0.950333
O O16 0.000000 0.000000 0.500000
O O17 0.500000 0.000000 0.000000
#
# Coordination Sequence:
#
# PCOD9099750 Si02
#       8
#     2   2   2   2   2   2   2   2
#     4  10  20  37  61  91 122 158 205 250 293 355
#     4   9  16  30  60  91 124 152 197 249 296 355
#     4  10  21  39  66  95 121 153 201 256 304 350
#     4  10  21  37  60  93 122 159 200 246 302 361
#     4  10  20  38  63  96 120 156 205 253 301 349
#     4  12  24  42  63  88 124 160 203 251 299 361
#     4  12  25  42  60  84 122 165 203 243 304 365
#     4   9  16  30  62  93 118 154 198 251 297 343
#
# _framework density 21.155439000000001
#
# number of rings (size 3 to 8) (size 9 to 14) (size 15 to 20)
#    0.000    1.750    2.500    2.625    1.750    3.500 
#    4.500    0.625    0.000    1.500    0.000    0.000 
#    0.000    0.000    0.000    0.000    0.000    0.000 
#
# Total GULP energy -89293.840503 kJ/mol
# GULP energy per Si atom -5580.865031 kJ/mol
# Density = 2.110729 g / cm^3
# Si number density = 21.155439 Si / 1000 Ang^3
#
#
#
# Elastic Constant Matrix: (Units=GPa)
#
#
# Indices 1 2 3 4 5 6 
#
# 1 109.1805 39.5857 14.2672 13.8179 -28.1630 8.2612
# 2 39.5857 74.2061 4.2364 -5.8555 -7.0691 9.1486
# 3 14.2672 4.2364 22.9523 2.3590 -15.7819 9.3144
# 4 13.8179 -5.8555 2.3590 17.9967 0.8138 -12.7898
# 5 -28.1630 -7.0691 -15.7819 0.8138 21.6166 -4.3189
# 6 8.2612 9.1486 9.3144 -12.7898 -4.3189 48.6166
#
#
#
# Elastic Compliance Matrix: (Units=1/GPa)
#
#
# Indices 1 2 3 4 5 6 
#
# 1 0.038451 -0.018040 0.046526 -0.059888 0.076216 -0.021037
# 2 -0.018040 0.022808 -0.020561 0.031175 -0.030591 0.008196
# 3 0.046526 -0.020561 0.165108 -0.106247 0.168719 -0.048632
# 4 -0.059888 0.031175 -0.106247 0.172971 -0.140382 0.057699
# 5 0.076216 -0.030591 0.168719 -0.140382 0.253238 -0.053953
# 6 -0.021037 0.008196 -0.048632 0.057699 -0.053953 0.042305
#
#
# Mechanical properties :
#
#
# Convention : Reuss Voigt Hill
#
# Bulk Modulus (GPa) = 4.12849 35.83527 19.98188
# Shear Modulus (GPa) = 6.58094 27.52929 17.05511
#
# Velocity S-wave (km/s) = 1.76565 3.61125 2.84241
# Velocity P-wave (km/s) = 2.47233 5.86208 4.49869
#
# Compressibility (1/GPa) = 0.24221925
#
# Stress axis : x y z
#
# Youngs Moduli (GPa) = 26.00721 43.84349 6.05663
#
# Poissons Ratio (x) = 0.79092 -0.28179
# Poissons Ratio (y) = 0.46916 0.12453
# Poissons Ratio (z) = -1.21002 0.90147
#
# Static dielectric constant tensor:
#      x y z
#    x 1.748710 -0.068090 0.045950 
#    y -0.068090 1.778600 0.031720 
#    z 0.045950 0.031720 1.696150 
# 
# From -- ./inp_files/279349.got.cif
#   From: 2010.05.17/outbox.cif.g08.bks.cpg/sg2_140_cif.got.tgz:279349.got - 2010.06.03 11:33:40.
