data_PCOD9099893
_publ_section_title
;
Structure prediction by ZEFSAII (Michael W. Deem and Ramdas Pophale) SiO2 
 PCOD9099893
Probable space group: P -1
;
_chemical_formula_sum "Si O2"
_cell_formula_units_Z 16
_cell_length_a 12.940618
_cell_length_b 8.619361
_cell_length_c 9.215944
_cell_angle_alpha 112.136001
_cell_angle_beta 42.881375
_cell_angle_gamma 99.404719
_cell_volume 637.498822
_symmetry_space_group_name_H-M "P -1"
_symmetry_group_IT_number 2
_symmetry_cell_setting 'triclinic'
loop_
_space_group_symop_operation_xyz
x,y,z
-x,-y,-z
loop_
_atom_site_type_symbol
_atom_site_label
_atom_site_fract_x
_atom_site_fract_y
_atom_site_fract_z
Si Si1 0.450351 0.303631 0.417404
Si Si2 0.103068 0.607559 0.229845
Si Si3 0.799302 0.218814 0.070324
Si Si4 0.541628 0.368091 0.042018
Si Si5 0.236627 0.259508 0.874561
Si Si6 0.948969 0.902116 0.657080
Si Si7 0.502507 0.103472 0.772576
Si Si8 0.176214 0.908830 0.692872
O O1 0.623228 0.311836 0.294052
O O2 0.443528 0.396552 0.301753
O O3 0.322219 0.345111 0.688164
O O4 0.460954 0.099043 0.318316
O O5 0.968917 0.710918 0.505330
O O6 0.093053 0.687209 0.106645
O O7 0.275038 0.639385 0.115690
O O8 0.117120 0.406526 0.127282
O O9 0.854415 0.188569 0.165747
O O10 0.804546 0.035551 0.916368
O O11 0.500000 0.500000 0.000000
O O12 0.499898 0.194267 0.961111
O O13 0.363390 0.179232 0.835089
O O14 0.174136 0.102358 0.814406
O O15 0.067473 0.896065 0.665346
O O16 0.000000 0.000000 0.500000
O O17 0.650329 0.154472 0.558834
#
# Coordination Sequence:
#
# PCOD9099893 Si02
#       8
#     2   2   2   2   2   2   2   2
#     4  10  21  36  57  90 119 157 194 237 297 352
#     4  10  22  38  57  86 122 155 192 244 299 337
#     4  10  20  37  62  86 111 158 202 245 278 354
#     4  11  21  33  55  87 125 157 187 240 295 355
#     4  11  21  38  60  92 126 149 186 251 301 353
#     4  10  22  41  61  84 113 157 207 241 282 349
#     4  11  19  36  59  89 123 152 192 238 294 363
#     4  11  20  38  64  87 112 156 202 238 294 347
#
# _framework density 25.098087
#
# number of rings (size 3 to 8) (size 9 to 14) (size 15 to 20)
#    0.000    1.500    5.000    1.500    0.000    3.000 
#    0.000    3.125    0.000    0.000    0.000    0.000 
#    0.000    0.000    0.000    0.000    0.000    0.000 
#
# Total GULP energy -89475.534713 kJ/mol
# GULP energy per Si atom -5592.220920 kJ/mol
# Density = 2.504096 g / cm^3
# Si number density = 25.098087 Si / 1000 Ang^3
#
#
#
# Elastic Constant Matrix: (Units=GPa)
#
#
# Indices 1 2 3 4 5 6 
#
# 1 62.2531 29.2214 16.5320 -14.7235 28.1798 -15.6702
# 2 29.2214 89.1188 21.9568 -4.8647 24.5805 -26.0848
# 3 16.5320 21.9568 98.7522 1.2262 27.9287 -22.8763
# 4 -14.7235 -4.8647 1.2262 56.9911 -1.1821 18.1403
# 5 28.1798 24.5805 27.9287 -1.1821 37.8466 -0.4634
# 6 -15.6702 -26.0848 -22.8763 18.1403 -0.4634 31.5730
#
#
#
# Elastic Compliance Matrix: (Units=1/GPa)
#
#
# Indices 1 2 3 4 5 6 
#
# 1 0.033834 0.003635 0.009176 -0.000135 -0.034010 0.026022
# 2 0.003635 0.023151 0.008167 -0.007570 -0.023628 0.030851
# 3 0.009176 0.008167 0.022238 -0.008069 -0.028412 0.031633
# 4 -0.000135 -0.007570 -0.008069 0.025818 0.011449 -0.026833
# 5 -0.034010 -0.023628 -0.028412 0.011449 0.087653 -0.062278
# 6 0.026022 0.030851 0.031633 -0.026833 -0.062278 0.107499
#
#
# Mechanical properties :
#
#
# Convention : Reuss Voigt Hill
#
# Bulk Modulus (GPa) = 8.25223 42.83828 25.54526
# Shear Modulus (GPa) = 16.74322 37.44306 27.09314
#
# Velocity S-wave (km/s) = 2.58565 3.86666 3.28912
# Velocity P-wave (km/s) = 3.49418 6.08606 4.96233
#
# Compressibility (1/GPa) = 0.12117934
#
# Stress axis : x y z
#
# Youngs Moduli (GPa) = 29.55614 43.19538 44.96872
#
# Poissons Ratio (x) = -0.15702 -0.41264
# Poissons Ratio (y) = -0.10744 -0.36727
# Poissons Ratio (z) = -0.27121 -0.35279
#
# Static dielectric constant tensor:
#      x y z
#    x 1.940630 0.021430 -0.022360 
#    y 0.021430 2.063770 0.034120 
#    z -0.022360 0.034120 2.008410 
# 
# From -- ./inp_files/206997.got.cif
#   From: 2010.05.17/outbox.cif.g08.bks.cpg/sg2_104_cif.got.tgz:206997.got - 2010.06.03 11:33:40.
