data_PCOD9099667
_publ_section_title
;
Structure prediction by ZEFSAII (Michael W. Deem and Ramdas Pophale) SiO2 
 PCOD9099667
Probable space group: P -1
;
_chemical_formula_sum "Si O2"
_cell_formula_units_Z 16
_cell_length_a 11.016613
_cell_length_b 7.358968
_cell_length_c 13.291302
_cell_angle_alpha 57.078688
_cell_angle_beta 59.830257
_cell_angle_gamma 49.678527
_cell_volume 670.177749
_symmetry_space_group_name_H-M "P -1"
_symmetry_group_IT_number 2
_symmetry_cell_setting 'triclinic'
loop_
_space_group_symop_operation_xyz
x,y,z
-x,-y,-z
loop_
_atom_site_type_symbol
_atom_site_label
_atom_site_fract_x
_atom_site_fract_y
_atom_site_fract_z
Si Si1 0.167267 0.521209 0.369689
Si Si2 0.666244 0.916882 0.019087
Si Si3 0.107922 0.434609 0.203833
Si Si4 0.180397 0.648296 0.933706
Si Si5 0.476651 0.562360 0.737178
Si Si6 0.550317 0.055523 0.747048
Si Si7 0.646911 0.007188 0.490108
Si Si8 0.067243 0.048904 0.217730
O O1 0.078675 0.521600 0.303931
O O2 0.360947 0.434602 0.301406
O O3 0.090832 0.812808 0.343962
O O4 0.194459 0.276457 0.493361
O O5 0.787663 0.617491 0.045252
O O6 0.607702 0.957717 0.147244
O O7 0.766125 0.031388 0.891847
O O8 0.500000 0.000000 0.000000
O O9 0.023654 0.290104 0.233755
O O10 0.295662 0.201954 0.199500
O O11 0.100157 0.651655 0.071800
O O12 0.360536 0.608396 0.866912
O O13 0.064423 0.864996 0.841168
O O14 0.530894 0.298071 0.739846
O O15 0.360442 0.769487 0.639054
O O16 0.591539 0.077485 0.607915
O O17 0.500000 0.000000 0.500000
#
# Coordination Sequence:
#
# PCOD9099667 Si02
#       8
#     2   2   2   2   2   2   2   2
#     4  10  21  35  60  82 108 149 194 236 278 330
#     4  10  16  31  56  88 112 142 187 225 276 341
#     4  10  19  34  55  86 112 144 190 225 286 330
#     4  10  21  33  56  84 120 155 182 224 283 345
#     4  10  19  37  58  85 111 146 193 235 282 332
#     4  10  17  31  60  86 109 144 182 239 286 329
#     4   9  20  36  53  86 113 138 194 249 278 319
#     4  11  20  37  55  82 123 153 180 229 281 343
#
# _framework density 23.874262000000002
#
# number of rings (size 3 to 8) (size 9 to 14) (size 15 to 20)
#    0.000    2.000    3.750    2.625    0.000    1.000 
#    4.500    0.625    8.250    3.000    3.250    0.000 
#    0.000    0.000    0.000    0.000    0.000    0.000 
#
# Total GULP energy -89198.235615 kJ/mol
# GULP energy per Si atom -5574.889726 kJ/mol
# Density = 2.381992 g / cm^3
# Si number density = 23.874262 Si / 1000 Ang^3
#
#
#
# Elastic Constant Matrix: (Units=GPa)
#
#
# Indices 1 2 3 4 5 6 
#
# 1 65.2845 22.5462 25.1495 7.7194 -6.2420 3.4909
# 2 22.5462 65.4358 34.2140 -7.7460 -0.8856 11.0901
# 3 25.1495 34.2140 108.6826 -14.7175 -0.3028 -1.9416
# 4 7.7194 -7.7460 -14.7175 41.8956 -8.0760 0.4857
# 5 -6.2420 -0.8856 -0.3028 -8.0760 35.7711 -1.6194
# 6 3.4909 11.0901 -1.9416 0.4857 -1.6194 27.4749
#
#
#
# Elastic Compliance Matrix: (Units=1/GPa)
#
#
# Indices 1 2 3 4 5 6 
#
# 1 0.019386 -0.005400 -0.003521 -0.005421 0.001981 -0.000320
# 2 -0.005400 0.021746 -0.005312 0.003228 -0.000106 -0.008530
# 3 -0.003521 -0.005312 0.012296 0.004028 0.000422 0.003414
# 4 -0.005421 0.003228 0.004028 0.027936 0.005452 -0.000502
# 5 0.001981 -0.000106 0.000422 0.005452 0.029600 0.001469
# 6 -0.000320 -0.008530 0.003414 -0.000502 0.001469 0.040218
#
#
# Mechanical properties :
#
#
# Convention : Reuss Voigt Hill
#
# Bulk Modulus (GPa) = 40.05781 44.80248 42.43014
# Shear Modulus (GPa) = 26.60039 31.52787 29.06413
#
# Velocity S-wave (km/s) = 3.34157 3.63792 3.49289
# Velocity P-wave (km/s) = 5.63056 6.03761 5.83763
#
# Compressibility (1/GPa) = 0.02496392
#
# Stress axis : x y z
#
# Youngs Moduli (GPa) = 51.58337 45.98447 81.32985
#
# Poissons Ratio (x) = 0.24830 0.28633
# Poissons Ratio (y) = 0.27853 0.43203
# Poissons Ratio (z) = 0.18160 0.24427
#
# Static dielectric constant tensor:
#      x y z
#    x 1.962840 0.034390 0.011180 
#    y 0.034390 1.980410 0.040180 
#    z 0.011180 0.040180 2.072350 
# 
# From -- ./inp_files/499058.got.cif
#   From: 2010.05.17/outbox.cif.g08.bks.cpg/sg2_250_cif.got.tgz:499058.got - 2010.06.03 11:33:40.
