data_PCOD9099119
_publ_section_title
;
Structure prediction by ZEFSAII (Michael W. Deem and Ramdas Pophale) SiO2 
 PCOD9099119
Probable space group: P -1
;
_chemical_formula_sum "Si O2"
_cell_formula_units_Z 16
_cell_length_a 11.192383
_cell_length_b 20.133531
_cell_length_c 23.201133
_cell_angle_alpha 162.116862
_cell_angle_beta 151.942171
_cell_angle_gamma 35.132375
_cell_volume 746.325643
_symmetry_space_group_name_H-M "P -1"
_symmetry_group_IT_number 2
_symmetry_cell_setting 'triclinic'
loop_
_space_group_symop_operation_xyz
x,y,z
-x,-y,-z
loop_
_atom_site_type_symbol
_atom_site_label
_atom_site_fract_x
_atom_site_fract_y
_atom_site_fract_z
Si Si1 0.171775 0.285523 0.647483
Si Si2 0.527351 0.685501 0.079771
Si Si3 0.477123 0.871209 0.532830
Si Si4 0.130256 0.035950 0.318176
Si Si5 0.899442 0.718564 0.158377
Si Si6 0.658925 0.235702 0.246570
Si Si7 0.800480 0.563556 0.770905
Si Si8 0.433091 0.410696 0.189178
O O1 0.335992 0.288869 0.778285
O O2 0.140421 0.063685 0.414244
O O3 0.912490 0.373475 0.628934
O O4 0.325127 0.467735 0.820779
O O5 0.732362 0.675944 0.109135
O O6 0.404437 0.906670 0.200543
O O7 0.599406 0.899649 0.545045
O O8 0.534978 0.642003 0.393628
O O9 0.169749 0.873117 0.408350
O O10 0.943720 0.208323 0.361787
O O11 0.999361 0.792478 0.041916
O O12 0.708311 0.755841 0.055791
O O13 0.000000 0.500000 0.000000
O O14 0.486698 0.399049 0.338750
O O15 0.629529 0.298508 0.218929
O O16 0.500000 0.000000 0.000000
O O17 0.764787 0.527912 0.795186
#
# Coordination Sequence:
#
# PCOD9099119 Si02
#       8
#     2   2   2   2   2   2   2   2
#     4  11  22  38  62  89 127 159 201 253 294 355
#     4  11  24  38  55  91 128 160 200 247 296 364
#     4  11  22  37  58  90 124 161 196 249 297 364
#     4  11  22  39  66  90 118 162 205 245 309 347
#     4  10  20  37  59  85 120 161 197 236 307 361
#     4   8  19  39  64  89 115 158 201 252 299 354
#     4   9  20  41  60  89 121 152 201 252 294 355
#     4   9  20  39  63  85 122 158 197 250 300 359
#
# _framework density 21.438364
#
# number of rings (size 3 to 8) (size 9 to 14) (size 15 to 20)
#    0.750    1.250    1.250    3.375    1.750    2.500 
#    0.000    0.000    2.750    1.500    0.000    0.000 
#    0.000    0.000    0.000    0.000    0.000    0.000 
#
# Total GULP energy -89148.085821 kJ/mol
# GULP energy per Si atom -5571.755364 kJ/mol
# Density = 2.138957 g / cm^3
# Si number density = 21.438364 Si / 1000 Ang^3
#
#
#
# Elastic Constant Matrix: (Units=GPa)
#
#
# Indices 1 2 3 4 5 6 
#
# 1 138.1885 13.9308 17.4545 -3.1303 2.6734 -2.0392
# 2 13.9308 77.7400 7.9142 -9.3369 -1.4790 3.7845
# 3 17.4545 7.9142 41.5933 9.9369 6.7277 9.1823
# 4 -3.1303 -9.3369 9.9369 29.9968 2.3588 0.9456
# 5 2.6734 -1.4790 6.7277 2.3588 25.8821 1.5606
# 6 -2.0392 3.7845 9.1823 0.9456 1.5606 28.4713
#
#
#
# Elastic Compliance Matrix: (Units=1/GPa)
#
#
# Indices 1 2 3 4 5 6 
#
# 1 0.007901 -0.000887 -0.003986 0.001817 -0.000112 0.001915
# 2 -0.000887 0.014117 -0.003607 0.005419 0.001405 -0.001034
# 3 -0.003986 -0.003607 0.032285 -0.011418 -0.006574 -0.009479
# 4 0.001817 0.005419 -0.011418 0.038983 -0.000573 0.001829
# 5 -0.000112 0.001405 -0.006574 -0.000573 0.040506 -0.000276
# 6 0.001915 -0.001034 -0.009479 0.001829 -0.000276 0.038409
#
#
# Mechanical properties :
#
#
# Convention : Reuss Voigt Hill
#
# Bulk Modulus (GPa) = 26.77882 37.34675 32.06279
# Shear Modulus (GPa) = 24.80038 31.41820 28.10929
#
# Velocity S-wave (km/s) = 3.40490 3.83235 3.62493
# Velocity P-wave (km/s) = 5.28923 6.08613 5.70162
#
# Compressibility (1/GPa) = 0.03734294
#
# Stress axis : x y z
#
# Youngs Moduli (GPa) = 126.56743 70.83414 30.97412
#
# Poissons Ratio (x) = 0.06284 0.12345
# Poissons Ratio (y) = 0.11229 0.11174
# Poissons Ratio (z) = 0.50444 0.25553
#
# Static dielectric constant tensor:
#      x y z
#    x 1.785160 0.007680 -0.007570 
#    y 0.007680 1.849070 -0.025580 
#    z -0.007570 -0.025580 1.892080 
# 
# From -- ./inp_files/610925.got.cif
#   From: 2010.05.17/outbox.cif.g08.bks.cpg/sg2_306_cif.got.tgz:610925.got - 2010.06.03 11:33:40.
