data_PCOD9099656
_publ_section_title
;
Structure prediction by ZEFSAII (Michael W. Deem and Ramdas Pophale) SiO2 
 PCOD9099656
Probable space group: P -1
;
_chemical_formula_sum "Si O2"
_cell_formula_units_Z 14
_cell_length_a 9.638718
_cell_length_b 17.359468
_cell_length_c 8.662810
_cell_angle_alpha 70.889796
_cell_angle_beta 31.063915
_cell_angle_gamma 81.593128
_cell_volume 679.396414
_symmetry_space_group_name_H-M "P -1"
_symmetry_group_IT_number 2
_symmetry_cell_setting 'triclinic'
loop_
_space_group_symop_operation_xyz
x,y,z
-x,-y,-z
loop_
_atom_site_type_symbol
_atom_site_label
_atom_site_fract_x
_atom_site_fract_y
_atom_site_fract_z
Si Si1 0.784299 0.302239 0.242297
Si Si2 0.453605 0.117173 0.705642
Si Si3 0.960010 0.257150 0.761083
Si Si4 0.121811 0.980928 0.558515
Si Si5 0.353923 0.414255 0.608397
Si Si6 0.384609 0.143911 0.402509
Si Si7 0.208298 0.446426 0.380416
O O1 0.616687 0.212983 0.533354
O O2 0.574938 0.361027 0.398991
O O3 0.866409 0.277814 0.008426
O O4 0.081402 0.355022 0.993445
O O5 0.465490 0.110747 0.512051
O O6 0.608912 0.054786 0.678409
O O7 0.128720 0.090255 0.075825
O O8 0.195271 0.207370 0.575878
O O9 0.090776 0.348947 0.500072
O O10 0.671399 0.195890 0.011541
O O11 0.208594 0.065838 0.521866
O O12 0.000000 0.000000 0.500000
O O13 0.500000 0.500000 0.500000
O O14 0.245435 0.440001 0.532422
O O15 0.000000 0.500000 0.500000
O O16 0.500000 0.500000 0.000000
#
# Coordination Sequence:
#
# PCOD9099656 Si02
#       7
#     2   2   2   2   2   2   2
#     4  10  20  38  62  87 113 150 198 246 282 328
#     4  11  21  40  64  85 109 155 204 237 275 344
#     4  10  20  37  61  88 114 149 197 248 283 325
#     4  12  25  40  57  88 126 153 179 237 305 349
#     4  11  22  39  60  88 120 153 191 240 291 341
#     4  11  21  39  64  87 109 151 205 243 275 337
#     4  11  21  37  58  85 117 153 190 235 287 342
#
# _framework density 20.606525000000001
#
# number of rings (size 3 to 8) (size 9 to 14) (size 15 to 20)
#    0.000    1.143    0.000   11.143    0.000    0.000 
#    0.000    8.571    0.000    0.000    0.000    0.000 
#    0.000    0.000    0.000    0.000    0.000    0.000 
#
# Total GULP energy -78231.961287 kJ/mol
# GULP energy per Si atom -5587.997235 kJ/mol
# Density = 2.055962 g / cm^3
# Si number density = 20.606525 Si / 1000 Ang^3
#
#
#
# Elastic Constant Matrix: (Units=GPa)
#
#
# Indices 1 2 3 4 5 6 
#
# 1 73.7987 38.2166 12.4097 -4.4381 -16.5560 0.9702
# 2 38.2166 119.0778 17.7882 0.8057 -15.9956 -12.6233
# 3 12.4097 17.7882 119.3159 -23.3893 -31.1831 2.7754
# 4 -4.4381 0.8057 -23.3893 47.4932 -5.2192 -22.4453
# 5 -16.5560 -15.9956 -31.1831 -5.2192 29.4712 -4.1404
# 6 0.9702 -12.6233 2.7754 -22.4453 -4.1404 30.0266
#
#
#
# Elastic Compliance Matrix: (Units=1/GPa)
#
#
# Indices 1 2 3 4 5 6 
#
# 1 0.018658 -0.004171 0.003764 0.007546 0.014225 0.004898
# 2 -0.004171 0.011767 0.002079 0.006678 0.008988 0.011120
# 3 0.003764 0.002079 0.020036 0.023476 0.031522 0.020795
# 4 0.007546 0.006678 0.023476 0.065804 0.052336 0.056799
# 5 0.014225 0.008988 0.031522 0.052336 0.096851 0.052882
# 6 0.004898 0.011120 0.020795 0.056799 0.052882 0.085649
#
#
# Mechanical properties :
#
#
# Convention : Reuss Voigt Hill
#
# Bulk Modulus (GPa) = 18.58576 49.89127 34.23851
# Shear Modulus (GPa) = 15.95624 37.65007 26.80316
#
# Velocity S-wave (km/s) = 2.78570 4.27909 3.61045
# Velocity P-wave (km/s) = 4.40292 6.97697 5.83369
#
# Compressibility (1/GPa) = 0.05380463
#
# Stress axis : x y z
#
# Youngs Moduli (GPa) = 53.59575 84.98263 49.90994
#
# Poissons Ratio (x) = 0.35450 -0.18788
# Poissons Ratio (y) = 0.22357 -0.10375
# Poissons Ratio (z) = -0.20175 -0.17666
#
# Static dielectric constant tensor:
#      x y z
#    x 1.738920 0.025560 0.007090 
#    y 0.025560 1.722520 -0.037270 
#    z 0.007090 -0.037270 1.792860 
# 
# From -- ./inp_files/127143.got.cif
#   From: 2010.05.17/outbox.cif.g08.bks.cpg/sg2_64_cif.got.tgz:127143.got - 2010.06.03 11:33:40.
