data_PCOD9099107
_publ_section_title
;
Structure prediction by ZEFSAII (Michael W. Deem and Ramdas Pophale) SiO2 
 PCOD9099107
Probable space group: P -1
;
_chemical_formula_sum "Si O2"
_cell_formula_units_Z 16
_cell_length_a 13.018007
_cell_length_b 8.694928
_cell_length_c 10.970530
_cell_angle_alpha 108.862854
_cell_angle_beta 139.667606
_cell_angle_gamma 51.615265
_cell_volume 601.801844
_symmetry_space_group_name_H-M "P -1"
_symmetry_group_IT_number 2
_symmetry_cell_setting 'triclinic'
loop_
_space_group_symop_operation_xyz
x,y,z
-x,-y,-z
loop_
_atom_site_type_symbol
_atom_site_label
_atom_site_fract_x
_atom_site_fract_y
_atom_site_fract_z
Si Si1 0.826729 0.206295 0.967546
Si Si2 0.260118 0.965618 0.771257
Si Si3 0.722750 0.559416 0.819801
Si Si4 0.258621 0.654548 0.808770
Si Si5 0.403969 0.832783 0.443660
Si Si6 0.265495 0.246189 0.444265
Si Si7 0.322607 0.252439 0.766015
Si Si8 0.984635 0.668350 0.183216
O O1 0.795853 0.414448 0.964363
O O2 0.640239 0.253591 0.731745
O O3 0.817142 0.204277 0.102812
O O4 0.000000 0.000000 0.000000
O O5 0.218147 0.796628 0.690857
O O6 0.242641 0.119994 0.692955
O O7 0.112438 0.126307 0.781365
O O8 0.488860 0.838911 0.996720
O O9 0.488649 0.703663 0.611464
O O10 0.845711 0.398033 0.779289
O O11 0.810925 0.682387 0.956026
O O12 0.197291 0.501849 0.718099
O O13 0.500000 0.500000 0.000000
O O14 0.601897 0.802872 0.568006
O O15 0.231867 0.073786 0.368800
O O16 0.379160 0.207349 0.663057
O O17 0.083498 0.482139 0.321290
#
# Coordination Sequence:
#
# PCOD9099107 Si02
#       8
#     2   2   2   2   2   2   2   2
#     4  12  23  38  62  94 129 163 208 265 316 370
#     4  10  20  37  59  85 117 162 212 258 310 368
#     4  10  21  36  59  88 122 164 209 256 314 380
#     4  10  22  39  62  91 126 167 209 255 311 375
#     4  10  21  37  59  88 123 162 207 258 315 376
#     4  10  21  38  60  88 122 162 209 260 313 375
#     4  10  21  38  61  87 119 166 213 252 308 382
#     4  10  20  37  59  87 121 159 206 261 316 367
#
# _framework density 26.586825000000001
#
# number of rings (size 3 to 8) (size 9 to 14) (size 15 to 20)
#    0.000    1.750    0.000    4.875    0.000    6.500 
#    0.000    3.125    0.000    0.000    0.000    0.000 
#    0.000    0.000    0.000    0.000    0.000    0.000 
#
# Total GULP energy -89299.158437 kJ/mol
# GULP energy per Si atom -5581.197402 kJ/mol
# Density = 2.652631 g / cm^3
# Si number density = 26.586825 Si / 1000 Ang^3
#
#
#
# Elastic Constant Matrix: (Units=GPa)
#
#
# Indices 1 2 3 4 5 6 
#
# 1 82.1677 40.8677 20.3200 -19.1925 -20.7827 21.8925
# 2 40.8677 143.7782 18.6983 -21.3823 -4.3496 25.7668
# 3 20.3200 18.6983 63.6488 -8.0026 -12.9055 15.9686
# 4 -19.1925 -21.3823 -8.0026 31.0556 5.3656 -10.2829
# 5 -20.7827 -4.3496 -12.9055 5.3656 26.7178 -4.3428
# 6 21.8925 25.7668 15.9686 -10.2829 -4.3428 46.7098
#
#
#
# Elastic Compliance Matrix: (Units=1/GPa)
#
#
# Indices 1 2 3 4 5 6 
#
# 1 0.019912 -0.003440 -0.000883 0.006005 0.012541 -0.004645
# 2 -0.003440 0.008936 -0.001048 0.003426 -0.002817 -0.002466
# 3 -0.000883 -0.001048 0.019081 0.000822 0.007437 -0.004659
# 4 0.006005 0.003426 0.000822 0.040005 -0.001815 0.003653
# 5 0.012541 -0.002817 0.007437 -0.001815 0.050260 -0.002593
# 6 -0.004645 -0.002466 -0.004659 0.003653 -0.002593 0.027102
#
#
# Mechanical properties :
#
#
# Convention : Reuss Voigt Hill
#
# Bulk Modulus (GPa) = 26.89217 49.92962 38.41090
# Shear Modulus (GPa) = 26.53451 34.87722 30.70587
#
# Velocity S-wave (km/s) = 3.16259 3.62584 3.40211
# Velocity P-wave (km/s) = 4.84487 6.02906 5.46911
#
# Compressibility (1/GPa) = 0.03718554
#
# Stress axis : x y z
#
# Youngs Moduli (GPa) = 50.22147 111.91203 52.40769
#
# Poissons Ratio (x) = 0.38498 0.04628
# Poissons Ratio (y) = 0.17276 0.05494
# Poissons Ratio (z) = 0.04435 0.11733
#
# Static dielectric constant tensor:
#      x y z
#    x 2.198010 0.137670 0.132300 
#    y 0.137670 2.160850 -0.012300 
#    z 0.132300 -0.012300 2.228710 
# 
# From -- ./inp_files/447915.got.cif
#   From: 2010.05.17/outbox.cif.g08.bks.cpg/sg2_224_cif.got.tgz:447915.got - 2010.06.03 11:33:40.
