data_PCOD9099423
_publ_section_title
;
Structure prediction by ZEFSAII (Michael W. Deem and Ramdas Pophale) SiO2 
 PCOD9099423
Probable space group: P -1
;
_chemical_formula_sum "Si O2"
_cell_formula_units_Z 14
_cell_length_a 9.708895
_cell_length_b 9.159059
_cell_length_c 17.179143
_cell_angle_alpha 142.227061
_cell_angle_beta 37.156131
_cell_angle_gamma 128.425487
_cell_volume 565.024289
_symmetry_space_group_name_H-M "P -1"
_symmetry_group_IT_number 2
_symmetry_cell_setting 'triclinic'
loop_
_space_group_symop_operation_xyz
x,y,z
-x,-y,-z
loop_
_atom_site_type_symbol
_atom_site_label
_atom_site_fract_x
_atom_site_fract_y
_atom_site_fract_z
Si Si1 0.270727 0.931843 0.463632
Si Si2 0.222776 0.993625 0.681254
Si Si3 0.611234 0.094972 0.769220
Si Si4 0.891280 0.344517 0.050775
Si Si5 0.022827 0.432167 0.357445
Si Si6 0.158908 0.394288 0.103838
Si Si7 0.409711 0.191911 0.184476
O O1 0.189277 0.062598 0.634371
O O2 0.286884 0.021442 0.404908
O O3 0.107194 0.705103 0.436232
O O4 0.540927 0.897729 0.349451
O O5 0.212229 0.704444 0.574101
O O6 0.008997 0.091535 0.867936
O O7 0.731672 0.344357 0.838342
O O8 0.632303 0.930149 0.765338
O O9 0.349490 0.187143 0.914141
O O10 0.622723 0.359544 0.170041
O O11 0.000000 0.500000 0.000000
O O12 0.968481 0.391722 0.123002
O O13 0.073496 0.365246 0.217234
O O14 0.193589 0.317453 0.296041
O O15 0.500000 0.000000 0.000000
#
# Coordination Sequence:
#
# PCOD9099423 Si02
#       7
#     2   2   2   2   2   2   2
#     4  10  23  41  63  91 120 170 209 251 290 380
#     4  11  22  39  67  86 125 166 212 242 309 365
#     4  10  20  37  60  88 126 156 205 250 309 361
#     4  12  24  37  63  96 127 155 203 262 312 363
#     4  11  23  42  65  93 124 160 208 257 309 362
#     4  10  21  36  62  90 122 158 201 257 308 361
#     4  12  22  36  61  93 125 154 197 261 315 357
#
# _framework density 24.777697
#
# number of rings (size 3 to 8) (size 9 to 14) (size 15 to 20)
#    0.000    1.143    4.286    2.143    4.000    1.143 
#    0.000    0.714    3.143    2.571    0.000    0.000 
#    0.000    0.000    0.000    0.000    0.000    0.000 
#
# Total GULP energy -78271.931561 kJ/mol
# GULP energy per Si atom -5590.852254 kJ/mol
# Density = 2.472130 g / cm^3
# Si number density = 24.777697 Si / 1000 Ang^3
#
#
#
# Elastic Constant Matrix: (Units=GPa)
#
#
# Indices 1 2 3 4 5 6 
#
# 1 157.6885 61.6600 40.6291 -21.5054 23.4646 -2.4520
# 2 61.6600 142.1536 29.6408 -29.6330 9.1301 -21.2863
# 3 40.6291 29.6408 77.8024 -27.3316 29.7192 1.3848
# 4 -21.5054 -29.6330 -27.3316 30.5247 -8.5247 13.3090
# 5 23.4646 9.1301 29.7192 -8.5247 51.3471 -20.7506
# 6 -2.4520 -21.2863 1.3848 13.3090 -20.7506 39.2260
#
#
#
# Elastic Compliance Matrix: (Units=1/GPa)
#
#
# Indices 1 2 3 4 5 6 
#
# 1 0.008889 -0.003546 -0.000012 0.003716 -0.004923 -0.005233
# 2 -0.003546 0.010663 -0.002998 0.003445 0.004898 0.007093
# 3 -0.000012 -0.002998 0.037533 0.035978 -0.027140 -0.029517
# 4 0.003716 0.003445 0.035978 0.081343 -0.026007 -0.040525
# 5 -0.004923 0.004898 -0.027140 -0.026007 0.047249 0.037127
# 6 -0.005233 0.007093 -0.029517 -0.040525 0.037127 0.063447
#
#
# Mechanical properties :
#
#
# Convention : Reuss Voigt Hill
#
# Bulk Modulus (GPa) = 22.74075 71.27825 47.00950
# Shear Modulus (GPa) = 18.05748 40.60054 29.32901
#
# Velocity S-wave (km/s) = 2.70252 4.05234 3.44421
# Velocity P-wave (km/s) = 4.35155 7.12214 5.90173
#
# Compressibility (1/GPa) = 0.04397393
#
# Stress axis : x y z
#
# Youngs Moduli (GPa) = 112.49526 93.77847 26.64341
#
# Poissons Ratio (x) = 0.33254 0.00032
# Poissons Ratio (y) = 0.39891 0.07987
# Poissons Ratio (z) = 0.00136 0.28112
#
# Static dielectric constant tensor:
#      x y z
#    x 1.912020 0.020590 -0.028280 
#    y 0.020590 2.010900 0.094200 
#    z -0.028280 0.094200 2.053840 
# 
# From -- ./inp_files/156977.got.cif
#   From: 2010.05.17/outbox.cif.g08.bks.cpg/sg2_79_cif.got.tgz:156977.got - 2010.06.03 11:33:40.
