data_PCOD9099062
_publ_section_title
;
Structure prediction by ZEFSAII (Michael W. Deem and Ramdas Pophale) SiO2 
 PCOD9099062
Probable space group: P -1
;
_chemical_formula_sum "Si O2"
_cell_formula_units_Z 14
_cell_length_a 20.516888
_cell_length_b 12.225806
_cell_length_c 14.062029
_cell_angle_alpha 149.988555
_cell_angle_beta 157.155974
_cell_angle_gamma 24.349350
_cell_volume 556.894111
_symmetry_space_group_name_H-M "P -1"
_symmetry_group_IT_number 2
_symmetry_cell_setting 'triclinic'
loop_
_space_group_symop_operation_xyz
x,y,z
-x,-y,-z
loop_
_atom_site_type_symbol
_atom_site_label
_atom_site_fract_x
_atom_site_fract_y
_atom_site_fract_z
Si Si1 0.767683 0.961580 0.214535
Si Si2 0.006472 0.292413 0.478633
Si Si3 0.437189 0.079665 0.261170
Si Si4 0.113644 0.685090 0.310638
Si Si5 0.228639 0.943863 0.021135
Si Si6 0.323863 0.740536 0.376957
Si Si7 0.970313 0.791016 0.855420
O O1 0.876739 0.784461 0.320690
O O2 0.954584 0.814785 0.280272
O O3 0.724121 0.244157 0.397536
O O4 0.582981 0.001301 0.934285
O O5 0.798881 0.299166 0.199811
O O6 0.168787 0.028820 0.437315
O O7 0.951287 0.589194 0.613335
O O8 0.229318 0.373528 0.223181
O O9 0.594437 0.161863 0.524041
O O10 0.415187 0.909500 0.184754
O O11 0.981032 0.838389 0.154958
O O12 0.197881 0.062536 0.175043
O O13 0.500000 0.500000 0.500000
O O14 0.194385 0.628860 0.085810
O O15 0.000000 0.000000 0.000000
#
# Coordination Sequence:
#
# PCOD9099062 Si02
#       7
#     2   2   2   2   2   2   2
#     4   9  16  27  49  80 110 152 188 223 281 341
#     4  10  20  37  59  83 118 155 198 240 284 351
#     4  11  19  31  52  83 122 149 183 239 293 341
#     4   9  16  27  48  80 118 148 183 227 279 343
#     4   9  19  34  56  83 109 151 200 242 283 338
#     4  11  24  38  58  93 128 154 185 238 301 349
#     4  11  24  43  64  82 110 160 208 241 286 351
#
# _framework density 25.139430000000001
#
# number of rings (size 3 to 8) (size 9 to 14) (size 15 to 20)
#    0.000    2.000    0.000    7.714    0.000    5.714 
#    0.000    0.714    0.000    1.714    0.000    0.000 
#    0.000    0.000    0.000    0.000    0.000    0.000 
#
# Total GULP energy -78058.904468 kJ/mol
# GULP energy per Si atom -5575.636033 kJ/mol
# Density = 2.508221 g / cm^3
# Si number density = 25.139430 Si / 1000 Ang^3
#
#
#
# Elastic Constant Matrix: (Units=GPa)
#
#
# Indices 1 2 3 4 5 6 
#
# 1 125.0464 26.1811 37.2308 7.8507 10.7883 -2.2714
# 2 26.1811 76.1880 26.5460 36.6042 -0.0004 -0.5129
# 3 37.2308 26.5460 160.2009 41.4837 11.7057 -5.2875
# 4 7.8507 36.6042 41.4837 41.9697 0.0030 -3.3851
# 5 10.7883 -0.0004 11.7057 0.0030 45.9635 -3.2746
# 6 -2.2714 -0.5129 -5.2875 -3.3851 -3.2746 12.6432
#
#
#
# Elastic Compliance Matrix: (Units=1/GPa)
#
#
# Indices 1 2 3 4 5 6 
#
# 1 0.009620 -0.004847 -0.002600 0.005113 -0.001494 0.001426
# 2 -0.004847 0.025692 0.003194 -0.025079 -0.000046 -0.005219
# 3 -0.002600 0.003194 0.009468 -0.011654 -0.001797 0.000036
# 4 0.005113 -0.025079 -0.011654 0.057149 0.002547 0.010988
# 5 -0.001494 -0.000046 -0.001797 0.002547 0.022964 0.005608
# 6 0.001426 -0.005219 0.000036 0.010988 0.005608 0.083548
#
#
# Mechanical properties :
#
#
# Convention : Reuss Voigt Hill
#
# Bulk Modulus (GPa) = 27.56765 60.15012 43.85888
# Shear Modulus (GPa) = 21.83060 38.21378 30.02219
#
# Velocity S-wave (km/s) = 2.95003 3.90304 3.45951
# Velocity P-wave (km/s) = 4.75324 6.65509 5.78288
#
# Compressibility (1/GPa) = 0.03627440
#
# Stress axis : x y z
#
# Youngs Moduli (GPa) = 103.95245 38.92285 105.62382
#
# Poissons Ratio (x) = 0.18864 0.27464
# Poissons Ratio (y) = 0.50381 -0.33740
# Poissons Ratio (z) = 0.27030 -0.12433
#
# Static dielectric constant tensor:
#      x y z
#    x 2.062980 0.060040 0.018740 
#    y 0.060040 2.018390 -0.077630 
#    z 0.018740 -0.077630 2.276940 
# 
# From -- ./inp_files/540897.got.cif
#   From: 2010.05.17/outbox.cif.g08.bks.cpg/sg2_271_cif.got.tgz:540897.got - 2010.06.03 11:33:40.
