data_PCOD9099966
_publ_section_title
;
Structure prediction by ZEFSAII (Michael W. Deem and Ramdas Pophale) SiO2 
 PCOD9099966
Probable space group: P -1
;
_chemical_formula_sum "Si O2"
_cell_formula_units_Z 14
_cell_length_a 9.333588
_cell_length_b 21.380354
_cell_length_c 12.113277
_cell_angle_alpha 41.730447
_cell_angle_beta 135.924800
_cell_angle_gamma 150.770053
_cell_volume 768.740506
_symmetry_space_group_name_H-M "P -1"
_symmetry_group_IT_number 2
_symmetry_cell_setting 'triclinic'
loop_
_space_group_symop_operation_xyz
x,y,z
-x,-y,-z
loop_
_atom_site_type_symbol
_atom_site_label
_atom_site_fract_x
_atom_site_fract_y
_atom_site_fract_z
Si Si1 0.921880 0.082682 0.831705
Si Si2 0.772185 0.102227 0.276922
Si Si3 0.697806 0.657594 0.876433
Si Si4 0.106771 0.288705 0.848650
Si Si5 0.563768 0.923400 0.198118
Si Si6 0.329533 0.566909 0.588751
Si Si7 0.167112 0.172075 0.609484
O O1 0.073226 0.200188 0.852151
O O2 0.038407 0.150537 0.686306
O O3 0.563338 0.974330 0.787034
O O4 0.000000 0.000000 0.000000
O O5 0.988895 0.248583 0.140817
O O6 0.928518 0.121273 0.450352
O O7 0.738532 0.005712 0.298417
O O8 0.498194 0.648684 0.689888
O O9 0.500000 0.500000 0.000000
O O10 0.784383 0.721388 0.962326
O O11 0.309247 0.446773 0.727262
O O12 0.773192 0.221027 0.771277
O O13 0.743882 0.907941 0.247586
O O14 0.500000 0.000000 0.000000
O O15 0.530378 0.672822 0.461360
O O16 0.000000 0.500000 0.500000
#
# Coordination Sequence:
#
# PCOD9099966 Si02
#       7
#     2   2   2   2   2   2   2
#     4  11  25  38  58  85 122 163 192 237 297 357
#     4  10  21  37  57  87 118 151 197 248 290 335
#     4   9  19  34  61  85 112 148 193 243 284 336
#     4  10  20  38  57  87 120 150 197 238 290 345
#     4  11  19  33  61  86 116 152 195 246 286 341
#     4  10  20  37  62  89 113 150 196 247 291 335
#     4  11  22  38  58  87 118 156 197 241 296 348
#
# _framework density 18.211607000000001
#
# number of rings (size 3 to 8) (size 9 to 14) (size 15 to 20)
#    0.000    1.714    2.857    2.571    0.000    0.571 
#    0.000    1.429    0.000    8.571    0.000    0.000 
#    0.000    0.000    0.000    0.000    0.000    0.000 
#
# Total GULP energy -78055.934826 kJ/mol
# GULP energy per Si atom -5575.423916 kJ/mol
# Density = 1.817016 g / cm^3
# Si number density = 18.211607 Si / 1000 Ang^3
#
#
#
# Elastic Constant Matrix: (Units=GPa)
#
#
# Indices 1 2 3 4 5 6 
#
# 1 135.3023 64.4967 62.0247 10.1170 -18.8082 -2.3301
# 2 64.4967 111.7441 48.1708 5.7197 -15.0806 6.0235
# 3 62.0247 48.1708 88.0104 -1.3853 -17.9479 -2.4542
# 4 10.1170 5.7197 -1.3853 29.9509 -2.3264 -7.5019
# 5 -18.8082 -15.0806 -17.9479 -2.3264 37.2015 -1.2598
# 6 -2.3301 6.0235 -2.4542 -7.5019 -1.2598 32.0430
#
#
#
# Elastic Compliance Matrix: (Units=1/GPa)
#
#
# Indices 1 2 3 4 5 6 
#
# 1 0.012885 -0.004288 -0.006485 -0.003607 0.001438 0.000458
# 2 -0.004288 0.013802 -0.004467 -0.002252 0.001005 -0.003736
# 3 -0.006485 -0.004467 0.019519 0.005130 0.004759 0.003251
# 4 -0.003607 -0.002252 0.005130 0.037844 0.002427 0.009509
# 5 0.001438 0.001005 0.004759 0.002427 0.030532 0.002049
# 6 0.000458 -0.003736 0.003251 0.009509 0.002049 0.034500
#
#
# Mechanical properties :
#
#
# Convention : Reuss Voigt Hill
#
# Bulk Modulus (GPa) = 63.58520 76.04902 69.81711
# Shear Modulus (GPa) = 27.05599 30.53004 28.79302
#
# Velocity S-wave (km/s) = 3.85859 4.09884 3.98052
# Velocity P-wave (km/s) = 7.40554 8.01560 7.71660
#
# Compressibility (1/GPa) = 0.01572693
#
# Stress axis : x y z
#
# Youngs Moduli (GPa) = 77.61133 72.45499 51.23184
#
# Poissons Ratio (x) = 0.31065 0.33221
# Poissons Ratio (y) = 0.33276 0.22886
# Poissons Ratio (z) = 0.50327 0.32367
#
# Static dielectric constant tensor:
#      x y z
#    x 1.593940 0.002450 -0.024890 
#    y 0.002450 1.673760 -0.018540 
#    z -0.024890 -0.018540 1.660820 
# 
# From -- ./inp_files/170497.got.cif
#   From: 2010.05.17/outbox.cif.g08.bks.cpg/sg2_86_cif.got.tgz:170497.got - 2010.06.03 11:33:40.
