data_PCOD9099136
_publ_section_title
;
Structure prediction by ZEFSAII (Michael W. Deem and Ramdas Pophale) SiO2 
 PCOD9099136
Probable space group: P -1
;
_chemical_formula_sum "Si O2"
_cell_formula_units_Z 16
_cell_length_a 10.836198
_cell_length_b 11.053023
_cell_length_c 15.523985
_cell_angle_alpha 60.967029
_cell_angle_beta 25.954832
_cell_angle_gamma 70.233596
_cell_volume 687.694342
_symmetry_space_group_name_H-M "P -1"
_symmetry_group_IT_number 2
_symmetry_cell_setting 'triclinic'
loop_
_space_group_symop_operation_xyz
x,y,z
-x,-y,-z
loop_
_atom_site_type_symbol
_atom_site_label
_atom_site_fract_x
_atom_site_fract_y
_atom_site_fract_z
Si Si1 0.116567 0.176321 0.740348
Si Si2 0.587093 0.306686 0.839986
Si Si3 0.172853 0.067216 0.100738
Si Si4 0.772565 0.559439 0.870313
Si Si5 0.836795 0.532860 0.472542
Si Si6 0.913877 0.493212 0.156002
Si Si7 0.671785 0.156954 0.465983
Si Si8 0.761730 0.775126 0.168497
O O1 0.394882 0.109691 0.592105
O O2 0.030240 0.173832 0.896183
O O3 0.237049 0.339913 0.578521
O O4 0.874058 0.087596 0.859242
O O5 0.896472 0.373742 0.667993
O O6 0.600777 0.426925 0.715720
O O7 0.484663 0.151152 0.914930
O O8 0.326950 0.311379 0.067375
O O9 0.910673 0.070826 0.329572
O O10 0.123854 0.163306 0.016321
O O11 0.039069 0.567274 0.635919
O O12 0.829039 0.462295 0.948403
O O13 0.500000 0.500000 0.000000
O O14 0.796727 0.326508 0.310328
O O15 0.714901 0.604111 0.255668
O O16 0.000000 0.500000 0.000000
O O17 0.514811 0.163098 0.654447
#
# Coordination Sequence:
#
# PCOD9099136 Si02
#       8
#     2   2   2   2   2   2   2   2
#     4  10  24  38  59  82 123 161 188 237 300 358
#     4  10  23  37  65  86 113 152 200 253 289 350
#     4  12  22  40  56  88 120 155 197 239 293 356
#     4  10  20  37  59  86 120 154 193 249 305 350
#     4  10  22  42  59  88 115 152 201 246 299 346
#     4  12  20  36  61  93 118 153 201 255 298 354
#     4  10  23  35  57  85 120 153 193 239 300 346
#     4  10  23  35  57  83 119 153 192 238 296 351
#
# _framework density 23.266152000000002
#
# number of rings (size 3 to 8) (size 9 to 14) (size 15 to 20)
#    0.750    0.750    3.750    1.125    5.250    0.500 
#    0.000    0.000    0.000    0.000    0.000    8.750 
#    0.000    0.000    0.000    0.000    0.000    0.000 
#
# Total GULP energy -89106.872237 kJ/mol
# GULP energy per Si atom -5569.179515 kJ/mol
# Density = 2.321320 g / cm^3
# Si number density = 23.266152 Si / 1000 Ang^3
#
#
#
# Elastic Constant Matrix: (Units=GPa)
#
#
# Indices 1 2 3 4 5 6 
#
# 1 106.3076 4.5426 12.2414 -0.2449 -5.2220 24.3155
# 2 4.5426 68.4111 16.3561 -10.8855 3.8426 30.5998
# 3 12.2414 16.3561 49.0061 8.9769 2.6264 16.1954
# 4 -0.2449 -10.8855 8.9769 36.8687 6.5363 0.2210
# 5 -5.2220 3.8426 2.6264 6.5363 27.7127 -4.2475
# 6 24.3155 30.5998 16.1954 0.2210 -4.2475 38.6273
#
#
#
# Elastic Compliance Matrix: (Units=1/GPa)
#
#
# Indices 1 2 3 4 5 6 
#
# 1 0.011751 0.004541 -0.001305 0.001860 -0.000339 -0.010495
# 2 0.004541 0.028823 -0.004042 0.011318 -0.009271 -0.025081
# 3 -0.001305 -0.004042 0.025753 -0.007166 -0.001493 -0.006897
# 4 0.001860 0.011318 -0.007166 0.034019 -0.009852 -0.008410
# 5 -0.000339 -0.009271 -0.001493 -0.009852 0.041738 0.012830
# 6 -0.010495 -0.025081 -0.006897 -0.008410 0.012830 0.056714
#
#
# Mechanical properties :
#
#
# Convention : Reuss Voigt Hill
#
# Bulk Modulus (GPa) = 15.45235 32.22279 23.83757
# Shear Modulus (GPa) = 22.52447 33.34739 27.93593
#
# Velocity S-wave (km/s) = 3.11484 3.79000 3.46889
# Velocity P-wave (km/s) = 4.42632 5.74734 5.12953
#
# Compressibility (1/GPa) = 0.06471507
#
# Stress axis : x y z
#
# Youngs Moduli (GPa) = 85.09843 34.69511 38.83088
#
# Poissons Ratio (x) = -0.15756 0.05067
# Poissons Ratio (y) = -0.38644 0.15695
# Poissons Ratio (z) = 0.11105 0.14023
#
# Static dielectric constant tensor:
#      x y z
#    x 2.001350 0.028580 -0.071750 
#    y 0.028580 1.911040 0.018040 
#    z -0.071750 0.018040 1.891970 
# 
# From -- ./inp_files/518882.got.cif
#   From: 2010.05.17/outbox.cif.g08.bks.cpg/sg2_260_cif.got.tgz:518882.got - 2010.06.03 11:33:40.
