data_PCOD9099786
_publ_section_title
;
Structure prediction by ZEFSAII (Michael W. Deem and Ramdas Pophale) SiO2 
 PCOD9099786
Probable space group: P -1
;
_chemical_formula_sum "Si O2"
_cell_formula_units_Z 16
_cell_length_a 8.453794
_cell_length_b 27.708628
_cell_length_c 13.487050
_cell_angle_alpha 20.912072
_cell_angle_beta 44.258314
_cell_angle_gamma 40.082032
_cell_volume 726.057562
_symmetry_space_group_name_H-M "P -1"
_symmetry_group_IT_number 2
_symmetry_cell_setting 'triclinic'
loop_
_space_group_symop_operation_xyz
x,y,z
-x,-y,-z
loop_
_atom_site_type_symbol
_atom_site_label
_atom_site_fract_x
_atom_site_fract_y
_atom_site_fract_z
Si Si1 0.126816 0.592851 0.433172
Si Si2 0.061363 0.696981 0.678139
Si Si3 0.402616 0.342595 0.505771
Si Si4 0.866966 0.463515 0.246900
Si Si5 0.255690 0.001807 0.660098
Si Si6 0.025519 0.894187 0.600389
Si Si7 0.356626 0.645135 0.037887
Si Si8 0.626674 0.747726 0.091560
O O1 0.208975 0.590848 0.513420
O O2 0.197846 0.677055 0.149798
O O3 0.252293 0.420825 0.675246
O O4 0.831285 0.655221 0.452788
O O5 0.327157 0.699759 0.578420
O O6 0.048979 0.660784 0.636416
O O7 0.855831 0.851179 0.506267
O O8 0.038139 0.554881 0.013463
O O9 0.325643 0.507954 0.263123
O O10 0.422721 0.250066 0.773873
O O11 0.631012 0.588823 0.062506
O O12 0.048591 0.022173 0.630762
O O13 0.500000 0.000000 0.500000
O O14 0.371581 0.850334 0.957972
O O15 0.832806 0.814535 0.851346
O O16 0.000000 0.000000 0.500000
O O17 0.288097 0.768078 0.748810
#
# Coordination Sequence:
#
# PCOD9099786 Si02
#       8
#     2   2   2   2   2   2   2   2
#     4  11  19  38  67  96 120 156 207 248 306 348
#     4  10  23  42  57  90 125 162 204 242 309 359
#     4  10  20  39  63  89 124 162 198 255 296 359
#     4  10  22  37  59  95 126 160 195 255 305 355
#     4  10  23  41  62  85 115 165 204 244 299 363
#     4  11  22  36  59  94 120 154 201 253 303 348
#     4  10  20  37  61  92 127 154 202 257 299 351
#     4  10  20  39  63  90 124 159 204 247 296 360
#
# _framework density 22.036821
#
# number of rings (size 3 to 8) (size 9 to 14) (size 15 to 20)
#    0.000    1.750    2.500    2.625    5.250    1.000 
#    4.500    0.000    0.000    1.500    0.000    0.000 
#    0.000    0.000    0.000    0.000    0.000    0.000 
#
# Total GULP energy -89273.333334 kJ/mol
# GULP energy per Si atom -5579.583333 kJ/mol
# Density = 2.198666 g / cm^3
# Si number density = 22.036821 Si / 1000 Ang^3
#
#
#
# Elastic Constant Matrix: (Units=GPa)
#
#
# Indices 1 2 3 4 5 6 
#
# 1 87.5237 28.5941 35.6319 -11.5360 31.5367 -5.0741
# 2 28.5941 91.5233 15.6587 -23.1598 -2.3217 -14.5671
# 3 35.6319 15.6587 73.8611 -20.0743 23.6168 2.2037
# 4 -11.5360 -23.1598 -20.0743 21.5137 -5.0334 -2.8132
# 5 31.5367 -2.3217 23.6168 -5.0334 44.5231 -1.7632
# 6 -5.0741 -14.5671 2.2037 -2.8132 -1.7632 29.6833
#
#
#
# Elastic Compliance Matrix: (Units=1/GPa)
#
#
# Indices 1 2 3 4 5 6 
#
# 1 0.019432 -0.006780 -0.005453 -0.004827 -0.011801 -0.000759
# 2 -0.006780 0.020894 0.002765 0.024765 0.007688 0.011693
# 3 -0.005453 0.002765 0.022912 0.020096 -0.005864 0.000280
# 4 -0.004827 0.024765 0.020096 0.093030 0.005319 0.018969
# 5 -0.011801 0.007688 -0.005864 0.005319 0.035121 0.004781
# 6 -0.000759 0.011693 0.000280 0.018969 0.004781 0.041359
#
#
# Mechanical properties :
#
#
# Convention : Reuss Voigt Hill
#
# Bulk Modulus (GPa) = 22.57239 45.85306 34.21273
# Shear Modulus (GPa) = 18.76507 30.67890 24.72199
#
# Velocity S-wave (km/s) = 2.92127 3.73522 3.35304
# Velocity P-wave (km/s) = 4.65228 6.28133 5.52715
#
# Compressibility (1/GPa) = 0.04430191
#
# Stress axis : x y z
#
# Youngs Moduli (GPa) = 51.46027 47.85988 43.64583
#
# Poissons Ratio (x) = 0.32448 0.23801
# Poissons Ratio (y) = 0.34889 -0.12067
# Poissons Ratio (z) = 0.28062 -0.13232
#
# Static dielectric constant tensor:
#      x y z
#    x 1.887680 -0.042340 0.011280 
#    y -0.042340 1.832930 0.025940 
#    z 0.011280 0.025940 1.878320 
# 
# From -- ./inp_files/392799.got.cif
#   From: 2010.05.17/outbox.cif.g08.bks.cpg/sg2_197_cif.got.tgz:392799.got - 2010.06.03 11:33:40.
