data_PCOD9099058
_publ_section_title
;
Structure prediction by ZEFSAII (Michael W. Deem and Ramdas Pophale) SiO2 
 PCOD9099058
Probable space group: P -1
;
_chemical_formula_sum "Si O2"
_cell_formula_units_Z 14
_cell_length_a 9.616084
_cell_length_b 10.519693
_cell_length_c 10.819786
_cell_angle_alpha 38.495562
_cell_angle_beta 84.627151
_cell_angle_gamma 60.220802
_cell_volume 495.327051
_symmetry_space_group_name_H-M "P -1"
_symmetry_group_IT_number 2
_symmetry_cell_setting 'triclinic'
loop_
_space_group_symop_operation_xyz
x,y,z
-x,-y,-z
loop_
_atom_site_type_symbol
_atom_site_label
_atom_site_fract_x
_atom_site_fract_y
_atom_site_fract_z
Si Si1 0.963735 0.844960 0.451724
Si Si2 0.919754 0.254716 0.004544
Si Si3 0.195195 0.589534 0.857206
Si Si4 0.544820 0.391064 0.879643
Si Si5 0.811456 0.611959 0.515969
Si Si6 0.424566 0.752499 0.405165
Si Si7 0.711683 0.892856 0.068098
O O1 0.824521 0.812482 0.435291
O O2 0.115876 0.601140 0.720840
O O3 0.855503 0.120696 0.334297
O O4 0.034650 0.929009 0.272737
O O5 0.697756 0.392252 0.920581
O O6 0.934671 0.338108 0.803969
O O7 0.904528 0.405675 0.016368
O O8 0.422980 0.364355 0.996527
O O9 0.389622 0.670407 0.597736
O O10 0.670834 0.131240 0.973675
O O11 0.601162 0.723855 0.444673
O O12 0.839447 0.623786 0.355574
O O13 0.500000 0.500000 0.500000
O O14 0.265495 0.040150 0.124562
O O15 0.500000 0.000000 0.000000
#
# Coordination Sequence:
#
# PCOD9099058 Si02
#       7
#     2   2   2   2   2   2   2
#     4   9  19  35  50  72 107 140 167 199 247 315
#     4   9  18  31  52  77 100 133 172 205 248 298
#     4   9  19  34  49  72 110 136 166 205 252 297
#     4  10  16  31  54  76 100 133 166 216 253 289
#     4  10  17  30  55  75  97 135 173 199 254 307
#     4   8  17  29  50  79  96 124 167 216 257 289
#     4   9  16  29  49  76 100 123 165 217 251 296
#
# _framework density 28.264154000000001
#
# number of rings (size 3 to 8) (size 9 to 14) (size 15 to 20)
#    0.857    2.000    1.429    0.429    0.000    0.571 
#    0.000    7.857    0.000    8.571    0.000    0.000 
#    0.000    0.000    0.000    0.000    0.000    0.000 
#
# Total GULP energy -78139.523718 kJ/mol
# GULP energy per Si atom -5581.394551 kJ/mol
# Density = 2.819982 g / cm^3
# Si number density = 28.264154 Si / 1000 Ang^3
#
#
#
# Elastic Constant Matrix: (Units=GPa)
#
#
# Indices 1 2 3 4 5 6 
#
# 1 80.7367 57.9805 31.2923 14.8474 -29.1436 14.9096
# 2 57.9805 72.2559 42.6804 25.2007 -11.7772 12.0712
# 3 31.2923 42.6804 233.3633 16.4070 -4.0861 -0.1855
# 4 14.8474 25.2007 16.4070 48.5746 -4.3157 -1.7138
# 5 -29.1436 -11.7772 -4.0861 -4.3157 52.9853 17.1935
# 6 14.9096 12.0712 -0.1855 -1.7138 17.1935 66.3568
#
#
#
# Elastic Compliance Matrix: (Units=1/GPa)
#
#
# Indices 1 2 3 4 5 6 
#
# 1 0.042752 -0.031143 -0.000016 0.004544 0.019873 -0.008973
# 2 -0.031143 0.043380 -0.003021 -0.012737 -0.009126 0.001133
# 3 -0.000016 -0.003021 0.004837 -0.000085 -0.000543 0.000705
# 4 0.004544 -0.012737 -0.000085 0.026003 0.001246 0.001645
# 5 0.019873 -0.009126 -0.000543 0.001246 0.031373 -0.010904
# 6 -0.008973 0.001133 0.000705 0.001645 -0.010904 0.019750
#
#
# Mechanical properties :
#
#
# Convention : Reuss Voigt Hill
#
# Bulk Modulus (GPa) = 44.22977 72.25137 58.24057
# Shear Modulus (GPa) = 20.49241 50.54352 35.51797
#
# Velocity S-wave (km/s) = 2.69556 4.23336 3.54876
# Velocity P-wave (km/s) = 5.03694 7.03659 6.11900
#
# Compressibility (1/GPa) = 0.02260921
#
# Stress axis : x y z
#
# Youngs Moduli (GPa) = 23.39050 23.05191 206.74691
#
# Poissons Ratio (x) = 0.71792 0.00321
# Poissons Ratio (y) = 0.72846 0.62463
# Poissons Ratio (z) = 0.00036 0.06964
#
# Static dielectric constant tensor:
#      x y z
#    x 2.343040 0.019950 -0.000160 
#    y 0.019950 2.163360 0.038190 
#    z -0.000160 0.038190 2.406910 
# 
# From -- ./inp_files/351401.got.cif
#   From: 2010.05.17/outbox.cif.g08.bks.cpg/sg2_176_cif.got.tgz:351401.got - 2010.06.03 11:33:40.
