data_PCOD9099661
_publ_section_title
;
Structure prediction by ZEFSAII (Michael W. Deem and Ramdas Pophale) SiO2 
 PCOD9099661
Probable space group: P -1
;
_chemical_formula_sum "Si O2"
_cell_formula_units_Z 14
_cell_length_a 17.892694
_cell_length_b 7.883277
_cell_length_c 5.133855
_cell_angle_alpha 71.599308
_cell_angle_beta 121.350652
_cell_angle_gamma 99.729016
_cell_volume 586.791518
_symmetry_space_group_name_H-M "P -1"
_symmetry_group_IT_number 2
_symmetry_cell_setting 'triclinic'
loop_
_space_group_symop_operation_xyz
x,y,z
-x,-y,-z
loop_
_atom_site_type_symbol
_atom_site_label
_atom_site_fract_x
_atom_site_fract_y
_atom_site_fract_z
Si Si1 0.165041 0.156074 0.978415
Si Si2 0.232030 0.372071 0.499752
Si Si3 0.860005 0.247891 0.795620
Si Si4 0.436190 0.607323 0.022110
Si Si5 0.025262 0.704813 0.515843
Si Si6 0.384663 0.335854 0.435181
Si Si7 0.561840 0.024211 0.352539
O O1 0.211532 0.256564 0.773235
O O2 0.061112 0.177619 0.729216
O O3 0.183274 0.944885 0.133338
O O4 0.185847 0.269036 0.222900
O O5 0.332320 0.375694 0.581806
O O6 0.198023 0.573584 0.373468
O O7 0.936164 0.278767 0.133332
O O8 0.901664 0.238873 0.588362
O O9 0.368611 0.487246 0.119363
O O10 0.510090 0.667681 0.338866
O O11 0.500000 0.500000 0.000000
O O12 0.400996 0.777104 0.720382
O O13 0.000000 0.500000 0.500000
O O14 0.366649 0.130676 0.429633
O O15 0.500000 0.000000 0.500000
O O16 0.500000 0.000000 0.000000
#
# Coordination Sequence:
#
# PCOD9099661 Si02
#       7
#     2   2   2   2   2   2   2
#     4  12  26  43  67  97 133 176 222 266 325 386
#     4  12  26  44  63  97 140 172 213 270 334 394
#     4  12  24  44  68  98 134 173 222 266 324 383
#     4  10  20  40  66  90 118 161 219 260 314 377
#     4  12  21  43  73  95 129 177 221 273 315 373
#     4  10  24  40  62  94 127 166 209 269 322 384
#     4  10  20  37  61  88 117 152 201 258 308 367
#
# _framework density 23.858557999999999
#
# number of rings (size 3 to 8) (size 9 to 14) (size 15 to 20)
#    0.000    0.857    4.286    3.000    2.000    1.143 
#    2.571    0.000    0.000    0.000    0.000    0.000 
#    0.000    0.000    0.000    0.000    0.000    0.000 
#
# Total GULP energy -78324.649456 kJ/mol
# GULP energy per Si atom -5594.617818 kJ/mol
# Density = 2.380425 g / cm^3
# Si number density = 23.858558 Si / 1000 Ang^3
#
#
#
# Elastic Constant Matrix: (Units=GPa)
#
#
# Indices 1 2 3 4 5 6 
#
# 1 127.8610 49.1467 41.3698 -37.5689 -23.6112 -5.4930
# 2 49.1467 140.6701 54.0048 -60.6871 -13.9856 7.5866
# 3 41.3698 54.0048 102.0510 -32.0944 -21.2169 -1.7284
# 4 -37.5689 -60.6871 -32.0944 66.0857 9.8815 -4.4433
# 5 -23.6112 -13.9856 -21.2169 9.8815 47.1900 1.0387
# 6 -5.4930 7.5866 -1.7284 -4.4433 1.0387 35.4595
#
#
#
# Elastic Compliance Matrix: (Units=1/GPa)
#
#
# Indices 1 2 3 4 5 6 
#
# 1 0.010674 -0.001226 -0.001772 0.003729 0.003352 0.002199
# 2 -0.001226 0.013066 -0.003518 0.009501 -0.000269 -0.001958
# 3 -0.001772 -0.003518 0.013825 0.001988 0.003842 0.001289
# 4 0.003729 0.009501 0.001988 0.027101 -0.000144 0.002042
# 5 0.003352 -0.000269 0.003842 -0.000144 0.024545 0.000027
# 6 0.002199 -0.001958 0.001289 0.002042 0.000027 0.029279
#
#
# Mechanical properties :
#
#
# Convention : Reuss Voigt Hill
#
# Bulk Modulus (GPa) = 40.76135 73.29163 57.02649
# Shear Modulus (GPa) = 35.79098 44.81778 40.30438
#
# Velocity S-wave (km/s) = 3.87736 4.33884 4.11457
# Velocity P-wave (km/s) = 6.09646 7.47574 6.82105
#
# Compressibility (1/GPa) = 0.02453304
#
# Stress axis : x y z
#
# Youngs Moduli (GPa) = 93.68161 76.53595 72.33270
#
# Poissons Ratio (x) = 0.09383 0.12816
# Poissons Ratio (y) = 0.11484 0.25450
# Poissons Ratio (z) = 0.16598 0.26929
#
# Static dielectric constant tensor:
#      x y z
#    x 1.870170 0.077040 0.055270 
#    y 0.077040 2.072130 0.028030 
#    z 0.055270 0.028030 1.943360 
# 
# From -- ./inp_files/104614.got.cif
#   From: 2010.05.17/outbox.cif.g08.bks.cpg/sg2_53_cif.got.tgz:104614.got - 2010.06.03 11:33:40.
