data_PCOD9099976
_publ_section_title
;
Structure prediction by ZEFSAII (Michael W. Deem and Ramdas Pophale) SiO2 
 PCOD9099976
Probable space group: P -1
;
_chemical_formula_sum "Si O2"
_cell_formula_units_Z 16
_cell_length_a 8.525281
_cell_length_b 5.388602
_cell_length_c 24.714465
_cell_angle_alpha 78.789206
_cell_angle_beta 36.530062
_cell_angle_gamma 82.440595
_cell_volume 662.332911
_symmetry_space_group_name_H-M "P -1"
_symmetry_group_IT_number 2
_symmetry_cell_setting 'triclinic'
loop_
_space_group_symop_operation_xyz
x,y,z
-x,-y,-z
loop_
_atom_site_type_symbol
_atom_site_label
_atom_site_fract_x
_atom_site_fract_y
_atom_site_fract_z
Si Si1 0.272819 0.677483 0.580698
Si Si2 0.700661 0.922447 0.103329
Si Si3 0.786565 0.203996 0.606704
Si Si4 0.642468 0.546770 0.232673
Si Si5 0.148831 0.743505 0.088604
Si Si6 0.317236 0.212634 0.257533
Si Si7 0.646678 0.893470 0.551447
Si Si8 0.320408 0.307027 0.990339
O O1 0.500000 0.500000 0.500000
O O2 0.294109 0.900667 0.521048
O O3 0.951418 0.626153 0.677468
O O4 0.384772 0.754935 0.605923
O O5 0.700185 0.787774 0.167087
O O6 0.470003 0.123636 0.165141
O O7 0.622558 0.721920 0.087277
O O8 0.000000 0.000000 0.000000
O O9 0.771759 0.034576 0.672458
O O10 0.093762 0.271407 0.512113
O O11 0.601382 0.429935 0.661410
O O12 0.662519 0.043191 0.597652
O O13 0.550430 0.335594 0.224967
O O14 0.909684 0.583128 0.190369
O O15 0.187555 0.565884 0.032131
O O16 0.155188 0.048127 0.065176
O O17 0.408033 0.705525 0.053119
#
# Coordination Sequence:
#
# PCOD9099976 Si02
#       8
#     2   2   2   2   2   2   2   2
#     4  10  20  37  62  89 121 157 194 248 306 378
#     4  11  22  38  61  84 117 160 205 255 312 366
#     4   9  20  38  58  87 116 158 198 255 297 379
#     4  11  22  36  59  86 120 152 204 257 311 364
#     4  10  22  39  62  84 120 159 209 258 313 374
#     4  10  23  37  56  92 120 154 206 255 307 375
#     4   9  19  38  63  83 119 157 199 240 314 365
#     4  10  22  40  60  87 115 163 211 255 312 372
#
# _framework density 24.157038
#
# number of rings (size 3 to 8) (size 9 to 14) (size 15 to 20)
#    0.000    2.000    1.250    1.500    3.500    4.000 
#    0.000    5.000    0.000    0.000    0.000    0.000 
#    0.000    0.000    0.000    0.000    0.000    0.000 
#
# Total GULP energy -89116.650787 kJ/mol
# GULP energy per Si atom -5569.790674 kJ/mol
# Density = 2.410206 g / cm^3
# Si number density = 24.157038 Si / 1000 Ang^3
#
#
#
# Elastic Constant Matrix: (Units=GPa)
#
#
# Indices 1 2 3 4 5 6 
#
# 1 71.2133 30.1138 42.3391 13.4478 -9.8391 14.2489
# 2 30.1138 69.3469 48.1372 6.3777 -18.2630 8.5397
# 3 42.3391 48.1372 133.7926 4.7035 -11.5518 1.9468
# 4 13.4478 6.3777 4.7035 34.0452 4.6675 4.7926
# 5 -9.8391 -18.2630 -11.5518 4.6675 36.1799 -2.7986
# 6 14.2489 8.5397 1.9468 4.7926 -2.7986 34.4807
#
#
#
# Elastic Compliance Matrix: (Units=1/GPa)
#
#
# Indices 1 2 3 4 5 6 
#
# 1 0.021461 -0.003838 -0.004854 -0.006539 0.002689 -0.006517
# 2 -0.003838 0.023403 -0.006296 -0.002835 0.008913 -0.002737
# 3 -0.004854 -0.006296 0.011112 0.001309 -0.000912 0.002682
# 4 -0.006539 -0.002835 0.001309 0.033574 -0.007271 -0.001926
# 5 0.002689 0.008913 -0.000912 -0.007271 0.033553 0.000467
# 6 -0.006517 -0.002737 0.002682 -0.001926 0.000467 0.032527
#
#
# Mechanical properties :
#
#
# Convention : Reuss Voigt Hill
#
# Bulk Modulus (GPa) = 38.46299 57.28146 47.87222
# Shear Modulus (GPa) = 25.73697 31.19199 28.46448
#
# Velocity S-wave (km/s) = 3.26759 3.59725 3.43638
# Velocity P-wave (km/s) = 5.49480 6.40447 5.96699
#
# Compressibility (1/GPa) = 0.02599902
#
# Stress axis : x y z
#
# Youngs Moduli (GPa) = 46.59536 42.72998 89.99439
#
# Poissons Ratio (x) = 0.16402 0.43680
# Poissons Ratio (y) = 0.17886 0.56663
# Poissons Ratio (z) = 0.22616 0.26904
#
# Static dielectric constant tensor:
#      x y z
#    x 1.997710 -0.032930 -0.078840 
#    y -0.032930 1.978690 -0.010040 
#    z -0.078840 -0.010040 2.083420 
# 
# From -- ./inp_files/96999.got.cif
#   From: 2010.05.17/outbox.cif.g08.bks.cpg/sg2_49_cif.got.tgz:96999.got - 2010.06.03 11:33:40.
