data_PCOD9099646
_publ_section_title
;
Structure prediction by ZEFSAII (Michael W. Deem and Ramdas Pophale) SiO2 
 PCOD9099646
Probable space group: P -1
;
_chemical_formula_sum "Si O2"
_cell_formula_units_Z 16
_cell_length_a 18.236515
_cell_length_b 12.204787
_cell_length_c 7.808055
_cell_angle_alpha 145.266693
_cell_angle_beta 56.007786
_cell_angle_gamma 138.600926
_cell_volume 647.154266
_symmetry_space_group_name_H-M "P -1"
_symmetry_group_IT_number 2
_symmetry_cell_setting 'triclinic'
loop_
_space_group_symop_operation_xyz
x,y,z
-x,-y,-z
loop_
_atom_site_type_symbol
_atom_site_label
_atom_site_fract_x
_atom_site_fract_y
_atom_site_fract_z
Si Si1 0.661996 0.154469 0.848213
Si Si2 0.490761 0.783570 0.331073
Si Si3 0.706569 0.328651 0.379105
Si Si4 0.991411 0.715610 0.757522
Si Si5 0.153332 0.197522 0.387956
Si Si6 0.815194 0.042749 0.416027
Si Si7 0.204326 0.367405 0.903516
Si Si8 0.684172 0.891802 0.034113
O O1 0.568045 0.904882 0.555619
O O2 0.778613 0.188294 0.744665
O O3 0.637824 0.188339 0.114238
O O4 0.690706 0.370717 0.964162
O O5 0.500000 0.000000 0.500000
O O6 0.363585 0.611710 0.340072
O O7 0.553784 0.719216 0.040960
O O8 0.815971 0.581451 0.488911
O O9 0.713209 0.132879 0.214041
O O10 0.055373 0.826087 0.634148
O O11 0.000000 0.500000 0.500000
O O12 0.865726 0.612808 0.834630
O O13 0.063814 0.940085 0.084783
O O14 0.131238 0.239139 0.661198
O O15 0.267989 0.222251 0.280920
O O16 0.770522 0.807081 0.280597
O O17 0.754194 0.978958 0.230971
#
# Coordination Sequence:
#
# PCOD9099646 Si02
#       8
#     2   2   2   2   2   2   2   2
#     4  10  20  37  61  87 124 157 199 249 300 354
#     4   9  19  35  59  89 120 160 198 245 299 356
#     4  10  20  38  61  87 121 162 198 248 301 352
#     4  11  22  42  62  88 124 155 200 251 297 360
#     4  10  23  40  62  90 120 159 199 246 303 355
#     4  10  21  37  60  87 117 161 196 248 297 351
#     4  11  22  40  63  89 123 156 202 245 300 362
#     4   9  20  38  59  87 124 154 201 248 293 353
#
# _framework density 24.723628999999999
#
# number of rings (size 3 to 8) (size 9 to 14) (size 15 to 20)
#    0.000    2.000    1.250    1.875    0.000    6.500 
#    4.500    4.375    0.000   13.500    0.000    0.000 
#    0.000    0.000    0.000    0.000    0.000    0.000 
#
# Total GULP energy -89447.353694 kJ/mol
# GULP energy per Si atom -5590.459606 kJ/mol
# Density = 2.466736 g / cm^3
# Si number density = 24.723629 Si / 1000 Ang^3
#
#
#
# Elastic Constant Matrix: (Units=GPa)
#
#
# Indices 1 2 3 4 5 6 
#
# 1 68.9602 45.0952 12.8047 8.3689 -7.3478 -9.5708
# 2 45.0952 116.0007 37.2507 -7.3635 -19.2995 -22.4403
# 3 12.8047 37.2507 85.0277 4.9057 -7.0248 -9.2799
# 4 8.3689 -7.3635 4.9057 50.2042 6.1121 -17.6531
# 5 -7.3478 -19.2995 -7.0248 6.1121 39.5278 3.5036
# 6 -9.5708 -22.4403 -9.2799 -17.6531 3.5036 40.9510
#
#
#
# Elastic Compliance Matrix: (Units=1/GPa)
#
#
# Indices 1 2 3 4 5 6 
#
# 1 0.020712 -0.009111 0.000995 -0.005855 0.000706 -0.002511
# 2 -0.009111 0.016448 -0.005015 0.006944 0.003625 0.008431
# 3 0.000995 -0.005015 0.013953 -0.002518 0.000649 -0.000494
# 4 -0.005855 0.006944 -0.002518 0.027545 -0.003650 0.014053
# 5 0.000706 0.003625 0.000649 -0.003650 0.028028 -0.001673
# 6 -0.002511 0.008431 -0.000494 0.014053 -0.001673 0.034541
#
#
# Mechanical properties :
#
#
# Convention : Reuss Voigt Hill
#
# Bulk Modulus (GPa) = 40.24131 51.14330 45.69230
# Shear Modulus (GPa) = 28.44599 37.79248 33.11924
#
# Velocity S-wave (km/s) = 3.39567 3.91397 3.66400
# Velocity P-wave (km/s) = 5.62902 6.41533 6.03500
#
# Compressibility (1/GPa) = 0.02485009
#
# Stress axis : x y z
#
# Youngs Moduli (GPa) = 48.28197 60.79906 71.66925
#
# Poissons Ratio (x) = 0.55394 -0.07128
# Poissons Ratio (y) = 0.43989 0.35940
# Poissons Ratio (z) = -0.04802 0.30489
#
# Static dielectric constant tensor:
#      x y z
#    x 2.015480 0.082130 -0.003720 
#    y 0.082130 2.017930 -0.014420 
#    z -0.003720 -0.014420 1.917250 
# 
# From -- ./inp_files/346529.got.cif
#   From: 2010.05.17/outbox.cif.g08.bks.cpg/sg2_174_cif.got.tgz:346529.got - 2010.06.03 11:33:40.
