data_PCOD9099668
_publ_section_title
;
Structure prediction by ZEFSAII (Michael W. Deem and Ramdas Pophale) SiO2 
 PCOD9099668
Probable space group: P -1
;
_chemical_formula_sum "Si O2"
_cell_formula_units_Z 12
_cell_length_a 12.408413
_cell_length_b 16.194799
_cell_length_c 9.848584
_cell_angle_alpha 34.383371
_cell_angle_beta 135.805911
_cell_angle_gamma 156.594162
_cell_volume 436.721634
_symmetry_space_group_name_H-M "P -1"
_symmetry_group_IT_number 2
_symmetry_cell_setting 'triclinic'
loop_
_space_group_symop_operation_xyz
x,y,z
-x,-y,-z
loop_
_atom_site_type_symbol
_atom_site_label
_atom_site_fract_x
_atom_site_fract_y
_atom_site_fract_z
Si Si1 0.015022 0.678217 0.730199
Si Si2 0.868131 0.662599 0.904746
Si Si3 0.405002 0.806723 0.539800
Si Si4 0.143181 0.914508 0.102197
Si Si5 0.640021 0.737850 0.715468
Si Si6 0.173991 0.244215 0.699727
O O1 0.758545 0.551253 0.591670
O O2 0.278687 0.892691 0.576639
O O3 0.000000 0.500000 0.000000
O O4 0.033800 0.767348 0.775156
O O5 0.699153 0.384224 0.177373
O O6 0.053146 0.832381 0.975628
O O7 0.713246 0.699764 0.701777
O O8 0.242814 0.828026 0.339310
O O9 0.436029 0.716684 0.563275
O O10 0.925813 0.789688 0.194410
O O11 0.327531 0.208594 0.882900
O O12 0.905130 0.993306 0.699727
O O13 0.500000 0.500000 0.000000
#
# Coordination Sequence:
#
# PCOD9099668 Si02
#       6
#     2   2   2   2   2   2
#     4  11  24  40  61  88 115 153 203 244 286 347
#     4  10  21  39  61  86 120 156 191 240 296 347
#     4  10  21  37  61  88 116 152 197 242 288 344
#     4  10  20  37  61  88 121 157 190 238 299 349
#     4   8  17  33  57  86 112 150 195 232 281 343
#     4   9  20  37  58  86 121 155 191 240 294 345
#
# _framework density 27.477457000000001
#
# number of rings (size 3 to 8) (size 9 to 14) (size 15 to 20)
#    0.000    2.333    0.000    1.500    0.000   14.000 
#    0.000    0.833    0.000    0.000    0.000    0.000 
#    0.000    0.000    0.000    0.000    0.000    0.000 
#
# Total GULP energy -66870.286105 kJ/mol
# GULP energy per Si atom -5572.523842 kJ/mol
# Density = 2.741492 g / cm^3
# Si number density = 27.477457 Si / 1000 Ang^3
#
#
#
# Elastic Constant Matrix: (Units=GPa)
#
#
# Indices 1 2 3 4 5 6 
#
# 1 193.2201 41.0862 75.6110 25.4588 36.6580 -32.3631
# 2 41.0862 56.9752 29.8316 12.6099 -1.5226 -25.2520
# 3 75.6110 29.8316 179.2482 34.8317 30.4405 -0.9009
# 4 25.4588 12.6099 34.8317 38.9359 1.0887 -4.0723
# 5 36.6580 -1.5226 30.4405 1.0887 91.6203 -4.5548
# 6 -32.3631 -25.2520 -0.9009 -4.0723 -4.5548 45.6002
#
#
#
# Elastic Compliance Matrix: (Units=1/GPa)
#
#
# Indices 1 2 3 4 5 6 
#
# 1 0.007853 -0.002536 -0.002100 -0.001982 -0.002278 0.003723
# 2 -0.002536 0.028061 -0.003536 -0.002923 0.003374 0.013746
# 3 -0.002100 -0.003536 0.008448 -0.005395 -0.002159 -0.003979
# 4 -0.001982 -0.002923 -0.005395 0.032693 0.002149 0.000002
# 5 -0.002278 0.003374 -0.002159 0.002149 0.012657 0.001665
# 6 0.003723 0.013746 -0.003979 0.000002 0.001665 0.032272
#
#
# Mechanical properties :
#
#
# Convention : Reuss Voigt Hill
#
# Bulk Modulus (GPa) = 35.69046 80.27789 57.98418
# Shear Modulus (GPa) = 33.85974 54.09225 43.97600
#
# Velocity S-wave (km/s) = 3.51418 4.44171 4.00489
# Velocity P-wave (km/s) = 5.42984 7.45549 6.52179
#
# Compressibility (1/GPa) = 0.02801869
#
# Stress axis : x y z
#
# Youngs Moduli (GPa) = 127.33334 35.63658 118.36687
#
# Poissons Ratio (x) = 0.09036 0.24857
# Poissons Ratio (y) = 0.32287 0.41859
# Poissons Ratio (z) = 0.26740 0.12602
#
# Static dielectric constant tensor:
#      x y z
#    x 2.266680 0.154070 0.154770 
#    y 0.154070 2.457080 -0.081110 
#    z 0.154770 -0.081110 2.342800 
# 
# From -- ./inp_files/249683.got.cif
#   From: 2010.05.17/outbox.cif.g08.bks.cpg/sg2_125_cif.got.tgz:249683.got - 2010.06.03 11:33:40.
