data_PCOD9099568
_publ_section_title
;
Structure prediction by ZEFSAII (Michael W. Deem and Ramdas Pophale) SiO2 
 PCOD9099568
Probable space group: P -1
;
_chemical_formula_sum "Si O2"
_cell_formula_units_Z 14
_cell_length_a 7.918480
_cell_length_b 11.708373
_cell_length_c 8.524339
_cell_angle_alpha 132.020365
_cell_angle_beta 70.154951
_cell_angle_gamma 98.494222
_cell_volume 548.672991
_symmetry_space_group_name_H-M "P -1"
_symmetry_group_IT_number 2
_symmetry_cell_setting 'triclinic'
loop_
_space_group_symop_operation_xyz
x,y,z
-x,-y,-z
loop_
_atom_site_type_symbol
_atom_site_label
_atom_site_fract_x
_atom_site_fract_y
_atom_site_fract_z
Si Si1 0.148345 0.108494 0.244743
Si Si2 0.666662 0.489022 0.060197
Si Si3 0.846557 0.731882 0.051821
Si Si4 0.743742 0.204229 0.968613
Si Si5 0.537678 0.322809 0.439568
Si Si6 0.246350 0.953250 0.728394
Si Si7 0.198361 0.416770 0.389481
O O1 0.206930 0.279143 0.387228
O O2 0.932167 0.123701 0.335070
O O3 0.233971 0.981659 0.224246
O O4 0.200140 0.031442 0.987117
O O5 0.819017 0.592000 0.046675
O O6 0.719059 0.308996 0.918836
O O7 0.610597 0.569329 0.316583
O O8 0.500000 0.500000 0.000000
O O9 0.742028 0.904191 0.262660
O O10 0.760454 0.671322 0.866178
O O11 0.058177 0.759412 0.994019
O O12 0.578979 0.247820 0.183587
O O13 0.596380 0.181187 0.409859
O O14 0.681679 0.448430 0.498433
O O15 0.000000 0.500000 0.500000
#
# Coordination Sequence:
#
# PCOD9099568 Si02
#       7
#     2   2   2   2   2   2   2
#     4   8  15  29  55  88 110 140 190 242 270 318
#     4  12  25  38  56  84 123 152 182 238 299 333
#     4  10  20  37  61  84 113 152 192 228 284 341
#     4  10  21  40  62  82 109 154 203 230 266 341
#     4  11  20  35  61  88 115 146 191 236 281 336
#     4   8  15  30  56  85 109 143 189 234 275 332
#     4  11  16  30  62  94 114 140 190 239 281 330
#
# _framework density 25.516107999999999
#
# number of rings (size 3 to 8) (size 9 to 14) (size 15 to 20)
#    0.000    2.000    4.286    2.571    0.000    0.571 
#    0.000    0.714    6.286    2.571    0.000    0.000 
#    0.000    0.000    0.000    0.000    0.000    0.000 
#
# Total GULP energy -78166.939525 kJ/mol
# GULP energy per Si atom -5583.352823 kJ/mol
# Density = 2.545803 g / cm^3
# Si number density = 25.516108 Si / 1000 Ang^3
#
#
#
# Elastic Constant Matrix: (Units=GPa)
#
#
# Indices 1 2 3 4 5 6 
#
# 1 43.4445 23.2793 15.7371 -6.4732 13.8615 -6.8479
# 2 23.2793 196.4620 20.0746 22.1988 -11.3349 -22.1169
# 3 15.7371 20.0746 27.7927 5.7882 7.2551 3.1256
# 4 -6.4732 22.1988 5.7882 25.2834 -3.9994 -6.5179
# 5 13.8615 -11.3349 7.2551 -3.9994 26.9994 2.2933
# 6 -6.8479 -22.1169 3.1256 -6.5179 2.2933 41.9295
#
#
#
# Elastic Compliance Matrix: (Units=1/GPa)
#
#
# Indices 1 2 3 4 5 6 
#
# 1 0.043759 -0.005038 -0.022357 0.020808 -0.016365 0.010285
# 2 -0.005038 0.007127 -0.002750 -0.005564 0.005325 0.001986
# 3 -0.022357 -0.002750 0.058321 -0.021007 -0.007414 -0.012309
# 4 0.020808 -0.005564 -0.021007 0.057427 0.000203 0.010945
# 5 -0.016365 0.005325 -0.007414 0.000203 0.049868 -0.002007
# 6 0.010285 0.001986 -0.012309 0.010945 -0.002007 0.029305
#
#
# Mechanical properties :
#
#
# Convention : Reuss Voigt Hill
#
# Bulk Modulus (GPa) = 20.44269 42.87569 31.65919
# Shear Modulus (GPa) = 15.50847 32.74967 24.12907
#
# Velocity S-wave (km/s) = 2.46802 3.58647 3.07846
# Velocity P-wave (km/s) = 4.01878 5.83011 5.00703
#
# Compressibility (1/GPa) = 0.04891723
#
# Stress axis : x y z
#
# Youngs Moduli (GPa) = 22.85246 140.30235 17.14646
#
# Poissons Ratio (x) = 0.70686 0.38334
# Poissons Ratio (y) = 0.11513 0.04715
# Poissons Ratio (z) = 0.51091 0.38583
#
# Static dielectric constant tensor:
#      x y z
#    x 1.281760 -0.119070 -1.267320 
#    y -0.119070 2.102760 -0.103350 
#    z -1.267320 -0.103350 0.167080 
# 
# From -- ./inp_files/167651.got.cif
#   From: 2010.05.17/outbox.cif.g08.bks.cpg/sg2_84_cif.got.tgz:167651.got - 2010.06.03 11:33:40.
