data_PCOD9099284
_publ_section_title
;
Structure prediction by ZEFSAII (Michael W. Deem and Ramdas Pophale) SiO2 
 PCOD9099284
Probable space group: P -1
;
_chemical_formula_sum "Si O2"
_cell_formula_units_Z 14
_cell_length_a 19.152094
_cell_length_b 8.938291
_cell_length_c 24.638604
_cell_angle_alpha 32.686348
_cell_angle_beta 17.821748
_cell_angle_gamma 27.347837
_cell_volume 592.786373
_symmetry_space_group_name_H-M "P -1"
_symmetry_group_IT_number 2
_symmetry_cell_setting 'triclinic'
loop_
_space_group_symop_operation_xyz
x,y,z
-x,-y,-z
loop_
_atom_site_type_symbol
_atom_site_label
_atom_site_fract_x
_atom_site_fract_y
_atom_site_fract_z
Si Si1 0.709438 0.291711 0.741963
Si Si2 0.287592 0.585055 0.178404
Si Si3 0.715996 0.902130 0.323115
Si Si4 0.826467 0.442770 0.103478
Si Si5 0.303570 0.928748 0.400709
Si Si6 0.126159 0.601887 0.035779
Si Si7 0.310205 0.063882 0.474181
O O1 0.664559 0.273920 0.844617
O O2 0.736592 0.604853 0.618331
O O3 0.001602 0.011744 0.591471
O O4 0.441902 0.391651 0.877508
O O5 0.314643 0.244151 0.278703
O O6 0.974568 0.840756 0.318354
O O7 0.500000 0.500000 0.000000
O O8 0.861527 0.092307 0.177738
O O9 0.530049 0.978134 0.383495
O O10 0.500000 0.000000 0.500000
O O11 0.973513 0.575551 0.208450
O O12 0.519440 0.655509 0.285095
O O13 0.902176 0.514097 0.966661
O O14 0.000000 0.500000 0.000000
O O15 0.375008 0.849681 0.436532
O O16 0.000000 0.000000 0.000000
#
# Coordination Sequence:
#
# PCOD9099284 Si02
#       7
#     2   2   2   2   2   2   2
#     4   9  17  35  58  82 114 160 195 234 288 359
#     4   9  19  31  58  89 115 152 194 242 288 348
#     4  11  24  39  61  88 118 157 197 249 295 351
#     4  11  23  38  62  90 115 158 202 243 295 348
#     4   9  20  36  60  86 117 150 201 246 288 350
#     4  10  20  37  60  82 118 158 203 235 286 369
#     4   9  17  37  55  84 114 157 197 230 288 358
#
# _framework density 23.617277000000001
#
# number of rings (size 3 to 8) (size 9 to 14) (size 15 to 20)
#    0.000    2.286    2.857    2.571    8.000    0.571 
#    0.000    5.714    0.000    1.714    0.000    0.000 
#    0.000    0.000    0.000    0.000    0.000    0.000 
#
# Total GULP energy -77962.157123 kJ/mol
# GULP energy per Si atom -5568.725509 kJ/mol
# Density = 2.356352 g / cm^3
# Si number density = 23.617277 Si / 1000 Ang^3
#
#
#
# Elastic Constant Matrix: (Units=GPa)
#
#
# Indices 1 2 3 4 5 6 
#
# 1 119.4772 21.3642 78.4638 12.2960 -0.6406 22.1163
# 2 21.3642 40.3643 22.2847 -1.7069 0.7934 9.5873
# 3 78.4638 22.2847 169.0777 21.9325 26.2945 13.6361
# 4 12.2960 -1.7069 21.9325 34.5711 9.1541 9.1031
# 5 -0.6406 0.7934 26.2945 9.1541 57.3141 9.9615
# 6 22.1163 9.5873 13.6361 9.1031 9.9615 17.8781
#
#
#
# Elastic Compliance Matrix: (Units=1/GPa)
#
#
# Indices 1 2 3 4 5 6 
#
# 1 0.016824 -0.000041 -0.007536 0.002262 0.006753 -0.019957
# 2 -0.000041 0.032347 -0.004300 0.008770 0.003694 -0.020539
# 3 -0.007536 -0.004300 0.010813 -0.005316 -0.005752 0.009293
# 4 0.002262 0.008770 -0.005316 0.037881 0.000270 -0.022885
# 5 0.006753 0.003694 -0.005752 0.000270 0.023391 -0.019119
# 6 -0.019957 -0.020539 0.009293 -0.022885 -0.019119 0.106855
#
#
# Mechanical properties :
#
#
# Convention : Reuss Voigt Hill
#
# Bulk Modulus (GPa) = 27.60172 63.68274 45.64223
# Shear Modulus (GPa) = 18.94360 35.73976 27.34168
#
# Velocity S-wave (km/s) = 2.83522 3.89432 3.40619
# Velocity P-wave (km/s) = 4.73608 6.87343 5.90231
#
# Compressibility (1/GPa) = 0.03622962
#
# Stress axis : x y z
#
# Youngs Moduli (GPa) = 59.43873 30.91508 92.48021
#
# Poissons Ratio (x) = 0.00126 0.69696
# Poissons Ratio (y) = 0.00243 0.39765
# Poissons Ratio (z) = 0.44795 0.13293
#
# Static dielectric constant tensor:
#      x y z
#    x 1.930130 -0.045680 0.006420 
#    y -0.045680 1.994970 -0.040520 
#    z 0.006420 -0.040520 1.978960 
# 
# From -- ./inp_files/286072.got.cif
#   From: 2010.05.17/outbox.cif.g08.bks.cpg/sg2_144_cif.got.tgz:286072.got - 2010.06.03 11:33:40.
