data_PCOD9099005
_publ_section_title
;
Structure prediction by ZEFSAII (Michael W. Deem and Ramdas Pophale) SiO2 
 PCOD9099005
Probable space group: P -1
;
_chemical_formula_sum "Si O2"
_cell_formula_units_Z 16
_cell_length_a 19.415859
_cell_length_b 9.511665
_cell_length_c 12.107397
_cell_angle_alpha 106.703452
_cell_angle_beta 30.382674
_cell_angle_gamma 85.376428
_cell_volume 795.969625
_symmetry_space_group_name_H-M "P -1"
_symmetry_group_IT_number 2
_symmetry_cell_setting 'triclinic'
loop_
_space_group_symop_operation_xyz
x,y,z
-x,-y,-z
loop_
_atom_site_type_symbol
_atom_site_label
_atom_site_fract_x
_atom_site_fract_y
_atom_site_fract_z
Si Si1 0.448816 0.278360 0.914933
Si Si2 0.734547 0.439418 0.575179
Si Si3 0.078362 0.152935 0.559864
Si Si4 0.933037 0.384581 0.591756
Si Si5 0.143746 0.378751 0.677309
Si Si6 0.038879 0.060399 0.213825
Si Si7 0.783754 0.151607 0.296501
Si Si8 0.544634 0.035485 0.067060
O O1 0.649464 0.144773 0.551469
O O2 0.404387 0.141466 0.969878
O O3 0.432376 0.376524 0.077440
O O4 0.282284 0.464295 0.113523
O O5 0.856951 0.491176 0.383325
O O6 0.699366 0.372056 0.497649
O O7 0.856155 0.243119 0.438852
O O8 0.108175 0.249977 0.637692
O O9 0.958265 0.316428 0.667292
O O10 0.998888 0.060964 0.695335
O O11 0.284101 0.981720 0.185594
O O12 0.000000 0.500000 0.500000
O O13 0.055381 0.182917 0.303261
O O14 0.347505 0.242805 0.418439
O O15 0.000000 0.500000 0.000000
O O16 0.198931 0.911718 0.868530
O O17 0.000000 0.000000 0.000000
O O18 0.500000 0.000000 0.000000
#
# Coordination Sequence:
#
# PCOD9099005 Si02
#       8
#     2   2   2   2   2   2   2   2
#     4  11  21  40  61  94 121 170 210 249 302 375
#     4  10  20  37  58  92 123 167 198 249 309 375
#     4  11  21  42  63  90 123 166 207 253 306 365
#     4  11  22  44  66  87 120 164 222 254 295 374
#     4  11  23  36  61  94 130 155 201 259 314 365
#     4  10  23  38  62  91 120 161 208 259 311 358
#     4  10  23  36  60  91 132 158 198 255 318 365
#     4  10  21  35  62  89 127 156 209 252 306 364
#
# _framework density 20.10127
#
# number of rings (size 3 to 8) (size 9 to 14) (size 15 to 20)
#    0.000    1.500    3.750    2.250   10.500    2.000 
#    0.000    2.500    0.000    0.000    0.000    0.000 
#    0.000    0.000    0.000    0.000    0.000    0.000 
#
# Total GULP energy -89226.160315 kJ/mol
# GULP energy per Si atom -5576.635020 kJ/mol
# Density = 2.005552 g / cm^3
# Si number density = 20.101270 Si / 1000 Ang^3
#
#
#
# Elastic Constant Matrix: (Units=GPa)
#
#
# Indices 1 2 3 4 5 6 
#
# 1 58.4867 32.2672 37.8233 2.3369 14.1708 5.2026
# 2 32.2672 130.4046 33.7327 -12.3106 17.6236 0.1597
# 3 37.8233 33.7327 139.8272 -21.2691 22.5732 -10.7147
# 4 2.3369 -12.3106 -21.2691 26.7912 -4.0245 -5.1712
# 5 14.1708 17.6236 22.5732 -4.0245 28.8532 10.3223
# 6 5.2026 0.1597 -10.7147 -5.1712 10.3223 32.4477
#
#
#
# Elastic Compliance Matrix: (Units=1/GPa)
#
#
# Indices 1 2 3 4 5 6 
#
# 1 0.027541 -0.005596 -0.008478 -0.013718 -0.002297 -0.008643
# 2 -0.005596 0.009961 0.001022 0.005877 -0.004598 0.003585
# 3 -0.008478 0.001022 0.013364 0.012520 -0.008967 0.010615
# 4 -0.013718 0.005877 0.012520 0.053578 -0.005061 0.016454
# 5 -0.002297 -0.004598 -0.008967 -0.005061 0.052033 -0.019929
# 6 -0.008643 0.003585 0.010615 0.016454 -0.019929 0.044654
#
#
# Mechanical properties :
#
#
# Convention : Reuss Voigt Hill
#
# Bulk Modulus (GPa) = 40.38521 59.59608 49.99064
# Shear Modulus (GPa) = 21.23232 32.61146 26.92189
#
# Velocity S-wave (km/s) = 3.25355 4.03222 3.66363
# Velocity P-wave (km/s) = 5.85223 7.16873 6.54367
#
# Compressibility (1/GPa) = 0.02476154
#
# Stress axis : x y z
#
# Youngs Moduli (GPa) = 36.30909 100.39596 74.82810
#
# Poissons Ratio (x) = 0.56178 0.63440
# Poissons Ratio (y) = 0.20317 -0.07645
# Poissons Ratio (z) = 0.30783 -0.10257
#
# Static dielectric constant tensor:
#      x y z
#    x 1.771840 0.006870 -0.008780 
#    y 0.006870 1.740230 0.013300 
#    z -0.008780 0.013300 1.760820 
# 
# From -- ./inp_files/346353.got.cif
#   From: 2010.05.17/outbox.cif.g08.bks.cpg/sg2_174_cif.got.tgz:346353.got - 2010.06.03 11:33:40.
