data_PCOD9099273
_publ_section_title
;
Structure prediction by ZEFSAII (Michael W. Deem and Ramdas Pophale) SiO2 
 PCOD9099273
Probable space group: P -1
;
_chemical_formula_sum "Si O2"
_cell_formula_units_Z 14
_cell_length_a 14.183531
_cell_length_b 22.149817
_cell_length_c 11.414625
_cell_angle_alpha 25.468642
_cell_angle_beta 145.287973
_cell_angle_gamma 158.474534
_cell_volume 562.181449
_symmetry_space_group_name_H-M "P -1"
_symmetry_group_IT_number 2
_symmetry_cell_setting 'triclinic'
loop_
_space_group_symop_operation_xyz
x,y,z
-x,-y,-z
loop_
_atom_site_type_symbol
_atom_site_label
_atom_site_fract_x
_atom_site_fract_y
_atom_site_fract_z
Si Si1 0.691385 0.786219 0.062344
Si Si2 0.896210 0.481875 0.686104
Si Si3 0.973332 0.759185 0.739529
Si Si4 0.532663 0.401262 0.067791
Si Si5 0.089295 0.317238 0.851041
Si Si6 0.368321 0.064292 0.778347
Si Si7 0.745461 0.526966 0.672433
O O1 0.654429 0.594593 0.377952
O O2 0.501058 0.713116 0.100450
O O3 0.571623 0.760329 0.862865
O O4 0.000000 0.000000 0.000000
O O5 0.027774 0.670111 0.397474
O O6 0.914324 0.541540 0.733970
O O7 0.597786 0.299882 0.658244
O O8 0.978151 0.374517 0.949086
O O9 0.219053 0.003798 0.610580
O O10 0.901247 0.705384 0.624225
O O11 0.731882 0.636976 0.790430
O O12 0.720219 0.467742 0.245662
O O13 0.284891 0.325178 0.992348
O O14 0.857891 0.103876 0.063840
O O15 0.500000 0.000000 0.000000
#
# Coordination Sequence:
#
# PCOD9099273 Si02
#       7
#     2   2   2   2   2   2   2
#     4  10  21  37  59  82 116 153 189 236 290 336
#     4  11  21  36  63  88 112 157 189 234 290 337
#     4   9  20  39  57  83 123 152 189 233 286 344
#     4   9  19  37  56  83 113 150 190 236 282 336
#     4  10  20  37  60  81 117 147 193 241 279 338
#     4   9  21  37  57  86 115 149 193 234 280 340
#     4  10  21  37  58  85 117 149 194 235 282 344
#
# _framework density 24.902992000000001
#
# number of rings (size 3 to 8) (size 9 to 14) (size 15 to 20)
#    0.000    2.286    1.429    0.429    2.000    6.286 
#    0.000   10.714    0.000    8.571    0.000    0.000 
#    0.000    0.000    0.000    0.000    0.000    0.000 
#
# Total GULP energy -78137.998697 kJ/mol
# GULP energy per Si atom -5581.285621 kJ/mol
# Density = 2.484631 g / cm^3
# Si number density = 24.902992 Si / 1000 Ang^3
#
#
#
# Elastic Constant Matrix: (Units=GPa)
#
#
# Indices 1 2 3 4 5 6 
#
# 1 107.7828 8.4345 22.6450 6.2729 -25.4459 2.8816
# 2 8.4345 105.7823 11.3038 -1.3303 -24.6732 -15.7351
# 3 22.6450 11.3038 62.3673 13.4881 -14.8283 -1.0819
# 4 6.2729 -1.3303 13.4881 39.2103 1.5994 -5.3610
# 5 -25.4459 -24.6732 -14.8283 1.5994 30.3345 12.3346
# 6 2.8816 -15.7351 -1.0819 -5.3610 12.3346 39.5934
#
#
#
# Elastic Compliance Matrix: (Units=1/GPa)
#
#
# Indices 1 2 3 4 5 6 
#
# 1 0.012944 0.001506 -0.001184 -0.002859 0.013701 -0.005031
# 2 0.001506 0.011976 -0.000251 0.000029 0.010294 0.001440
# 3 -0.001184 -0.000251 0.020771 -0.007951 0.010978 -0.003943
# 4 -0.002859 0.000029 -0.007951 0.030164 -0.010894 0.007480
# 5 0.013701 0.010294 0.010978 -0.010894 0.066404 -0.018768
# 6 -0.005031 0.001440 -0.003943 0.007480 -0.018768 0.032947
#
#
# Mechanical properties :
#
#
# Convention : Reuss Voigt Hill
#
# Bulk Modulus (GPa) = 21.81902 40.07767 30.94834
# Shear Modulus (GPa) = 26.26848 37.39756 31.83302
#
# Velocity S-wave (km/s) = 3.25134 3.87942 3.57918
# Velocity P-wave (km/s) = 4.78284 6.01623 5.43464
#
# Compressibility (1/GPa) = 0.04583158
#
# Stress axis : x y z
#
# Youngs Moduli (GPa) = 77.25365 83.50219 48.14447
#
# Poissons Ratio (x) = -0.12573 0.05702
# Poissons Ratio (y) = -0.11632 0.01208
# Poissons Ratio (z) = 0.09150 0.02096
#
# Static dielectric constant tensor:
#      x y z
#    x 2.054780 -0.009340 -0.034260 
#    y -0.009340 2.042470 -0.017150 
#    z -0.034260 -0.017150 1.978160 
# 
# From -- ./inp_files/65407.got.cif
#   From: 2010.05.17/outbox.cif.g08.bks.cpg/sg2_33_cif.got.tgz:65407.got - 2010.06.03 11:33:40.
