data_PCOD9099177
_publ_section_title
;
Structure prediction by ZEFSAII (Michael W. Deem and Ramdas Pophale) SiO2 
 PCOD9099177
Probable space group: P -1
;
_chemical_formula_sum "Si O2"
_cell_formula_units_Z 16
_cell_length_a 6.315037
_cell_length_b 9.545208
_cell_length_c 19.357067
_cell_angle_alpha 67.350033
_cell_angle_beta 52.329657
_cell_angle_gamma 52.477891
_cell_volume 732.352489
_symmetry_space_group_name_H-M "P -1"
_symmetry_group_IT_number 2
_symmetry_cell_setting 'triclinic'
loop_
_space_group_symop_operation_xyz
x,y,z
-x,-y,-z
loop_
_atom_site_type_symbol
_atom_site_label
_atom_site_fract_x
_atom_site_fract_y
_atom_site_fract_z
Si Si1 0.901746 0.281362 0.482306
Si Si2 0.642182 0.647479 0.875443
Si Si3 0.810777 0.326310 0.646025
Si Si4 0.881844 0.536318 0.701690
Si Si5 0.535990 0.080752 0.579855
Si Si6 0.023724 0.626075 0.026563
Si Si7 0.296446 0.017626 0.920785
Si Si8 0.389920 0.171923 0.739471
O O1 0.775926 0.378910 0.562150
O O2 0.940030 0.393516 0.394035
O O3 0.689089 0.201963 0.516259
O O4 0.242663 0.109177 0.461395
O O5 0.907374 0.474444 0.894486
O O6 0.705594 0.654637 0.780531
O O7 0.587210 0.819447 0.896107
O O8 0.328249 0.638358 0.946189
O O9 0.629700 0.222638 0.714238
O O10 0.698103 0.487855 0.691099
O O11 0.177157 0.190413 0.610404
O O12 0.119920 0.350197 0.725067
O O13 0.553515 0.045858 0.665461
O O14 0.733967 0.826124 0.053817
O O15 0.000000 0.500000 0.000000
O O16 0.268830 0.091307 0.835121
O O17 0.000000 0.000000 0.000000
#
# Coordination Sequence:
#
# PCOD9099177 Si02
#       8
#     2   2   2   2   2   2   2   2
#     4  10  20  37  59  88 120 163 209 253 311 367
#     4  10  22  40  63  91 121 164 203 252 316 371
#     4  10  22  36  58  88 123 163 204 263 306 363
#     4  11  22  36  60  87 124 164 206 256 308 370
#     4   9  20  38  60  83 120 163 207 259 307 365
#     4  10  22  41  65  90 124 155 203 260 312 375
#     4  10  21  41  66  91 124 162 206 259 314 378
#     4  10  21  39  58  86 123 161 209 258 310 370
#
# _framework density 21.847404999999998
#
# number of rings (size 3 to 8) (size 9 to 14) (size 15 to 20)
#    0.000    2.000    1.250    1.500    1.750    6.000 
#    0.000    7.500    0.000    0.000    0.000    0.000 
#    0.000    0.000    0.000    0.000    0.000    0.000 
#
# Total GULP energy -89325.024440 kJ/mol
# GULP energy per Si atom -5582.814027 kJ/mol
# Density = 2.179768 g / cm^3
# Si number density = 21.847405 Si / 1000 Ang^3
#
#
#
# Elastic Constant Matrix: (Units=GPa)
#
#
# Indices 1 2 3 4 5 6 
#
# 1 41.3864 19.5443 28.2099 1.7493 8.6088 17.3030
# 2 19.5443 102.0831 28.7285 12.9767 8.4267 16.6116
# 3 28.2099 28.7285 158.5076 -19.2887 6.5383 18.4911
# 4 1.7493 12.9767 -19.2887 44.2585 8.4619 9.3882
# 5 8.6088 8.4267 6.5383 8.4619 14.3946 9.7982
# 6 17.3030 16.6116 18.4911 9.3882 9.7982 27.2520
#
#
#
# Elastic Compliance Matrix: (Units=1/GPa)
#
#
# Indices 1 2 3 4 5 6 
#
# 1 0.036695 -0.003015 -0.003184 0.003426 -0.009013 -0.017239
# 2 -0.003015 0.011762 -0.001660 -0.003374 -0.000431 -0.002811
# 3 -0.003184 -0.001660 0.008350 0.005356 -0.001347 -0.003992
# 4 0.003426 -0.003374 0.005356 0.030432 -0.014174 -0.009140
# 5 -0.009013 -0.000431 -0.001347 -0.014174 0.100676 -0.024415
# 6 -0.017239 -0.002811 -0.003992 -0.009140 -0.024415 0.063990
#
#
# Mechanical properties :
#
#
# Convention : Reuss Voigt Hill
#
# Bulk Modulus (GPa) = 24.33863 50.54915 37.44389
# Shear Modulus (GPa) = 17.77342 32.21398 24.99370
#
# Velocity S-wave (km/s) = 2.85533 3.84409 3.38599
# Velocity P-wave (km/s) = 4.69415 6.54907 5.69760
#
# Compressibility (1/GPa) = 0.04108696
#
# Stress axis : x y z
#
# Youngs Moduli (GPa) = 27.25202 85.01620 119.76763
#
# Poissons Ratio (x) = 0.25636 0.38137
# Poissons Ratio (y) = 0.08218 0.19882
# Poissons Ratio (z) = 0.08678 0.14113
#
# Static dielectric constant tensor:
#      x y z
#    x 1.782480 0.010160 0.023080 
#    y 0.010160 1.847510 0.044760 
#    z 0.023080 0.044760 1.800770 
# 
# From -- ./inp_files/126380.got.cif
#   From: 2010.05.17/outbox.cif.g08.bks.cpg/sg2_64_cif.got.tgz:126380.got - 2010.06.03 11:33:40.
