data_PCOD9099787
_publ_section_title
;
Structure prediction by ZEFSAII (Michael W. Deem and Ramdas Pophale) SiO2 
 PCOD9099787
Probable space group: P -1
;
_chemical_formula_sum "Si O2"
_cell_formula_units_Z 16
_cell_length_a 7.321824
_cell_length_b 13.966225
_cell_length_c 9.938921
_cell_angle_alpha 124.256889
_cell_angle_beta 51.306072
_cell_angle_gamma 117.694218
_cell_volume 645.526978
_symmetry_space_group_name_H-M "P -1"
_symmetry_group_IT_number 2
_symmetry_cell_setting 'triclinic'
loop_
_space_group_symop_operation_xyz
x,y,z
-x,-y,-z
loop_
_atom_site_type_symbol
_atom_site_label
_atom_site_fract_x
_atom_site_fract_y
_atom_site_fract_z
Si Si1 0.415972 0.351135 0.139310
Si Si2 0.738638 0.479800 0.451437
Si Si3 0.005098 0.861735 0.895243
Si Si4 0.108837 0.579087 0.136955
Si Si5 0.565443 0.128726 0.504860
Si Si6 0.819509 0.164458 0.665052
Si Si7 0.326140 0.761009 0.832977
Si Si8 0.728772 0.930879 0.651292
O O1 0.275329 0.445771 0.347742
O O2 0.598549 0.307681 0.128545
O O3 0.231276 0.233377 0.096227
O O4 0.606299 0.412522 0.991784
O O5 0.500000 0.500000 0.500000
O O6 0.713427 0.339267 0.346171
O O7 0.969774 0.530556 0.297042
O O8 0.205700 0.853420 0.683171
O O9 0.101395 0.824770 0.966463
O O10 0.000000 0.000000 0.000000
O O11 0.052702 0.710326 0.244738
O O12 0.000000 0.500000 0.000000
O O13 0.641628 0.199051 0.661187
O O14 0.349552 0.133193 0.506737
O O15 0.500000 0.000000 0.500000
O O16 0.011599 0.093763 0.455235
O O17 0.705361 0.066897 0.748244
O O18 0.547795 0.863475 0.785886
#
# Coordination Sequence:
#
# PCOD9099787 Si02
#       8
#     2   2   2   2   2   2   2   2
#     4  11  25  44  69  95 133 181 213 277 335 371
#     4  10  20  42  70  95 132 173 224 272 321 395
#     4  11  25  42  63  99 137 168 220 273 328 402
#     4  12  23  40  69  99 129 174 223 266 327 392
#     4   9  19  38  61  87 124 169 206 259 324 377
#     4  10  20  37  61  92 127 162 218 260 326 389
#     4  10  21  41  66  94 129 170 224 261 334 392
#     4   9  19  35  63  95 119 168 215 263 321 395
#
# _framework density 24.785951000000001
#
# number of rings (size 3 to 8) (size 9 to 14) (size 15 to 20)
#    0.000    1.750    2.500    3.000    5.250    1.000 
#    6.750    0.625    0.000    0.000    0.000    0.000 
#    0.000    0.000    0.000    0.000    0.000    0.000 
#
# Total GULP energy -89304.792337 kJ/mol
# GULP energy per Si atom -5581.549521 kJ/mol
# Density = 2.472954 g / cm^3
# Si number density = 24.785951 Si / 1000 Ang^3
#
#
#
# Elastic Constant Matrix: (Units=GPa)
#
#
# Indices 1 2 3 4 5 6 
#
# 1 101.0959 24.4964 16.8761 -2.4870 2.9149 2.3639
# 2 24.4964 155.5228 51.0918 -6.1218 -10.8908 23.8935
# 3 16.8761 51.0918 87.1621 -10.1295 -9.8029 14.3411
# 4 -2.4870 -6.1218 -10.1295 46.2715 4.2617 -7.3286
# 5 2.9149 -10.8908 -9.8029 4.2617 18.0407 -2.6884
# 6 2.3639 23.8935 14.3411 -7.3286 -2.6884 49.1454
#
#
#
# Elastic Compliance Matrix: (Units=1/GPa)
#
#
# Indices 1 2 3 4 5 6 
#
# 1 0.010614 -0.001444 -0.001642 0.000428 -0.003499 0.000543
# 2 -0.001444 0.008604 -0.004026 -0.000544 0.002942 -0.002859
# 3 -0.001642 -0.004026 0.015287 0.001936 0.005410 -0.001840
# 4 0.000428 -0.000544 0.001936 0.022835 -0.004316 0.002848
# 5 -0.003499 0.002942 0.005410 -0.004316 0.061715 -0.000108
# 6 0.000543 -0.002859 -0.001840 0.002848 -0.000108 0.022667
#
#
# Mechanical properties :
#
#
# Convention : Reuss Voigt Hill
#
# Bulk Modulus (GPa) = 49.30543 58.74549 54.02546
# Shear Modulus (GPa) = 30.73039 39.44595 35.08817
#
# Velocity S-wave (km/s) = 3.52494 3.99364 3.76659
# Velocity P-wave (km/s) = 6.04174 6.70956 6.38439
#
# Compressibility (1/GPa) = 0.02028174
#
# Stress axis : x y z
#
# Youngs Moduli (GPa) = 94.21246 116.22885 65.41680
#
# Poissons Ratio (x) = 0.16785 0.10740
# Poissons Ratio (y) = 0.13606 0.26334
# Poissons Ratio (z) = 0.15467 0.46789
#
# Static dielectric constant tensor:
#      x y z
#    x 2.091670 -0.018580 0.124250 
#    y -0.018580 2.034080 -0.087450 
#    z 0.124250 -0.087450 2.106910 
# 
# From -- ./inp_files/399558.got.cif
#   From: 2010.05.17/outbox.cif.g08.bks.cpg/sg2_200_cif.got.tgz:399558.got - 2010.06.03 11:33:40.
