data_PCOD9099964
_publ_section_title
;
Structure prediction by ZEFSAII (Michael W. Deem and Ramdas Pophale) SiO2 
 PCOD9099964
Probable space group: P -1
;
_chemical_formula_sum "Si O2"
_cell_formula_units_Z 14
_cell_length_a 8.307992
_cell_length_b 9.673720
_cell_length_c 10.409401
_cell_angle_alpha 67.872426
_cell_angle_beta 137.215715
_cell_angle_gamma 102.009298
_cell_volume 523.278777
_symmetry_space_group_name_H-M "P -1"
_symmetry_group_IT_number 2
_symmetry_cell_setting 'triclinic'
loop_
_space_group_symop_operation_xyz
x,y,z
-x,-y,-z
loop_
_atom_site_type_symbol
_atom_site_label
_atom_site_fract_x
_atom_site_fract_y
_atom_site_fract_z
Si Si1 0.600674 0.574063 0.406091
Si Si2 0.256172 0.844360 0.195250
Si Si3 0.982554 0.338301 0.235674
Si Si4 0.934277 0.888689 0.194934
Si Si5 0.296903 0.049842 0.500377
Si Si6 0.561295 0.153020 0.137560
Si Si7 0.414926 0.426728 0.109153
O O1 0.500000 0.500000 0.500000
O O2 0.417858 0.724814 0.247853
O O3 0.868665 0.611349 0.573275
O O4 0.573810 0.473543 0.302225
O O5 0.421978 0.933078 0.358449
O O6 0.074658 0.778475 0.211030
O O7 0.128191 0.961053 0.979628
O O8 0.178507 0.215690 0.330621
O O9 0.771845 0.236699 0.176225
O O10 0.848540 0.490245 0.045266
O O11 0.671462 0.847365 0.088026
O O12 0.118324 0.931686 0.393104
O O13 0.325249 0.005661 0.684790
O O14 0.453135 0.251138 0.162598
O O15 0.500000 0.500000 0.000000
#
# Coordination Sequence:
#
# PCOD9099964 Si02
#       7
#     2   2   2   2   2   2   2
#     4  11  25  42  67  95 129 172 218 266 321 383
#     4   9  21  39  56  94 127 164 214 260 323 381
#     4  10  23  43  62  93 130 169 213 269 322 386
#     4  10  20  37  62  88 129 167 207 265 324 383
#     4  10  20  37  64  90 123 167 212 269 316 378
#     4  10  23  37  61  95 123 163 220 261 318 382
#     4  10  24  44  64  94 131 172 213 263 325 383
#
# _framework density 26.754379
#
# number of rings (size 3 to 8) (size 9 to 14) (size 15 to 20)
#    0.000    2.000    0.000    1.714    4.000    5.714 
#    5.143    0.000    0.000    0.000    0.000    0.000 
#    0.000    0.000    0.000    0.000    0.000    0.000 
#
# Total GULP energy -78155.823781 kJ/mol
# GULP energy per Si atom -5582.558841 kJ/mol
# Density = 2.669348 g / cm^3
# Si number density = 26.754379 Si / 1000 Ang^3
#
#
#
# Elastic Constant Matrix: (Units=GPa)
#
#
# Indices 1 2 3 4 5 6 
#
# 1 90.1785 14.4005 39.7367 18.8372 13.4842 3.5616
# 2 14.4005 82.4022 28.1124 9.0219 -6.1769 -6.1101
# 3 39.7367 28.1124 158.5402 39.4072 19.8198 -2.6079
# 4 18.8372 9.0219 39.4072 62.6891 -5.1447 -2.9445
# 5 13.4842 -6.1769 19.8198 -5.1447 34.4339 3.5521
# 6 3.5616 -6.1101 -2.6079 -2.9445 3.5521 16.3141
#
#
#
# Elastic Compliance Matrix: (Units=1/GPa)
#
#
# Indices 1 2 3 4 5 6 
#
# 1 0.013741 -0.002094 -0.001687 -0.003339 -0.004914 -0.003587
# 2 -0.002094 0.013985 -0.002666 0.000873 0.004536 0.004439
# 3 -0.001687 -0.002666 0.009338 -0.005425 -0.006128 0.001218
# 4 -0.003339 0.000873 -0.005425 0.020963 0.007477 0.002344
# 5 -0.004914 0.004536 -0.006128 0.007477 0.036929 -0.004899
# 6 -0.003587 0.004439 0.001218 0.002344 -0.004899 0.065427
#
#
# Mechanical properties :
#
#
# Convention : Reuss Voigt Hill
#
# Bulk Modulus (GPa) = 41.37746 55.06892 48.22319
# Shear Modulus (GPa) = 27.57346 39.27884 33.42615
#
# Velocity S-wave (km/s) = 3.21380 3.83577 3.53848
# Velocity P-wave (km/s) = 5.41023 6.34392 5.89559
#
# Compressibility (1/GPa) = 0.02416775
#
# Stress axis : x y z
#
# Youngs Moduli (GPa) = 72.77488 71.50696 107.09153
#
# Poissons Ratio (x) = 0.14977 0.18072
# Poissons Ratio (y) = 0.15242 0.28550
# Poissons Ratio (z) = 0.12281 0.19063
#
# Static dielectric constant tensor:
#      x y z
#    x 2.301650 -0.016360 -0.062590 
#    y -0.016360 2.216490 -0.056350 
#    z -0.062590 -0.056350 2.148520 
# 
# From -- ./inp_files/68788.got.cif
#   From: 2010.05.17/outbox.cif.g08.bks.cpg/sg2_35_cif.got.tgz:68788.got - 2010.06.03 11:33:40.
