data_PCOD9099520
_publ_section_title
;
Structure prediction by ZEFSAII (Michael W. Deem and Ramdas Pophale) SiO2 
 PCOD9099520
Probable space group: P -1
;
_chemical_formula_sum "Si O2"
_cell_formula_units_Z 16
_cell_length_a 8.746862
_cell_length_b 10.073177
_cell_length_c 13.772049
_cell_angle_alpha 96.542918
_cell_angle_beta 61.543198
_cell_angle_gamma 134.725862
_cell_volume 708.764916
_symmetry_space_group_name_H-M "P -1"
_symmetry_group_IT_number 2
_symmetry_cell_setting 'triclinic'
loop_
_space_group_symop_operation_xyz
x,y,z
-x,-y,-z
loop_
_atom_site_type_symbol
_atom_site_label
_atom_site_fract_x
_atom_site_fract_y
_atom_site_fract_z
Si Si1 0.816381 0.327625 0.398705
Si Si2 0.326766 0.513563 0.639709
Si Si3 0.351512 0.552591 0.164747
Si Si4 0.246773 0.945009 0.468969
Si Si5 0.874569 0.844830 0.422488
Si Si6 0.814271 0.496017 0.109746
Si Si7 0.655975 0.764973 0.896444
Si Si8 0.112846 0.152566 0.889863
O O1 0.758826 0.452614 0.427299
O O2 0.826991 0.242769 0.484364
O O3 0.085580 0.461259 0.273641
O O4 0.559395 0.130686 0.400643
O O5 0.638137 0.693294 0.560481
O O6 0.228036 0.307256 0.644239
O O7 0.200872 0.510573 0.770449
O O8 0.299125 0.367614 0.139159
O O9 0.577048 0.694715 0.190101
O O10 0.475222 0.683374 0.039868
O O11 0.126889 0.921438 0.400611
O O12 0.128203 0.997023 0.578034
O O13 0.523236 0.300030 0.144755
O O14 0.899970 0.696308 0.072848
O O15 0.000000 0.500000 0.000000
O O16 0.921163 0.996003 0.849825
O O17 0.000000 0.000000 0.000000
#
# Coordination Sequence:
#
# PCOD9099520 Si02
#       8
#     2   2   2   2   2   2   2   2
#     4  10  20  37  60  93 124 158 202 261 319 367
#     4  10  22  39  61  89 127 165 208 257 316 369
#     4   9  18  35  61  89 128 159 206 260 314 368
#     4   9  20  38  66  91 121 160 208 263 317 373
#     4   9  20  42  63  88 123 163 211 260 307 383
#     4  11  23  39  62  93 131 169 205 261 318 372
#     4   9  19  37  60  86 124 172 208 255 303 377
#     4   9  20  39  61  90 119 169 220 257 305 374
#
# _framework density 22.574480999999999
#
# number of rings (size 3 to 8) (size 9 to 14) (size 15 to 20)
#    0.000    2.500    0.000    1.500    3.500    2.000 
#    6.750    0.000    5.500    0.000    0.000    0.000 
#    0.000    0.000    0.000    0.000    0.000    0.000 
#
# Total GULP energy -89247.521915 kJ/mol
# GULP energy per Si atom -5577.970120 kJ/mol
# Density = 2.252310 g / cm^3
# Si number density = 22.574481 Si / 1000 Ang^3
#
#
#
# Elastic Constant Matrix: (Units=GPa)
#
#
# Indices 1 2 3 4 5 6 
#
# 1 105.7387 42.1248 25.8928 -17.2738 -7.1754 1.4888
# 2 42.1248 125.9878 26.1955 -10.6406 -3.4429 14.1378
# 3 25.8928 26.1955 71.4209 -17.8061 -8.4977 -0.2157
# 4 -17.2738 -10.6406 -17.8061 30.4594 -0.1883 1.2536
# 5 -7.1754 -3.4429 -8.4977 -0.1883 27.4708 -14.0226
# 6 1.4888 14.1378 -0.2157 1.2536 -14.0226 34.4062
#
#
#
# Elastic Compliance Matrix: (Units=1/GPa)
#
#
# Indices 1 2 3 4 5 6 
#
# 1 0.012204 -0.003502 -0.001554 0.004723 0.003375 0.002105
# 2 -0.003502 0.010230 -0.002859 0.000118 -0.003278 -0.005411
# 3 -0.001554 -0.002859 0.018695 0.008931 0.007081 0.003920
# 4 0.004723 0.000118 0.008931 0.040795 0.004333 0.000082
# 5 0.003375 -0.003278 0.007081 0.004333 0.050063 0.021491
# 6 0.002105 -0.005411 0.003920 0.000082 0.021491 0.039977
#
#
# Mechanical properties :
#
#
# Convention : Reuss Voigt Hill
#
# Bulk Modulus (GPa) = 39.53080 54.61930 47.07505
# Shear Modulus (GPa) = 25.48044 32.39624 28.93834
#
# Velocity S-wave (km/s) = 3.36330 3.79236 3.58425
# Velocity P-wave (km/s) = 5.71241 6.58966 6.16666
#
# Compressibility (1/GPa) = 0.02529673
#
# Stress axis : x y z
#
# Youngs Moduli (GPa) = 81.93911 97.74781 53.49135
#
# Poissons Ratio (x) = 0.34235 0.08315
# Poissons Ratio (y) = 0.28698 0.15295
# Poissons Ratio (z) = 0.12737 0.27950
#
# Static dielectric constant tensor:
#      x y z
#    x 1.876360 0.014630 0.053200 
#    y 0.014630 1.866610 0.015220 
#    z 0.053200 0.015220 1.847790 
# 
# From -- ./inp_files/499183.got.cif
#   From: 2010.05.17/outbox.cif.g08.bks.cpg/sg2_250_cif.got.tgz:499183.got - 2010.06.03 11:33:40.
