data_PCOD9099097
_publ_section_title
;
Structure prediction by ZEFSAII (Michael W. Deem and Ramdas Pophale) SiO2 
 PCOD9099097
Probable space group: P -1
;
_chemical_formula_sum "Si O2"
_cell_formula_units_Z 14
_cell_length_a 22.914530
_cell_length_b 9.229905
_cell_length_c 6.687122
_cell_angle_alpha 48.821840
_cell_angle_beta 123.960358
_cell_angle_gamma 135.419293
_cell_volume 736.353642
_symmetry_space_group_name_H-M "P -1"
_symmetry_group_IT_number 2
_symmetry_cell_setting 'triclinic'
loop_
_space_group_symop_operation_xyz
x,y,z
-x,-y,-z
loop_
_atom_site_type_symbol
_atom_site_label
_atom_site_fract_x
_atom_site_fract_y
_atom_site_fract_z
Si Si1 0.520974 0.077697 0.747499
Si Si2 0.831442 0.542480 0.500634
Si Si3 0.127532 0.086923 0.073050
Si Si4 0.830409 0.257856 0.384849
Si Si5 0.694774 0.202528 0.864099
Si Si6 0.059661 0.310214 0.040881
Si Si7 0.455387 0.234303 0.184799
O O1 0.621576 0.239334 0.759237
O O2 0.469293 0.182689 0.481861
O O3 0.494958 0.852304 0.771247
O O4 0.500000 0.000000 0.000000
O O5 0.838007 0.383087 0.494457
O O6 0.752490 0.382148 0.640216
O O7 0.909977 0.658463 0.700535
O O8 0.828422 0.731965 0.189544
O O9 0.172905 0.972711 0.362742
O O10 0.106120 0.212826 0.088403
O O11 0.038876 0.872572 0.012929
O O12 0.750815 0.215061 0.144268
O O13 0.908718 0.443116 0.225034
O O14 0.640374 0.941832 0.907763
O O15 0.500000 0.500000 0.000000
#
# Coordination Sequence:
#
# PCOD9099097 Si02
#       7
#     2   2   2   2   2   2   2
#     4   9  20  39  62  82 109 147 185 230 285 335
#     4  10  21  37  54  82 117 152 186 232 285 332
#     4  10  20  37  59  85 112 154 194 228 280 332
#     4  10  21  36  55  86 115 152 188 232 285 326
#     4   9  21  39  56  80 124 142 182 242 282 332
#     4   9  20  38  58  81 119 148 193 240 268 330
#     4   9  20  40  59  85 108 143 190 228 280 341
#
# _framework density 19.012604
#
# number of rings (size 3 to 8) (size 9 to 14) (size 15 to 20)
#    0.857    1.714    0.000    0.857    2.000    3.429 
#   10.286    0.000    0.000    0.000    0.000    0.000 
#    0.000    0.000    0.000    0.000    0.000    0.000 
#
# Total GULP energy -77966.950498 kJ/mol
# GULP energy per Si atom -5569.067893 kJ/mol
# Density = 1.896933 g / cm^3
# Si number density = 19.012604 Si / 1000 Ang^3
#
#
#
# Elastic Constant Matrix: (Units=GPa)
#
#
# Indices 1 2 3 4 5 6 
#
# 1 28.7069 12.0571 20.9298 7.0266 -6.9665 5.2304
# 2 12.0571 76.5738 52.3070 6.9552 2.9881 14.5832
# 3 20.9298 52.3070 130.2700 10.8599 -10.1943 -10.2875
# 4 7.0266 6.9552 10.8599 32.6635 -1.8194 3.7310
# 5 -6.9665 2.9881 -10.1943 -1.8194 21.5662 1.2977
# 6 5.2304 14.5832 -10.2875 3.7310 1.2977 16.0811
#
#
#
# Elastic Compliance Matrix: (Units=1/GPa)
#
#
# Indices 1 2 3 4 5 6 
#
# 1 0.049457 0.004547 -0.010630 -0.004352 0.011574 -0.026935
# 2 0.004547 0.033339 -0.018460 0.002510 -0.009055 -0.043374
# 3 -0.010630 -0.018460 0.020280 -0.004008 0.006351 0.033590
# 4 -0.004352 0.002510 -0.004008 0.033623 -0.000137 -0.011215
# 5 0.011574 -0.009055 0.006351 -0.000137 0.054102 0.004176
# 6 -0.026935 -0.043374 0.033590 -0.011215 0.004176 0.134033
#
#
# Mechanical properties :
#
#
# Convention : Reuss Voigt Hill
#
# Bulk Modulus (GPa) = 18.52201 45.12651 31.82426
# Shear Modulus (GPa) = 12.75780 24.07928 18.41854
#
# Velocity S-wave (km/s) = 2.59321 3.56264 3.11586
# Velocity P-wave (km/s) = 4.32775 6.38042 5.45157
#
# Compressibility (1/GPa) = 0.05398981
#
# Stress axis : x y z
#
# Youngs Moduli (GPa) = 20.21963 29.99467 49.30860
#
# Poissons Ratio (x) = -0.13640 0.52417
# Poissons Ratio (y) = -0.09195 0.91026
# Poissons Ratio (z) = 0.21494 0.55371
#
# Static dielectric constant tensor:
#      x y z
#    x 1.618500 -0.058240 -0.034890 
#    y -0.058240 1.571420 -0.075110 
#    z -0.034890 -0.075110 1.544080 
# 
# From -- ./inp_files/122783.got.cif
#   From: 2010.05.17/outbox.cif.g08.bks.cpg/sg2_62_cif.got.tgz:122783.got - 2010.06.03 11:33:40.
