data_PCOD9099690
_publ_section_title
;
Structure prediction by ZEFSAII (Michael W. Deem and Ramdas Pophale) SiO2 
 PCOD9099690
Probable space group: P -1
;
_chemical_formula_sum "Si O2"
_cell_formula_units_Z 16
_cell_length_a 14.538399
_cell_length_b 11.403112
_cell_length_c 5.470997
_cell_angle_alpha 92.241125
_cell_angle_beta 73.802863
_cell_angle_gamma 128.448276
_cell_volume 671.167647
_symmetry_space_group_name_H-M "P -1"
_symmetry_group_IT_number 2
_symmetry_cell_setting 'triclinic'
loop_
_space_group_symop_operation_xyz
x,y,z
-x,-y,-z
loop_
_atom_site_type_symbol
_atom_site_label
_atom_site_fract_x
_atom_site_fract_y
_atom_site_fract_z
Si Si1 0.580928 0.912444 0.638514
Si Si2 0.608860 0.367246 0.976839
Si Si3 0.212654 0.286285 0.979478
Si Si4 0.345087 0.874226 0.790864
Si Si5 0.533329 0.595473 0.236361
Si Si6 0.095199 0.272338 0.567086
Si Si7 0.837956 0.186820 0.704541
Si Si8 0.216789 0.626361 0.457668
O O1 0.477357 0.928394 0.789472
O O2 0.611715 0.967504 0.343917
O O3 0.712777 0.032691 0.677168
O O4 0.510492 0.744513 0.773850
O O5 0.558336 0.368605 0.748456
O O6 0.697021 0.326951 0.841630
O O7 0.699656 0.529917 0.051404
O O8 0.318271 0.268684 0.870107
O O9 0.131539 0.237391 0.791236
O O10 0.142682 0.238613 0.288642
O O11 0.305969 0.744955 0.611283
O O12 0.214268 0.804408 0.003740
O O13 0.500000 0.500000 0.500000
O O14 0.500000 0.500000 0.000000
O O15 0.154976 0.451741 0.538325
O O16 0.949772 0.184865 0.643590
O O17 0.869746 0.328652 0.534554
#
# Coordination Sequence:
#
# PCOD9099690 Si02
#       8
#     2   2   2   2   2   2   2   2
#     4  10  21  35  53  84 114 155 196 243 289 342
#     4  10  20  37  61  89 118 145 190 244 305 356
#     4  10  22  41  60  90 116 148 189 249 296 346
#     4  10  21  34  56  77 121 157 195 247 287 329
#     4  10  20  38  64  92 120 143 184 247 314 352
#     4  11  24  38  61  82 119 160 200 231 287 350
#     4  11  23  37  52  80 120 161 196 234 278 347
#     4  10  21  35  54  85 115 150 194 241 288 344
#
# _framework density 23.839051999999999
#
# number of rings (size 3 to 8) (size 9 to 14) (size 15 to 20)
#    0.000    1.750    1.250    3.750    8.750    1.500 
#    0.000    0.000    0.000    1.500    0.000    0.000 
#    0.000    0.000    0.000    0.000    0.000    0.000 
#
# Total GULP energy -89188.622945 kJ/mol
# GULP energy per Si atom -5574.288934 kJ/mol
# Density = 2.378479 g / cm^3
# Si number density = 23.839052 Si / 1000 Ang^3
#
#
#
# Elastic Constant Matrix: (Units=GPa)
#
#
# Indices 1 2 3 4 5 6 
#
# 1 176.8524 27.6153 17.7981 -6.9824 -2.7490 57.2049
# 2 27.6153 58.7076 6.7926 -4.6731 -6.1702 28.3299
# 3 17.7981 6.7926 97.9204 8.5695 0.8538 12.3388
# 4 -6.9824 -4.6731 8.5695 26.8664 4.3616 -3.4721
# 5 -2.7490 -6.1702 0.8538 4.3616 38.3528 -2.7176
# 6 57.2049 28.3299 12.3388 -3.4721 -2.7176 45.2449
#
#
#
# Elastic Compliance Matrix: (Units=1/GPa)
#
#
# Indices 1 2 3 4 5 6 
#
# 1 0.009764 0.002018 -0.000334 0.001271 -0.000064 -0.013424
# 2 0.002018 0.025236 -0.000062 0.002171 0.002683 -0.018009
# 3 -0.000334 -0.000062 0.010982 -0.003963 -0.000029 -0.002840
# 4 0.001271 0.002171 -0.003963 0.039956 -0.003949 0.000944
# 5 -0.000064 0.002683 -0.000029 -0.003949 0.026931 -0.000277
# 6 -0.013424 -0.018009 -0.002840 0.000944 -0.000277 0.051181
#
#
# Mechanical properties :
#
#
# Convention : Reuss Voigt Hill
#
# Bulk Modulus (GPa) = 20.31343 48.65470 34.48407
# Shear Modulus (GPa) = 28.21425 40.84444 34.52935
#
# Velocity S-wave (km/s) = 3.44398 4.14374 3.80996
# Velocity P-wave (km/s) = 4.93500 6.58393 5.81818
#
# Compressibility (1/GPa) = 0.04922852
#
# Stress axis : x y z
#
# Youngs Moduli (GPa) = 102.41348 39.62518 91.05578
#
# Poissons Ratio (x) = -0.07997 0.03040
# Poissons Ratio (y) = -0.20668 0.00560
# Poissons Ratio (z) = 0.03419 0.00244
#
# Static dielectric constant tensor:
#      x y z
#    x 2.044940 -0.096910 0.067890 
#    y -0.096910 1.938390 -0.011590 
#    z 0.067890 -0.011590 2.039290 
# 
# From -- ./inp_files/97074.got.cif
#   From: 2010.05.17/outbox.cif.g08.bks.cpg/sg2_49_cif.got.tgz:97074.got - 2010.06.03 11:33:40.
