data_PCOD9099378
_publ_section_title
;
Structure prediction by ZEFSAII (Michael W. Deem and Ramdas Pophale) SiO2 
 PCOD9099378
Probable space group: P -1
;
_chemical_formula_sum "Si O2"
_cell_formula_units_Z 16
_cell_length_a 18.701466
_cell_length_b 15.177768
_cell_length_c 11.660567
_cell_angle_alpha 26.965067
_cell_angle_beta 33.817715
_cell_angle_gamma 33.096057
_cell_volume 770.754660
_symmetry_space_group_name_H-M "P -1"
_symmetry_group_IT_number 2
_symmetry_cell_setting 'triclinic'
loop_
_space_group_symop_operation_xyz
x,y,z
-x,-y,-z
loop_
_atom_site_type_symbol
_atom_site_label
_atom_site_fract_x
_atom_site_fract_y
_atom_site_fract_z
Si Si1 0.261416 0.940642 0.205463
Si Si2 0.376825 0.247279 0.759468
Si Si3 0.865835 0.498709 0.392716
Si Si4 0.156175 0.859808 0.997634
Si Si5 0.656880 0.489583 0.292756
Si Si6 0.317101 0.757869 0.666717
Si Si7 0.080453 0.115498 0.436929
Si Si8 0.855229 0.917134 0.029042
O O1 0.122436 0.108129 0.256463
O O2 0.260122 0.722382 0.501321
O O3 0.381465 0.012004 0.009700
O O4 0.263748 0.951971 0.053748
O O5 0.261628 0.389827 0.655463
O O6 0.332513 0.327078 0.855953
O O7 0.524111 0.262325 0.521543
O O8 0.837527 0.337191 0.704627
O O9 0.890509 0.677342 0.227007
O O10 0.001408 0.350197 0.314689
O O11 0.255298 0.776360 0.853943
O O12 0.189162 0.016122 0.859869
O O13 0.000000 0.000000 0.000000
O O14 0.500000 0.500000 0.500000
O O15 0.694649 0.431038 0.177442
O O16 0.220950 0.973864 0.480374
O O17 0.979524 0.992497 0.742803
#
# Coordination Sequence:
#
# PCOD9099378 Si02
#       8
#     2   2   2   2   2   2   2   2
#     4  10  21  37  59  89 121 153 189 247 294 345
#     4  10  22  40  60  89 123 148 195 243 294 353
#     4  10  22  39  61  88 114 156 198 244 289 346
#     4  11  21  42  59  84 120 154 196 249 284 340
#     4   9  19  35  58  84 118 153 189 231 291 347
#     4  10  21  39  59  86 120 157 192 238 294 340
#     4  10  20  37  60  87 120 153 194 238 297 339
#     4  10  21  37  59  86 116 151 195 245 290 342
#
# _framework density 20.758875
#
# number of rings (size 3 to 8) (size 9 to 14) (size 15 to 20)
#    0.000    2.000    2.500    1.875    0.000   10.500 
#    0.000    7.500    0.000    0.000    0.000    0.000 
#    0.000    0.000    0.000    0.000    0.000    0.000 
#
# Total GULP energy -89247.265366 kJ/mol
# GULP energy per Si atom -5577.954085 kJ/mol
# Density = 2.071163 g / cm^3
# Si number density = 20.758875 Si / 1000 Ang^3
#
#
#
# Elastic Constant Matrix: (Units=GPa)
#
#
# Indices 1 2 3 4 5 6 
#
# 1 120.0116 55.5639 28.0048 1.0738 -2.7452 33.0695
# 2 55.5639 97.2128 20.2554 8.4398 0.1646 27.5560
# 3 28.0048 20.2554 51.2361 -2.9173 -7.5842 4.1147
# 4 1.0738 8.4398 -2.9173 30.1126 7.2736 5.0584
# 5 -2.7452 0.1646 -7.5842 7.2736 24.6836 -3.4561
# 6 33.0695 27.5560 4.1147 5.0584 -3.4561 38.9447
#
#
#
# Elastic Compliance Matrix: (Units=1/GPa)
#
#
# Indices 1 2 3 4 5 6 
#
# 1 0.014005 -0.004694 -0.005271 0.002175 -0.001856 -0.008462
# 2 -0.004694 0.015869 -0.003612 -0.003096 -0.001751 -0.006614
# 3 -0.005271 -0.003612 0.024578 0.000959 0.007403 0.004967
# 4 0.002175 -0.003096 0.000959 0.037793 -0.011374 -0.005676
# 5 -0.001856 -0.001751 0.007403 -0.011374 0.047020 0.007683
# 6 -0.008462 -0.006614 0.004967 -0.005676 0.007683 0.038437
#
#
# Mechanical properties :
#
#
# Convention : Reuss Voigt Hill
#
# Bulk Modulus (GPa) = 36.63254 52.90096 44.76675
# Shear Modulus (GPa) = 23.36939 29.72394 26.54667
#
# Velocity S-wave (km/s) = 3.35887 3.78811 3.57993
# Velocity P-wave (km/s) = 5.72081 6.68370 6.22091
#
# Compressibility (1/GPa) = 0.02729813
#
# Stress axis : x y z
#
# Youngs Moduli (GPa) = 71.40064 63.01628 40.68688
#
# Poissons Ratio (x) = 0.29580 0.21445
# Poissons Ratio (y) = 0.33516 0.14697
# Poissons Ratio (z) = 0.37634 0.22763
#
# Static dielectric constant tensor:
#      x y z
#    x 1.822770 -0.029820 0.007270 
#    y -0.029820 1.859960 -0.061900 
#    z 0.007270 -0.061900 1.769170 
# 
# From -- ./inp_files/465447.got.cif
#   From: 2010.05.17/outbox.cif.g08.bks.cpg/sg2_233_cif.got.tgz:465447.got - 2010.06.03 11:33:40.
