data_PCOD9099937
_publ_section_title
;
Structure prediction by ZEFSAII (Michael W. Deem and Ramdas Pophale) SiO2 
 PCOD9099937
Probable space group: P -1
;
_chemical_formula_sum "Si O2"
_cell_formula_units_Z 13
_cell_length_a 21.206799
_cell_length_b 5.196073
_cell_length_c 7.387190
_cell_angle_alpha 90.122114
_cell_angle_beta 40.342758
_cell_angle_gamma 106.967111
_cell_volume 471.041252
_symmetry_space_group_name_H-M "P -1"
_symmetry_group_IT_number 2
_symmetry_cell_setting 'triclinic'
loop_
_space_group_symop_operation_xyz
x,y,z
-x,-y,-z
loop_
_atom_site_type_symbol
_atom_site_label
_atom_site_fract_x
_atom_site_fract_y
_atom_site_fract_z
Si Si1 0.000000 0.500000 0.500000
Si Si2 0.352234 0.964473 0.874065
Si Si3 0.082996 0.125402 0.548416
Si Si4 0.439884 0.179584 0.058653
Si Si5 0.802523 0.107849 0.470367
Si Si6 0.868985 0.536371 0.028309
Si Si7 0.708150 0.621293 0.167163
O O1 0.030845 0.333253 0.609501
O O2 0.128956 0.657947 0.143599
O O3 0.435760 0.146163 0.849940
O O4 0.353447 0.184605 0.719224
O O5 0.243403 0.837949 0.240248
O O6 0.358985 0.692386 0.774242
O O7 0.186779 0.226271 0.193598
O O8 0.127960 0.067733 0.641801
O O9 0.988364 0.797956 0.707591
O O10 0.500000 0.500000 0.000000
O O11 0.500000 0.000000 0.000000
O O12 0.311495 0.050839 0.387361
O O13 0.870130 0.397055 0.214072
O O14 0.766054 0.596725 0.224942
#
# Coordination Sequence:
#
# PCOD9099937 Si02
#       7
#     1   2   2   2   2   2   2
#     4  10  22  34  62  84 128 176 220 242 312 384
#     4   9  21  39  64  92 118 167 212 262 323 380
#     4  10  22  38  58  89 131 177 219 255 312 380
#     4  10  21  42  72  95 120 162 218 275 338 391
#     4   9  23  41  63  93 132 158 223 278 326 368
#     4  11  23  39  57  96 131 180 213 263 310 388
#     4  10  20  37  62  87 131 170 213 246 315 386
#
# _framework density 27.598431000000001
#
# number of rings (size 3 to 8) (size 9 to 14) (size 15 to 20)
#    0.923    1.231    0.000    3.231   12.923    0.615 
#    8.308    0.000    0.000    5.538    0.000    0.000 
#    0.000    0.000    0.000    0.000    0.000    0.000 
#
# Total GULP energy -72500.959925 kJ/mol
# GULP energy per Si atom -5576.996917 kJ/mol
# Density = 2.753562 g / cm^3
# Si number density = 27.598431 Si / 1000 Ang^3
#
#
#
# Elastic Constant Matrix: (Units=GPa)
#
#
# Indices 1 2 3 4 5 6 
#
# 1 240.0977 89.2296 35.5232 -23.5495 15.8823 -29.7514
# 2 89.2296 173.3464 55.5762 -32.0935 -6.7690 -16.7197
# 3 35.5232 55.5762 89.9780 3.3677 9.0138 -8.5869
# 4 -23.5495 -32.0935 3.3677 35.2847 -3.8360 -3.4026
# 5 15.8823 -6.7690 9.0138 -3.8360 42.1225 -23.3160
# 6 -29.7514 -16.7197 -8.5869 -3.4026 -23.3160 54.9118
#
#
#
# Elastic Compliance Matrix: (Units=1/GPa)
#
#
# Indices 1 2 3 4 5 6 
#
# 1 0.005556 -0.002172 -0.000631 0.001858 -0.001086 0.001904
# 2 -0.002172 0.012527 -0.007658 0.012217 0.008889 0.005971
# 3 -0.000631 -0.007658 0.016872 -0.010216 -0.007717 -0.003945
# 4 0.001858 0.012217 -0.010216 0.044336 0.014039 0.011837
# 5 -0.001086 0.008889 -0.007717 0.014039 0.038556 0.018152
# 6 0.001904 0.005971 -0.003945 0.011837 0.018152 0.028885
#
#
# Mechanical properties :
#
#
# Convention : Reuss Voigt Hill
#
# Bulk Modulus (GPa) = 71.26102 96.00889 83.63496
# Shear Modulus (GPa) = 29.01406 48.00334 38.50870
#
# Velocity S-wave (km/s) = 3.24588 4.17508 3.73945
# Velocity P-wave (km/s) = 6.31858 7.62266 7.00105
#
# Compressibility (1/GPa) = 0.01403292
#
# Stress axis : x y z
#
# Youngs Moduli (GPa) = 179.99942 79.82717 59.27091
#
# Poissons Ratio (x) = 0.17341 0.03738
# Poissons Ratio (y) = 0.39102 0.45388
# Poissons Ratio (z) = 0.11351 0.61130
#
# Static dielectric constant tensor:
#      x y z
#    x 2.123260 -0.182340 -0.064710 
#    y -0.182340 1.395060 -0.119530 
#    z -0.064710 -0.119530 2.145460 
# 
# From -- ./inp_files/339261.got.cif
#   From: 2010.05.17/outbox.cif.g08.bks.cpg/sg2_170_cif.got.tgz:339261.got - 2010.06.03 11:33:40.
