data_PCOD9099962
_publ_section_title
;
Structure prediction by ZEFSAII (Michael W. Deem and Ramdas Pophale) SiO2 
 PCOD9099962
Probable space group: P -1
;
_chemical_formula_sum "Si O2"
_cell_formula_units_Z 16
_cell_length_a 9.875573
_cell_length_b 10.027796
_cell_length_c 15.924793
_cell_angle_alpha 65.329568
_cell_angle_beta 85.286651
_cell_angle_gamma 139.197112
_cell_volume 694.810361
_symmetry_space_group_name_H-M "P -1"
_symmetry_group_IT_number 2
_symmetry_cell_setting 'triclinic'
loop_
_space_group_symop_operation_xyz
x,y,z
-x,-y,-z
loop_
_atom_site_type_symbol
_atom_site_label
_atom_site_fract_x
_atom_site_fract_y
_atom_site_fract_z
Si Si1 0.702295 0.548976 0.707230
Si Si2 0.731365 0.029429 0.417762
Si Si3 0.216930 0.806594 0.356490
Si Si4 0.318886 0.985742 0.760760
Si Si5 0.518119 0.362032 0.250578
Si Si6 0.219069 0.210111 0.011763
Si Si7 0.169735 0.536406 0.683399
Si Si8 0.249887 0.443889 0.096794
O O1 0.490781 0.237831 0.755410
O O2 0.573560 0.589134 0.700058
O O3 0.746412 0.561388 0.800970
O O4 0.018901 0.822691 0.589298
O O5 0.831114 0.293742 0.335527
O O6 0.667907 0.917150 0.355635
O O7 0.449095 0.770780 0.552730
O O8 0.501877 0.990008 0.273134
O O9 0.000000 0.500000 0.500000
O O10 0.081134 0.722218 0.298460
O O11 0.291577 0.020629 0.347929
O O12 0.987923 0.657844 0.883448
O O13 0.567456 0.471459 0.126464
O O14 0.797753 0.547639 0.221424
O O15 0.414252 0.254163 0.011327
O O16 0.129258 0.199474 0.106664
O O17 0.000000 0.000000 0.000000
#
# Coordination Sequence:
#
# PCOD9099962 Si02
#       8
#     2   2   2   2   2   2   2   2
#     4  10  22  38  62  94 131 167 214 272 320 372
#     4  10  20  37  62  88 126 180 219 254 313 391
#     4  12  23  42  66  90 133 187 214 254 320 384
#     4  11  20  38  66  93 127 174 216 258 321 380
#     4  11  25  40  63 102 127 160 224 273 313 390
#     4  10  21  43  70  93 128 169 209 272 342 381
#     4  11  21  37  61  91 128 173 221 258 318 376
#     4   9  20  37  67  94 125 163 216 259 330 387
#
# _framework density 23.027864999999998
#
# number of rings (size 3 to 8) (size 9 to 14) (size 15 to 20)
#    0.000    1.500    3.750    2.250    0.000    6.500 
#    0.000    1.875    0.000    2.250    0.000    0.000 
#    0.000    0.000    0.000    0.000    0.000    0.000 
#
# Total GULP energy -89167.428462 kJ/mol
# GULP energy per Si atom -5572.964279 kJ/mol
# Density = 2.297545 g / cm^3
# Si number density = 23.027865 Si / 1000 Ang^3
#
#
#
# Elastic Constant Matrix: (Units=GPa)
#
#
# Indices 1 2 3 4 5 6 
#
# 1 109.2457 31.5361 19.9223 -8.5036 -15.5043 13.6124
# 2 31.5361 150.0403 19.0268 19.2808 -5.1005 20.3522
# 3 19.9223 19.0268 47.8156 9.1022 -4.6665 2.5449
# 4 -8.5036 19.2808 9.1022 28.0900 4.5464 -6.8624
# 5 -15.5043 -5.1005 -4.6665 4.5464 35.2609 1.3207
# 6 13.6124 20.3522 2.5449 -6.8624 1.3207 46.3673
#
#
#
# Elastic Compliance Matrix: (Units=1/GPa)
#
#
# Indices 1 2 3 4 5 6 
#
# 1 0.011803 -0.002310 -0.004668 0.005743 0.003552 -0.001446
# 2 -0.002310 0.008893 -0.000714 -0.007863 0.001354 -0.004388
# 3 -0.004668 -0.000714 0.025326 -0.009838 0.002510 -0.001234
# 4 0.005743 -0.007863 -0.009838 0.049395 -0.006650 0.009805
# 5 0.003552 0.001354 0.002510 -0.006650 0.031444 -0.003655
# 6 -0.001446 -0.004388 -0.001234 0.009805 -0.003655 0.025541
#
#
# Mechanical properties :
#
#
# Convention : Reuss Voigt Hill
#
# Bulk Modulus (GPa) = 32.63897 49.78577 41.21237
# Shear Modulus (GPa) = 28.09018 37.71807 32.90413
#
# Velocity S-wave (km/s) = 3.49640 4.05153 3.78416
# Velocity P-wave (km/s) = 5.52306 6.59949 6.08512
#
# Compressibility (1/GPa) = 0.03063822
#
# Stress axis : x y z
#
# Youngs Moduli (GPa) = 84.72342 112.45270 39.48504
#
# Poissons Ratio (x) = 0.25976 0.18433
# Poissons Ratio (y) = 0.19571 0.02817
# Poissons Ratio (z) = 0.39551 0.08024
#
# Static dielectric constant tensor:
#      x y z
#    x 1.956230 -0.021460 0.000570 
#    y -0.021460 1.945030 -0.050750 
#    z 0.000570 -0.050750 1.965230 
# 
# From -- ./inp_files/557114.got.cif
#   From: 2010.05.17/outbox.cif.g08.bks.cpg/sg2_279_cif.got.tgz:557114.got - 2010.06.03 11:33:40.
