data_PCOD9099499
_publ_section_title
;
Structure prediction by ZEFSAII (Michael W. Deem and Ramdas Pophale) SiO2 
 PCOD9099499
Probable space group: P -1
;
_chemical_formula_sum "Si O2"
_cell_formula_units_Z 16
_cell_length_a 16.597823
_cell_length_b 5.602811
_cell_length_c 14.040267
_cell_angle_alpha 62.561111
_cell_angle_beta 140.576592
_cell_angle_gamma 119.083044
_cell_volume 716.000941
_symmetry_space_group_name_H-M "P -1"
_symmetry_group_IT_number 2
_symmetry_cell_setting 'triclinic'
loop_
_space_group_symop_operation_xyz
x,y,z
-x,-y,-z
loop_
_atom_site_type_symbol
_atom_site_label
_atom_site_fract_x
_atom_site_fract_y
_atom_site_fract_z
Si Si1 0.096532 0.678658 0.634286
Si Si2 0.591960 0.644058 0.473840
Si Si3 0.850287 0.744898 0.510416
Si Si4 0.796936 0.720542 0.072147
Si Si5 0.608823 0.070809 0.810615
Si Si6 0.158881 0.446045 0.068167
Si Si7 0.049772 0.197940 0.203338
Si Si8 0.358409 0.761857 0.546802
O O1 0.194420 0.521607 0.802978
O O2 0.000000 0.500000 0.500000
O O3 0.993062 0.725921 0.610056
O O4 0.170541 0.973806 0.606071
O O5 0.500000 0.500000 0.500000
O O6 0.498862 0.755187 0.289985
O O7 0.646338 0.395947 0.527295
O O8 0.672695 0.938137 0.533890
O O9 0.861269 0.781341 0.626794
O O10 0.740960 0.466636 0.439203
O O11 0.782965 0.636467 0.962841
O O12 0.940790 0.918532 0.167194
O O13 0.690900 0.889997 0.977151
O O14 0.728676 0.301248 0.834799
O O15 0.510970 0.844898 0.699197
O O16 0.113546 0.228843 0.151179
O O17 0.031153 0.561531 0.907457
#
# Coordination Sequence:
#
# PCOD9099499 Si02
#       8
#     2   2   2   2   2   2   2   2
#     4  11  24  42  68  95 129 174 233 288 355 397
#     4  10  22  41  62  97 134 184 228 267 334 401
#     4  11  24  42  64  99 134 175 230 291 341 408
#     4  11  20  41  65  94 132 181 223 285 336 413
#     4   9  23  38  64  93 136 177 225 270 339 405
#     4  10  20  37  60  91 138 173 219 264 337 409
#     4  10  21  35  58  97 129 174 218 270 337 407
#     4  10  24  42  66  97 139 177 230 282 335 407
#
# _framework density 22.346337999999999
#
# number of rings (size 3 to 8) (size 9 to 14) (size 15 to 20)
#    0.750    1.000    2.500    1.500    3.500    0.000 
#    0.000    0.625    0.000    2.250    0.000    0.000 
#    0.000    0.000    0.000    0.000    0.000    0.000 
#
# Total GULP energy -89084.824876 kJ/mol
# GULP energy per Si atom -5567.801555 kJ/mol
# Density = 2.229548 g / cm^3
# Si number density = 22.346338 Si / 1000 Ang^3
#
#
#
# Elastic Constant Matrix: (Units=GPa)
#
#
# Indices 1 2 3 4 5 6 
#
# 1 48.1799 23.0938 11.3873 5.5517 -5.7171 -6.2468
# 2 23.0938 146.1848 21.5286 11.9829 -6.7479 14.0894
# 3 11.3873 21.5286 61.5853 -8.7071 -4.2682 -7.3388
# 4 5.5517 11.9829 -8.7071 30.5195 -3.4522 6.9635
# 5 -5.7171 -6.7479 -4.2682 -3.4522 21.6441 -6.7723
# 6 -6.2468 14.0894 -7.3388 6.9635 -6.7723 30.0809
#
#
#
# Elastic Compliance Matrix: (Units=1/GPa)
#
#
# Indices 1 2 3 4 5 6 
#
# 1 0.025892 -0.003855 -0.002561 -0.005254 0.007236 0.009403
# 2 -0.003855 0.008617 -0.003366 -0.002552 -0.001063 -0.005306
# 3 -0.002561 -0.003366 0.019837 0.006768 0.004966 0.005436
# 4 -0.005254 -0.002552 0.006768 0.038490 0.003283 -0.006415
# 5 0.007236 -0.001063 0.004966 0.003283 0.053845 0.014575
# 6 0.009403 -0.005306 0.005436 -0.006415 0.014575 0.043774
#
#
# Mechanical properties :
#
#
# Convention : Reuss Voigt Hill
#
# Bulk Modulus (GPa) = 28.75061 40.88549 34.81805
# Shear Modulus (GPa) = 22.56193 29.77825 26.17009
#
# Velocity S-wave (km/s) = 3.18094 3.65441 3.42587
# Velocity P-wave (km/s) = 5.13664 6.01185 5.59139
#
# Compressibility (1/GPa) = 0.03478187
#
# Stress axis : x y z
#
# Youngs Moduli (GPa) = 38.62252 116.05073 50.41147
#
# Poissons Ratio (x) = 0.44735 0.12909
# Poissons Ratio (y) = 0.14888 0.16970
# Poissons Ratio (z) = 0.09890 0.39066
#
# Static dielectric constant tensor:
#      x y z
#    x 1.932630 0.053020 0.055570 
#    y 0.053020 2.000520 0.021380 
#    z 0.055570 0.021380 1.887220 
# 
# From -- ./inp_files/536265.got.cif
#   From: 2010.05.17/outbox.cif.g08.bks.cpg/sg2_269_cif.got.tgz:536265.got - 2010.06.03 11:33:40.
