data_PCOD9099580
_publ_section_title
;
Structure prediction by ZEFSAII (Michael W. Deem and Ramdas Pophale) SiO2 
 PCOD9099580
Probable space group: P -1
;
_chemical_formula_sum "Si O2"
_cell_formula_units_Z 16
_cell_length_a 11.917682
_cell_length_b 21.570559
_cell_length_c 21.688142
_cell_angle_alpha 18.345741
_cell_angle_beta 35.426775
_cell_angle_gamma 27.094252
_cell_volume 781.378098
_symmetry_space_group_name_H-M "P -1"
_symmetry_group_IT_number 2
_symmetry_cell_setting 'triclinic'
loop_
_space_group_symop_operation_xyz
x,y,z
-x,-y,-z
loop_
_atom_site_type_symbol
_atom_site_label
_atom_site_fract_x
_atom_site_fract_y
_atom_site_fract_z
Si Si1 0.879314 0.430386 0.570548
Si Si2 0.106125 0.339335 0.247123
Si Si3 0.132456 0.144119 0.062564
Si Si4 0.356610 0.063117 0.640148
Si Si5 0.014988 0.715643 0.772079
Si Si6 0.301927 0.317899 0.718595
Si Si7 0.440109 0.716772 0.582139
Si Si8 0.924115 0.859353 0.427599
O O1 0.883435 0.853649 0.290976
O O2 0.778623 0.605748 0.388542
O O3 0.641470 0.499608 0.648625
O O4 0.000000 0.500000 0.500000
O O5 0.150950 0.164034 0.449461
O O6 0.953906 0.317444 0.284748
O O7 0.375551 0.217936 0.211167
O O8 0.971032 0.618858 0.069968
O O9 0.401644 0.898143 0.200251
O O10 0.176859 0.216749 0.907323
O O11 0.951176 0.074808 0.206182
O O12 0.420510 0.241235 0.468465
O O13 0.263447 0.108468 0.569293
O O14 0.251915 0.675662 0.731170
O O15 0.755810 0.003429 0.627708
O O16 0.000000 0.500000 0.000000
O O17 0.191556 0.582987 0.551873
#
# Coordination Sequence:
#
# PCOD9099580 Si02
#       8
#     2   2   2   2   2   2   2   2
#     4   9  18  36  64  84 113 164 199 238 294 353
#     4  10  22  36  57  89 119 152 201 243 295 359
#     4  10  21  36  57  90 122 158 191 252 304 342
#     4   9  19  39  58  86 119 152 204 239 285 359
#     4  10  22  38  58  89 119 147 194 246 294 351
#     4   9  20  37  56  88 124 149 204 247 291 363
#     4   9  20  39  62  83 114 157 192 242 295 341
#     4  10  20  37  61  85 115 163 197 241 297 353
#
# _framework density 20.476641999999998
#
# number of rings (size 3 to 8) (size 9 to 14) (size 15 to 20)
#    0.000    2.500    0.000    0.750    3.500    2.500 
#    4.500   10.000    0.000    9.750    0.000    0.000 
#    0.000    0.000    0.000    0.000    0.000    0.000 
#
# Total GULP energy -89172.329263 kJ/mol
# GULP energy per Si atom -5573.270579 kJ/mol
# Density = 2.043004 g / cm^3
# Si number density = 20.476642 Si / 1000 Ang^3
#
#
#
# Elastic Constant Matrix: (Units=GPa)
#
#
# Indices 1 2 3 4 5 6 
#
# 1 82.9526 28.8650 11.4192 5.9115 -3.9246 0.7269
# 2 28.8650 73.9097 4.3990 -7.6480 -8.6707 -4.6544
# 3 11.4192 4.3990 45.5435 4.1537 -16.4503 -6.9747
# 4 5.9115 -7.6480 4.1537 13.2807 -1.2831 -0.1541
# 5 -3.9246 -8.6707 -16.4503 -1.2831 20.5998 5.3540
# 6 0.7269 -4.6544 -6.9747 -0.1541 5.3540 30.3099
#
#
#
# Elastic Compliance Matrix: (Units=1/GPa)
#
#
# Indices 1 2 3 4 5 6 
#
# 1 0.015812 -0.007554 -0.003768 -0.010555 -0.003347 -0.001869
# 2 -0.007554 0.018998 0.002193 0.014478 0.008652 0.002148
# 3 -0.003768 0.002193 0.032750 -0.004833 0.025148 0.003496
# 4 -0.010555 0.014478 -0.004833 0.090399 0.005639 0.000828
# 5 -0.003347 0.008652 0.025148 0.005639 0.073477 -0.005755
# 6 -0.001869 0.002148 0.003496 0.000828 -0.005755 0.035193
#
#
# Mechanical properties :
#
#
# Convention : Reuss Voigt Hill
#
# Bulk Modulus (GPa) = 20.28306 32.41914 26.35110
# Shear Modulus (GPa) = 16.59362 23.35292 19.97327
#
# Velocity S-wave (km/s) = 2.84979 3.38074 3.12656
# Velocity P-wave (km/s) = 4.55580 5.57726 5.09221
#
# Compressibility (1/GPa) = 0.04930222
#
# Stress axis : x y z
#
# Youngs Moduli (GPa) = 63.24150 52.63722 30.53468
#
# Poissons Ratio (x) = 0.39761 0.11504
# Poissons Ratio (y) = 0.47771 -0.06695
# Poissons Ratio (z) = 0.23827 -0.11541
#
# Static dielectric constant tensor:
#      x y z
#    x 1.738430 -0.012880 0.016180 
#    y -0.012880 1.795840 -0.000780 
#    z 0.016180 -0.000780 1.721470 
# 
# From -- ./inp_files/471682.got.cif
#   From: 2010.05.17/outbox.cif.g08.bks.cpg/sg2_236_cif.got.tgz:471682.got - 2010.06.03 11:33:40.
