data_PCOD9099491
_publ_section_title
;
Structure prediction by ZEFSAII (Michael W. Deem and Ramdas Pophale) SiO2 
 PCOD9099491
Probable space group: P -1
;
_chemical_formula_sum "Si O2"
_cell_formula_units_Z 16
_cell_length_a 20.028840
_cell_length_b 16.969404
_cell_length_c 14.749423
_cell_angle_alpha 143.265496
_cell_angle_beta 152.289791
_cell_angle_gamma 19.113008
_cell_volume 742.709586
_symmetry_space_group_name_H-M "P -1"
_symmetry_group_IT_number 2
_symmetry_cell_setting 'triclinic'
loop_
_space_group_symop_operation_xyz
x,y,z
-x,-y,-z
loop_
_atom_site_type_symbol
_atom_site_label
_atom_site_fract_x
_atom_site_fract_y
_atom_site_fract_z
Si Si1 0.371299 0.303077 0.208903
Si Si2 0.555821 0.867647 0.333228
Si Si3 0.340318 0.634865 0.074142
Si Si4 0.739408 0.835598 0.918074
Si Si5 0.502936 0.251857 0.122674
Si Si6 0.939526 0.405208 0.232021
Si Si7 0.213040 0.880888 0.965046
Si Si8 0.590388 0.372092 0.653138
O O1 0.408008 0.147302 0.172661
O O2 0.522849 0.182305 0.183877
O O3 0.458413 0.364851 0.425704
O O4 0.054185 0.560769 0.044214
O O5 0.762234 0.630928 0.295549
O O6 0.754979 0.786277 0.566439
O O7 0.384971 0.086642 0.259243
O O8 0.361769 0.905136 0.172234
O O9 0.602824 0.352765 0.093885
O O10 0.423158 0.651808 0.278152
O O11 0.127174 0.690960 0.904413
O O12 0.223128 0.804083 0.004524
O O13 0.689778 0.022903 0.068171
O O14 0.538861 0.382102 0.286503
O O15 0.202164 0.467243 0.917734
O O16 0.910805 0.130049 0.794994
#
# Coordination Sequence:
#
# PCOD9099491 Si02
#       8
#     2   2   2   2   2   2   2   2
#     4  11  24  41  60  90 120 162 209 254 299 360
#     4   9  17  35  60  88 116 157 198 246 302 358
#     4   9  20  38  58  88 129 161 196 250 313 359
#     4  10  23  42  61  84 128 159 202 258 302 360
#     4  10  21  41  63  88 118 164 203 250 306 364
#     4   8  17  34  61  88 117 153 200 244 301 364
#     4  10  20  37  60  91 125 161 203 252 300 372
#     4  11  23  38  62  91 122 158 208 256 303 359
#
# _framework density 21.542739999999998
#
# number of rings (size 3 to 8) (size 9 to 14) (size 15 to 20)
#    0.000    2.250    0.000    2.625    1.750    1.500 
#    6.750    3.125    0.000    0.000    0.000    0.000 
#    0.000    0.000    0.000    0.000    0.000    0.000 
#
# Total GULP energy -89415.017139 kJ/mol
# GULP energy per Si atom -5588.438571 kJ/mol
# Density = 2.149371 g / cm^3
# Si number density = 21.542740 Si / 1000 Ang^3
#
#
#
# Elastic Constant Matrix: (Units=GPa)
#
#
# Indices 1 2 3 4 5 6 
#
# 1 70.4448 -16.6943 9.3837 -10.3026 -0.7575 10.4587
# 2 -16.6943 54.4473 -19.5293 3.5345 6.2327 4.7394
# 3 9.3837 -19.5293 78.7338 5.6594 -8.6559 8.6115
# 4 -10.3026 3.5345 5.6594 25.2071 -6.4181 -5.1098
# 5 -0.7575 6.2327 -8.6559 -6.4181 23.4415 1.7637
# 6 10.4587 4.7394 8.6115 -5.1098 1.7637 32.1987
#
#
#
# Elastic Compliance Matrix: (Units=1/GPa)
#
#
# Indices 1 2 3 4 5 6 
#
# 1 0.017070 0.005054 -0.000492 0.005539 0.000944 -0.005330
# 2 0.005054 0.023549 0.005879 -0.005253 -0.004820 -0.007250
# 3 -0.000492 0.005879 0.015564 -0.004866 0.003274 -0.005820
# 4 0.005539 -0.005253 -0.004866 0.048419 0.012488 0.007276
# 5 0.000944 -0.004820 0.003274 0.012488 0.048686 -0.001158
# 6 -0.005330 -0.007250 -0.005820 0.007276 -0.001158 0.036630
#
#
# Mechanical properties :
#
#
# Convention : Reuss Voigt Hill
#
# Bulk Modulus (GPa) = 12.97618 16.66070 14.81844
# Shear Modulus (GPa) = 25.67725 31.53384 28.60554
#
# Velocity S-wave (km/s) = 3.45617 3.83009 3.64792
# Velocity P-wave (km/s) = 4.68650 5.22590 4.96353
#
# Compressibility (1/GPa) = 0.07706428
#
# Stress axis : x y z
#
# Youngs Moduli (GPa) = 58.58164 42.46550 64.24980
#
# Poissons Ratio (x) = -0.21461 0.03164
# Poissons Ratio (y) = -0.29605 -0.37775
# Poissons Ratio (z) = 0.02885 -0.24967
#
# Static dielectric constant tensor:
#      x y z
#    x 1.789730 -0.019950 -0.009190 
#    y -0.019950 1.820770 0.003900 
#    z -0.009190 0.003900 1.743740 
# 
# From -- ./inp_files/541540.got.cif
#   From: 2010.05.17/outbox.cif.g08.bks.cpg/sg2_271_cif.got.tgz:541540.got - 2010.06.03 11:33:40.
