data_PCOD9099379
_publ_section_title
;
Structure prediction by ZEFSAII (Michael W. Deem and Ramdas Pophale) SiO2 
 PCOD9099379
Probable space group: P -1
;
_chemical_formula_sum "Si O2"
_cell_formula_units_Z 16
_cell_length_a 14.115047
_cell_length_b 25.813695
_cell_length_c 20.032891
_cell_angle_alpha 18.580122
_cell_angle_beta 152.447238
_cell_angle_gamma 160.375997
_cell_volume 779.766808
_symmetry_space_group_name_H-M "P -1"
_symmetry_group_IT_number 2
_symmetry_cell_setting 'triclinic'
loop_
_space_group_symop_operation_xyz
x,y,z
-x,-y,-z
loop_
_atom_site_type_symbol
_atom_site_label
_atom_site_fract_x
_atom_site_fract_y
_atom_site_fract_z
Si Si1 0.798741 0.437029 0.774968
Si Si2 0.391974 0.389368 0.752920
Si Si3 0.293155 0.258333 0.593712
Si Si4 0.145450 0.228983 0.046817
Si Si5 0.736917 0.406682 0.234801
Si Si6 0.878862 0.503882 0.987041
Si Si7 0.422686 0.013433 0.360271
Si Si8 0.030941 0.953147 0.985033
O O1 0.488982 0.272861 0.751494
O O2 0.816033 0.628999 0.582663
O O3 0.020448 0.520259 0.753218
O O4 0.871899 0.343165 0.991059
O O5 0.493404 0.580037 0.530737
O O6 0.662974 0.524414 0.805785
O O7 0.124192 0.237509 0.821244
O O8 0.320151 0.187433 0.909815
O O9 0.026143 0.994648 0.741525
O O10 0.471344 0.344823 0.106092
O O11 0.006092 0.156074 0.975435
O O12 0.150153 0.403284 0.873770
O O13 0.624415 0.177963 0.475456
O O14 0.677045 0.258269 0.193142
O O15 0.000000 0.500000 0.000000
O O16 0.500000 0.000000 0.500000
O O17 0.150997 0.980778 0.224032
#
# Coordination Sequence:
#
# PCOD9099379 Si02
#       8
#     2   2   2   2   2   2   2   2
#     4  11  21  38  64  90 122 150 207 249 301 353
#     4  10  21  35  60  91 123 151 196 250 311 349
#     4  11  22  37  64  93 119 155 200 258 299 353
#     4  11  23  37  59  88 123 163 206 243 297 359
#     4  11  22  37  60  88 121 162 207 243 293 362
#     4  11  21  32  55  92 117 142 184 253 301 348
#     4  11  18  34  62  84 109 150 200 245 285 347
#     4  10  20  37  60  87 121 156 196 252 302 358
#
# _framework density 20.518954999999998
#
# number of rings (size 3 to 8) (size 9 to 14) (size 15 to 20)
#    0.000    1.250    3.750    4.500    0.000    0.500 
#    0.000    0.000    2.750   12.750    0.000    0.000 
#    0.000    0.000    0.000    0.000    0.000    0.000 
#
# Total GULP energy -89193.468973 kJ/mol
# GULP energy per Si atom -5574.591811 kJ/mol
# Density = 2.047225 g / cm^3
# Si number density = 20.518955 Si / 1000 Ang^3
#
#
#
# Elastic Constant Matrix: (Units=GPa)
#
#
# Indices 1 2 3 4 5 6 
#
# 1 63.6248 9.8020 43.2459 -7.6093 -8.6551 -19.5772
# 2 9.8020 86.8024 19.5093 16.9602 1.6224 -14.4716
# 3 43.2459 19.5093 59.7467 -11.9177 -2.5540 -13.6461
# 4 -7.6093 16.9602 -11.9177 34.4597 -3.2326 0.7753
# 5 -8.6551 1.6224 -2.5540 -3.2326 36.3194 3.6205
# 6 -19.5772 -14.4716 -13.6461 0.7753 3.6205 26.7792
#
#
#
# Elastic Compliance Matrix: (Units=1/GPa)
#
#
# Indices 1 2 3 4 5 6 
#
# 1 0.037667 0.004592 -0.025287 -0.002579 0.005117 0.016515
# 2 0.004592 0.016525 -0.009038 -0.010624 -0.002049 0.008266
# 3 -0.025287 -0.009038 0.039671 0.012530 -0.001385 -0.003331
# 4 -0.002579 -0.010624 0.012530 0.038497 0.004462 -0.002960
# 5 0.005117 -0.002049 -0.001385 0.004462 0.029361 -0.002171
# 6 0.016515 0.008266 -0.003331 -0.002960 -0.002171 0.052565
#
#
# Mechanical properties :
#
#
# Convention : Reuss Voigt Hill
#
# Bulk Modulus (GPa) = 29.07314 39.47648 34.27481
# Shear Modulus (GPa) = 17.53041 28.68609 23.10825
#
# Velocity S-wave (km/s) = 2.92610 3.74308 3.35952
# Velocity P-wave (km/s) = 5.06120 6.16130 5.63815
#
# Compressibility (1/GPa) = 0.03439601
#
# Stress axis : x y z
#
# Youngs Moduli (GPa) = 26.54876 60.51262 25.20715
#
# Poissons Ratio (x) = -0.27785 0.63741
# Poissons Ratio (y) = -0.12190 0.22783
# Poissons Ratio (z) = 0.67134 0.54694
#
# Static dielectric constant tensor:
#      x y z
#    x 1.765420 -0.020140 -0.021310 
#    y -0.020140 1.803550 0.036630 
#    z -0.021310 0.036630 1.736040 
# 
# From -- ./inp_files/598614.got.cif
#   From: 2010.05.17/outbox.cif.g08.bks.cpg/sg2_300_cif.got.tgz:598614.got - 2010.06.03 11:33:40.
