data_PCOD9099226
_publ_section_title
;
Structure prediction by ZEFSAII (Michael W. Deem and Ramdas Pophale) SiO2 
 PCOD9099226
Probable space group: P -1
;
_chemical_formula_sum "Si O2"
_cell_formula_units_Z 14
_cell_length_a 19.915755
_cell_length_b 12.672302
_cell_length_c 9.397171
_cell_angle_alpha 143.900003
_cell_angle_beta 56.861549
_cell_angle_gamma 147.075299
_cell_volume 692.479860
_symmetry_space_group_name_H-M "P -1"
_symmetry_group_IT_number 2
_symmetry_cell_setting 'triclinic'
loop_
_space_group_symop_operation_xyz
x,y,z
-x,-y,-z
loop_
_atom_site_type_symbol
_atom_site_label
_atom_site_fract_x
_atom_site_fract_y
_atom_site_fract_z
Si Si1 0.922327 0.235187 0.512485
Si Si2 0.856682 0.084644 0.089775
Si Si3 0.337880 0.205077 0.473576
Si Si4 0.443337 0.465430 0.178259
Si Si5 0.486769 0.163097 0.107273
Si Si6 0.405626 0.814947 0.543913
Si Si7 0.095388 0.219432 0.262412
O O1 0.861017 0.095659 0.271103
O O2 0.025171 0.582911 0.748165
O O3 0.013682 0.229603 0.442975
O O4 0.806076 0.054307 0.565368
O O5 0.707476 0.879323 0.997056
O O6 0.882698 0.927163 0.841994
O O7 0.449991 0.393818 0.673501
O O8 0.368505 0.083482 0.212838
O O9 0.379660 0.468149 0.636804
O O10 0.425961 0.648652 0.393847
O O11 0.500000 0.500000 0.000000
O O12 0.454916 0.041685 0.852644
O O13 0.500000 0.000000 0.000000
O O14 0.246447 0.553414 0.408244
O O15 0.500000 0.000000 0.500000
O O16 0.000000 0.000000 0.000000
#
# Coordination Sequence:
#
# PCOD9099226 Si02
#       7
#     2   2   2   2   2   2   2
#     4  10  20  37  59  90 128 174 201 263 327 380
#     4   9  20  34  57  92 134 157 209 267 322 372
#     4  11  24  41  68  91 129 180 218 266 329 390
#     4  11  20  36  63 100 130 160 220 274 315 383
#     4  11  25  46  64  97 134 169 223 273 328 389
#     4  11  24  39  70 100 125 172 220 272 327 382
#     4   9  21  37  56  94 131 159 207 266 317 383
#
# _framework density 20.217195
#
# number of rings (size 3 to 8) (size 9 to 14) (size 15 to 20)
#    0.000    1.714    2.857    0.857    8.000    2.286 
#    0.000    0.714    0.000    2.571    0.000    0.000 
#    0.000    0.000    0.000    0.000    0.000    0.000 
#
# Total GULP energy -78168.058325 kJ/mol
# GULP energy per Si atom -5583.432738 kJ/mol
# Density = 2.017118 g / cm^3
# Si number density = 20.217195 Si / 1000 Ang^3
#
#
#
# Elastic Constant Matrix: (Units=GPa)
#
#
# Indices 1 2 3 4 5 6 
#
# 1 64.5269 43.5266 30.8077 -3.4090 -14.4824 9.4938
# 2 43.5266 190.6538 72.0563 -3.5198 -17.6081 16.6371
# 3 30.8077 72.0563 102.7488 -13.5073 -18.3940 4.8260
# 4 -3.4090 -3.5198 -13.5073 33.4502 2.2498 1.9870
# 5 -14.4824 -17.6081 -18.3940 2.2498 34.9410 2.1623
# 6 9.4938 16.6371 4.8260 1.9870 2.1623 30.6907
#
#
#
# Elastic Compliance Matrix: (Units=1/GPa)
#
#
# Indices 1 2 3 4 5 6 
#
# 1 0.020813 -0.002603 -0.003040 0.000514 0.005991 -0.005004
# 2 -0.002603 0.007874 -0.004649 -0.001200 0.000686 -0.002702
# 3 -0.003040 -0.004649 0.015282 0.005071 0.004088 0.000441
# 4 0.000514 -0.001200 0.005071 0.031987 0.000367 -0.002403
# 5 0.005991 0.000686 0.004088 0.000367 0.033904 -0.005280
# 6 -0.005004 -0.002702 0.000441 -0.002403 -0.005280 0.036054
#
#
# Mechanical properties :
#
#
# Convention : Reuss Voigt Hill
#
# Bulk Modulus (GPa) = 42.76355 72.30119 57.53237
# Shear Modulus (GPa) = 28.68745 33.91898 31.30322
#
# Velocity S-wave (km/s) = 3.77100 4.10045 3.93917
# Velocity P-wave (km/s) = 6.33708 7.63270 7.01487
#
# Compressibility (1/GPa) = 0.02338440
#
# Stress axis : x y z
#
# Youngs Moduli (GPa) = 48.04742 127.00760 65.43660
#
# Poissons Ratio (x) = 0.33064 0.19890
# Poissons Ratio (y) = 0.12508 0.30422
# Poissons Ratio (z) = 0.14604 0.59047
#
# Static dielectric constant tensor:
#      x y z
#    x 1.711030 -0.142150 -0.118640 
#    y -0.142150 1.371550 -0.233870 
#    z -0.118640 -0.233870 1.581760 
# 
# From -- ./inp_files/471791.got.cif
#   From: 2010.05.17/outbox.cif.g08.bks.cpg/sg2_236_cif.got.tgz:471791.got - 2010.06.03 11:33:40.
