data_PCOD9099584
_publ_section_title
;
Structure prediction by ZEFSAII (Michael W. Deem and Ramdas Pophale) SiO2 
 PCOD9099584
Probable space group: P -1
;
_chemical_formula_sum "Si O2"
_cell_formula_units_Z 16
_cell_length_a 9.343932
_cell_length_b 12.365020
_cell_length_c 10.591607
_cell_angle_alpha 53.733103
_cell_angle_beta 124.423859
_cell_angle_gamma 137.738379
_cell_volume 644.934848
_symmetry_space_group_name_H-M "P -1"
_symmetry_group_IT_number 2
_symmetry_cell_setting 'triclinic'
loop_
_space_group_symop_operation_xyz
x,y,z
-x,-y,-z
loop_
_atom_site_type_symbol
_atom_site_label
_atom_site_fract_x
_atom_site_fract_y
_atom_site_fract_z
Si Si1 0.645521 0.751238 0.982138
Si Si2 0.711360 0.255377 0.333769
Si Si3 0.893444 0.113842 0.985384
Si Si4 0.346783 0.310761 0.507276
Si Si5 0.908668 0.406937 0.826328
Si Si6 0.718912 0.513950 0.846100
Si Si7 0.996470 0.997915 0.345957
Si Si8 0.559064 0.897092 0.459993
O O1 0.457009 0.709823 0.820814
O O2 0.855248 0.776960 0.011597
O O3 0.511802 0.598972 0.120510
O O4 0.747706 0.933908 0.968147
O O5 0.953417 0.424782 0.307670
O O6 0.651187 0.197413 0.489159
O O7 0.646866 0.088183 0.341379
O O8 0.900380 0.071272 0.164242
O O9 0.815697 0.227617 0.843789
O O10 0.500000 0.500000 0.500000
O O11 0.242094 0.329336 0.316179
O O12 0.453995 0.222770 0.571684
O O13 0.181142 0.204354 0.612131
O O14 0.735210 0.404879 0.824897
O O15 0.090696 0.434357 0.996547
O O16 0.234303 0.060243 0.381350
O O17 0.000000 0.000000 0.500000
#
# Coordination Sequence:
#
# PCOD9099584 Si02
#       8
#     2   2   2   2   2   2   2   2
#     4  10  23  38  62  88 130 155 199 247 305 372
#     4  10  21  39  60  90 117 163 201 251 302 357
#     4  11  22  39  60  94 120 164 196 248 309 353
#     4  11  23  37  60  89 120 160 200 251 302 359
#     4  10  22  38  63  88 119 152 204 253 293 357
#     4  10  22  39  58  91 118 157 199 248 299 356
#     4  10  20  37  61  85 119 161 201 245 290 363
#     4  10  21  38  61  85 120 158 207 245 300 365
#
# _framework density 24.808706999999998
#
# number of rings (size 3 to 8) (size 9 to 14) (size 15 to 20)
#    0.000    1.750    1.250    3.000    1.750    7.500 
#    0.000    0.000    0.000    3.750    0.000    0.000 
#    0.000    0.000    0.000    0.000    0.000    0.000 
#
# Total GULP energy -89405.958027 kJ/mol
# GULP energy per Si atom -5587.872377 kJ/mol
# Density = 2.475224 g / cm^3
# Si number density = 24.808707 Si / 1000 Ang^3
#
#
#
# Elastic Constant Matrix: (Units=GPa)
#
#
# Indices 1 2 3 4 5 6 
#
# 1 70.1177 14.4365 30.2248 -19.0923 -5.9387 -10.1930
# 2 14.4365 62.6287 11.3755 -21.5185 -10.3694 -14.7927
# 3 30.2248 11.3755 97.8596 -26.7894 -1.5855 4.7906
# 4 -19.0923 -21.5185 -26.7894 48.6583 6.8654 0.8252
# 5 -5.9387 -10.3694 -1.5855 6.8654 40.7132 -13.9182
# 6 -10.1930 -14.7927 4.7906 0.8252 -13.9182 37.4916
#
#
#
# Elastic Compliance Matrix: (Units=1/GPa)
#
#
# Indices 1 2 3 4 5 6 
#
# 1 0.018967 0.000530 -0.005101 0.004086 0.004628 0.007646
# 2 0.000530 0.023413 -0.001024 0.008532 0.008876 0.012620
# 3 -0.005101 -0.001024 0.013619 0.005555 -0.003047 -0.004784
# 4 0.004086 0.008532 0.005555 0.029076 -0.000972 0.002767
# 5 0.004628 0.008876 -0.003047 -0.000972 0.033571 0.017634
# 6 0.007646 0.012620 -0.004784 0.002767 0.017634 0.040827
#
#
# Mechanical properties :
#
#
# Convention : Reuss Voigt Hill
#
# Bulk Modulus (GPa) = 22.31611 38.07554 30.19582
# Shear Modulus (GPa) = 26.93988 37.01057 31.97522
#
# Velocity S-wave (km/s) = 3.29888 3.86662 3.59398
# Velocity P-wave (km/s) = 4.85025 5.94267 5.42403
#
# Compressibility (1/GPa) = 0.04481069
#
# Stress axis : x y z
#
# Youngs Moduli (GPa) = 52.72266 42.71176 73.42921
#
# Poissons Ratio (x) = -0.02265 0.37453
# Poissons Ratio (y) = -0.02796 0.07517
# Poissons Ratio (z) = 0.26892 0.04372
#
# Static dielectric constant tensor:
#      x y z
#    x 1.973090 0.015880 -0.011290 
#    y 0.015880 2.192940 0.067600 
#    z -0.011290 0.067600 1.983950 
# 
# From -- ./inp_files/283016.got.cif
#   From: 2010.05.17/outbox.cif.g08.bks.cpg/sg2_142_cif.got.tgz:283016.got - 2010.06.03 11:33:40.
