data_PCOD9099536
_publ_section_title
;
Structure prediction by ZEFSAII (Michael W. Deem and Ramdas Pophale) SiO2 
 PCOD9099536
Probable space group: P -1
;
_chemical_formula_sum "Si O2"
_cell_formula_units_Z 16
_cell_length_a 17.625578
_cell_length_b 5.136344
_cell_length_c 11.436152
_cell_angle_alpha 65.713075
_cell_angle_beta 68.659832
_cell_angle_gamma 103.577230
_cell_volume 783.719511
_symmetry_space_group_name_H-M "P -1"
_symmetry_group_IT_number 2
_symmetry_cell_setting 'triclinic'
loop_
_space_group_symop_operation_xyz
x,y,z
-x,-y,-z
loop_
_atom_site_type_symbol
_atom_site_label
_atom_site_fract_x
_atom_site_fract_y
_atom_site_fract_z
Si Si1 0.699984 0.159324 0.948741
Si Si2 0.606639 0.612113 0.929642
Si Si3 0.182179 0.175357 0.600005
Si Si4 0.249689 0.906909 0.417229
Si Si5 0.135536 0.773186 0.292165
Si Si6 0.984873 0.341945 0.295244
Si Si7 0.901509 0.758476 0.148544
Si Si8 0.842195 0.568312 0.964426
O O1 0.634247 0.326465 0.953929
O O2 0.785751 0.318994 0.781196
O O3 0.755118 0.259466 0.020716
O O4 0.645531 0.802365 0.994948
O O5 0.662662 0.859257 0.749356
O O6 0.500000 0.500000 0.000000
O O7 0.239542 0.554507 0.497927
O O8 0.145978 0.085494 0.769650
O O9 0.242582 0.043611 0.521357
O O10 0.085233 0.031462 0.609895
O O11 0.162176 0.861696 0.394690
O O12 0.040129 0.494757 0.353827
O O13 0.152651 0.102164 0.154870
O O14 0.065510 0.430553 0.137436
O O15 0.924682 0.518763 0.258320
O O16 0.843065 0.597604 0.097096
O O17 0.000000 0.000000 0.000000
#
# Coordination Sequence:
#
# PCOD9099536 Si02
#       8
#     2   2   2   2   2   2   2   2
#     4  10  20  37  60  98 123 147 198 240 316 358
#     4  11  22  42  70  96 122 153 189 247 317 390
#     4  12  25  40  57  85 125 173 208 247 306 342
#     4  11  24  41  59  87 130 152 198 250 311 394
#     4  10  21  38  60  84 125 168 200 256 304 346
#     4  11  22  37  55  88 115 169 228 248 301 329
#     4  12  23  40  58  84 119 171 234 265 278 330
#     4  11  21  37  64  84 124 164 214 269 286 336
#
# _framework density 20.415465999999999
#
# number of rings (size 3 to 8) (size 9 to 14) (size 15 to 20)
#    0.000    1.000    6.250    2.250    1.750    1.000 
#    0.000    0.000    0.000    0.000    0.000    5.250 
#    0.000    0.000    0.000    0.000    0.000    0.000 
#
# Total GULP energy -89362.661088 kJ/mol
# GULP energy per Si atom -5585.166318 kJ/mol
# Density = 2.036900 g / cm^3
# Si number density = 20.415466 Si / 1000 Ang^3
#
#
#
# Elastic Constant Matrix: (Units=GPa)
#
#
# Indices 1 2 3 4 5 6 
#
# 1 57.4477 24.8884 14.8679 11.2939 -18.3155 -1.2572
# 2 24.8884 126.0142 35.8857 30.3423 -6.3911 -2.8982
# 3 14.8679 35.8857 73.5422 19.7267 -8.8488 7.3743
# 4 11.2939 30.3423 19.7267 35.9148 3.6929 6.7834
# 5 -18.3155 -6.3911 -8.8488 3.6929 27.0784 -2.9292
# 6 -1.2572 -2.8982 7.3743 6.7834 -2.9292 38.0470
#
#
#
# Elastic Compliance Matrix: (Units=1/GPa)
#
#
# Indices 1 2 3 4 5 6 
#
# 1 0.026179 -0.001881 0.000024 -0.009332 0.018959 0.003840
# 2 -0.001881 0.011257 -0.003051 -0.007985 0.001796 0.002949
# 3 0.000024 -0.003051 0.018034 -0.007594 0.006019 -0.001910
# 4 -0.009332 -0.007985 -0.007594 0.045202 -0.017803 -0.008874
# 5 0.018959 0.001796 0.006019 -0.017803 0.055333 0.007031
# 6 0.003840 0.002949 -0.001910 -0.008874 0.007031 0.029128
#
#
# Mechanical properties :
#
#
# Convention : Reuss Voigt Hill
#
# Bulk Modulus (GPa) = 21.90270 45.36534 33.63402
# Shear Modulus (GPa) = 23.79073 32.29884 28.04479
#
# Velocity S-wave (km/s) = 3.41739 3.98185 3.71037
# Velocity P-wave (km/s) = 5.13062 6.58859 5.90477
#
# Compressibility (1/GPa) = 0.04565647
#
# Stress axis : x y z
#
# Youngs Moduli (GPa) = 38.19903 88.83018 55.45108
#
# Poissons Ratio (x) = 0.16705 -0.00135
# Poissons Ratio (y) = 0.07183 0.16916
# Poissons Ratio (z) = -0.00093 0.27098
#
# Static dielectric constant tensor:
#      x y z
#    x 1.734730 -0.032840 0.034930 
#    y -0.032840 1.822500 0.002300 
#    z 0.034930 0.002300 1.772900 
# 
# From -- ./inp_files/459079.got.cif
#   From: 2010.05.17/outbox.cif.g08.bks.cpg/sg2_230_cif.got.tgz:459079.got - 2010.06.03 11:33:40.
