data_PCOD9099898
_publ_section_title
;
Structure prediction by ZEFSAII (Michael W. Deem and Ramdas Pophale) SiO2 
 PCOD9099898
Probable space group: P -1
;
_chemical_formula_sum "Si O2"
_cell_formula_units_Z 12
_cell_length_a 14.511610
_cell_length_b 4.961036
_cell_length_c 7.994557
_cell_angle_alpha 101.001853
_cell_angle_beta 113.638080
_cell_angle_gamma 97.509545
_cell_volume 503.640490
_symmetry_space_group_name_H-M "P -1"
_symmetry_group_IT_number 2
_symmetry_cell_setting 'triclinic'
loop_
_space_group_symop_operation_xyz
x,y,z
-x,-y,-z
loop_
_atom_site_type_symbol
_atom_site_label
_atom_site_fract_x
_atom_site_fract_y
_atom_site_fract_z
Si Si1 0.374483 0.888449 0.737789
Si Si2 0.295501 0.695436 0.002939
Si Si3 0.820220 0.096792 0.585064
Si Si4 0.090225 0.720066 0.996676
Si Si5 0.056016 0.324467 0.396659
Si Si6 0.575390 0.726629 0.874796
O O1 0.299414 0.967690 0.555789
O O2 0.463860 0.739489 0.725922
O O3 0.305648 0.693865 0.808074
O O4 0.426384 0.165761 0.919087
O O5 0.179595 0.585326 0.966951
O O6 0.378531 0.543744 0.124130
O O7 0.337272 0.024830 0.112388
O O8 0.850462 0.066220 0.795781
O O9 0.863369 0.424935 0.609629
O O10 0.882944 0.896732 0.511332
O O11 0.000000 0.500000 0.000000
O O12 0.032575 0.832516 0.815651
O O13 0.000000 0.500000 0.500000
#
# Coordination Sequence:
#
# PCOD9099898 Si02
#       6
#     2   2   2   2   2   2
#     4   9  21  37  64  88 121 149 207 242 307 340
#     4  10  20  37  62  86 117 162 200 240 299 350
#     4  11  24  38  60  88 121 157 193 251 302 354
#     4  10  24  43  60  87 130 161 197 245 306 352
#     4  11  24  40  61  88 113 159 207 249 289 354
#     4   9  21  35  64  89 117 152 200 258 286 353
#
# _framework density 23.826518
#
# number of rings (size 3 to 8) (size 9 to 14) (size 15 to 20)
#    1.000    1.000    0.000    2.500    4.667    5.333 
#    0.000    1.667    0.000    0.000    0.000    0.000 
#    0.000    0.000    0.000    0.000    0.000    0.000 
#
# Total GULP energy -66969.184268 kJ/mol
# GULP energy per Si atom -5580.765356 kJ/mol
# Density = 2.377229 g / cm^3
# Si number density = 23.826518 Si / 1000 Ang^3
#
#
#
# Elastic Constant Matrix: (Units=GPa)
#
#
# Indices 1 2 3 4 5 6 
#
# 1 142.8871 12.9184 33.2159 -17.3757 22.6953 -2.9236
# 2 12.9184 75.0292 7.3480 -12.2779 5.5526 -7.8723
# 3 33.2159 7.3480 99.5956 -3.7336 40.3450 -13.0039
# 4 -17.3757 -12.2779 -3.7336 15.9440 -5.7416 10.7133
# 5 22.6953 5.5526 40.3450 -5.7416 36.5617 -14.7610
# 6 -2.9236 -7.8723 -13.0039 10.7133 -14.7610 27.9661
#
#
#
# Elastic Compliance Matrix: (Units=1/GPa)
#
#
# Indices 1 2 3 4 5 6 
#
# 1 0.009680 0.000313 -0.001634 0.013670 -0.005190 -0.007635
# 2 0.000313 0.015318 -0.000929 0.012512 0.000145 -0.000804
# 3 -0.001634 -0.000929 0.018698 -0.005092 -0.020528 -0.000623
# 4 0.013670 0.012512 -0.005092 0.113520 -0.004390 -0.043221
# 5 -0.005190 0.000145 -0.020528 -0.004390 0.062442 0.024593
# 6 -0.007635 -0.000804 -0.000623 -0.043221 0.024593 0.063981
#
#
# Mechanical properties :
#
#
# Convention : Reuss Voigt Hill
#
# Bulk Modulus (GPa) = 25.51297 47.16404 36.33850
# Shear Modulus (GPa) = 16.60009 33.69634 25.14822
#
# Velocity S-wave (km/s) = 2.64238 3.76471 3.25233
# Velocity P-wave (km/s) = 4.47668 6.22376 5.42106
#
# Compressibility (1/GPa) = 0.03919575
#
# Stress axis : x y z
#
# Youngs Moduli (GPa) = 103.30147 65.28460 53.48296
#
# Poissons Ratio (x) = -0.02044 0.08738
# Poissons Ratio (y) = -0.03235 0.04970
# Poissons Ratio (z) = 0.16878 0.06066
#
# Static dielectric constant tensor:
#      x y z
#    x 1.933820 0.013490 -0.042100 
#    y 0.013490 1.928570 0.029730 
#    z -0.042100 0.029730 1.983480 
# 
# From -- ./inp_files/286412.got.cif
#   From: 2010.05.17/outbox.cif.g08.bks.cpg/sg2_144_cif.got.tgz:286412.got - 2010.06.03 11:33:40.
