data_PCOD9099977
_publ_section_title
;
Structure prediction by ZEFSAII (Michael W. Deem and Ramdas Pophale) SiO2 
 PCOD9099977
Probable space group: P -1
;
_chemical_formula_sum "Si O2"
_cell_formula_units_Z 16
_cell_length_a 11.148942
_cell_length_b 12.293272
_cell_length_c 17.610335
_cell_angle_alpha 28.976786
_cell_angle_beta 51.608262
_cell_angle_gamma 43.892601
_cell_volume 810.362244
_symmetry_space_group_name_H-M "P -1"
_symmetry_group_IT_number 2
_symmetry_cell_setting 'triclinic'
loop_
_space_group_symop_operation_xyz
x,y,z
-x,-y,-z
loop_
_atom_site_type_symbol
_atom_site_label
_atom_site_fract_x
_atom_site_fract_y
_atom_site_fract_z
Si Si1 0.624569 0.799852 0.319312
Si Si2 0.660099 0.057728 0.409854
Si Si3 0.991256 0.904939 0.980117
Si Si4 0.400115 0.629394 0.604907
Si Si5 0.032071 0.641364 0.474763
Si Si6 0.256580 0.866767 0.181728
Si Si7 0.637492 0.240210 0.141749
Si Si8 0.760238 0.701287 0.164702
O O1 0.475861 0.726366 0.447092
O O2 0.632333 0.842689 0.199995
O O3 0.814954 0.574680 0.404278
O O4 0.602084 0.026526 0.245286
O O5 0.649488 0.189489 0.413752
O O6 0.636004 0.229522 0.239840
O O7 0.500000 0.000000 0.500000
O O8 0.843919 0.806490 0.483294
O O9 0.944043 0.675262 0.134758
O O10 0.167168 0.830384 0.913744
O O11 0.000000 0.000000 0.000000
O O12 0.822810 0.137267 0.866956
O O13 0.562268 0.363638 0.728801
O O14 0.253175 0.552840 0.687396
O O15 0.000000 0.500000 0.500000
O O16 0.112631 0.835619 0.307420
O O17 0.272015 0.125565 0.004613
O O18 0.500000 0.500000 0.000000
#
# Coordination Sequence:
#
# PCOD9099977 Si02
#       8
#     2   2   2   2   2   2   2   2
#     4  11  22  42  64  89 124 167 207 255 305 376
#     4  12  23  39  62  93 126 160 205 262 308 363
#     4  10  20  37  62  89 121 157 210 248 303 357
#     4  11  23  40  62  96 127 163 208 252 316 364
#     4  11  20  39  63  88 125 160 211 251 305 374
#     4   9  20  38  63  88 120 166 211 247 295 374
#     4  12  24  40  60  98 128 155 203 265 318 354
#     4  10  22  39  66  90 126 164 213 251 304 372
#
# _framework density 19.744256
#
# number of rings (size 3 to 8) (size 9 to 14) (size 15 to 20)
#    0.750    0.500    5.000    1.500    3.500    1.000 
#    0.000    3.125    2.750    0.000    0.000    0.000 
#    0.000    0.000    0.000    0.000    0.000    0.000 
#
# Total GULP energy -89097.624127 kJ/mol
# GULP energy per Si atom -5568.601508 kJ/mol
# Density = 1.969932 g / cm^3
# Si number density = 19.744256 Si / 1000 Ang^3
#
#
#
# Elastic Constant Matrix: (Units=GPa)
#
#
# Indices 1 2 3 4 5 6 
#
# 1 60.9510 13.3066 19.4995 4.1449 -28.0764 -4.3351
# 2 13.3066 67.8807 27.2784 16.7424 -17.0206 -2.7507
# 3 19.4995 27.2784 90.2331 16.1846 -21.5964 -13.4329
# 4 4.1449 16.7424 16.1846 30.7518 -6.7559 -0.3365
# 5 -28.0764 -17.0206 -21.5964 -6.7559 45.4757 1.0203
# 6 -4.3351 -2.7507 -13.4329 -0.3365 1.0203 23.0889
#
#
#
# Elastic Compliance Matrix: (Units=1/GPa)
#
#
# Indices 1 2 3 4 5 6 
#
# 1 0.023412 -0.000771 -0.001299 0.000974 0.013627 0.002960
# 2 -0.000771 0.019092 -0.003287 -0.007690 0.003968 -0.000070
# 3 -0.001299 -0.003287 0.015548 -0.005162 0.004402 0.008141
# 4 0.000974 -0.007690 -0.005162 0.039522 0.001215 -0.003214
# 5 0.013627 0.003968 0.004402 0.001215 0.034068 0.004105
# 6 0.002960 -0.000070 0.008141 -0.003214 0.004105 0.048366
#
#
# Mechanical properties :
#
#
# Convention : Reuss Voigt Hill
#
# Bulk Modulus (GPa) = 21.12355 37.69265 29.40810
# Shear Modulus (GPa) = 24.21292 30.46197 27.33744
#
# Velocity S-wave (km/s) = 3.50569 3.93214 3.72503
# Velocity P-wave (km/s) = 5.20657 6.30457 5.78169
#
# Compressibility (1/GPa) = 0.04734052
#
# Stress axis : x y z
#
# Youngs Moduli (GPa) = 42.71300 52.37670 64.31660
#
# Poissons Ratio (x) = 0.04037 0.08353
# Poissons Ratio (y) = 0.03292 0.21138
# Poissons Ratio (z) = 0.05547 0.17214
#
# Static dielectric constant tensor:
#      x y z
#    x 1.784100 -0.010730 0.022550 
#    y -0.010730 1.657560 0.028710 
#    z 0.022550 0.028710 1.818530 
# 
# From -- ./inp_files/568456.got.cif
#   From: 2010.05.17/outbox.cif.g08.bks.cpg/sg2_285_cif.got.tgz:568456.got - 2010.06.03 11:33:40.
