data_PCOD9099023
_publ_section_title
;
Structure prediction by ZEFSAII (Michael W. Deem and Ramdas Pophale) SiO2 
 PCOD9099023
Probable space group: P -1
;
_chemical_formula_sum "Si O2"
_cell_formula_units_Z 16
_cell_length_a 15.076256
_cell_length_b 9.614383
_cell_length_c 5.026812
_cell_angle_alpha 102.424689
_cell_angle_beta 74.038969
_cell_angle_gamma 112.998432
_cell_volume 640.065009
_symmetry_space_group_name_H-M "P -1"
_symmetry_group_IT_number 2
_symmetry_cell_setting 'triclinic'
loop_
_space_group_symop_operation_xyz
x,y,z
-x,-y,-z
loop_
_atom_site_type_symbol
_atom_site_label
_atom_site_fract_x
_atom_site_fract_y
_atom_site_fract_z
Si Si1 0.062212 0.985481 0.195623
Si Si2 0.551046 0.143797 0.217473
Si Si3 0.470279 0.364423 0.178399
Si Si4 0.761420 0.765004 0.098652
Si Si5 0.378978 0.081432 0.762229
Si Si6 0.930590 0.319856 0.710167
Si Si7 0.139854 0.569186 0.676305
Si Si8 0.711445 0.580064 0.547617
O O1 0.082986 0.833580 0.183384
O O2 0.160047 0.125252 0.118576
O O3 0.000000 0.000000 0.500000
O O4 0.000000 0.000000 0.000000
O O5 0.560056 0.307749 0.164869
O O6 0.475607 0.129943 0.517113
O O7 0.640950 0.092948 0.216945
O O8 0.500000 0.000000 0.000000
O O9 0.396440 0.414567 0.451684
O O10 0.500000 0.500000 0.000000
O O11 0.403051 0.201829 0.034951
O O12 0.705179 0.876209 0.292891
O O13 0.784449 0.693964 0.319559
O O14 0.713707 0.626715 0.874449
O O15 0.877372 0.310133 0.466375
O O16 0.047646 0.413954 0.609258
O O17 0.884115 0.408521 0.989327
O O18 0.246927 0.556799 0.548056
#
# Coordination Sequence:
#
# PCOD9099023 Si02
#       8
#     2   2   2   2   2   2   2   2
#     4  12  24  40  62  94 123 155 203 256 303 347
#     4   9  17  36  58  82 116 155 207 241 310 370
#     4  10  21  37  58  90 122 155 203 261 305 366
#     4  11  22  39  63  89 120 159 204 255 294 365
#     4   9  19  36  60  85 114 165 203 247 305 375
#     4  10  21  37  57  85 116 154 195 237 297 357
#     4  10  20  37  59  80 118 159 190 236 294 366
#     4  11  22  40  62  90 117 161 207 241 308 362
#
# _framework density 24.997463
#
# number of rings (size 3 to 8) (size 9 to 14) (size 15 to 20)
#    0.000    1.750    1.250    3.750    0.000    2.500 
#    2.250    3.750    0.000    0.000    0.000    0.000 
#    0.000    0.000    0.000    0.000    0.000    0.000 
#
# Total GULP energy -89175.385295 kJ/mol
# GULP energy per Si atom -5573.461581 kJ/mol
# Density = 2.494057 g / cm^3
# Si number density = 24.997463 Si / 1000 Ang^3
#
#
#
# Elastic Constant Matrix: (Units=GPa)
#
#
# Indices 1 2 3 4 5 6 
#
# 1 61.1631 38.4904 16.3910 2.0264 -9.6693 -33.4884
# 2 38.4904 142.5667 27.7208 -12.5479 -1.2345 -38.8802
# 3 16.3910 27.7208 116.7356 -2.3953 -1.9181 -15.6191
# 4 2.0264 -12.5479 -2.3953 45.4196 -12.6390 -1.5260
# 5 -9.6693 -1.2345 -1.9181 -12.6390 37.6981 -2.2362
# 6 -33.4884 -38.8802 -15.6191 -1.5260 -2.2362 43.0057
#
#
#
# Elastic Compliance Matrix: (Units=1/GPa)
#
#
# Indices 1 2 3 4 5 6 
#
# 1 0.032281 -0.001860 -0.000709 0.001629 0.010140 0.023783
# 2 -0.001860 0.010073 -0.001037 0.003452 0.001401 0.007477
# 3 -0.000709 -0.001037 0.009182 0.000435 0.000509 0.001888
# 4 0.001629 0.003452 0.000435 0.025778 0.009549 0.005959
# 5 0.010140 0.001401 0.000509 0.009549 0.033077 0.011406
# 6 0.023783 0.007477 0.001888 0.005959 0.011406 0.050023
#
#
# Mechanical properties :
#
#
# Convention : Reuss Voigt Hill
#
# Bulk Modulus (GPa) = 22.56049 53.96332 38.26191
# Shear Modulus (GPa) = 27.41215 41.08223 34.24719
#
# Velocity S-wave (km/s) = 3.31508 4.05835 3.70540
# Velocity P-wave (km/s) = 4.86803 6.60263 5.80054
#
# Compressibility (1/GPa) = 0.04432529
#
# Stress axis : x y z
#
# Youngs Moduli (GPa) = 30.97761 99.27361 108.91024
#
# Poissons Ratio (x) = 0.18468 0.07718
# Poissons Ratio (y) = 0.05763 0.11289
# Poissons Ratio (z) = 0.02195 0.10290
#
# Static dielectric constant tensor:
#      x y z
#    x 1.794690 -0.064810 0.087300 
#    y -0.064810 2.053440 0.031980 
#    z 0.087300 0.031980 1.920950 
# 
# From -- ./inp_files/38915.got.cif
#   From: 2010.05.17/outbox.cif.g08.bks.cpg/sg2_20_cif.got.tgz:38915.got - 2010.06.03 11:33:40.
