data_PCOD9099385
_publ_section_title
;
Structure prediction by ZEFSAII (Michael W. Deem and Ramdas Pophale) SiO2 
 PCOD9099385
Probable space group: P -1
;
_chemical_formula_sum "Si O2"
_cell_formula_units_Z 12
_cell_length_a 23.246889
_cell_length_b 6.850714
_cell_length_c 13.554845
_cell_angle_alpha 58.731914
_cell_angle_beta 159.335842
_cell_angle_gamma 122.630027
_cell_volume 640.788614
_symmetry_space_group_name_H-M "P -1"
_symmetry_group_IT_number 2
_symmetry_cell_setting 'triclinic'
loop_
_space_group_symop_operation_xyz
x,y,z
-x,-y,-z
loop_
_atom_site_type_symbol
_atom_site_label
_atom_site_fract_x
_atom_site_fract_y
_atom_site_fract_z
Si Si1 0.927412 0.580907 0.757851
Si Si2 0.824090 0.080662 0.706711
Si Si3 0.460778 0.382288 0.360078
Si Si4 0.257611 0.884448 0.202082
Si Si5 0.480689 0.818399 0.148143
Si Si6 0.411027 0.273877 0.860724
O O1 0.863987 0.342191 0.661011
O O2 0.765640 0.695289 0.474188
O O3 0.000000 0.500000 0.000000
O O4 0.078303 0.761445 0.908319
O O5 0.761578 0.100437 0.713956
O O6 0.673804 0.910921 0.460117
O O7 0.000000 0.000000 0.000000
O O8 0.500000 0.500000 0.500000
O O9 0.615761 0.282219 0.586425
O O10 0.418359 0.590725 0.171064
O O11 0.323014 0.149049 0.205571
O O12 0.472500 0.755351 0.037017
O O13 0.396539 0.044828 0.965164
O O14 0.500000 0.500000 0.000000
#
# Coordination Sequence:
#
# PCOD9099385 Si02
#       6
#     2   2   2   2   2   2
#     4  10  20  37  60  87 122 158 205 261 309 359
#     4  11  19  34  63  94 125 155 205 267 308 363
#     4  11  22  39  63  92 126 167 215 256 303 377
#     4  10  22  37  60  93 125 162 209 260 309 356
#     4  11  22  37  61  92 123 166 207 254 316 373
#     4  11  23  40  61  92 130 162 202 262 325 372
#
# _framework density 18.726925999999999
#
# number of rings (size 3 to 8) (size 9 to 14) (size 15 to 20)
#    0.000    1.333    3.333    5.000    0.000    0.000 
#    0.000    0.833    0.000    2.000    0.000    0.000 
#    0.000    0.000    0.000    0.000    0.000    0.000 
#
# Total GULP energy -66871.370873 kJ/mol
# GULP energy per Si atom -5572.614239 kJ/mol
# Density = 1.868430 g / cm^3
# Si number density = 18.726926 Si / 1000 Ang^3
#
#
#
# Elastic Constant Matrix: (Units=GPa)
#
#
# Indices 1 2 3 4 5 6 
#
# 1 75.1443 50.4970 17.4826 -4.1650 3.2794 -4.9879
# 2 50.4970 165.5183 39.4203 -7.6005 3.6220 21.5356
# 3 17.4826 39.4203 88.6288 -10.1845 7.4579 12.3393
# 4 -4.1650 -7.6005 -10.1845 41.2544 3.0359 -0.3821
# 5 3.2794 3.6220 7.4579 3.0359 21.9656 -5.9435
# 6 -4.9879 21.5356 12.3393 -0.3821 -5.9435 35.1460
#
#
#
# Elastic Compliance Matrix: (Units=1/GPa)
#
#
# Indices 1 2 3 4 5 6 
#
# 1 0.018274 -0.006044 -0.001948 0.000256 0.000821 0.007122
# 2 -0.006044 0.009186 -0.001810 0.000708 -0.001758 -0.006141
# 3 -0.001948 -0.001810 0.014072 0.003340 -0.006028 -0.005091
# 4 0.000256 0.000708 0.003340 0.025600 -0.005425 -0.002209
# 5 0.000821 -0.001758 -0.006028 -0.005425 0.051736 0.012000
# 6 0.007122 -0.006141 -0.005091 -0.002209 0.012000 0.037019
#
#
# Mechanical properties :
#
#
# Convention : Reuss Voigt Hill
#
# Bulk Modulus (GPa) = 45.60036 60.45456 53.02746
# Shear Modulus (GPa) = 27.35245 34.46595 30.90920
#
# Velocity S-wave (km/s) = 3.82592 4.29470 4.06707
# Velocity P-wave (km/s) = 6.62721 7.54618 7.10157
#
# Compressibility (1/GPa) = 0.02192965
#
# Stress axis : x y z
#
# Youngs Moduli (GPa) = 54.72397 108.85547 71.06356
#
# Poissons Ratio (x) = 0.65792 0.13840
# Poissons Ratio (y) = 0.33075 0.12859
# Poissons Ratio (z) = 0.10658 0.19698
#
# Static dielectric constant tensor:
#      x y z
#    x 1.721880 -0.026590 -0.010540 
#    y -0.026590 1.723560 -0.018010 
#    z -0.010540 -0.018010 1.665650 
# 
# From -- ./inp_files/71445.got.cif
#   From: 2010.05.17/outbox.cif.g08.bks.cpg/sg2_36_cif.got.tgz:71445.got - 2010.06.03 11:33:40.
