data_PCOD9099310
_publ_section_title
;
Structure prediction by ZEFSAII (Michael W. Deem and Ramdas Pophale) SiO2 
 PCOD9099310
Probable space group: P -1
;
_chemical_formula_sum "Si O2"
_cell_formula_units_Z 16
_cell_length_a 12.070511
_cell_length_b 20.826453
_cell_length_c 8.039533
_cell_angle_alpha 137.812509
_cell_angle_beta 56.465533
_cell_angle_gamma 149.044072
_cell_volume 677.694751
_symmetry_space_group_name_H-M "P -1"
_symmetry_group_IT_number 2
_symmetry_cell_setting 'triclinic'
loop_
_space_group_symop_operation_xyz
x,y,z
-x,-y,-z
loop_
_atom_site_type_symbol
_atom_site_label
_atom_site_fract_x
_atom_site_fract_y
_atom_site_fract_z
Si Si1 0.545102 0.828244 0.207424
Si Si2 0.087207 0.626908 0.304270
Si Si3 0.669463 0.357613 0.326227
Si Si4 0.992043 0.882327 0.310659
Si Si5 0.408283 0.049664 0.125663
Si Si6 0.108634 0.858199 0.671860
Si Si7 0.712846 0.714763 0.899969
Si Si8 0.415839 0.406984 0.717043
O O1 0.054950 0.715283 0.431179
O O2 0.734181 0.012474 0.355534
O O3 0.430190 0.732292 0.942090
O O4 0.652124 0.790723 0.105978
O O5 0.348951 0.756466 0.346963
O O6 0.930319 0.524949 0.399577
O O7 0.000000 0.500000 0.000000
O O8 0.597895 0.235610 0.281741
O O9 0.546646 0.384566 0.529553
O O10 0.841323 0.765610 0.367159
O O11 0.857252 0.767857 0.041946
O O12 0.000000 0.000000 0.500000
O O13 0.239273 0.986697 0.287464
O O14 0.500000 0.000000 0.000000
O O15 0.260271 0.956648 0.901515
O O16 0.883035 0.788856 0.753188
O O17 0.488767 0.524299 0.740477
O O18 0.500000 0.500000 0.000000
#
# Coordination Sequence:
#
# PCOD9099310 Si02
#       8
#     2   2   2   2   2   2   2   2
#     4  10  22  37  61  90 117 152 200 239 289 350
#     4  10  21  39  59  83 118 161 189 233 295 350
#     4  10  20  40  61  83 123 154 189 248 293 341
#     4  10  20  37  60  84 118 151 192 244 289 339
#     4  10  22  38  61  87 112 154 199 238 291 349
#     4  10  20  40  61  81 122 156 187 244 297 338
#     4  10  21  37  60  90 115 154 197 237 293 350
#     4  10  20  37  61  82 118 157 191 236 298 340
#
# _framework density 23.609451
#
# number of rings (size 3 to 8) (size 9 to 14) (size 15 to 20)
#    0.000    2.000    2.500    0.750    0.000    2.500 
#    0.000    0.625    0.000    0.000    0.000    0.000 
#    0.000    0.000    0.000    0.000    0.000    0.000 
#
# Total GULP energy -89490.302303 kJ/mol
# GULP energy per Si atom -5593.143894 kJ/mol
# Density = 2.355572 g / cm^3
# Si number density = 23.609451 Si / 1000 Ang^3
#
#
#
# Elastic Constant Matrix: (Units=GPa)
#
#
# Indices 1 2 3 4 5 6 
#
# 1 78.5064 83.7261 13.2494 -8.9810 -25.9663 4.6709
# 2 83.7261 284.4917 63.9469 -7.1533 -43.2219 0.3944
# 3 13.2494 63.9469 76.2226 -4.0370 -26.7016 -3.0616
# 4 -8.9810 -7.1533 -4.0370 42.5907 -0.5604 -11.1724
# 5 -25.9663 -43.2219 -26.7016 -0.5604 63.4793 -1.0934
# 6 4.6709 0.3944 -3.0616 -11.1724 -1.0934 42.8962
#
#
#
# Elastic Compliance Matrix: (Units=1/GPa)
#
#
# Indices 1 2 3 4 5 6 
#
# 1 0.020967 -0.005978 0.003650 0.003614 0.006058 -0.000872
# 2 -0.005978 0.006203 -0.004184 -0.000577 0.000015 0.000145
# 3 0.003650 -0.004184 0.018451 0.002356 0.006456 0.001736
# 4 0.003614 -0.000577 0.002356 0.026144 0.002422 0.006651
# 5 0.006058 0.000015 0.006456 0.002422 0.020995 0.000967
# 6 -0.000872 0.000145 0.001736 0.006651 0.000967 0.025287
#
#
# Mechanical properties :
#
#
# Convention : Reuss Voigt Hill
#
# Bulk Modulus (GPa) = 30.67920 84.56283 57.62101
# Shear Modulus (GPa) = 35.22685 48.34646 41.78665
#
# Velocity S-wave (km/s) = 3.86692 4.53013 4.21160
# Velocity P-wave (km/s) = 5.74109 7.95348 6.93606
#
# Compressibility (1/GPa) = 0.03259538
#
# Stress axis : x y z
#
# Youngs Moduli (GPa) = 47.69435 161.22463 54.19687
#
# Poissons Ratio (x) = 0.96388 -0.19780
# Poissons Ratio (y) = 0.28514 0.22675
# Poissons Ratio (z) = -0.17407 0.67453
#
# Static dielectric constant tensor:
#      x y z
#    x 2.402920 -0.015270 0.654640 
#    y -0.015270 1.926580 -0.019540 
#    z 0.654640 -0.019540 2.509160 
# 
# From -- ./inp_files/175316.got.cif
#   From: 2010.05.17/outbox.cif.g08.bks.cpg/sg2_88_cif.got.tgz:175316.got - 2010.06.03 11:33:40.
