data_PCOD9099039
_publ_section_title
;
Structure prediction by ZEFSAII (Michael W. Deem and Ramdas Pophale) SiO2 
 PCOD9099039
Probable space group: P -1
;
_chemical_formula_sum "Si O2"
_cell_formula_units_Z 16
_cell_length_a 24.196458
_cell_length_b 5.041813
_cell_length_c 12.419312
_cell_angle_alpha 80.192280
_cell_angle_beta 153.135266
_cell_angle_gamma 104.456665
_cell_volume 658.201947
_symmetry_space_group_name_H-M "P -1"
_symmetry_group_IT_number 2
_symmetry_cell_setting 'triclinic'
loop_
_space_group_symop_operation_xyz
x,y,z
-x,-y,-z
loop_
_atom_site_type_symbol
_atom_site_label
_atom_site_fract_x
_atom_site_fract_y
_atom_site_fract_z
Si Si1 0.586260 0.170449 0.387239
Si Si2 0.851676 0.728891 0.157946
Si Si3 0.518625 0.330836 0.912267
Si Si4 0.695462 0.989192 0.287572
Si Si5 0.013344 0.663137 0.857421
Si Si6 0.154616 0.839790 0.276827
Si Si7 0.245496 0.748439 0.129394
Si Si8 0.121376 0.061466 0.571356
O O1 0.507990 0.391846 0.201197
O O2 0.718185 0.217529 0.549205
O O3 0.627739 0.196373 0.583153
O O4 0.515072 0.881667 0.232549
O O5 0.840180 0.792519 0.259034
O O6 0.775138 0.434649 0.002084
O O7 0.003913 0.795898 0.400027
O O8 0.793932 0.962308 0.980977
O O9 0.424636 0.222412 0.856665
O O10 0.651525 0.281756 0.188362
O O11 0.798368 0.956995 0.557936
O O12 0.759142 0.978305 0.284585
O O13 0.925057 0.424526 0.784930
O O14 0.941300 0.747574 0.626672
O O15 0.072946 0.902374 0.030504
O O16 0.135336 0.575852 0.026056
#
# Coordination Sequence:
#
# PCOD9099039 Si02
#       8
#     2   2   2   2   2   2   2   2
#     4  10  20  37  59  82 112 147 185 234 283 328
#     4  10  22  37  58  86 112 147 190 227 277 337
#     4  10  22  37  58  86 112 147 190 227 277 337
#     4  10  21  35  55  82 117 151 186 230 276 328
#     4   9  18  31  52  84 117 149 184 223 277 342
#     4   9  18  31  52  84 117 149 184 223 277 342
#     4  10  20  37  59  82 112 147 185 234 283 328
#     4  10  21  35  55  82 117 151 186 230 276 328
#
# _framework density 24.308646
#
# number of rings (size 3 to 8) (size 9 to 14) (size 15 to 20)
#    0.000    2.250    0.000    2.250    0.000   12.500 
#    0.000    0.000    0.000    4.500    0.000    0.000 
#    0.000    0.000    0.000    0.000    0.000    0.000 
#
# Total GULP energy -89370.184037 kJ/mol
# GULP energy per Si atom -5585.636502 kJ/mol
# Density = 2.425332 g / cm^3
# Si number density = 24.308646 Si / 1000 Ang^3
#
#
#
# Elastic Constant Matrix: (Units=GPa)
#
#
# Indices 1 2 3 4 5 6 
#
# 1 96.0645 5.8049 34.4153 8.1322 -19.7815 -19.1893
# 2 5.8049 71.4835 22.4544 -2.3649 4.6828 -19.4310
# 3 34.4153 22.4544 134.0907 3.4794 -28.1344 -14.6274
# 4 8.1322 -2.3649 3.4794 28.0449 -12.3554 -6.0799
# 5 -19.7815 4.6828 -28.1344 -12.3554 30.7733 -0.4459
# 6 -19.1893 -19.4310 -14.6274 -6.0799 -0.4459 24.6040
#
#
#
# Elastic Compliance Matrix: (Units=1/GPa)
#
#
# Indices 1 2 3 4 5 6 
#
# 1 0.015236 0.002303 -0.000599 0.003634 0.010564 0.014435
# 2 0.002303 0.019351 -0.002540 0.004008 -0.001938 0.016524
# 3 -0.000599 -0.002540 0.011107 0.005244 0.012343 0.005650
# 4 0.003634 0.004008 0.005244 0.051186 0.027394 0.022262
# 5 0.010564 -0.001938 0.012343 0.027394 0.062182 0.021943
# 6 0.014435 0.016524 0.005650 0.022262 0.021943 0.074210
#
#
# Mechanical properties :
#
#
# Convention : Reuss Voigt Hill
#
# Bulk Modulus (GPa) = 22.71571 47.44311 35.07941
# Shear Modulus (GPa) = 20.03068 32.61539 26.32303
#
# Velocity S-wave (km/s) = 2.87368 3.66692 3.29426
# Velocity P-wave (km/s) = 4.51395 6.12273 5.37882
#
# Compressibility (1/GPa) = 0.04402240
#
# Stress axis : x y z
#
# Youngs Moduli (GPa) = 65.63241 51.67663 90.03623
#
# Poissons Ratio (x) = -0.11901 0.05396
# Poissons Ratio (y) = -0.15115 0.22865
# Poissons Ratio (z) = 0.03933 0.13123
#
# Static dielectric constant tensor:
#      x y z
#    x 1.972800 -0.053510 -0.038720 
#    y -0.053510 2.024880 0.068680 
#    z -0.038720 0.068680 2.006170 
# 
# From -- ./inp_files/473271.got.cif
#   From: 2010.05.17/outbox.cif.g08.bks.cpg/sg2_237_cif.got.tgz:473271.got - 2010.06.03 11:33:40.
