data_PCOD9099313
_publ_section_title
;
Structure prediction by ZEFSAII (Michael W. Deem and Ramdas Pophale) SiO2 
 PCOD9099313
Probable space group: P -1
;
_chemical_formula_sum "Si O2"
_cell_formula_units_Z 12
_cell_length_a 13.380443
_cell_length_b 14.771968
_cell_length_c 9.289892
_cell_angle_alpha 107.468584
_cell_angle_beta 97.521293
_cell_angle_gamma 20.252053
_cell_volume 539.428647
_symmetry_space_group_name_H-M "P -1"
_symmetry_group_IT_number 2
_symmetry_cell_setting 'triclinic'
loop_
_space_group_symop_operation_xyz
x,y,z
-x,-y,-z
loop_
_atom_site_type_symbol
_atom_site_label
_atom_site_fract_x
_atom_site_fract_y
_atom_site_fract_z
Si Si1 0.279756 0.540130 0.849330
Si Si2 0.690312 0.738955 0.965181
Si Si3 0.632470 0.365329 0.618302
Si Si4 0.711206 0.180926 0.043042
Si Si5 0.044739 0.389302 0.593661
Si Si6 0.517880 0.846077 0.285012
O O1 0.423658 0.472305 0.713093
O O2 0.532120 0.328413 0.927558
O O3 0.296849 0.413682 0.756742
O O4 0.925165 0.898190 0.994004
O O5 0.772810 0.612811 0.770705
O O6 0.498379 0.860613 0.116004
O O7 0.000000 0.500000 0.000000
O O8 0.500000 0.000000 0.000000
O O9 0.500000 0.500000 0.500000
O O10 0.558852 0.529609 0.767532
O O11 0.000000 0.000000 0.500000
O O12 0.000000 0.000000 0.000000
O O13 0.289827 0.232517 0.663247
O O14 0.000000 0.500000 0.500000
O O15 0.177596 0.171634 0.452803
#
# Coordination Sequence:
#
# PCOD9099313 Si02
#       6
#     2   2   2   2   2   2
#     4  11  23  40  65  91 125 162 214 254 300 381
#     4  10  20  37  60  84 118 164 207 248 312 370
#     4  11  21  40  65  91 126 160 198 255 321 373
#     4  10  21  41  64  87 119 169 200 241 317 383
#     4  10  20  39  64  85 127 169 208 253 317 368
#     4  10  23  39  61  93 123 168 211 261 306 361
#
# _framework density 22.245759
#
# number of rings (size 3 to 8) (size 9 to 14) (size 15 to 20)
#    0.000    1.667    1.667    5.000    2.333    0.000 
#    6.000    0.000    0.000    0.000    0.000    0.000 
#    0.000    0.000    0.000    0.000    0.000    0.000 
#
# Total GULP energy -66897.538449 kJ/mol
# GULP energy per Si atom -5574.794871 kJ/mol
# Density = 2.219513 g / cm^3
# Si number density = 22.245759 Si / 1000 Ang^3
#
#
#
# Elastic Constant Matrix: (Units=GPa)
#
#
# Indices 1 2 3 4 5 6 
#
# 1 48.0561 22.8116 35.3972 9.9181 12.9140 17.4049
# 2 22.8116 158.4885 64.4153 13.6548 2.7771 18.5811
# 3 35.3972 64.4153 205.2182 24.3213 -14.1201 30.1537
# 4 9.9181 13.6548 24.3213 57.9121 12.9147 10.4611
# 5 12.9140 2.7771 -14.1201 12.9147 23.3874 -0.7061
# 6 17.4049 18.5811 30.1537 10.4611 -0.7061 44.9694
#
#
#
# Elastic Compliance Matrix: (Units=1/GPa)
#
#
# Indices 1 2 3 4 5 6 
#
# 1 0.036534 -0.001186 -0.006810 0.004859 -0.027148 -0.010641
# 2 -0.001186 0.007496 -0.002042 -0.000165 -0.001415 -0.001253
# 3 -0.006810 -0.002042 0.008049 -0.004059 0.011080 -0.000800
# 4 0.004859 -0.000165 -0.004059 0.023044 -0.017982 -0.004734
# 5 -0.027148 -0.001415 0.011080 -0.017982 0.074808 0.009020
# 6 -0.010641 -0.001253 -0.000800 -0.004734 0.009020 0.028652
#
#
# Mechanical properties :
#
#
# Convention : Reuss Voigt Hill
#
# Bulk Modulus (GPa) = 31.24608 73.00122 52.12365
# Shear Modulus (GPa) = 23.88595 44.52971 34.20783
#
# Velocity S-wave (km/s) = 3.28034 4.47891 3.92564
# Velocity P-wave (km/s) = 5.33140 7.72234 6.63545
#
# Compressibility (1/GPa) = 0.03200402
#
# Stress axis : x y z
#
# Youngs Moduli (GPa) = 27.37152 133.40115 124.23406
#
# Poissons Ratio (x) = 0.15824 0.84599
# Poissons Ratio (y) = 0.03247 0.25369
# Poissons Ratio (z) = 0.18639 0.27241
#
# Static dielectric constant tensor:
#      x y z
#    x 1.874250 -0.031250 -0.033440 
#    y -0.031250 1.822450 0.074140 
#    z -0.033440 0.074140 1.900440 
# 
# From -- ./inp_files/40500.got.cif
#   From: 2010.05.17/outbox.cif.g08.bks.cpg/sg2_21_cif.got.tgz:40500.got - 2010.06.03 11:33:40.
