data_PCOD9099098
_publ_section_title
;
Structure prediction by ZEFSAII (Michael W. Deem and Ramdas Pophale) SiO2 
 PCOD9099098
Probable space group: P -1
;
_chemical_formula_sum "Si O2"
_cell_formula_units_Z 16
_cell_length_a 20.719167
_cell_length_b 15.184074
_cell_length_c 12.351498
_cell_angle_alpha 150.739177
_cell_angle_beta 150.858975
_cell_angle_gamma 29.903278
_cell_volume 830.247297
_symmetry_space_group_name_H-M "P -1"
_symmetry_group_IT_number 2
_symmetry_cell_setting 'triclinic'
loop_
_space_group_symop_operation_xyz
x,y,z
-x,-y,-z
loop_
_atom_site_type_symbol
_atom_site_label
_atom_site_fract_x
_atom_site_fract_y
_atom_site_fract_z
Si Si1 0.175841 0.931724 0.865574
Si Si2 0.185568 0.586393 0.371802
Si Si3 0.099484 0.488075 0.737403
Si Si4 0.686673 0.888766 0.460004
Si Si5 0.492690 0.341627 0.654630
Si Si6 0.526385 0.699670 0.170429
Si Si7 0.024978 0.079647 0.007950
Si Si8 0.967208 0.601452 0.890745
O O1 0.153802 0.808512 0.602114
O O2 0.347839 0.813462 0.024398
O O3 0.068329 0.939238 0.815633
O O4 0.133714 0.161359 0.020610
O O5 0.360128 0.451888 0.495846
O O6 0.111573 0.496487 0.254313
O O7 0.112881 0.582973 0.147615
O O8 0.247421 0.285395 0.720168
O O9 0.014264 0.493875 0.728770
O O10 0.000000 0.500000 0.500000
O O11 0.106479 0.701411 0.974727
O O12 0.594624 0.825318 0.341754
O O13 0.826236 0.892244 0.728790
O O14 0.593407 0.114499 0.524798
O O15 0.430974 0.331025 0.673823
O O16 0.572738 0.484390 0.949423
O O17 0.000000 0.000000 0.000000
#
# Coordination Sequence:
#
# PCOD9099098 Si02
#       8
#     2   2   2   2   2   2   2   2
#     4  10  20  37  59  85 114 149 187 244 282 336
#     4  10  22  35  62  81 114 154 185 243 273 342
#     4   9  22  35  55  82 113 150 180 238 276 340
#     4  11  21  35  55  80 118 154 179 238 283 336
#     4  10  21  34  55  84 115 149 189 236 276 342
#     4  10  21  34  55  88 115 146 190 233 289 331
#     4  10  22  34  54  87 118 150 187 231 295 338
#     4  10  21  40  55  86 114 147 198 226 288 337
#
# _framework density 19.271364999999999
#
# number of rings (size 3 to 8) (size 9 to 14) (size 15 to 20)
#    0.000    2.000    1.250    1.500   10.500    0.000 
#    0.000    0.625    0.000    3.000    0.000    0.000 
#    0.000    0.000    0.000    0.000    0.000    0.000 
#
# Total GULP energy -89274.340870 kJ/mol
# GULP energy per Si atom -5579.646304 kJ/mol
# Density = 1.922750 g / cm^3
# Si number density = 19.271365 Si / 1000 Ang^3
#
#
#
# Elastic Constant Matrix: (Units=GPa)
#
#
# Indices 1 2 3 4 5 6 
#
# 1 56.6327 17.8842 14.4575 11.5978 -8.3666 2.1562
# 2 17.8842 102.0519 22.0778 20.0775 -6.2204 -13.0491
# 3 14.4575 22.0778 54.6389 2.4395 -5.2146 -7.0509
# 4 11.5978 20.0775 2.4395 31.5598 5.9592 -7.2859
# 5 -8.3666 -6.2204 -5.2146 5.9592 23.3409 6.2542
# 6 2.1562 -13.0491 -7.0509 -7.2859 6.2542 24.0261
#
#
#
# Elastic Compliance Matrix: (Units=1/GPa)
#
#
# Indices 1 2 3 4 5 6 
#
# 1 0.024759 -0.001184 -0.005721 -0.013366 0.013972 -0.012234
# 2 -0.001184 0.012867 -0.003874 -0.007406 0.003263 0.002862
# 3 -0.005721 -0.003874 0.021912 0.004587 -0.001106 0.006519
# 4 -0.013366 -0.007406 0.004587 0.050056 -0.023855 0.019912
# 5 0.013972 0.003263 -0.001106 -0.023855 0.060683 -0.022837
# 6 -0.012234 0.002862 0.006519 0.019912 -0.022837 0.058170
#
#
# Mechanical properties :
#
#
# Convention : Reuss Voigt Hill
#
# Bulk Modulus (GPa) = 26.33101 35.79584 31.06343
# Shear Modulus (GPa) = 19.03555 26.37895 22.70725
#
# Velocity S-wave (km/s) = 3.14628 3.70377 3.43635
# Velocity P-wave (km/s) = 5.18572 6.07499 5.64788
#
# Compressibility (1/GPa) = 0.03797803
#
# Stress axis : x y z
#
# Youngs Moduli (GPa) = 40.38884 77.72113 45.63680
#
# Poissons Ratio (x) = 0.09206 0.26110
# Poissons Ratio (y) = 0.04784 0.17680
# Poissons Ratio (z) = 0.23108 0.30110
#
# Static dielectric constant tensor:
#      x y z
#    x 1.682670 -0.019510 -0.017380 
#    y -0.019510 1.726250 0.024280 
#    z -0.017380 0.024280 1.728100 
# 
# From -- ./inp_files/424909.got.cif
#   From: 2010.05.17/outbox.cif.g08.bks.cpg/sg2_213_cif.got.tgz:424909.got - 2010.06.03 11:33:40.
