data_PCOD9099712
_publ_section_title
;
Structure prediction by ZEFSAII (Michael W. Deem and Ramdas Pophale) SiO2 
 PCOD9099712
Probable space group: P -1
;
_chemical_formula_sum "Si O2"
_cell_formula_units_Z 16
_cell_length_a 8.073802
_cell_length_b 12.365987
_cell_length_c 14.916980
_cell_angle_alpha 120.374952
_cell_angle_beta 37.822207
_cell_angle_gamma 96.670658
_cell_volume 665.452047
_symmetry_space_group_name_H-M "P -1"
_symmetry_group_IT_number 2
_symmetry_cell_setting 'triclinic'
loop_
_space_group_symop_operation_xyz
x,y,z
-x,-y,-z
loop_
_atom_site_type_symbol
_atom_site_label
_atom_site_fract_x
_atom_site_fract_y
_atom_site_fract_z
Si Si1 0.056040 0.356276 0.730184
Si Si2 0.942480 0.356218 0.334004
Si Si3 0.370660 0.870902 0.303850
Si Si4 0.671542 0.313351 0.248210
Si Si5 0.453133 0.112985 0.315909
Si Si6 0.479073 0.355555 0.018193
Si Si7 0.249046 0.516585 0.844983
Si Si8 0.836536 0.247829 0.511823
O O1 0.821307 0.333073 0.884571
O O2 0.303417 0.209917 0.510420
O O3 0.247321 0.423882 0.719630
O O4 0.794682 0.478861 0.825551
O O5 0.838445 0.328512 0.270878
O O6 0.689535 0.533522 0.535913
O O7 0.924895 0.251984 0.372794
O O8 0.303993 0.316347 0.151434
O O9 0.458673 0.741819 0.140160
O O10 0.364016 0.818444 0.386509
O O11 0.564171 0.947370 0.226538
O O12 0.000000 0.000000 0.500000
O O13 0.666641 0.166438 0.201698
O O14 0.825443 0.331341 0.100065
O O15 0.157892 0.172670 0.398617
O O16 0.590573 0.423395 0.707174
O O17 0.000000 0.500000 0.000000
#
# Coordination Sequence:
#
# PCOD9099712 Si02
#       8
#     2   2   2   2   2   2   2   2
#     4  11  21  36  65  91 116 157 206 248 303 363
#     4  10  20  37  61  89 125 154 199 260 303 347
#     4  10  21  41  61  87 124 163 202 251 299 360
#     4  10  20  38  58  88 125 160 192 249 316 356
#     4  11  21  40  65  85 121 168 205 237 308 368
#     4  11  20  36  67  89 115 162 209 239 303 362
#     4  11  23  36  60  93 130 149 200 264 306 348
#     4  10  22  37  59  89 122 160 201 250 301 356
#
# _framework density 24.043807000000001
#
# number of rings (size 3 to 8) (size 9 to 14) (size 15 to 20)
#    0.000    1.500    5.000    2.250    1.750    3.000 
#    0.000    5.625    2.750    0.000    0.000    0.000 
#    0.000    0.000    0.000    0.000    0.000    0.000 
#
# Total GULP energy -89335.547370 kJ/mol
# GULP energy per Si atom -5583.471711 kJ/mol
# Density = 2.398908 g / cm^3
# Si number density = 24.043807 Si / 1000 Ang^3
#
#
#
# Elastic Constant Matrix: (Units=GPa)
#
#
# Indices 1 2 3 4 5 6 
#
# 1 50.0121 35.9704 10.1717 -7.0808 -8.4045 0.3310
# 2 35.9704 213.6154 43.9139 -45.8659 -1.8451 -0.2567
# 3 10.1717 43.9139 60.8335 -21.0884 -5.7604 -7.0349
# 4 -7.0808 -45.8659 -21.0884 57.1317 2.2920 0.8540
# 5 -8.4045 -1.8451 -5.7604 2.2920 26.5055 -5.2412
# 6 0.3310 -0.2567 -7.0349 0.8540 -5.2412 40.6556
#
#
#
# Elastic Compliance Matrix: (Units=1/GPa)
#
#
# Indices 1 2 3 4 5 6 
#
# 1 0.024166 -0.004048 -0.000612 -0.000789 0.007444 0.000648
# 2 -0.004048 0.006839 -0.003190 0.003903 -0.002000 -0.000816
# 3 -0.000612 -0.003190 0.021524 0.005058 0.004655 0.004203
# 4 -0.000789 0.003903 0.005058 0.022431 -0.000752 0.000338
# 5 0.007444 -0.002000 0.004655 -0.000752 0.042251 0.006195
# 6 0.000648 -0.000816 0.004203 0.000338 0.006195 0.026105
#
#
# Mechanical properties :
#
#
# Convention : Reuss Voigt Hill
#
# Bulk Modulus (GPa) = 27.15340 56.06366 41.60853
# Shear Modulus (GPa) = 29.18976 40.48557 34.83766
#
# Velocity S-wave (km/s) = 3.48806 4.10790 3.81060
# Velocity P-wave (km/s) = 5.24785 6.77257 6.05837
#
# Compressibility (1/GPa) = 0.03682780
#
# Stress axis : x y z
#
# Youngs Moduli (GPa) = 41.38050 146.22957 46.45953
#
# Poissons Ratio (x) = 0.59189 0.02845
# Poissons Ratio (y) = 0.16749 0.14822
# Poissons Ratio (z) = 0.02534 0.46653
#
# Static dielectric constant tensor:
#      x y z
#    x 1.943060 0.022940 0.010410 
#    y 0.022940 1.978600 -0.096970 
#    z 0.010410 -0.096970 2.034250 
# 
# From -- ./inp_files/500515.got.cif
#   From: 2010.05.17/outbox.cif.g08.bks.cpg/sg2_251_cif.got.tgz:500515.got - 2010.06.03 11:33:40.
