data_PCOD9099426
_publ_section_title
;
Structure prediction by ZEFSAII (Michael W. Deem and Ramdas Pophale) SiO2 
 PCOD9099426
Probable space group: P -1
;
_chemical_formula_sum "Si O2"
_cell_formula_units_Z 16
_cell_length_a 7.779231
_cell_length_b 6.264427
_cell_length_c 18.605725
_cell_angle_alpha 78.899218
_cell_angle_beta 45.944570
_cell_angle_gamma 94.811554
_cell_volume 608.178788
_symmetry_space_group_name_H-M "P -1"
_symmetry_group_IT_number 2
_symmetry_cell_setting 'triclinic'
loop_
_space_group_symop_operation_xyz
x,y,z
-x,-y,-z
loop_
_atom_site_type_symbol
_atom_site_label
_atom_site_fract_x
_atom_site_fract_y
_atom_site_fract_z
Si Si1 0.692716 0.222828 0.962173
Si Si2 0.263549 0.315050 0.153536
Si Si3 0.541755 0.235331 0.430566
Si Si4 0.023263 0.822894 0.899722
Si Si5 0.192249 0.361593 0.880577
Si Si6 0.219802 0.535913 0.516415
Si Si7 0.498759 0.990494 0.321498
Si Si8 0.756333 0.674462 0.679430
O O1 0.718502 0.425033 0.885180
O O2 0.967463 0.210381 0.903269
O O3 0.541836 0.285803 0.069555
O O4 0.500000 0.000000 0.000000
O O5 0.115817 0.182584 0.135928
O O6 0.159566 0.261936 0.266660
O O7 0.290907 0.310910 0.489388
O O8 0.714705 0.427769 0.419526
O O9 0.634321 0.181922 0.330052
O O10 0.500000 0.000000 0.500000
O O11 0.097443 0.585352 0.896467
O O12 0.305862 0.000870 0.799458
O O13 0.848063 0.779018 0.024107
O O14 0.052160 0.429968 0.410612
O O15 0.401887 0.748638 0.404919
O O16 0.279063 0.091365 0.354797
O O17 0.514105 0.521949 0.228875
#
# Coordination Sequence:
#
# PCOD9099426 Si02
#       8
#     2   2   2   2   2   2   2   2
#     4  10  20  38  62  87 123 174 233 283 328 390
#     4  10  20  37  60  88 127 176 224 276 332 391
#     4   9  20  41  66  92 125 167 222 285 338 392
#     4   9  17  35  62  89 128 179 225 274 331 388
#     4   9  18  34  60  92 130 178 223 271 332 392
#     4  10  21  39  66  96 125 171 227 275 335 399
#     4  10  20  37  62  94 131 172 220 277 332 387
#     4  11  21  37  63  95 139 183 220 273 335 401
#
# _framework density 26.308053000000001
#
# number of rings (size 3 to 8) (size 9 to 14) (size 15 to 20)
#    0.000    2.250    0.000    4.875    0.000    0.500 
#    0.000   15.000    0.000    9.000    0.000    0.875 
#    0.000    0.000    0.000    0.000    0.000    0.875 
#
# Total GULP energy -89488.287783 kJ/mol
# GULP energy per Si atom -5593.017986 kJ/mol
# Density = 2.624817 g / cm^3
# Si number density = 26.308053 Si / 1000 Ang^3
#
#
#
# Elastic Constant Matrix: (Units=GPa)
#
#
# Indices 1 2 3 4 5 6 
#
# 1 143.1145 38.2072 45.8495 10.3643 -16.7748 -14.2449
# 2 38.2072 73.2162 30.2562 -4.4728 1.4925 -12.6316
# 3 45.8495 30.2562 118.4822 -2.4933 -8.0080 -20.7803
# 4 10.3643 -4.4728 -2.4933 25.7640 -2.2958 -5.3693
# 5 -16.7748 1.4925 -8.0080 -2.2958 55.9495 15.7397
# 6 -14.2449 -12.6316 -20.7803 -5.3693 15.7397 60.0803
#
#
#
# Elastic Compliance Matrix: (Units=1/GPa)
#
#
# Indices 1 2 3 4 5 6 
#
# 1 0.009583 -0.004373 -0.002633 -0.004776 0.002605 -0.000667
# 2 -0.004373 0.017824 -0.002407 0.005009 -0.002785 0.003056
# 3 -0.002633 -0.002407 0.010604 0.002242 0.000123 0.002705
# 4 -0.004776 0.005009 0.002242 0.042734 -0.000822 0.004731
# 5 0.002605 -0.002785 0.000123 -0.000822 0.020201 -0.005291
# 6 -0.000667 0.003056 0.002705 0.004731 -0.005291 0.019873
#
#
# Mechanical properties :
#
#
# Convention : Reuss Voigt Hill
#
# Bulk Modulus (GPa) = 52.12046 62.60432 57.36239
# Shear Modulus (GPa) = 34.23712 43.05874 38.64793
#
# Velocity S-wave (km/s) = 3.61140 4.05002 3.83698
# Velocity P-wave (km/s) = 6.10280 6.76155 6.44060
#
# Compressibility (1/GPa) = 0.01918632
#
# Stress axis : x y z
#
# Youngs Moduli (GPa) = 104.34949 56.10265 94.30722
#
# Poissons Ratio (x) = 0.24532 0.24834
# Poissons Ratio (y) = 0.45629 0.22695
# Poissons Ratio (z) = 0.27478 0.13501
#
# Static dielectric constant tensor:
#      x y z
#    x 2.176450 0.030240 -0.025270 
#    y 0.030240 2.272370 0.118320 
#    z -0.025270 0.118320 2.038360 
# 
# From -- ./inp_files/82365.got.cif
#   From: 2010.05.17/outbox.cif.g08.bks.cpg/sg2_42_cif.got.tgz:82365.got - 2010.06.03 11:33:40.
