data_PCOD9099135
_publ_section_title
;
Structure prediction by ZEFSAII (Michael W. Deem and Ramdas Pophale) SiO2 
 PCOD9099135
Probable space group: P -1
;
_chemical_formula_sum "Si O2"
_cell_formula_units_Z 16
_cell_length_a 9.403972
_cell_length_b 6.821994
_cell_length_c 11.203047
_cell_angle_alpha 68.685958
_cell_angle_beta 64.155220
_cell_angle_gamma 64.647081
_cell_volume 570.551922
_symmetry_space_group_name_H-M "P -1"
_symmetry_group_IT_number 2
_symmetry_cell_setting 'triclinic'
loop_
_space_group_symop_operation_xyz
x,y,z
-x,-y,-z
loop_
_atom_site_type_symbol
_atom_site_label
_atom_site_fract_x
_atom_site_fract_y
_atom_site_fract_z
Si Si1 0.285970 0.021750 0.308077
Si Si2 0.467664 0.512173 0.871265
Si Si3 0.141433 0.262024 0.677081
Si Si4 0.110313 0.955058 0.158588
Si Si5 0.689544 0.598597 0.603521
Si Si6 0.353332 0.005009 0.861289
Si Si7 0.141482 0.596064 0.879560
Si Si8 0.321425 0.793253 0.585201
O O1 0.144573 0.039955 0.257811
O O2 0.268854 0.242190 0.345472
O O3 0.465880 0.972891 0.190423
O O4 0.299319 0.832154 0.443580
O O5 0.626099 0.430216 0.745645
O O6 0.395134 0.779489 0.816449
O O7 0.306595 0.443747 0.920279
O O8 0.500000 0.500000 0.000000
O O9 0.166265 0.447787 0.538509
O O10 0.233828 0.207353 0.783014
O O11 0.235705 0.038684 0.616490
O O12 0.954570 0.256670 0.764423
O O13 0.955260 0.144362 0.111773
O O14 0.265470 0.947965 0.021515
O O15 0.519621 0.708667 0.561060
O O16 0.224164 0.638520 0.713754
O O17 0.000000 0.500000 0.000000
#
# Coordination Sequence:
#
# PCOD9099135 Si02
#       8
#     2   2   2   2   2   2   2   2
#     4  10  18  31  53  81 107 133 176 226 263 301
#     4  10  21  36  56  78 102 144 182 213 253 318
#     4  10  16  31  54  78 100 135 176 222 263 296
#     4  11  23  32  51  87 112 136 168 222 275 306
#     4   9  16  31  56  75 102 135 182 221 254 306
#     4  11  19  36  57  76 108 143 178 211 260 326
#     4  10  22  36  52  79 112 138 171 218 271 310
#     4   9  15  33  54  75 103 136 180 218 257 308
#
# _framework density 28.043019000000001
#
# number of rings (size 3 to 8) (size 9 to 14) (size 15 to 20)
#    0.000    2.000    6.250    1.500    3.500    4.500 
#    0.000    0.000    0.000    3.000    0.000    0.000 
#    0.000    0.000    0.000    0.000    0.000    0.000 
#
# Total GULP energy -89452.228467 kJ/mol
# GULP energy per Si atom -5590.764279 kJ/mol
# Density = 2.797919 g / cm^3
# Si number density = 28.043019 Si / 1000 Ang^3
#
#
#
# Elastic Constant Matrix: (Units=GPa)
#
#
# Indices 1 2 3 4 5 6 
#
# 1 156.9596 18.4805 79.4608 -3.5260 -7.5632 -8.0746
# 2 18.4805 64.1589 6.0429 -5.3581 -10.3387 9.2456
# 3 79.4608 6.0429 240.8757 -7.0116 -23.7730 9.2603
# 4 -3.5260 -5.3581 -7.0116 25.0406 15.2869 -5.0832
# 5 -7.5632 -10.3387 -23.7730 15.2869 61.6037 -1.8283
# 6 -8.0746 9.2456 9.2603 -5.0832 -1.8283 37.4802
#
#
#
# Elastic Compliance Matrix: (Units=1/GPa)
#
#
# Indices 1 2 3 4 5 6 
#
# 1 0.008259 -0.002605 -0.002819 0.000849 -0.000627 0.003203
# 2 -0.002605 0.017446 0.000889 0.001089 0.002538 -0.004813
# 3 -0.002819 0.000889 0.005315 -0.000278 0.001861 -0.002087
# 4 0.000849 0.001089 -0.000278 0.048567 -0.011694 0.005999
# 5 -0.000627 0.002538 0.001861 -0.011694 0.020148 -0.001824
# 6 0.003203 -0.004813 -0.002087 0.005999 -0.001824 0.029798
#
#
# Mechanical properties :
#
#
# Convention : Reuss Voigt Hill
#
# Bulk Modulus (GPa) = 45.55944 74.44028 59.99986
# Shear Modulus (GPa) = 34.26524 48.69223 41.47874
#
# Velocity S-wave (km/s) = 3.49933 4.17146 3.85009
# Velocity P-wave (km/s) = 5.71040 7.05720 6.41922
#
# Compressibility (1/GPa) = 0.02194935
#
# Stress axis : x y z
#
# Youngs Moduli (GPa) = 121.08420 57.31827 188.14327
#
# Poissons Ratio (x) = 0.14931 0.53044
# Poissons Ratio (y) = 0.31542 -0.16724
# Poissons Ratio (z) = 0.34138 -0.05095
#
# Static dielectric constant tensor:
#      x y z
#    x 2.257190 0.090980 0.003410 
#    y 0.090980 2.339640 -0.044340 
#    z 0.003410 -0.044340 2.180280 
# 
# From -- ./inp_files/254694.got.cif
#   From: 2010.05.17/outbox.cif.g08.bks.cpg/sg2_128_cif.got.tgz:254694.got - 2010.06.03 11:33:40.
