data_PCOD9099775
_publ_section_title
;
Structure prediction by ZEFSAII (Michael W. Deem and Ramdas Pophale) SiO2 
 PCOD9099775
Probable space group: P -1
;
_chemical_formula_sum "Si O2"
_cell_formula_units_Z 16
_cell_length_a 4.904023
_cell_length_b 25.805038
_cell_length_c 8.587827
_cell_angle_alpha 62.986403
_cell_angle_beta 114.578229
_cell_angle_gamma 69.106586
_cell_volume 650.946304
_symmetry_space_group_name_H-M "P -1"
_symmetry_group_IT_number 2
_symmetry_cell_setting 'triclinic'
loop_
_space_group_symop_operation_xyz
x,y,z
-x,-y,-z
loop_
_atom_site_type_symbol
_atom_site_label
_atom_site_fract_x
_atom_site_fract_y
_atom_site_fract_z
Si Si1 0.356336 0.964319 0.257413
Si Si2 0.062189 0.558317 0.397896
Si Si3 0.441535 0.148727 0.261094
Si Si4 0.243649 0.261084 0.317474
Si Si5 0.117985 0.176627 0.632242
Si Si6 0.793048 0.606844 0.951474
Si Si7 0.450289 0.553753 0.776997
Si Si8 0.122849 0.877338 0.911877
O O1 0.379791 0.915949 0.471714
O O2 0.735601 0.899179 0.326464
O O3 0.249431 0.039400 0.208374
O O4 0.000000 0.000000 0.000000
O O5 0.500000 0.500000 0.500000
O O6 0.083899 0.590049 0.521634
O O7 0.000000 0.500000 0.500000
O O8 0.744798 0.619246 0.108218
O O9 0.308896 0.225318 0.210488
O O10 0.764982 0.117400 0.244119
O O11 0.044567 0.166314 0.078950
O O12 0.042242 0.236969 0.404223
O O13 0.073912 0.348260 0.143303
O O14 0.696782 0.213671 0.558575
O O15 0.473029 0.155768 0.853351
O O16 0.453269 0.618372 0.754759
O O17 0.150816 0.512802 0.139238
O O18 0.500000 0.500000 0.000000
#
# Coordination Sequence:
#
# PCOD9099775 Si02
#       8
#     2   2   2   2   2   2   2   2
#     4   9  20  38  64  91 119 165 209 257 314 359
#     4  10  20  37  61  92 124 152 195 256 306 359
#     4  11  22  39  61  92 127 159 205 261 309 367
#     4  11  24  43  62  85 127 173 200 242 316 379
#     4  10  23  42  62  88 126 164 210 251 304 382
#     4  10  23  40  64  91 126 166 203 256 315 373
#     4  10  20  39  67  94 121 155 212 260 308 364
#     4  11  22  40  64  92 123 158 211 268 307 351
#
# _framework density 24.579602999999999
#
# number of rings (size 3 to 8) (size 9 to 14) (size 15 to 20)
#    0.000    1.750    1.250    3.000    1.750    2.000 
#    4.500   10.625    0.000    0.000    0.000    0.000 
#    0.000    0.000    0.000    0.000    0.000    0.000 
#
# Total GULP energy -89378.945853 kJ/mol
# GULP energy per Si atom -5586.184116 kJ/mol
# Density = 2.452366 g / cm^3
# Si number density = 24.579603 Si / 1000 Ang^3
#
#
#
# Elastic Constant Matrix: (Units=GPa)
#
#
# Indices 1 2 3 4 5 6 
#
# 1 90.3725 7.9679 -2.7765 13.2197 5.3247 17.4370
# 2 7.9679 133.3150 37.4338 23.1967 13.3371 25.2765
# 3 -2.7765 37.4338 75.8959 35.9570 5.4476 3.9802
# 4 13.2197 23.1967 35.9570 47.0435 -1.4093 7.7183
# 5 5.3247 13.3371 5.4476 -1.4093 26.6751 7.0232
# 6 17.4370 25.2765 3.9802 7.7183 7.0232 39.7601
#
#
#
# Elastic Compliance Matrix: (Units=1/GPa)
#
#
# Indices 1 2 3 4 5 6 
#
# 1 0.013055 0.000419 0.003462 -0.005819 -0.002578 -0.004753
# 2 0.000419 0.010121 -0.003818 -0.001389 -0.003007 -0.005435
# 3 0.003462 -0.003818 0.023978 -0.018068 -0.005416 0.002973
# 4 -0.005819 -0.001389 -0.018068 0.038248 0.008538 -0.003690
# 5 -0.002578 -0.003007 -0.005416 0.008538 0.042534 -0.005586
# 6 -0.004753 -0.005435 0.002973 -0.003690 -0.005586 0.032096
#
#
# Mechanical properties :
#
#
# Convention : Reuss Voigt Hill
#
# Bulk Modulus (GPa) = 21.15020 42.75932 31.95476
# Shear Modulus (GPa) = 28.46315 39.82627 34.14471
#
# Velocity S-wave (km/s) = 3.40663 4.02966 3.73117
# Velocity P-wave (km/s) = 4.90887 6.25179 5.62058
#
# Compressibility (1/GPa) = 0.04728088
#
# Stress axis : x y z
#
# Youngs Moduli (GPa) = 76.59939 98.80546 41.70418
#
# Poissons Ratio (x) = -0.04143 -0.14437
# Poissons Ratio (y) = -0.03212 0.15922
# Poissons Ratio (z) = -0.26517 0.37722
#
# Static dielectric constant tensor:
#      x y z
#    x 2.016030 -0.049830 0.110660 
#    y -0.049830 1.973520 0.038740 
#    z 0.110660 0.038740 2.059380 
# 
# From -- ./inp_files/142283.got.cif
#   From: 2010.05.17/outbox.cif.g08.bks.cpg/sg2_72_cif.got.tgz:142283.got - 2010.06.03 11:33:40.
