data_PCOD9099645
_publ_section_title
;
Structure prediction by ZEFSAII (Michael W. Deem and Ramdas Pophale) SiO2 
 PCOD9099645
Probable space group: P -1
;
_chemical_formula_sum "Si O2"
_cell_formula_units_Z 14
_cell_length_a 14.577501
_cell_length_b 13.193307
_cell_length_c 22.476501
_cell_angle_alpha 156.147067
_cell_angle_beta 161.401136
_cell_angle_gamma 31.698727
_cell_volume 553.233708
_symmetry_space_group_name_H-M "P -1"
_symmetry_group_IT_number 2
_symmetry_cell_setting 'triclinic'
loop_
_space_group_symop_operation_xyz
x,y,z
-x,-y,-z
loop_
_atom_site_type_symbol
_atom_site_label
_atom_site_fract_x
_atom_site_fract_y
_atom_site_fract_z
Si Si1 0.089494 0.395655 0.282023
Si Si2 0.817644 0.411922 0.433152
Si Si3 0.849685 0.807085 0.570102
Si Si4 0.704075 0.232150 0.560672
Si Si5 0.459248 0.770509 0.088783
Si Si6 0.729096 0.311278 0.748520
Si Si7 0.717617 0.531426 0.014587
O O1 0.115260 0.600173 0.462270
O O2 0.418921 0.376258 0.454499
O O3 0.871222 0.186456 0.072926
O O4 0.909808 0.424918 0.127659
O O5 0.965217 0.648551 0.610454
O O6 0.504124 0.499131 0.282920
O O7 0.909432 0.182206 0.328404
O O8 0.549798 0.655707 0.277710
O O9 0.799821 0.083109 0.710766
O O10 0.650584 0.157905 0.556687
O O11 0.662024 0.994346 0.364152
O O12 0.028069 0.369690 0.822294
O O13 0.500000 0.500000 0.000000
O O14 0.563127 0.739514 0.068547
O O15 0.000000 0.500000 0.000000
#
# Coordination Sequence:
#
# PCOD9099645 Si02
#       7
#     2   2   2   2   2   2   2
#     4  10  21  40  64  96 130 165 221 268 327 390
#     4  10  23  42  67 100 126 173 228 269 327 398
#     4  11  23  44  71  93 134 176 221 273 333 392
#     4  11  23  38  62  99 132 167 213 279 326 384
#     4  10  20  37  61  87 123 171 210 255 319 388
#     4  11  24  43  67  96 134 176 223 270 333 397
#     4  11  22  40  66  96 131 170 218 263 333 393
#
# _framework density 25.305759999999999
#
# number of rings (size 3 to 8) (size 9 to 14) (size 15 to 20)
#    0.000    1.429    1.429    4.286    2.000    1.714 
#    0.000    2.857    0.000    0.000    0.000    0.000 
#    0.000    0.000    0.000    0.000    0.000    0.000 
#
# Total GULP energy -77955.620592 kJ/mol
# GULP energy per Si atom -5568.258614 kJ/mol
# Density = 2.524816 g / cm^3
# Si number density = 25.305760 Si / 1000 Ang^3
#
#
#
# Elastic Constant Matrix: (Units=GPa)
#
#
# Indices 1 2 3 4 5 6 
#
# 1 115.5775 32.6646 25.2239 -16.9222 0.5968 -28.1950
# 2 32.6646 118.9458 35.7735 -25.3694 9.9817 -37.9645
# 3 25.2239 35.7735 74.6306 -7.4061 4.1568 -32.8008
# 4 -16.9222 -25.3694 -7.4061 29.7510 -5.7900 5.4496
# 5 0.5968 9.9817 4.1568 -5.7900 38.2005 -18.4223
# 6 -28.1950 -37.9645 -32.8008 5.4496 -18.4223 44.9727
#
#
#
# Elastic Compliance Matrix: (Units=1/GPa)
#
#
# Indices 1 2 3 4 5 6 
#
# 1 0.011613 0.000683 0.000197 0.006525 0.005090 0.009295
# 2 0.000683 0.014388 -0.000910 0.010953 0.003854 0.012161
# 3 0.000197 -0.000910 0.021254 0.002763 0.006660 0.017250
# 4 0.006525 0.010953 0.002763 0.046846 0.010595 0.014015
# 5 0.005090 0.003854 0.006660 0.010595 0.038387 0.025742
# 6 0.009295 0.012161 0.017250 0.014015 0.025742 0.059757
#
#
# Mechanical properties :
#
#
# Convention : Reuss Voigt Hill
#
# Bulk Modulus (GPa) = 21.18920 55.16421 38.17671
# Shear Modulus (GPa) = 24.03434 36.95094 30.49264
#
# Velocity S-wave (km/s) = 3.08516 3.82537 3.47503
# Velocity P-wave (km/s) = 4.59156 6.43100 5.58749
#
# Compressibility (1/GPa) = 0.04719384
#
# Stress axis : x y z
#
# Youngs Moduli (GPa) = 86.11208 69.50381 47.05066
#
# Poissons Ratio (x) = -0.04746 -0.00927
# Poissons Ratio (y) = -0.05881 0.04282
# Poissons Ratio (z) = -0.01696 0.06325
#
# Static dielectric constant tensor:
#      x y z
#    x 2.065320 0.009400 -0.004540 
#    y 0.009400 2.102200 -0.016660 
#    z -0.004540 -0.016660 2.084590 
# 
# From -- ./inp_files/612162.got.cif
#   From: 2010.05.17/outbox.cif.g08.bks.cpg/sg2_307_cif.got.tgz:612162.got - 2010.06.03 11:33:40.
