data_PCOD9099373
_publ_section_title
;
Structure prediction by ZEFSAII (Michael W. Deem and Ramdas Pophale) SiO2 
 PCOD9099373
Probable space group: P -1
;
_chemical_formula_sum "Si O2"
_cell_formula_units_Z 12
_cell_length_a 5.943863
_cell_length_b 11.407898
_cell_length_c 8.883922
_cell_angle_alpha 112.450723
_cell_angle_beta 81.840721
_cell_angle_gamma 121.749134
_cell_volume 472.088738
_symmetry_space_group_name_H-M "P -1"
_symmetry_group_IT_number 2
_symmetry_cell_setting 'triclinic'
loop_
_space_group_symop_operation_xyz
x,y,z
-x,-y,-z
loop_
_atom_site_type_symbol
_atom_site_label
_atom_site_fract_x
_atom_site_fract_y
_atom_site_fract_z
Si Si1 0.959034 0.832465 0.279887
Si Si2 0.584297 0.409004 0.308795
Si Si3 0.143995 0.987334 0.832170
Si Si4 0.594373 0.440054 0.824495
Si Si5 0.722894 0.276292 0.952073
Si Si6 0.917164 0.729727 0.545524
O O1 0.052952 0.763977 0.106400
O O2 0.649728 0.718440 0.277037
O O3 0.067530 0.822990 0.426510
O O4 0.991396 0.979159 0.280196
O O5 0.392196 0.454629 0.258765
O O6 0.827991 0.559686 0.429246
O O7 0.375952 0.298102 0.395850
O O8 0.687066 0.338593 0.142925
O O9 0.099555 0.827564 0.716095
O O10 0.447002 0.120589 0.877336
O O11 0.000000 0.000000 0.000000
O O12 0.780663 0.393768 0.869416
O O13 0.500000 0.500000 0.000000
#
# Coordination Sequence:
#
# PCOD9099373 Si02
#       6
#     2   2   2   2   2   2
#     4  10  22  37  62  88 117 150 196 245 288 339
#     4   9  18  36  61  85 118 156 190 233 293 347
#     4  11  22  40  63  83 116 157 197 238 289 349
#     4   8  17  33  58  85 116 151 187 232 283 340
#     4  10  20  38  63  89 113 153 199 237 288 347
#     4  10  20  37  60  87 118 154 191 238 294 341
#
# _framework density 25.418949999999999
#
# number of rings (size 3 to 8) (size 9 to 14) (size 15 to 20)
#    0.000    2.333    1.667    0.500    0.000    7.333 
#    0.000    0.833    3.667    0.000    0.000    0.000 
#    0.000    0.000    0.000    0.000    0.000    0.000 
#
# Total GULP energy -66888.810594 kJ/mol
# GULP energy per Si atom -5574.067549 kJ/mol
# Density = 2.536110 g / cm^3
# Si number density = 25.418950 Si / 1000 Ang^3
#
#
#
# Elastic Constant Matrix: (Units=GPa)
#
#
# Indices 1 2 3 4 5 6 
#
# 1 42.2060 26.8878 13.7143 2.5456 -5.6057 0.8663
# 2 26.8878 122.7428 57.0541 8.0021 6.2210 16.0399
# 3 13.7143 57.0541 178.1623 21.4786 -16.2034 11.4790
# 4 2.5456 8.0021 21.4786 55.5731 3.3424 0.5859
# 5 -5.6057 6.2210 -16.2034 3.3424 29.0056 3.5636
# 6 0.8663 16.0399 11.4790 0.5859 3.5636 32.7841
#
#
#
# Elastic Compliance Matrix: (Units=1/GPa)
#
#
# Indices 1 2 3 4 5 6 
#
# 1 0.029105 -0.007282 0.000796 -0.001064 0.007543 0.001714
# 2 -0.007282 0.012212 -0.003656 0.000368 -0.005633 -0.003897
# 3 0.000796 -0.003656 0.007679 -0.002807 0.005734 -0.001494
# 4 -0.001064 0.000368 -0.002807 0.019317 -0.004194 0.000942
# 5 0.007543 -0.005633 0.005734 -0.004194 0.041304 -0.003866
# 6 0.001714 -0.003897 -0.001494 0.000942 -0.003866 0.033290
#
#
# Mechanical properties :
#
#
# Convention : Reuss Voigt Hill
#
# Bulk Modulus (GPa) = 34.83048 59.82483 47.32765
# Shear Modulus (GPa) = 28.94136 39.83621 34.38879
#
# Velocity S-wave (km/s) = 3.37794 3.96306 3.68214
# Velocity P-wave (km/s) = 5.38017 6.67291 6.06111
#
# Compressibility (1/GPa) = 0.02871049
#
# Stress axis : x y z
#
# Youngs Moduli (GPa) = 34.35828 81.88351 130.23322
#
# Poissons Ratio (x) = 0.59631 -0.10361
# Poissons Ratio (y) = 0.25021 0.47611
# Poissons Ratio (z) = -0.02733 0.29935
#
# Static dielectric constant tensor:
#      x y z
#    x 2.046040 -0.044450 0.090890 
#    y -0.044450 2.105010 -0.008330 
#    z 0.090890 -0.008330 2.060830 
# 
# From -- ./inp_files/61118.got.cif
#   From: 2010.05.17/outbox.cif.g08.bks.cpg/sg2_31_cif.got.tgz:61118.got - 2010.06.03 11:33:40.
