data_PCOD9099855
_publ_section_title
;
Structure prediction by ZEFSAII (Michael W. Deem and Ramdas Pophale) SiO2 
 PCOD9099855
Probable space group: P -1
;
_chemical_formula_sum "Si O2"
_cell_formula_units_Z 16
_cell_length_a 8.598999
_cell_length_b 8.611484
_cell_length_c 19.309721
_cell_angle_alpha 133.026372
_cell_angle_beta 60.356251
_cell_angle_gamma 84.500912
_cell_volume 664.426035
_symmetry_space_group_name_H-M "P -1"
_symmetry_group_IT_number 2
_symmetry_cell_setting 'triclinic'
loop_
_space_group_symop_operation_xyz
x,y,z
-x,-y,-z
loop_
_atom_site_type_symbol
_atom_site_label
_atom_site_fract_x
_atom_site_fract_y
_atom_site_fract_z
Si Si1 0.805158 0.478708 0.324222
Si Si2 0.367551 0.302888 0.347884
Si Si3 0.300884 0.890072 0.020520
Si Si4 0.217109 0.488729 0.936634
Si Si5 0.372967 0.897116 0.154637
Si Si6 0.283611 0.765759 0.843416
Si Si7 0.142790 0.846500 0.646597
Si Si8 0.538341 0.993382 0.361672
O O1 0.682273 0.473981 0.282442
O O2 0.779922 0.343431 0.356965
O O3 0.670628 0.804370 0.473496
O O4 0.093346 0.239855 0.170905
O O5 0.626655 0.136847 0.203427
O O6 0.235271 0.628487 0.495318
O O7 0.409191 0.158894 0.368036
O O8 0.247714 0.226911 0.300554
O O9 0.157341 0.784743 0.036073
O O10 0.420439 0.734946 0.873780
O O11 0.456028 0.815118 0.031760
O O12 0.413491 0.310848 0.901086
O O13 0.332792 0.327537 0.787848
O O14 0.000000 0.500000 0.000000
O O15 0.149956 0.915336 0.219864
O O16 0.000000 0.000000 0.000000
O O17 0.263443 0.980435 0.660502
#
# Coordination Sequence:
#
# PCOD9099855 Si02
#       8
#     2   2   2   2   2   2   2   2
#     4   9  16  33  56  84 107 142 183 225 262 314
#     4  10  18  32  54  87 112 141 183 229 271 318
#     4  10  22  36  53  83 116 149 179 219 278 325
#     4  11  23  37  57  81 110 141 184 232 278 327
#     4  10  22  33  54  81 111 140 183 228 278 321
#     4  10  19  31  56  80 116 149 180 220 268 323
#     4  10  16  31  57  87 110 136 179 237 277 308
#     4  10  18  32  61  84 106 142 189 228 270 313
#
# _framework density 24.080936999999999
#
# number of rings (size 3 to 8) (size 9 to 14) (size 15 to 20)
#    0.000    2.000    2.500    3.000    5.250    1.500 
#    0.000    0.625    0.000    0.750    0.000    0.000 
#    0.000    0.000    0.000    0.000    0.000    0.000 
#
# Total GULP energy -89223.972453 kJ/mol
# GULP energy per Si atom -5576.498278 kJ/mol
# Density = 2.402613 g / cm^3
# Si number density = 24.080937 Si / 1000 Ang^3
#
#
#
# Elastic Constant Matrix: (Units=GPa)
#
#
# Indices 1 2 3 4 5 6 
#
# 1 101.0488 22.7556 39.4166 1.6292 23.8859 -24.1602
# 2 22.7556 42.8651 23.0937 -13.3574 7.9067 -26.1642
# 3 39.4166 23.0937 143.6785 -4.2450 41.8576 -6.0779
# 4 1.6292 -13.3574 -4.2450 26.3106 -3.1837 11.1018
# 5 23.8859 7.9067 41.8576 -3.1837 53.3468 -3.4606
# 6 -24.1602 -26.1642 -6.0779 11.1018 -3.4606 32.0737
#
#
#
# Elastic Compliance Matrix: (Units=1/GPa)
#
#
# Indices 1 2 3 4 5 6 
#
# 1 0.015161 -0.000508 -0.002485 -0.007464 -0.004389 0.012645
# 2 -0.000508 0.054110 -0.006808 0.009996 0.000681 0.039082
# 3 -0.002485 -0.006808 0.010338 0.000223 -0.006381 -0.006232
# 4 -0.007464 0.009996 0.000223 0.050093 0.003743 -0.014361
# 5 -0.004389 0.000681 -0.006381 0.003743 0.025678 -0.002485
# 6 0.012645 0.039082 -0.006232 -0.014361 -0.002485 0.076106
#
#
# Mechanical properties :
#
#
# Convention : Reuss Voigt Hill
#
# Bulk Modulus (GPa) = 16.66428 50.90270 33.78349
# Shear Modulus (GPa) = 18.44411 35.83467 27.13939
#
# Velocity S-wave (km/s) = 2.77053 3.86177 3.36073
# Velocity P-wave (km/s) = 4.14362 6.40846 5.39620
#
# Compressibility (1/GPa) = 0.06000859
#
# Stress axis : x y z
#
# Youngs Moduli (GPa) = 65.95911 18.48083 96.73315
#
# Poissons Ratio (x) = 0.00938 0.24035
# Poissons Ratio (y) = 0.03348 0.65853
# Poissons Ratio (z) = 0.16389 0.12581
#
# Static dielectric constant tensor:
#      x y z
#    x 1.962790 0.008810 0.021240 
#    y 0.008810 2.006450 0.006400 
#    z 0.021240 0.006400 2.002360 
# 
# From -- ./inp_files/588713.got.cif
#   From: 2010.05.17/outbox.cif.g08.bks.cpg/sg2_295_cif.got.tgz:588713.got - 2010.06.03 11:33:40.
