data_PCOD9099782
_publ_section_title
;
Structure prediction by ZEFSAII (Michael W. Deem and Ramdas Pophale) SiO2 
 PCOD9099782
Probable space group: P -1
;
_chemical_formula_sum "Si O2"
_cell_formula_units_Z 16
_cell_length_a 8.152358
_cell_length_b 11.515929
_cell_length_c 12.678077
_cell_angle_alpha 70.498471
_cell_angle_beta 85.226405
_cell_angle_gamma 137.818124
_cell_volume 642.457981
_symmetry_space_group_name_H-M "P -1"
_symmetry_group_IT_number 2
_symmetry_cell_setting 'triclinic'
loop_
_space_group_symop_operation_xyz
x,y,z
-x,-y,-z
loop_
_atom_site_type_symbol
_atom_site_label
_atom_site_fract_x
_atom_site_fract_y
_atom_site_fract_z
Si Si1 0.342567 0.017683 0.642342
Si Si2 0.912822 0.100653 0.077551
Si Si3 0.273832 0.669130 0.203548
Si Si4 0.854076 0.663919 0.616698
Si Si5 0.180797 0.051068 0.198270
Si Si6 0.363851 0.293344 0.519114
Si Si7 0.158066 0.782481 0.353493
Si Si8 0.159546 0.514750 0.898175
O O1 0.503178 0.244949 0.537434
O O2 0.549437 0.032248 0.651963
O O3 0.171433 0.923802 0.788820
O O4 0.135839 0.864208 0.605040
O O5 0.085579 0.077880 0.096100
O O6 0.603435 0.912096 0.091918
O O7 0.092430 0.327520 0.962470
O O8 0.182436 0.673838 0.318240
O O9 0.308322 0.543844 0.253288
O O10 0.013237 0.541867 0.178321
O O11 0.940376 0.665245 0.496410
O O12 0.685223 0.687782 0.601563
O O13 0.500603 0.267854 0.159495
O O14 0.147216 0.883423 0.236346
O O15 0.941850 0.919673 0.343589
O O16 0.500000 0.500000 0.500000
O O17 0.000000 0.500000 0.000000
#
# Coordination Sequence:
#
# PCOD9099782 Si02
#       8
#     2   2   2   2   2   2   2   2
#     4  10  20  37  61  92 125 167 213 256 314 383
#     4  10  22  42  63  90 126 168 214 265 319 375
#     4  11  23  41  64  92 124 170 218 264 321 385
#     4  11  20  35  59  91 126 164 207 262 317 379
#     4  10  22  41  64  95 127 163 214 265 319 389
#     4  10  21  39  62  92 131 171 209 260 321 386
#     4  10  21  38  59  90 127 163 209 264 318 383
#     4  12  24  43  67  92 126 168 215 274 326 376
#
# _framework density 24.904350999999998
#
# number of rings (size 3 to 8) (size 9 to 14) (size 15 to 20)
#    0.000    1.500    0.000    7.125    0.000    2.000 
#    0.000   11.250    0.000    0.000    0.000    0.000 
#    0.000    0.000    0.000    0.000    0.000    0.000 
#
# Total GULP energy -89229.454874 kJ/mol
# GULP energy per Si atom -5576.840930 kJ/mol
# Density = 2.484767 g / cm^3
# Si number density = 24.904351 Si / 1000 Ang^3
#
#
#
# Elastic Constant Matrix: (Units=GPa)
#
#
# Indices 1 2 3 4 5 6 
#
# 1 87.4090 4.4535 23.3040 -6.9049 16.3859 25.3720
# 2 4.4535 87.2098 11.3089 -1.6001 -18.5947 24.6809
# 3 23.3040 11.3089 60.5852 -14.5098 22.0829 7.5301
# 4 -6.9049 -1.6001 -14.5098 43.5765 2.3209 3.8992
# 5 16.3859 -18.5947 22.0829 2.3209 43.4899 -4.0657
# 6 25.3720 24.6809 7.5301 3.8992 -4.0657 42.8840
#
#
#
# Elastic Compliance Matrix: (Units=1/GPa)
#
#
# Indices 1 2 3 4 5 6 
#
# 1 0.016495 0.001470 -0.002504 0.003109 -0.005506 -0.010970
# 2 0.001470 0.016378 -0.005990 -0.000881 0.008758 -0.008333
# 3 -0.002504 -0.005990 0.026942 0.009401 -0.016003 -0.002174
# 4 0.003109 -0.000881 0.009401 0.027547 -0.008379 -0.006282
# 5 -0.005506 0.008758 -0.016003 -0.008379 0.037889 0.005381
# 6 -0.010970 -0.008333 -0.002174 -0.006282 0.005381 0.036068
#
#
# Mechanical properties :
#
#
# Convention : Reuss Voigt Hill
#
# Bulk Modulus (GPa) = 21.85021 34.81521 28.33271
# Shear Modulus (GPa) = 26.22966 39.06593 32.64780
#
# Velocity S-wave (km/s) = 3.24885 3.96490 3.62460
# Velocity P-wave (km/s) = 4.78185 5.91359 5.37757
#
# Compressibility (1/GPa) = 0.04576614
#
# Stress axis : x y z
#
# Youngs Moduli (GPa) = 60.62295 61.05751 37.11734
#
# Poissons Ratio (x) = -0.08976 0.09295
# Poissons Ratio (y) = -0.08912 0.22234
# Poissons Ratio (z) = 0.15181 0.36575
#
# Static dielectric constant tensor:
#      x y z
#    x 2.095850 -0.003310 -0.044800 
#    y -0.003310 1.946020 -0.065130 
#    z -0.044800 -0.065130 1.952150 
# 
# From -- ./inp_files/500183.got.cif
#   From: 2010.05.17/outbox.cif.g08.bks.cpg/sg2_251_cif.got.tgz:500183.got - 2010.06.03 11:33:40.
