data_PCOD9099463
_publ_section_title
;
Structure prediction by ZEFSAII (Michael W. Deem and Ramdas Pophale) SiO2 
 PCOD9099463
Probable space group: P -1
;
_chemical_formula_sum "Si O2"
_cell_formula_units_Z 13
_cell_length_a 12.599295
_cell_length_b 16.571697
_cell_length_c 13.586083
_cell_angle_alpha 23.370039
_cell_angle_beta 33.773527
_cell_angle_gamma 29.866871
_cell_volume 551.373073
_symmetry_space_group_name_H-M "P -1"
_symmetry_group_IT_number 2
_symmetry_cell_setting 'triclinic'
loop_
_space_group_symop_operation_xyz
x,y,z
-x,-y,-z
loop_
_atom_site_type_symbol
_atom_site_label
_atom_site_fract_x
_atom_site_fract_y
_atom_site_fract_z
Si Si1 0.246004 0.298107 0.552289
Si Si2 0.500000 0.000000 0.500000
Si Si3 0.410259 0.624670 0.033853
Si Si4 0.971762 0.949553 0.908337
Si Si5 0.796684 0.446731 0.411554
Si Si6 0.978400 0.245003 0.122612
Si Si7 0.300643 0.744332 0.498477
O O1 0.000000 0.500000 0.500000
O O2 0.356947 0.166792 0.513856
O O3 0.214448 0.120470 0.846046
O O4 0.374601 0.435435 0.333593
O O5 0.538844 0.765220 0.799432
O O6 0.169467 0.836077 0.958923
O O7 0.500000 0.500000 0.000000
O O8 0.067148 0.838698 0.852803
O O9 0.882705 0.220959 0.666143
O O10 0.556454 0.634162 0.416258
O O11 0.777607 0.359904 0.414444
O O12 0.953591 0.558816 0.166024
O O13 0.784728 0.310881 0.273785
O O14 0.180994 0.019716 0.265985
#
# Coordination Sequence:
#
# PCOD9099463 Si02
#       7
#     2   1   2   2   2   2   2
#     4   9  20  39  58  81 117 154 197 249 293 361
#     4  10  20  38  64  82 106 166 200 238 312 358
#     4   9  20  40  60  83 116 158 201 246 295 369
#     4  10  22  38  55  91 118 144 203 250 291 352
#     4  10  20  37  60  90 121 152 200 245 286 364
#     4  10  20  38  62  85 121 161 188 245 302 351
#     4   9  20  39  59  87 118 159 200 228 301 364
#
# _framework density 23.577501999999999
#
# number of rings (size 3 to 8) (size 9 to 14) (size 15 to 20)
#    0.000    2.462    0.000    0.923    0.000    7.385 
#   19.385    0.000    0.000    0.000    0.000    0.000 
#    0.000    0.000    0.000    0.000    0.000    0.000 
#
# Total GULP energy -72420.647114 kJ/mol
# GULP energy per Si atom -5570.819009 kJ/mol
# Density = 2.352384 g / cm^3
# Si number density = 23.577502 Si / 1000 Ang^3
#
#
#
# Elastic Constant Matrix: (Units=GPa)
#
#
# Indices 1 2 3 4 5 6 
#
# 1 47.6700 33.8610 22.3876 2.5432 0.4768 -9.8650
# 2 33.8610 130.8982 49.2946 9.6978 3.9541 9.3124
# 3 22.3876 49.2946 192.1283 -14.3135 -5.6027 -10.6447
# 4 2.5432 9.6978 -14.3135 24.9960 7.7991 7.8446
# 5 0.4768 3.9541 -5.6027 7.7991 16.1424 5.5032
# 6 -9.8650 9.3124 -10.6447 7.8446 5.5032 32.4238
#
#
#
# Elastic Compliance Matrix: (Units=1/GPa)
#
#
# Indices 1 2 3 4 5 6 
#
# 1 0.029801 -0.007803 -0.001139 -0.003980 -0.001590 0.012167
# 2 -0.007803 0.011255 -0.002533 -0.003280 0.000110 -0.005663
# 3 -0.001139 -0.002533 0.006389 0.004205 0.000363 0.001400
# 4 -0.003980 -0.003280 0.004205 0.053061 -0.020441 -0.008256
# 5 -0.001590 0.000110 0.000363 -0.020441 0.074744 -0.008137
# 6 0.012167 -0.005663 0.001400 -0.008256 -0.008137 0.040008
#
#
# Mechanical properties :
#
#
# Convention : Reuss Voigt Hill
#
# Bulk Modulus (GPa) = 40.82644 64.64254 52.73449
# Shear Modulus (GPa) = 20.29447 32.38933 26.34190
#
# Velocity S-wave (km/s) = 2.93705 3.71042 3.34615
# Velocity P-wave (km/s) = 5.37169 6.77000 6.11097
#
# Compressibility (1/GPa) = 0.02449393
#
# Stress axis : x y z
#
# Youngs Moduli (GPa) = 33.55588 88.85315 156.51948
#
# Poissons Ratio (x) = 0.69329 0.17833
# Poissons Ratio (y) = 0.26182 0.39652
# Poissons Ratio (z) = 0.03823 0.22509
#
# Static dielectric constant tensor:
#      x y z
#    x 1.935020 -0.031560 -0.009940 
#    y -0.031560 1.869480 0.014010 
#    z -0.009940 0.014010 1.953560 
# 
# From -- ./inp_files/115412.got.cif
#   From: 2010.05.17/outbox.cif.g08.bks.cpg/sg2_58_cif.got.tgz:115412.got - 2010.06.03 11:33:40.
