data_PCOD9099358
_publ_section_title
;
Structure prediction by ZEFSAII (Michael W. Deem and Ramdas Pophale) SiO2 
 PCOD9099358
Probable space group: P -1
;
_chemical_formula_sum "Si O2"
_cell_formula_units_Z 14
_cell_length_a 7.767363
_cell_length_b 14.233858
_cell_length_c 7.381999
_cell_angle_alpha 125.674842
_cell_angle_beta 53.329758
_cell_angle_gamma 128.593505
_cell_volume 481.897824
_symmetry_space_group_name_H-M "P -1"
_symmetry_group_IT_number 2
_symmetry_cell_setting 'triclinic'
loop_
_space_group_symop_operation_xyz
x,y,z
-x,-y,-z
loop_
_atom_site_type_symbol
_atom_site_label
_atom_site_fract_x
_atom_site_fract_y
_atom_site_fract_z
Si Si1 0.551523 0.860110 0.381352
Si Si2 0.118971 0.384350 0.364949
Si Si3 0.195877 0.951258 0.859805
Si Si4 0.403695 0.387109 0.764623
Si Si5 0.740122 0.997650 0.770092
Si Si6 0.082683 0.596449 0.842395
Si Si7 0.598776 0.732252 0.746674
O O1 0.595607 0.913148 0.208544
O O2 0.573808 0.729610 0.269068
O O3 0.733835 0.970704 0.532126
O O4 0.299587 0.859846 0.598517
O O5 0.357957 0.482640 0.218226
O O6 0.064358 0.455204 0.650125
O O7 0.211360 0.281001 0.253544
O O8 0.914413 0.356889 0.314977
O O9 0.105693 0.897351 0.064197
O O10 0.000000 0.000000 0.000000
O O11 0.428149 0.361027 0.508368
O O12 0.154050 0.397489 0.931348
O O13 0.720605 0.868032 0.725995
O O14 0.500000 0.000000 0.000000
O O15 0.316930 0.682296 0.906756
#
# Coordination Sequence:
#
# PCOD9099358 Si02
#       7
#     2   2   2   2   2   2   2
#     4   9  21  39  60  90 126 154 205 258 299 372
#     4  10  22  38  59  89 121 158 210 251 297 378
#     4  10  21  39  64  91 118 163 205 249 313 373
#     4  10  20  37  60  86 123 156 198 257 301 361
#     4   9  20  41  61  85 127 161 193 263 312 348
#     4  10  21  38  60  85 117 168 196 247 318 353
#     4  10  22  40  59  87 124 157 206 256 296 375
#
# _framework density 29.0518
#
# number of rings (size 3 to 8) (size 9 to 14) (size 15 to 20)
#    0.000    2.286    0.000    2.143    2.000    7.429 
#    2.571    7.143    0.000    0.000    0.000    0.000 
#    0.000    0.000    0.000    0.000    0.000    0.000 
#
# Total GULP energy -77963.514618 kJ/mol
# GULP energy per Si atom -5568.822473 kJ/mol
# Density = 2.898568 g / cm^3
# Si number density = 29.051800 Si / 1000 Ang^3
#
#
#
# Elastic Constant Matrix: (Units=GPa)
#
#
# Indices 1 2 3 4 5 6 
#
# 1 133.4157 14.1600 43.5221 7.7473 -20.9036 -15.8577
# 2 14.1600 96.7980 39.3230 15.5445 -27.8336 -25.6419
# 3 43.5221 39.3230 127.0898 -10.8223 -49.4362 14.0203
# 4 7.7473 15.5445 -10.8223 54.1942 -7.4016 -13.6256
# 5 -20.9036 -27.8336 -49.4362 -7.4016 71.1805 1.6237
# 6 -15.8577 -25.6419 14.0203 -13.6256 1.6237 39.0761
#
#
#
# Elastic Compliance Matrix: (Units=1/GPa)
#
#
# Indices 1 2 3 4 5 6 
#
# 1 0.009804 0.002776 -0.005069 -0.001400 0.000136 0.007125
# 2 0.002776 0.017882 -0.007622 -0.003171 0.001856 0.014412
# 3 -0.005069 -0.007622 0.016692 0.004333 0.007845 -0.011862
# 4 -0.001400 -0.003171 0.004333 0.021721 0.003543 0.003223
# 5 0.000136 0.001856 0.007845 0.003543 0.020658 -0.001165
# 6 0.007125 0.014412 -0.011862 0.003223 -0.001165 0.043369
#
#
# Mechanical properties :
#
#
# Convention : Reuss Voigt Hill
#
# Bulk Modulus (GPa) = 40.73450 61.25707 50.99578
# Shear Modulus (GPa) = 31.61847 50.24341 40.93094
#
# Velocity S-wave (km/s) = 3.30259 4.16317 3.75760
# Velocity P-wave (km/s) = 5.34739 6.65136 6.03470
#
# Compressibility (1/GPa) = 0.02454922
#
# Stress axis : x y z
#
# Youngs Moduli (GPa) = 102.00268 55.92366 59.91037
#
# Poissons Ratio (x) = -0.15527 0.30366
# Poissons Ratio (y) = -0.28320 0.45662
# Poissons Ratio (z) = 0.51700 0.42623
#
# Static dielectric constant tensor:
#      x y z
#    x 0.826380 -0.161190 0.098350 
#    y -0.161190 2.403520 -0.013870 
#    z 0.098350 -0.013870 2.582720 
# 
# From -- ./inp_files/203979.got.cif
#   From: 2010.05.17/outbox.cif.g08.bks.cpg/sg2_102_cif.got.tgz:203979.got - 2010.06.03 11:33:40.
