data_PCOD9099702
_publ_section_title
;
Structure prediction by ZEFSAII (Michael W. Deem and Ramdas Pophale) SiO2 
 PCOD9099702
Probable space group: P -1
;
_chemical_formula_sum "Si O2"
_cell_formula_units_Z 14
_cell_length_a 6.773595
_cell_length_b 10.469536
_cell_length_c 16.036982
_cell_angle_alpha 143.211842
_cell_angle_beta 128.041439
_cell_angle_gamma 62.675253
_cell_volume 534.953704
_symmetry_space_group_name_H-M "P -1"
_symmetry_group_IT_number 2
_symmetry_cell_setting 'triclinic'
loop_
_space_group_symop_operation_xyz
x,y,z
-x,-y,-z
loop_
_atom_site_type_symbol
_atom_site_label
_atom_site_fract_x
_atom_site_fract_y
_atom_site_fract_z
Si Si1 0.315772 0.502095 0.035426
Si Si2 0.288605 0.122428 0.957722
Si Si3 0.930431 0.263129 0.700041
Si Si4 0.364997 0.136102 0.634317
Si Si5 0.308614 0.725145 0.662772
Si Si6 0.869036 0.492273 0.331888
Si Si7 0.859498 0.698627 0.822915
O O1 0.375274 0.334930 0.037758
O O2 0.047738 0.401390 0.879904
O O3 0.500000 0.500000 0.000000
O O4 0.369302 0.750541 0.207209
O O5 0.193222 0.947216 0.772927
O O6 0.109545 0.183569 0.018909
O O7 0.500000 0.000000 0.000000
O O8 0.696282 0.088179 0.544697
O O9 0.850325 0.448609 0.714693
O O10 0.168969 0.139439 0.663488
O O11 0.264984 0.319703 0.646849
O O12 0.143268 0.593578 0.484230
O O13 0.605384 0.761292 0.744999
O O14 0.279493 0.584596 0.665442
O O15 0.915240 0.293565 0.179642
#
# Coordination Sequence:
#
# PCOD9099702 Si02
#       7
#     2   2   2   2   2   2   2
#     4  10  20  37  61  90 124 166 213 259 315 385
#     4  10  21  38  60  87 124 165 205 260 321 371
#     4   9  19  34  57  86 119 163 207 255 318 377
#     4   9  17  34  58  84 118 160 207 259 315 375
#     4  10  21  38  60  88 125 166 213 265 321 382
#     4  10  20  37  61  89 121 165 215 263 320 386
#     4  10  21  38  60  88 126 165 211 268 321 380
#
# _framework density 26.170489
#
# number of rings (size 3 to 8) (size 9 to 14) (size 15 to 20)
#    0.000    2.286    0.000    3.000    0.000    2.286 
#    0.000    8.571    0.000    1.714    0.000    0.000 
#    0.000    0.000    0.000    0.000    0.000    0.000 
#
# Total GULP energy -78197.598369 kJ/mol
# GULP energy per Si atom -5585.542741 kJ/mol
# Density = 2.611092 g / cm^3
# Si number density = 26.170489 Si / 1000 Ang^3
#
#
#
# Elastic Constant Matrix: (Units=GPa)
#
#
# Indices 1 2 3 4 5 6 
#
# 1 96.6514 13.2741 42.3519 -8.2140 -11.3284 -3.7348
# 2 13.2741 64.9730 16.4087 1.9780 -4.6131 16.5545
# 3 42.3519 16.4087 188.4690 13.5012 6.6136 10.2779
# 4 -8.2140 1.9780 13.5012 38.0280 2.2778 -0.6717
# 5 -11.3284 -4.6131 6.6136 2.2778 46.8531 1.8896
# 6 -3.7348 16.5545 10.2779 -0.6717 1.8896 35.2024
#
#
#
# Elastic Compliance Matrix: (Units=1/GPa)
#
#
# Indices 1 2 3 4 5 6 
#
# 1 0.012960 -0.002616 -0.003264 0.003976 0.003003 0.003473
# 2 -0.002616 0.018499 -0.000478 -0.001618 0.001696 -0.008959
# 3 -0.003264 -0.000478 0.006451 -0.002914 -0.001525 -0.001979
# 4 0.003976 -0.001618 -0.002914 0.028336 -0.000269 0.002588
# 5 0.003003 0.001696 -0.001525 -0.000269 0.022515 -0.001247
# 6 0.003473 -0.008959 -0.001979 0.002588 -0.001247 0.033683
#
#
# Mechanical properties :
#
#
# Convention : Reuss Voigt Hill
#
# Bulk Modulus (GPa) = 39.69213 54.90697 47.29955
# Shear Modulus (GPa) = 34.82918 42.55395 38.69156
#
# Velocity S-wave (km/s) = 3.65205 4.03678 3.84922
# Velocity P-wave (km/s) = 5.74308 6.53861 6.15372
#
# Compressibility (1/GPa) = 0.02519391
#
# Stress axis : x y z
#
# Youngs Moduli (GPa) = 77.15925 54.05843 155.00924
#
# Poissons Ratio (x) = 0.14142 0.50598
# Poissons Ratio (y) = 0.20186 0.07405
# Poissons Ratio (z) = 0.25186 0.02583
#
# Static dielectric constant tensor:
#      x y z
#    x 2.129200 0.021950 -0.021060 
#    y 0.021950 1.999950 -0.030590 
#    z -0.021060 -0.030590 2.118100 
# 
# From -- ./inp_files/109391.got.cif
#   From: 2010.05.17/outbox.cif.g08.bks.cpg/sg2_55_cif.got.tgz:109391.got - 2010.06.03 11:33:40.
