data_PCOD9099070
_publ_section_title
;
Structure prediction by ZEFSAII (Michael W. Deem and Ramdas Pophale) SiO2 
 PCOD9099070
Probable space group: P -1
;
_chemical_formula_sum "Si O2"
_cell_formula_units_Z 14
_cell_length_a 11.620777
_cell_length_b 8.634741
_cell_length_c 8.517951
_cell_angle_alpha 72.454960
_cell_angle_beta 129.983877
_cell_angle_gamma 104.085426
_cell_volume 622.991511
_symmetry_space_group_name_H-M "P -1"
_symmetry_group_IT_number 2
_symmetry_cell_setting 'triclinic'
loop_
_space_group_symop_operation_xyz
x,y,z
-x,-y,-z
loop_
_atom_site_type_symbol
_atom_site_label
_atom_site_fract_x
_atom_site_fract_y
_atom_site_fract_z
Si Si1 0.764128 0.210320 0.518457
Si Si2 0.207413 0.597296 0.064411
Si Si3 0.016388 0.251881 0.971237
Si Si4 0.461441 0.715020 0.457293
Si Si5 0.303318 0.205686 0.111495
Si Si6 0.323048 0.517559 0.864591
Si Si7 0.458592 0.009927 0.780340
O O1 0.922782 0.222882 0.738396
O O2 0.645252 0.176157 0.565647
O O3 0.738069 0.386303 0.365382
O O4 0.703208 0.080167 0.375899
O O5 0.284246 0.620665 0.954639
O O6 0.101710 0.432107 0.003678
O O7 0.102943 0.739133 0.992851
O O8 0.337406 0.585770 0.314865
O O9 0.158324 0.141659 0.105769
O O10 0.588647 0.688408 0.704853
O O11 0.533987 0.812442 0.344530
O O12 0.408328 0.081590 0.161120
O O13 0.257995 0.333694 0.899505
O O14 0.500000 0.500000 0.000000
O O15 0.500000 0.000000 0.000000
#
# Coordination Sequence:
#
# PCOD9099070 Si02
#       7
#     2   2   2   2   2   2   2
#     4  10  20  38  59  83 120 151 184 236 296 331
#     4   9  20  36  56  84 117 147 187 231 288 332
#     4   9  20  39  56  84 118 155 184 232 291 347
#     4  10  20  37  59  84 113 156 193 238 276 333
#     4  10  21  37  59  86 115 153 195 232 285 341
#     4  11  19  34  58  89 114 145 189 240 280 333
#     4  11  22  39  59  84 113 149 199 244 279 330
#
# _framework density 22.472216
#
# number of rings (size 3 to 8) (size 9 to 14) (size 15 to 20)
#    0.000    2.000    2.857    2.571    0.000    4.571 
#    2.571    8.571    0.000    0.000    0.000    0.000 
#    0.000    0.000    0.000    0.000    0.000    0.000 
#
# Total GULP energy -77969.111255 kJ/mol
# GULP energy per Si atom -5569.222232 kJ/mol
# Density = 2.242107 g / cm^3
# Si number density = 22.472216 Si / 1000 Ang^3
#
#
#
# Elastic Constant Matrix: (Units=GPa)
#
#
# Indices 1 2 3 4 5 6 
#
# 1 138.3669 7.7925 38.3729 8.7207 3.5571 -19.2250
# 2 7.7925 60.4148 41.9989 9.9665 -5.7809 7.4251
# 3 38.3729 41.9989 103.4228 34.4839 -3.4750 12.6408
# 4 8.7207 9.9665 34.4839 38.8114 7.6401 -3.8787
# 5 3.5571 -5.7809 -3.4750 7.6401 43.9171 -1.5656
# 6 -19.2250 7.4251 12.6408 -3.8787 -1.5656 35.7112
#
#
#
# Elastic Compliance Matrix: (Units=1/GPa)
#
#
# Indices 1 2 3 4 5 6 
#
# 1 0.009881 0.001621 -0.006859 0.004564 -0.001645 0.007834
# 2 0.001621 0.023802 -0.011392 0.003384 0.001526 0.000390
# 3 -0.006859 -0.011392 0.025076 -0.019829 0.004056 -0.012176
# 4 0.004564 0.003384 -0.019829 0.044537 -0.008770 0.013225
# 5 -0.001645 0.001526 0.004056 -0.008770 0.024862 -0.002501
# 6 0.007834 0.000390 -0.012176 0.013225 -0.002501 0.037776
#
#
# Mechanical properties :
#
#
# Convention : Reuss Voigt Hill
#
# Bulk Modulus (GPa) = 39.21759 53.17034 46.19396
# Shear Modulus (GPa) = 24.07396 37.95731 31.01563
#
# Velocity S-wave (km/s) = 3.27659 4.11430 3.71910
# Velocity P-wave (km/s) = 5.63952 6.80307 6.24844
#
# Compressibility (1/GPa) = 0.02549876
#
# Stress axis : x y z
#
# Youngs Moduli (GPa) = 101.20264 42.01268 39.87902
#
# Poissons Ratio (x) = -0.06808 0.27353
# Poissons Ratio (y) = -0.16400 0.45429
# Poissons Ratio (z) = 0.69415 0.47860
#
# Static dielectric constant tensor:
#      x y z
#    x 1.913060 -0.022930 0.036400 
#    y -0.022930 1.943250 -0.011990 
#    z 0.036400 -0.011990 1.812010 
# 
# From -- ./inp_files/179111.got.cif
#   From: 2010.05.17/outbox.cif.g08.bks.cpg/sg2_90_cif.got.tgz:179111.got - 2010.06.03 11:33:40.
