data_PCOD9099305
_publ_section_title
;
Structure prediction by ZEFSAII (Michael W. Deem and Ramdas Pophale) SiO2 
 PCOD9099305
Probable space group: P -1
;
_chemical_formula_sum "Si O2"
_cell_formula_units_Z 16
_cell_length_a 9.279276
_cell_length_b 5.672250
_cell_length_c 28.041406
_cell_angle_alpha 50.836239
_cell_angle_beta 39.415351
_cell_angle_gamma 74.362215
_cell_volume 651.220112
_symmetry_space_group_name_H-M "P -1"
_symmetry_group_IT_number 2
_symmetry_cell_setting 'triclinic'
loop_
_space_group_symop_operation_xyz
x,y,z
-x,-y,-z
loop_
_atom_site_type_symbol
_atom_site_label
_atom_site_fract_x
_atom_site_fract_y
_atom_site_fract_z
Si Si1 0.712008 0.797483 0.040546
Si Si2 0.170172 0.669644 0.346640
Si Si3 0.352965 0.733334 0.805447
Si Si4 0.570908 0.742185 0.649839
Si Si5 0.635469 0.480022 0.516866
Si Si6 0.346585 0.591317 0.987439
Si Si7 0.221511 0.281036 0.726609
Si Si8 0.772250 0.274037 0.780811
O O1 0.804412 0.600472 0.080247
O O2 0.762569 0.703226 0.986843
O O3 0.410779 0.627253 0.152694
O O4 0.789127 0.195191 0.979936
O O5 0.215880 0.381560 0.400263
O O6 0.114420 0.557381 0.319857
O O7 0.931464 0.737776 0.412843
O O8 0.439255 0.983149 0.250105
O O9 0.510692 0.674962 0.729880
O O10 0.209982 0.921072 0.790420
O O11 0.303583 0.508370 0.723249
O O12 0.641412 0.118791 0.567433
O O13 0.500000 0.500000 0.500000
O O14 0.457332 0.478635 0.605483
O O15 0.571103 0.900879 0.863027
O O16 0.500000 0.500000 0.000000
O O17 0.978535 0.252469 0.765186
#
# Coordination Sequence:
#
# PCOD9099305 Si02
#       8
#     2   2   2   2   2   2   2   2
#     4  10  20  37  67  93 120 163 199 249 299 369
#     4  11  20  38  57  81 115 156 217 250 304 361
#     4  10  20  37  60  84 116 160 206 253 296 368
#     4  10  22  37  53  79 114 160 206 254 308 359
#     4  11  23  36  55  80 119 156 205 261 313 354
#     4  10  21  38  66 101 126 152 199 253 305 365
#     4  10  23  39  54  87 119 160 203 258 308 361
#     4  10  21  36  63  89 118 161 202 253 305 361
#
# _framework density 24.569268000000001
#
# number of rings (size 3 to 8) (size 9 to 14) (size 15 to 20)
#    0.750    1.000    3.750    0.750    1.750    9.000 
#    0.000    0.000    0.000    1.500    0.000    0.000 
#    0.000    0.000    0.000    0.000    0.000    0.000 
#
# Total GULP energy -89265.114697 kJ/mol
# GULP energy per Si atom -5579.069669 kJ/mol
# Density = 2.451335 g / cm^3
# Si number density = 24.569268 Si / 1000 Ang^3
#
#
#
# Elastic Constant Matrix: (Units=GPa)
#
#
# Indices 1 2 3 4 5 6 
#
# 1 123.2762 50.0831 10.1764 18.4434 14.3126 8.9208
# 2 50.0831 83.8236 10.1866 3.9382 11.2292 13.3959
# 3 10.1764 10.1866 50.7394 19.5522 15.8984 10.0441
# 4 18.4434 3.9382 19.5522 34.8996 -0.7418 -7.8099
# 5 14.3126 11.2292 15.8984 -0.7418 43.3058 8.3293
# 6 8.9208 13.3959 10.0441 -7.8099 8.3293 23.5201
#
#
#
# Elastic Compliance Matrix: (Units=1/GPa)
#
#
# Indices 1 2 3 4 5 6 
#
# 1 0.012499 -0.006301 0.004536 -0.009650 -0.003345 -0.005109
# 2 -0.006301 0.016916 -0.000730 0.000349 -0.000771 -0.006544
# 3 0.004536 -0.000730 0.038482 -0.029362 -0.011432 -0.023440
# 4 -0.009650 0.000349 -0.029362 0.057513 0.008706 0.032015
# 5 -0.003345 -0.000771 -0.011432 0.008706 0.028887 -0.000749
# 6 -0.005109 -0.006544 -0.023440 0.032015 -0.000749 0.069087
#
#
# Mechanical properties :
#
#
# Convention : Reuss Voigt Hill
#
# Bulk Modulus (GPa) = 15.89642 44.30349 30.09995
# Shear Modulus (GPa) = 20.05259 32.83799 26.44529
#
# Velocity S-wave (km/s) = 2.85996 3.65985 3.28435
# Velocity P-wave (km/s) = 4.17012 5.99421 5.16335
#
# Compressibility (1/GPa) = 0.06290724
#
# Stress axis : x y z
#
# Youngs Moduli (GPa) = 80.00447 59.11510 25.98620
#
# Poissons Ratio (x) = 0.37251 -0.11788
# Poissons Ratio (y) = 0.50414 0.01897
# Poissons Ratio (z) = -0.36293 0.04315
#
# Static dielectric constant tensor:
#      x y z
#    x 1.918440 -0.010240 -0.018950 
#    y -0.010240 1.983660 -0.038960 
#    z -0.018950 -0.038960 2.034660 
# 
# From -- ./inp_files/52709.got.cif
#   From: 2010.05.17/outbox.cif.g08.bks.cpg/sg2_27_cif.got.tgz:52709.got - 2010.06.03 11:33:40.
