data_PCOD9099823
_publ_section_title
;
Structure prediction by ZEFSAII (Michael W. Deem and Ramdas Pophale) SiO2 
 PCOD9099823
Probable space group: P -1
;
_chemical_formula_sum "Si O2"
_cell_formula_units_Z 12
_cell_length_a 7.010771
_cell_length_b 17.694034
_cell_length_c 13.615745
_cell_angle_alpha 22.903337
_cell_angle_beta 52.753476
_cell_angle_gamma 45.633399
_cell_volume 465.300815
_symmetry_space_group_name_H-M "P -1"
_symmetry_group_IT_number 2
_symmetry_cell_setting 'triclinic'
loop_
_space_group_symop_operation_xyz
x,y,z
-x,-y,-z
loop_
_atom_site_type_symbol
_atom_site_label
_atom_site_fract_x
_atom_site_fract_y
_atom_site_fract_z
Si Si1 0.886256 0.606956 0.725841
Si Si2 0.494189 0.686729 0.570437
Si Si3 0.987362 0.878239 0.748283
Si Si4 0.750202 0.868562 0.149379
Si Si5 0.822805 0.002409 0.180731
Si Si6 0.457524 0.275199 0.122174
O O1 0.638685 0.656991 0.666849
O O2 0.771868 0.693181 0.766784
O O3 0.005802 0.755934 0.459245
O O4 0.037687 0.344320 0.994519
O O5 0.711893 0.665265 0.445779
O O6 0.391477 0.506064 0.816869
O O7 0.253569 0.930329 0.347213
O O8 0.270498 0.800347 0.808337
O O9 0.000000 0.000000 0.500000
O O10 0.743487 0.993583 0.103865
O O11 0.019445 0.853026 0.034444
O O12 0.500000 0.000000 0.000000
O O13 0.560574 0.097069 0.218011
#
# Coordination Sequence:
#
# PCOD9099823 Si02
#       6
#     2   2   2   2   2   2
#     4  10  20  37  61  94 137 168 204 265 330 386
#     4  10  20  37  64  95 123 173 220 255 322 389
#     4  11  18  35  63  95 130 174 213 251 318 396
#     4  10  22  45  67  88 127 174 227 268 314 390
#     4  10  23  41  65  97 130 170 214 273 331 375
#     4  11  20  36  63  96 133 168 204 269 332 384
#
# _framework density 25.789767999999999
#
# number of rings (size 3 to 8) (size 9 to 14) (size 15 to 20)
#    0.000    1.667    3.333    2.500    0.000    0.667 
#    0.000   12.500    0.000    0.000    0.000    0.000 
#    0.000    0.000    0.000    0.000    0.000    0.000 
#
# Total GULP energy -67164.775756 kJ/mol
# GULP energy per Si atom -5597.064646 kJ/mol
# Density = 2.573107 g / cm^3
# Si number density = 25.789768 Si / 1000 Ang^3
#
#
#
# Elastic Constant Matrix: (Units=GPa)
#
#
# Indices 1 2 3 4 5 6 
#
# 1 84.0895 19.9324 51.4152 7.0542 11.9056 -6.7200
# 2 19.9324 67.8745 78.8746 7.4233 7.7548 6.3707
# 3 51.4152 78.8746 189.5149 1.3705 -10.0348 -0.4700
# 4 7.0542 7.4233 1.3705 43.9194 2.1722 5.0058
# 5 11.9056 7.7548 -10.0348 2.1722 47.6772 3.6654
# 6 -6.7200 6.3707 -0.4700 5.0058 3.6654 38.7300
#
#
#
# Elastic Compliance Matrix: (Units=1/GPa)
#
#
# Indices 1 2 3 4 5 6 
#
# 1 0.016095 0.002604 -0.005726 -0.002928 -0.005762 0.003218
# 2 0.002604 0.033230 -0.014973 -0.004708 -0.008703 -0.003764
# 3 -0.005726 -0.014973 0.013389 0.002634 0.006511 0.000675
# 4 -0.002928 -0.004708 0.002634 0.024230 0.001174 -0.002945
# 5 -0.005762 -0.008703 0.006511 0.001174 0.025302 -0.002036
# 6 0.003218 -0.003764 0.000675 -0.002945 -0.002036 0.027579
#
#
# Mechanical properties :
#
#
# Convention : Reuss Voigt Hill
#
# Bulk Modulus (GPa) = 37.70087 71.32481 54.51284
# Shear Modulus (GPa) = 27.04802 38.81577 32.93190
#
# Velocity S-wave (km/s) = 3.24201 3.88375 3.57730
# Velocity P-wave (km/s) = 5.35392 6.91575 6.18434
#
# Compressibility (1/GPa) = 0.02652459
#
# Stress axis : x y z
#
# Youngs Moduli (GPa) = 62.13218 30.09319 74.68721
#
# Poissons Ratio (x) = -0.07838 0.42769
# Poissons Ratio (y) = -0.16182 1.11828
# Poissons Ratio (z) = 0.35579 0.45058
#
# Static dielectric constant tensor:
#      x y z
#    x 2.105610 -0.025540 -0.047660 
#    y -0.025540 2.037360 0.019650 
#    z -0.047660 0.019650 2.048900 
# 
# From -- ./inp_files/246238.got.cif
#   From: 2010.05.17/outbox.cif.g08.bks.cpg/sg2_124_cif.got.tgz:246238.got - 2010.06.03 11:33:40.
