data_PCOD9099344
_publ_section_title
;
Structure prediction by ZEFSAII (Michael W. Deem and Ramdas Pophale) SiO2 
 PCOD9099344
Probable space group: P -1
;
_chemical_formula_sum "Si O2"
_cell_formula_units_Z 16
_cell_length_a 5.410658
_cell_length_b 11.925052
_cell_length_c 11.553141
_cell_angle_alpha 114.224063
_cell_angle_beta 84.470342
_cell_angle_gamma 111.596245
_cell_volume 630.762882
_symmetry_space_group_name_H-M "P -1"
_symmetry_group_IT_number 2
_symmetry_cell_setting 'triclinic'
loop_
_space_group_symop_operation_xyz
x,y,z
-x,-y,-z
loop_
_atom_site_type_symbol
_atom_site_label
_atom_site_fract_x
_atom_site_fract_y
_atom_site_fract_z
Si Si1 0.478741 0.630398 0.770954
Si Si2 0.880220 0.580116 0.456141
Si Si3 0.339254 0.687060 0.286800
Si Si4 0.773694 0.809056 0.508845
Si Si5 0.655275 0.906034 0.928195
Si Si6 0.816008 0.078991 0.648663
Si Si7 0.917460 0.588032 0.890273
Si Si8 0.101016 0.151393 0.894776
O O1 0.383295 0.526373 0.629487
O O2 0.525363 0.780507 0.800167
O O3 0.750232 0.622183 0.807207
O O4 0.213359 0.592122 0.849022
O O5 0.826900 0.709566 0.553972
O O6 0.000000 0.500000 0.500000
O O7 0.089312 0.634154 0.363708
O O8 0.587997 0.721184 0.377445
O O9 0.343203 0.822839 0.287193
O O10 0.275593 0.565867 0.146969
O O11 0.057674 0.890926 0.471784
O O12 0.665451 0.922396 0.600202
O O13 0.660809 0.835936 0.022451
O O14 0.909979 0.010503 0.898429
O O15 0.500000 0.000000 0.000000
O O16 0.053906 0.122581 0.750117
O O17 0.946892 0.710671 0.025531
#
# Coordination Sequence:
#
# PCOD9099344 Si02
#       8
#     2   2   2   2   2   2   2   2
#     4  10  20  38  61  91 129 169 200 264 323 381
#     4  10  22  38  60  95 123 163 216 262 322 383
#     4  10  21  40  64  84 125 168 203 267 324 376
#     4  10  21  43  61  88 125 165 213 267 321 373
#     4  10  20  37  60  85 130 165 204 261 320 383
#     4  10  23  40  64  88 122 164 218 266 314 383
#     4  10  20  39  65  89 129 162 209 260 323 384
#     4  10  22  38  58  95 122 165 216 258 321 382
#
# _framework density 25.366109999999999
#
# number of rings (size 3 to 8) (size 9 to 14) (size 15 to 20)
#    0.000    2.000    2.500    0.375    0.000    4.000 
#    4.500    0.625    0.000    0.000    0.000    0.000 
#    0.000    0.000    0.000    0.000    0.000    0.000 
#
# Total GULP energy -89178.697509 kJ/mol
# GULP energy per Si atom -5573.668594 kJ/mol
# Density = 2.530838 g / cm^3
# Si number density = 25.366110 Si / 1000 Ang^3
#
#
#
# Elastic Constant Matrix: (Units=GPa)
#
#
# Indices 1 2 3 4 5 6 
#
# 1 58.8647 29.8938 7.2453 -2.6617 10.3132 -12.9986
# 2 29.8938 175.2305 52.5142 40.2816 -0.3934 -47.3450
# 3 7.2453 52.5142 81.2190 18.9770 5.3169 -9.4883
# 4 -2.6617 40.2816 18.9770 51.4686 -1.3140 -2.7723
# 5 10.3132 -0.3934 5.3169 -1.3140 22.8097 7.7944
# 6 -12.9986 -47.3450 -9.4883 -2.7723 7.7944 45.8731
#
#
#
# Elastic Compliance Matrix: (Units=1/GPa)
#
#
# Indices 1 2 3 4 5 6 
#
# 1 0.021966 -0.003476 0.000814 0.003528 -0.011688 0.005004
# 2 -0.003476 0.012195 -0.004526 -0.007524 -0.001152 0.010406
# 3 0.000814 -0.004526 0.015931 -0.002427 -0.004096 -0.000596
# 4 0.003528 -0.007524 -0.002427 0.026129 0.002431 -0.006102
# 5 -0.011688 -0.001152 -0.004096 0.002431 0.055182 -0.014577
# 6 0.005004 0.010406 -0.000596 -0.006102 -0.014577 0.035942
#
#
# Mechanical properties :
#
#
# Convention : Reuss Voigt Hill
#
# Bulk Modulus (GPa) = 27.99939 54.95787 41.47863
# Shear Modulus (GPa) = 25.82306 39.07434 32.44870
#
# Velocity S-wave (km/s) = 3.19410 3.92907 3.58049
# Velocity P-wave (km/s) = 4.96639 6.50356 5.78625
#
# Compressibility (1/GPa) = 0.03571507
#
# Stress axis : x y z
#
# Youngs Moduli (GPa) = 45.52579 82.00299 62.76893
#
# Poissons Ratio (x) = 0.28508 -0.05107
# Poissons Ratio (y) = 0.15827 0.28406
# Poissons Ratio (z) = -0.03704 0.37111
#
# Static dielectric constant tensor:
#      x y z
#    x 2.206050 0.108270 0.137060 
#    y 0.108270 2.093690 0.094060 
#    z 0.137060 0.094060 2.242010 
# 
# From -- ./inp_files/71357.got.cif
#   From: 2010.05.17/outbox.cif.g08.bks.cpg/sg2_36_cif.got.tgz:71357.got - 2010.06.03 11:33:40.
