data_PCOD9099785
_publ_section_title
;
Structure prediction by ZEFSAII (Michael W. Deem and Ramdas Pophale) SiO2 
 PCOD9099785
Probable space group: P -1
;
_chemical_formula_sum "Si O2"
_cell_formula_units_Z 16
_cell_length_a 11.827408
_cell_length_b 14.291364
_cell_length_c 7.441912
_cell_angle_alpha 102.135849
_cell_angle_beta 40.423696
_cell_angle_gamma 105.935849
_cell_volume 784.321376
_symmetry_space_group_name_H-M "P -1"
_symmetry_group_IT_number 2
_symmetry_cell_setting 'triclinic'
loop_
_space_group_symop_operation_xyz
x,y,z
-x,-y,-z
loop_
_atom_site_type_symbol
_atom_site_label
_atom_site_fract_x
_atom_site_fract_y
_atom_site_fract_z
Si Si1 0.042040 0.329183 0.052565
Si Si2 0.548157 0.616718 0.522467
Si Si3 0.385041 0.402586 0.175610
Si Si4 0.013123 0.467145 0.676391
Si Si5 0.830678 0.766434 0.814337
Si Si6 0.957253 0.968214 0.835674
Si Si7 0.879759 0.122962 0.706370
Si Si8 0.761827 0.287460 0.080168
O O1 0.248449 0.342240 0.755022
O O2 0.899583 0.272594 0.065357
O O3 0.038702 0.280434 0.232771
O O4 0.999023 0.437070 0.158020
O O5 0.500000 0.500000 0.500000
O O6 0.528118 0.630238 0.765223
O O7 0.412640 0.677347 0.621117
O O8 0.197804 0.431859 0.466740
O O9 0.336901 0.315400 0.057647
O O10 0.500000 0.500000 0.000000
O O11 0.000000 0.500000 0.500000
O O12 0.860605 0.379276 0.882310
O O13 0.935002 0.800138 0.516707
O O14 0.811624 0.868316 0.968003
O O15 0.895470 0.049980 0.820115
O O16 0.117904 0.935672 0.509174
O O17 0.000000 0.000000 0.000000
O O18 0.737024 0.189871 0.951281
#
# Coordination Sequence:
#
# PCOD9099785 Si02
#       8
#     2   2   2   2   2   2   2   2
#     4  12  22  37  59  88 127 171 219 264 324 387
#     4  12  24  38  58  88 128 172 226 270 313 385
#     4  12  23  38  57  88 131 176 217 260 320 392
#     4  12  20  37  57  82 126 173 212 263 316 382
#     4  10  20  37  61  92 126 170 207 265 334 381
#     4   9  18  36  67 101 126 158 217 278 337 400
#     4   9  19  37  62  98 126 155 221 269 326 404
#     4  12  22  39  61  90 127 169 219 271 329 388
#
# _framework density 20.399802000000001
#
# number of rings (size 3 to 8) (size 9 to 14) (size 15 to 20)
#    0.750    0.250    5.000    3.375    0.000    0.000 
#    0.000    0.000    0.000    1.500    0.000    0.000 
#    0.000    0.000    0.000    0.000    0.000    0.000 
#
# Total GULP energy -89238.191358 kJ/mol
# GULP energy per Si atom -5577.386960 kJ/mol
# Density = 2.035337 g / cm^3
# Si number density = 20.399802 Si / 1000 Ang^3
#
#
#
# Elastic Constant Matrix: (Units=GPa)
#
#
# Indices 1 2 3 4 5 6 
#
# 1 101.3005 38.0042 24.4253 0.3033 13.4553 7.0266
# 2 38.0042 125.9493 29.9880 16.2941 8.1283 -1.0707
# 3 24.4253 29.9880 75.8500 16.0730 -9.6178 10.1310
# 4 0.3033 16.2941 16.0730 33.6325 1.4689 4.9437
# 5 13.4553 8.1283 -9.6178 1.4689 36.4949 0.9865
# 6 7.0266 -1.0707 10.1310 4.9437 0.9865 27.2123
#
#
#
# Elastic Compliance Matrix: (Units=1/GPa)
#
#
# Indices 1 2 3 4 5 6 
#
# 1 0.012873 -0.003103 -0.004086 0.003928 -0.005224 -0.002449
# 2 -0.003103 0.010201 -0.002835 -0.003927 -0.001799 0.003037
# 3 -0.004086 -0.002835 0.018756 -0.007144 0.007504 -0.005013
# 4 0.003928 -0.003927 -0.007144 0.035898 -0.003769 -0.004894
# 5 -0.005224 -0.001799 0.007504 -0.003769 0.031911 -0.001988
# 6 -0.002449 0.003037 -0.005013 -0.004894 -0.001988 0.040328
#
#
# Mechanical properties :
#
#
# Convention : Reuss Voigt Hill
#
# Bulk Modulus (GPa) = 45.91350 54.21499 50.06425
# Shear Modulus (GPa) = 28.20454 33.51342 30.85898
#
# Velocity S-wave (km/s) = 3.72235 4.05758 3.89358
# Velocity P-wave (km/s) = 6.40548 6.97036 6.69388
#
# Compressibility (1/GPa) = 0.02178008
#
# Stress axis : x y z
#
# Youngs Moduli (GPa) = 77.68140 98.02793 53.31733
#
# Poissons Ratio (x) = 0.30422 0.21786
# Poissons Ratio (y) = 0.24107 0.15118
# Poissons Ratio (z) = 0.31742 0.27795
#
# Static dielectric constant tensor:
#      x y z
#    x 1.811840 0.012000 0.033000 
#    y 0.012000 1.781000 0.003260 
#    z 0.033000 0.003260 1.795400 
# 
# From -- ./inp_files/268242.got.cif
#   From: 2010.05.17/outbox.cif.g08.bks.cpg/sg2_135_cif.got.tgz:268242.got - 2010.06.03 11:33:40.
