data_PCOD9099233
_publ_section_title
;
Structure prediction by ZEFSAII (Michael W. Deem and Ramdas Pophale) SiO2 
 PCOD9099233
Probable space group: P -1
;
_chemical_formula_sum "Si O2"
_cell_formula_units_Z 16
_cell_length_a 20.044264
_cell_length_b 11.362606
_cell_length_c 13.758610
_cell_angle_alpha 48.033988
_cell_angle_beta 31.930788
_cell_angle_gamma 27.275295
_cell_volume 710.516244
_symmetry_space_group_name_H-M "P -1"
_symmetry_group_IT_number 2
_symmetry_cell_setting 'triclinic'
loop_
_space_group_symop_operation_xyz
x,y,z
-x,-y,-z
loop_
_atom_site_type_symbol
_atom_site_label
_atom_site_fract_x
_atom_site_fract_y
_atom_site_fract_z
Si Si1 0.302376 0.327006 0.577946
Si Si2 0.372636 0.473778 0.593119
Si Si3 0.042325 0.880703 0.226731
Si Si4 0.739358 0.901427 0.541678
Si Si5 0.747544 0.795911 0.803368
Si Si6 0.096828 0.296182 0.753590
Si Si7 0.760360 0.198124 0.145800
Si Si8 0.046554 0.793812 0.491774
O O1 0.316682 0.411744 0.609784
O O2 0.101712 0.410404 0.773530
O O3 0.245850 0.504112 0.461941
O O4 0.500000 0.000000 0.500000
O O5 0.148339 0.788948 0.725206
O O6 0.507975 0.230736 0.637540
O O7 0.551995 0.413192 0.356835
O O8 0.918601 0.856390 0.349441
O O9 0.096258 0.796580 0.318869
O O10 0.248213 0.706632 0.999471
O O11 0.781484 0.763236 0.663359
O O12 0.774858 0.777578 0.463313
O O13 0.858057 0.544065 0.868867
O O14 0.851440 0.857762 0.681661
O O15 0.500000 0.000000 0.000000
O O16 0.207341 0.020259 0.795372
O O17 0.000000 0.000000 0.000000
O O18 0.000000 0.000000 0.500000
#
# Coordination Sequence:
#
# PCOD9099233 Si02
#       8
#     2   2   2   2   2   2   2   2
#     4  11  20  42  67  87 127 180 211 263 329 394
#     4  11  22  38  66  90 127 170 216 260 333 387
#     4  11  22  40  65  94 129 170 213 279 326 386
#     4  10  20  37  59  91 123 165 213 262 334 382
#     4  10  23  38  61  94 128 165 218 273 331 389
#     4  10  21  39  62  86 131 168 208 270 327 391
#     4  11  22  37  60  98 128 159 220 271 323 389
#     4  10  22  43  66  92 131 180 219 268 335 394
#
# _framework density 22.518837000000001
#
# number of rings (size 3 to 8) (size 9 to 14) (size 15 to 20)
#    0.000    1.500    6.250    0.750    1.750    1.000 
#    0.000    3.750    0.000    0.000    0.000    0.000 
#    0.000    0.000    0.000    0.000    0.000    0.000 
#
# Total GULP energy -89120.064880 kJ/mol
# GULP energy per Si atom -5570.004055 kJ/mol
# Density = 2.246758 g / cm^3
# Si number density = 22.518837 Si / 1000 Ang^3
#
#
#
# Elastic Constant Matrix: (Units=GPa)
#
#
# Indices 1 2 3 4 5 6 
#
# 1 128.9826 23.5630 4.5394 -6.8560 -4.7773 5.7239
# 2 23.5630 89.4952 -1.6111 11.7172 -1.2626 -7.9693
# 3 4.5394 -1.6111 58.4583 5.7009 12.6953 -2.2680
# 4 -6.8560 11.7172 5.7009 25.1910 -6.0403 0.5028
# 5 -4.7773 -1.2626 12.6953 -6.0403 16.5587 -2.6680
# 6 5.7239 -7.9693 -2.2680 0.5028 -2.6680 42.9081
#
#
#
# Elastic Compliance Matrix: (Units=1/GPa)
#
#
# Indices 1 2 3 4 5 6 
#
# 1 0.009122 -0.003336 -0.002929 0.006328 0.006666 -0.001651
# 2 -0.003336 0.013465 0.002656 -0.008976 -0.004780 0.002894
# 3 -0.002929 0.002656 0.023831 -0.013090 -0.023554 0.000832
# 4 0.006328 -0.008976 -0.013090 0.056108 0.031337 -0.001912
# 5 0.006666 -0.004780 -0.023554 0.031337 0.091813 0.002320
# 6 -0.001651 0.002894 0.000832 -0.001912 0.002320 0.024274
#
#
# Mechanical properties :
#
#
# Convention : Reuss Voigt Hill
#
# Bulk Modulus (GPa) = 25.51022 36.65763 31.08392
# Shear Modulus (GPa) = 20.92934 33.62789 27.27861
#
# Velocity S-wave (km/s) = 3.05194 3.86855 3.48425
# Velocity P-wave (km/s) = 4.87566 6.02231 5.47906
#
# Compressibility (1/GPa) = 0.03919998
#
# Stress axis : x y z
#
# Youngs Moduli (GPa) = 109.62485 74.26439 41.96233
#
# Poissons Ratio (x) = 0.24774 0.12291
# Poissons Ratio (y) = 0.36571 -0.11144
# Poissons Ratio (z) = 0.32109 -0.19723
#
# Static dielectric constant tensor:
#      x y z
#    x 2.092890 0.041580 0.219400 
#    y 0.041580 1.921640 0.037870 
#    z 0.219400 0.037870 2.225170 
# 
# From -- ./inp_files/352983.got.cif
#   From: 2010.05.17/outbox.cif.g08.bks.cpg/sg2_177_cif.got.tgz:352983.got - 2010.06.03 11:33:40.
