data_PCOD9099146
_publ_section_title
;
Structure prediction by ZEFSAII (Michael W. Deem and Ramdas Pophale) SiO2 
 PCOD9099146
Probable space group: P -1
;
_chemical_formula_sum "Si O2"
_cell_formula_units_Z 16
_cell_length_a 11.923081
_cell_length_b 9.546676
_cell_length_c 8.527385
_cell_angle_alpha 62.222909
_cell_angle_beta 51.212611
_cell_angle_gamma 84.064508
_cell_volume 643.906171
_symmetry_space_group_name_H-M "P -1"
_symmetry_group_IT_number 2
_symmetry_cell_setting 'triclinic'
loop_
_space_group_symop_operation_xyz
x,y,z
-x,-y,-z
loop_
_atom_site_type_symbol
_atom_site_label
_atom_site_fract_x
_atom_site_fract_y
_atom_site_fract_z
Si Si1 0.422686 0.038081 0.391359
Si Si2 0.804507 0.381967 0.416270
Si Si3 0.492997 0.255243 0.656053
Si Si4 0.883109 0.386784 0.006199
Si Si5 0.277369 0.331106 0.040067
Si Si6 0.101483 0.692239 0.296880
Si Si7 0.458123 0.373300 0.271730
Si Si8 0.168237 0.176879 0.524022
O O1 0.537715 0.083479 0.705398
O O2 0.489683 0.232514 0.203093
O O3 0.500000 0.000000 0.500000
O O4 0.750432 0.960981 0.425882
O O5 0.634091 0.385619 0.544382
O O6 0.938048 0.551014 0.205076
O O7 0.818642 0.287480 0.614286
O O8 0.835764 0.306453 0.258582
O O9 0.344082 0.253578 0.879048
O O10 0.481476 0.312856 0.458893
O O11 0.818560 0.298556 0.946764
O O12 0.826299 0.551962 0.973502
O O13 0.419711 0.455270 0.937420
O O14 0.191199 0.196630 0.307435
O O15 0.998047 0.816611 0.304158
O O16 0.000000 0.500000 0.500000
O O17 0.280933 0.343041 0.414936
#
# Coordination Sequence:
#
# PCOD9099146 Si02
#       8
#     2   2   2   2   2   2   2   2
#     4   8  20  42  57  83 120 173 197 248 305 379
#     4  10  21  37  58  87 125 160 201 253 305 374
#     4  11  22  37  62  90 123 158 208 252 312 362
#     4  10  22  37  57  89 133 159 197 253 321 366
#     4  12  21  34  60 101 118 148 208 263 311 358
#     4  10  20  37  59  86 125 167 196 246 319 368
#     4   9  21  36  61  85 122 154 204 250 310 359
#     4  10  21  38  62  85 123 155 210 247 305 365
#
# _framework density 24.848343
#
# number of rings (size 3 to 8) (size 9 to 14) (size 15 to 20)
#    0.750    1.250    3.750    0.750    3.500    2.500 
#    0.000    0.625    0.000    0.750    0.000    0.000 
#    0.000    0.000    0.000    0.000    0.000    0.000 
#
# Total GULP energy -89221.408826 kJ/mol
# GULP energy per Si atom -5576.338052 kJ/mol
# Density = 2.479179 g / cm^3
# Si number density = 24.848343 Si / 1000 Ang^3
#
#
#
# Elastic Constant Matrix: (Units=GPa)
#
#
# Indices 1 2 3 4 5 6 
#
# 1 129.1532 19.8952 40.0695 16.8659 23.5449 -21.7926
# 2 19.8952 94.5901 25.2103 26.3147 11.1475 -23.7438
# 3 40.0695 25.2103 77.8847 34.1998 17.5508 -0.6644
# 4 16.8659 26.3147 34.1998 32.2144 -3.0851 -7.5396
# 5 23.5449 11.1475 17.5508 -3.0851 40.6150 6.7660
# 6 -21.7926 -23.7438 -0.6644 -7.5396 6.7660 32.1121
#
#
#
# Elastic Compliance Matrix: (Units=1/GPa)
#
#
# Indices 1 2 3 4 5 6 
#
# 1 0.012480 0.003249 -0.004316 -0.002619 -0.008451 0.011948
# 2 0.003249 0.019447 0.003169 -0.018660 -0.012490 0.014901
# 3 -0.004316 0.003169 0.035579 -0.041057 -0.015836 -0.006153
# 4 -0.002619 -0.018660 -0.041057 0.094038 0.031695 -0.001022
# 5 -0.008451 -0.012490 -0.015836 0.031695 0.045091 -0.017357
# 6 0.011948 0.014901 -0.006153 -0.001022 -0.017357 0.053557
#
#
# Mechanical properties :
#
#
# Convention : Reuss Voigt Hill
#
# Bulk Modulus (GPa) = 13.94515 52.44202 33.19358
# Shear Modulus (GPa) = 17.86409 35.41849 26.64129
#
# Velocity S-wave (km/s) = 2.68419 3.77952 3.27793
# Velocity P-wave (km/s) = 3.90266 6.34012 5.26440
#
# Compressibility (1/GPa) = 0.07170953
#
# Stress axis : x y z
#
# Youngs Moduli (GPa) = 80.12845 51.42096 28.10682
#
# Poissons Ratio (x) = -0.16707 0.12131
# Poissons Ratio (y) = -0.26034 -0.08907
# Poissons Ratio (z) = 0.34585 -0.16295
#
# Static dielectric constant tensor:
#      x y z
#    x 2.041910 0.018590 -0.010000 
#    y 0.018590 2.049040 0.028590 
#    z -0.010000 0.028590 1.996650 
# 
# From -- ./inp_files/252346.got.cif
#   From: 2010.05.17/outbox.cif.g08.bks.cpg/sg2_127_cif.got.tgz:252346.got - 2010.06.03 11:33:40.
