data_PCOD9099077
_publ_section_title
;
Structure prediction by ZEFSAII (Michael W. Deem and Ramdas Pophale) SiO2 
 PCOD9099077
Probable space group: P -1
;
_chemical_formula_sum "Si O2"
_cell_formula_units_Z 12
_cell_length_a 9.537603
_cell_length_b 9.296555
_cell_length_c 7.628617
_cell_angle_alpha 66.127633
_cell_angle_beta 107.715866
_cell_angle_gamma 85.131991
_cell_volume 572.160049
_symmetry_space_group_name_H-M "P -1"
_symmetry_group_IT_number 2
_symmetry_cell_setting 'triclinic'
loop_
_space_group_symop_operation_xyz
x,y,z
-x,-y,-z
loop_
_atom_site_type_symbol
_atom_site_label
_atom_site_fract_x
_atom_site_fract_y
_atom_site_fract_z
Si Si1 0.708582 0.830418 0.215352
Si Si2 0.620793 0.198200 0.907387
Si Si3 0.822593 0.419913 0.996606
Si Si4 0.855785 0.746216 0.926131
Si Si5 0.864788 0.081432 0.771260
Si Si6 0.010247 0.660783 0.530878
O O1 0.558206 0.764996 0.204512
O O2 0.835851 0.754710 0.440202
O O3 0.783362 0.782339 0.074547
O O4 0.664765 0.025597 0.110729
O O5 0.714332 0.162687 0.780178
O O6 0.686131 0.335314 0.958261
O O7 0.895962 0.383159 0.234892
O O8 0.963533 0.339752 0.962002
O O9 0.782857 0.613420 0.871711
O O10 0.838842 0.921073 0.745244
O O11 0.916132 0.213290 0.609267
O O12 0.000000 0.000000 0.000000
O O13 0.000000 0.500000 0.500000
#
# Coordination Sequence:
#
# PCOD9099077 Si02
#       6
#     2   2   2   2   2   2
#     4  10  20  40  59  86 123 152 190 234 300 342
#     4  10  21  37  64  87 112 161 193 232 288 357
#     4  11  21  35  62  92 110 149 205 240 282 335
#     4  10  20  37  59  84 116 158 189 236 282 356
#     4  11  18  39  61  82 115 161 193 227 293 353
#     4  12  22  37  61  90 117 149 196 249 284 334
#
# _framework density 20.973151000000001
#
# number of rings (size 3 to 8) (size 9 to 14) (size 15 to 20)
#    0.000    1.333    6.667    0.000    2.333    3.333 
#    0.000    2.500    0.000    6.000    0.000    0.000 
#    0.000    0.000    0.000    0.000    0.000    0.000 
#
# Total GULP energy -67019.426050 kJ/mol
# GULP energy per Si atom -5584.952171 kJ/mol
# Density = 2.092541 g / cm^3
# Si number density = 20.973151 Si / 1000 Ang^3
#
#
#
# Elastic Constant Matrix: (Units=GPa)
#
#
# Indices 1 2 3 4 5 6 
#
# 1 144.8513 56.6094 44.8536 5.0762 3.9432 35.6669
# 2 56.6094 170.3922 40.4607 -0.3258 -5.5446 47.3227
# 3 44.8536 40.4607 64.2570 -5.7536 -11.5583 17.7137
# 4 5.0762 -0.3258 -5.7536 21.9402 6.1502 -3.0025
# 5 3.9432 -5.5446 -11.5583 6.1502 24.3367 4.6530
# 6 35.6669 47.3227 17.7137 -3.0025 4.6530 45.3038
#
#
#
# Elastic Compliance Matrix: (Units=1/GPa)
#
#
# Indices 1 2 3 4 5 6 
#
# 1 0.010664 -0.000688 -0.006503 -0.004046 -0.002976 -0.005097
# 2 -0.000688 0.009182 -0.002589 -0.002455 0.003225 -0.008531
# 3 -0.006503 -0.002589 0.025044 0.004325 0.011818 -0.002894
# 4 -0.004046 -0.002455 0.004325 0.052406 -0.012785 0.008845
# 5 -0.002976 0.003225 0.011818 -0.012785 0.053442 -0.011983
# 6 -0.005097 -0.008531 -0.002894 0.008845 -0.011983 0.037946
#
#
# Mechanical properties :
#
#
# Convention : Reuss Voigt Hill
#
# Bulk Modulus (GPa) = 39.48166 73.70532 56.59349
# Shear Modulus (GPa) = 23.07476 34.15459 28.61467
#
# Velocity S-wave (km/s) = 3.32053 4.03983 3.69772
# Velocity P-wave (km/s) = 5.79370 7.54847 6.72853
#
# Compressibility (1/GPa) = 0.02532822
#
# Stress axis : x y z
#
# Youngs Moduli (GPa) = 93.77315 108.91265 39.93039
#
# Poissons Ratio (x) = 0.07489 0.25969
# Poissons Ratio (y) = 0.06448 0.10340
# Poissons Ratio (z) = 0.60985 0.28202
#
# Static dielectric constant tensor:
#      x y z
#    x 1.754770 0.002510 -0.025250 
#    y 0.002510 1.827280 -0.000100 
#    z -0.025250 -0.000100 1.760790 
# 
# From -- ./inp_files/151168.got.cif
#   From: 2010.05.17/outbox.cif.g08.bks.cpg/sg2_76_cif.got.tgz:151168.got - 2010.06.03 11:33:40.
