data_PCOD9099703
_publ_section_title
;
Structure prediction by ZEFSAII (Michael W. Deem and Ramdas Pophale) SiO2 
 PCOD9099703
Probable space group: P -1
;
_chemical_formula_sum "Si O2"
_cell_formula_units_Z 14
_cell_length_a 14.779823
_cell_length_b 9.798301
_cell_length_c 12.477275
_cell_angle_alpha 133.812403
_cell_angle_beta 151.350073
_cell_angle_gamma 60.213388
_cell_volume 592.256262
_symmetry_space_group_name_H-M "P -1"
_symmetry_group_IT_number 2
_symmetry_cell_setting 'triclinic'
loop_
_space_group_symop_operation_xyz
x,y,z
-x,-y,-z
loop_
_atom_site_type_symbol
_atom_site_label
_atom_site_fract_x
_atom_site_fract_y
_atom_site_fract_z
Si Si1 0.685541 0.582284 0.659048
Si Si2 0.415210 0.381749 0.092919
Si Si3 0.194077 0.949027 0.217352
Si Si4 0.770597 0.197077 0.589214
Si Si5 0.631351 0.137388 0.052281
Si Si6 0.116300 0.111283 0.805717
Si Si7 0.385315 0.724483 0.123230
O O1 0.500000 0.500000 0.500000
O O2 0.581765 0.559060 0.424953
O O3 0.801458 0.422518 0.707146
O O4 0.800864 0.796973 0.941508
O O5 0.342268 0.495215 0.985768
O O6 0.534823 0.240790 0.096454
O O7 0.239817 0.266770 0.929473
O O8 0.170750 0.824263 0.237485
O O9 0.264932 0.825992 0.132133
O O10 0.381401 0.145007 0.547312
O O11 0.000000 0.000000 0.000000
O O12 0.889692 0.097058 0.578493
O O13 0.538465 0.073202 0.265539
O O14 0.666415 0.258587 0.044704
O O15 0.828264 0.087360 0.261910
#
# Coordination Sequence:
#
# PCOD9099703 Si02
#       7
#     2   2   2   2   2   2   2
#     4  10  20  37  61  89 122 152 199 253 300 349
#     4  11  23  41  63  89 127 165 198 249 307 362
#     4  10  21  38  64  93 119 156 203 254 304 355
#     4  11  22  38  64  93 123 158 203 255 305 356
#     4  11  23  43  61  88 126 163 205 248 300 365
#     4  11  23  39  66  90 122 159 206 254 300 359
#     4  10  23  39  63  87 124 159 203 248 303 361
#
# _framework density 23.638415999999999
#
# number of rings (size 3 to 8) (size 9 to 14) (size 15 to 20)
#    0.000    1.429    2.857    3.857    6.000    0.571 
#    0.000    0.000    0.000    5.143    0.000    0.000 
#    0.000    0.000    0.000    0.000    0.000    0.000 
#
# Total GULP energy -78298.372767 kJ/mol
# GULP energy per Si atom -5592.740912 kJ/mol
# Density = 2.358461 g / cm^3
# Si number density = 23.638416 Si / 1000 Ang^3
#
#
#
# Elastic Constant Matrix: (Units=GPa)
#
#
# Indices 1 2 3 4 5 6 
#
# 1 114.6720 28.1842 13.7144 -16.4678 9.9455 2.6192
# 2 28.1842 92.1208 -1.6810 -20.4401 20.4250 6.1310
# 3 13.7144 -1.6810 42.4011 -15.2759 -5.8402 -4.4369
# 4 -16.4678 -20.4401 -15.2759 24.6319 -9.0860 0.2486
# 5 9.9455 20.4250 -5.8402 -9.0860 34.5616 -10.1465
# 6 2.6192 6.1310 -4.4369 0.2486 -10.1465 46.7498
#
#
#
# Elastic Compliance Matrix: (Units=1/GPa)
#
#
# Indices 1 2 3 4 5 6 
#
# 1 0.010120 -0.002105 -0.002699 0.002736 -0.001677 -0.000925
# 2 -0.002105 0.015790 0.004898 0.012794 -0.005331 -0.002713
# 3 -0.002699 0.004898 0.038649 0.031518 0.014506 0.006158
# 4 0.002736 0.012794 0.031518 0.079688 0.019378 0.004942
# 5 -0.001677 -0.005331 0.014506 0.019378 0.043490 0.011506
# 6 -0.000925 -0.002713 0.006158 0.004942 0.011506 0.024853
#
#
# Mechanical properties :
#
#
# Convention : Reuss Voigt Hill
#
# Bulk Modulus (GPa) = 15.44460 36.62546 26.03503
# Shear Modulus (GPa) = 21.36890 35.12040 28.24465
#
# Velocity S-wave (km/s) = 3.00991 3.85870 3.46043
# Velocity P-wave (km/s) = 4.31593 5.94815 5.19652
#
# Compressibility (1/GPa) = 0.06474755
#
# Stress axis : x y z
#
# Youngs Moduli (GPa) = 98.81260 63.33078 25.87412
#
# Poissons Ratio (x) = 0.13331 0.06983
# Poissons Ratio (y) = 0.20800 -0.12673
# Poissons Ratio (z) = 0.26666 -0.31020
#
# Static dielectric constant tensor:
#      x y z
#    x 1.862700 0.000050 0.000310 
#    y 0.000050 1.894550 0.000530 
#    z 0.000310 0.000530 1.934070 
# 
# From -- ./inp_files/183777.got.cif
#   From: 2010.05.17/outbox.cif.g08.bks.cpg/sg2_92_cif.got.tgz:183777.got - 2010.06.03 11:33:40.
