data_PCOD9099371
_publ_section_title
;
Structure prediction by ZEFSAII (Michael W. Deem and Ramdas Pophale) SiO2 
 PCOD9099371
Probable space group: P -1
;
_chemical_formula_sum "Si O2"
_cell_formula_units_Z 14
_cell_length_a 13.015856
_cell_length_b 11.438646
_cell_length_c 10.349902
_cell_angle_alpha 131.393670
_cell_angle_beta 146.655000
_cell_angle_gamma 48.370771
_cell_volume 611.562364
_symmetry_space_group_name_H-M "P -1"
_symmetry_group_IT_number 2
_symmetry_cell_setting 'triclinic'
loop_
_space_group_symop_operation_xyz
x,y,z
-x,-y,-z
loop_
_atom_site_type_symbol
_atom_site_label
_atom_site_fract_x
_atom_site_fract_y
_atom_site_fract_z
Si Si1 0.794201 0.484783 0.553613
Si Si2 0.144616 0.880180 0.237367
Si Si3 0.605186 0.564569 0.976666
Si Si4 0.278608 0.529686 0.247959
Si Si5 0.982602 0.322123 0.251088
Si Si6 0.985503 0.888525 0.521040
Si Si7 0.316475 0.137300 0.653168
O O1 0.572689 0.510448 0.292209
O O2 0.810870 0.518301 0.749036
O O3 0.901127 0.590360 0.659468
O O4 0.887600 0.292915 0.494033
O O5 0.200447 0.718795 0.266105
O O6 0.984822 0.014052 0.247443
O O7 0.324599 0.963192 0.470598
O O8 0.068102 0.823542 0.985003
O O9 0.709306 0.562957 0.943821
O O10 0.773447 0.445675 0.151969
O O11 0.543667 0.746789 0.102113
O O12 0.500000 0.500000 0.500000
O O13 0.126938 0.255302 0.470286
O O14 0.760360 0.890149 0.305631
O O15 0.000000 0.000000 0.500000
#
# Coordination Sequence:
#
# PCOD9099371 Si02
#       7
#     2   2   2   2   2   2   2
#     4  11  21  38  62  89 119 154 198 236 296 351
#     4   9  20  36  62  80 117 159 190 240 294 342
#     4  10  22  37  61  89 117 155 193 247 288 343
#     4   9  19  37  58  87 117 146 195 245 289 345
#     4  11  21  39  61  86 118 159 196 242 286 348
#     4  10  20  37  60  87 118 149 195 238 292 351
#     4  10  21  39  59  85 122 154 197 240 294 343
#
# _framework density 22.892185000000001
#
# number of rings (size 3 to 8) (size 9 to 14) (size 15 to 20)
#    0.857    1.143    2.857    0.857    0.000    4.000 
#    0.000   10.714    0.000    9.429    0.000    0.000 
#    0.000    0.000    0.000    0.000    0.000    0.000 
#
# Total GULP energy -77962.932882 kJ/mol
# GULP energy per Si atom -5568.780920 kJ/mol
# Density = 2.284008 g / cm^3
# Si number density = 22.892185 Si / 1000 Ang^3
#
#
#
# Elastic Constant Matrix: (Units=GPa)
#
#
# Indices 1 2 3 4 5 6 
#
# 1 47.4637 13.0904 9.8121 5.6193 -5.3995 6.9768
# 2 13.0904 61.6036 13.9622 22.9044 5.5557 16.1552
# 3 9.8121 13.9622 109.9613 24.4497 2.5314 4.3877
# 4 5.6193 22.9044 24.4497 40.8345 -5.7119 -5.6181
# 5 -5.3995 5.5557 2.5314 -5.7119 32.0065 8.1677
# 6 6.9768 16.1552 4.3877 -5.6181 8.1677 28.6972
#
#
#
# Elastic Compliance Matrix: (Units=1/GPa)
#
#
# Indices 1 2 3 4 5 6 
#
# 1 0.023932 -0.003959 -0.001579 0.000033 0.006155 -0.005094
# 2 -0.003959 0.029546 0.002007 -0.020469 -0.004861 -0.018601
# 3 -0.001579 0.002007 0.011003 -0.008263 -0.002078 -0.003455
# 4 0.000033 -0.020469 -0.008263 0.044598 0.007205 0.019458
# 5 0.006155 -0.004861 -0.002078 0.007205 0.036467 -0.007411
# 6 -0.005094 -0.018601 -0.003455 0.019458 -0.007411 0.053003
#
#
# Mechanical properties :
#
#
# Convention : Reuss Voigt Hill
#
# Bulk Modulus (GPa) = 17.41566 32.52867 24.97216
# Shear Modulus (GPa) = 22.24691 32.45188 27.34940
#
# Velocity S-wave (km/s) = 3.12077 3.76918 3.46020
# Velocity P-wave (km/s) = 4.53981 5.76044 5.18616
#
# Compressibility (1/GPa) = 0.05741959
#
# Stress axis : x y z
#
# Youngs Moduli (GPa) = 41.78500 33.84566 90.88465
#
# Poissons Ratio (x) = 0.13400 0.14346
# Poissons Ratio (y) = 0.16543 -0.18241
# Poissons Ratio (z) = 0.06596 -0.06793
#
# Static dielectric constant tensor:
#      x y z
#    x 1.927510 -0.005460 -0.013430 
#    y -0.005460 1.868410 0.015900 
#    z -0.013430 0.015900 1.929030 
# 
# From -- ./inp_files/211130.got.cif
#   From: 2010.05.17/outbox.cif.g08.bks.cpg/sg2_106_cif.got.tgz:211130.got - 2010.06.03 11:33:40.
