data_PCOD9099575
_publ_section_title
;
Structure prediction by ZEFSAII (Michael W. Deem and Ramdas Pophale) SiO2 
 PCOD9099575
Probable space group: P -1
;
_chemical_formula_sum "Si O2"
_cell_formula_units_Z 12
_cell_length_a 9.731679
_cell_length_b 5.542945
_cell_length_c 12.483987
_cell_angle_alpha 80.513830
_cell_angle_beta 132.487307
_cell_angle_gamma 117.388354
_cell_volume 429.843606
_symmetry_space_group_name_H-M "P -1"
_symmetry_group_IT_number 2
_symmetry_cell_setting 'triclinic'
loop_
_space_group_symop_operation_xyz
x,y,z
-x,-y,-z
loop_
_atom_site_type_symbol
_atom_site_label
_atom_site_fract_x
_atom_site_fract_y
_atom_site_fract_z
Si Si1 0.016658 0.432300 0.703200
Si Si2 0.604378 0.273929 0.962445
Si Si3 0.208018 0.096141 0.175174
Si Si4 0.662969 0.507679 0.281225
Si Si5 0.798395 0.812351 0.538670
Si Si6 0.668087 0.335138 0.732003
O O1 0.184822 0.596607 0.680826
O O2 0.861614 0.568679 0.613066
O O3 0.173979 0.523725 0.880645
O O4 0.934934 0.114815 0.641669
O O5 0.435643 0.385197 0.869253
O O6 0.647352 0.265772 0.856502
O O7 0.500000 0.000000 0.000000
O O8 0.447795 0.270177 0.239905
O O9 0.203151 0.331121 0.228619
O O10 0.220999 0.832030 0.246641
O O11 0.000000 0.000000 0.000000
O O12 0.781394 0.767123 0.404224
O O13 0.555750 0.750452 0.434737
#
# Coordination Sequence:
#
# PCOD9099575 Si02
#       6
#     2   2   2   2   2   2
#     4  12  21  34  56  84 117 154 179 213 276 347
#     4  10  21  36  54  81 120 156 182 221 274 337
#     4  10  20  37  61  85 106 142 194 246 280 308
#     4  10  22  37  54  84 117 148 188 234 272 328
#     4  10  22  36  54  82 118 151 181 221 274 336
#     4  10  22  40  58  86 117 145 186 235 276 330
#
# _framework density 27.917131000000001
#
# number of rings (size 3 to 8) (size 9 to 14) (size 15 to 20)
#    0.000    2.000    0.000    6.000    0.000    9.333 
#    0.000    0.000    0.000    0.000    0.000  123.667 
#    0.000    0.000    0.000    0.000    0.000    0.000 
#
# Total GULP energy -67118.747693 kJ/mol
# GULP energy per Si atom -5593.228974 kJ/mol
# Density = 2.785359 g / cm^3
# Si number density = 27.917131 Si / 1000 Ang^3
#
#
#
# Elastic Constant Matrix: (Units=GPa)
#
#
# Indices 1 2 3 4 5 6 
#
# 1 105.4980 46.2034 29.4082 4.8569 -6.4179 -23.5654
# 2 46.2034 236.9720 111.5938 -3.0429 10.8892 -27.6143
# 3 29.4082 111.5938 211.5398 10.6212 15.1822 -17.4934
# 4 4.8569 -3.0429 10.6212 63.7947 -4.3455 8.5223
# 5 -6.4179 10.8892 15.1822 -4.3455 49.5751 0.1225
# 6 -23.5654 -27.6143 -17.4934 8.5223 0.1225 52.9437
#
#
#
# Elastic Compliance Matrix: (Units=1/GPa)
#
#
# Indices 1 2 3 4 5 6 
#
# 1 0.011450 -0.001622 -0.000446 -0.001325 0.001848 0.004312
# 2 -0.001622 0.006081 -0.002855 0.000660 -0.000617 0.001401
# 3 -0.000446 -0.002855 0.006535 -0.001390 -0.001555 0.000699
# 4 -0.001325 0.000660 -0.001390 0.016598 0.001572 -0.003380
# 5 0.001848 -0.000617 -0.001555 0.001572 0.021161 -0.000315
# 6 0.004312 0.001401 0.000699 -0.003380 -0.000315 0.022314
#
#
# Mechanical properties :
#
#
# Convention : Reuss Voigt Hill
#
# Bulk Modulus (GPa) = 70.32515 103.15786 86.74150
# Shear Modulus (GPa) = 50.64604 57.71634 54.18119
#
# Velocity S-wave (km/s) = 4.26391 4.55182 4.41021
# Velocity P-wave (km/s) = 7.03467 8.04096 7.55459
#
# Compressibility (1/GPa) = 0.01421966
#
# Stress axis : x y z
#
# Youngs Moduli (GPa) = 87.33513 164.44882 153.03063
#
# Poissons Ratio (x) = 0.26675 0.06819
# Poissons Ratio (y) = 0.14166 0.43695
# Poissons Ratio (z) = 0.03892 0.46956
#
# Static dielectric constant tensor:
#      x y z
#    x 2.474570 0.293490 -0.063160 
#    y 0.293490 2.452390 -0.028830 
#    z -0.063160 -0.028830 2.138550 
# 
# From -- ./inp_files/571408.got.cif
#   From: 2010.05.17/outbox.cif.g08.bks.cpg/sg2_286_cif.got.tgz:571408.got - 2010.06.03 11:33:40.
