data_PCOD9099826
_publ_section_title
;
Structure prediction by ZEFSAII (Michael W. Deem and Ramdas Pophale) SiO2 
 PCOD9099826
Probable space group: P -1
;
_chemical_formula_sum "Si O2"
_cell_formula_units_Z 16
_cell_length_a 21.504357
_cell_length_b 10.970581
_cell_length_c 16.126271
_cell_angle_alpha 35.020488
_cell_angle_beta 25.105031
_cell_angle_gamma 32.840292
_cell_volume 846.948002
_symmetry_space_group_name_H-M "P -1"
_symmetry_group_IT_number 2
_symmetry_cell_setting 'triclinic'
loop_
_space_group_symop_operation_xyz
x,y,z
-x,-y,-z
loop_
_atom_site_type_symbol
_atom_site_label
_atom_site_fract_x
_atom_site_fract_y
_atom_site_fract_z
Si Si1 0.946022 0.722967 0.548267
Si Si2 0.844254 0.116582 0.564139
Si Si3 0.017948 0.400453 0.125446
Si Si4 0.701906 0.377407 0.745299
Si Si5 0.162943 0.102015 0.873175
Si Si6 0.965016 0.798863 0.289903
Si Si7 0.646901 0.901930 0.512837
Si Si8 0.675225 0.979129 0.096618
O O1 0.936737 0.809525 0.417104
O O2 0.121086 0.684466 0.394305
O O3 0.937764 0.473895 0.696334
O O4 0.823123 0.916461 0.648670
O O5 0.710361 0.273499 0.701062
O O6 0.897909 0.274250 0.351309
O O7 0.000000 0.000000 0.500000
O O8 0.955020 0.621899 0.139398
O O9 0.199916 0.205947 0.015012
O O10 0.000000 0.500000 0.000000
O O11 0.634207 0.652876 0.664698
O O12 0.631408 0.232490 0.968195
O O13 0.304049 0.049376 0.665166
O O14 0.233289 0.041489 0.914887
O O15 0.060749 0.951675 0.063876
O O16 0.796553 0.879415 0.401656
O O17 0.480248 0.065600 0.665430
#
# Coordination Sequence:
#
# PCOD9099826 Si02
#       8
#     2   2   2   2   2   2   2   2
#     4   9  17  32  57  83 107 143 189 232 267 318
#     4  10  16  31  57  86 104 133 192 243 259 307
#     4  10  19  32  57  81 110 142 187 227 274 323
#     4  10  18  34  57  85 109 142 186 237 275 321
#     4  11  21  38  56  82 112 151 191 222 272 337
#     4  10  20  35  55  79 116 151 186 219 274 341
#     4  11  23  35  55  87 117 143 183 232 284 331
#     4  11  21  36  56  85 116 144 180 239 288 315
#
# _framework density 18.891359000000001
#
# number of rings (size 3 to 8) (size 9 to 14) (size 15 to 20)
#    0.000    1.750    5.000    1.875    0.000    0.000 
#    0.000    0.625    0.000    0.750    0.000    0.000 
#    0.000    0.000    0.000    0.000    0.000    0.000 
#
# Total GULP energy -89168.224300 kJ/mol
# GULP energy per Si atom -5573.014019 kJ/mol
# Density = 1.884836 g / cm^3
# Si number density = 18.891359 Si / 1000 Ang^3
#
#
#
# Elastic Constant Matrix: (Units=GPa)
#
#
# Indices 1 2 3 4 5 6 
#
# 1 53.1754 17.8149 13.8470 -0.4167 9.5407 19.0017
# 2 17.8149 47.7588 38.9036 -6.1993 -4.1860 18.8850
# 3 13.8470 38.9036 97.2651 4.5207 1.1661 9.6698
# 4 -0.4167 -6.1993 4.5207 23.6691 5.4078 4.4674
# 5 9.5407 -4.1860 1.1661 5.4078 16.6419 -4.9227
# 6 19.0017 18.8850 9.6698 4.4674 -4.9227 21.8933
#
#
#
# Elastic Compliance Matrix: (Units=1/GPa)
#
#
# Indices 1 2 3 4 5 6 
#
# 1 0.055686 0.016362 -0.007376 0.036305 -0.062977 -0.080755
# 2 0.016362 0.067680 -0.023397 0.043407 -0.027697 -0.077332
# 3 -0.007376 -0.023397 0.018991 -0.016494 0.009374 0.023669
# 4 0.036305 0.043407 -0.016494 0.090480 -0.066250 -0.095027
# 5 -0.062977 -0.027697 0.009374 -0.066250 0.145806 0.120714
# 6 -0.080755 -0.077332 0.023669 -0.095027 0.120714 0.218551
#
#
# Mechanical properties :
#
#
# Convention : Reuss Voigt Hill
#
# Bulk Modulus (GPa) = 8.80791 37.70336 23.25563
# Shear Modulus (GPa) = 7.53172 20.94978 14.24075
#
# Velocity S-wave (km/s) = 1.99888 3.33372 2.74856
# Velocity P-wave (km/s) = 3.16226 5.90081 4.73389
#
# Compressibility (1/GPa) = 0.11353437
#
# Stress axis : x y z
#
# Youngs Moduli (GPa) = 17.95790 14.77542 52.65791
#
# Poissons Ratio (x) = -0.24175 0.38840
# Poissons Ratio (y) = -0.29382 1.23203
# Poissons Ratio (z) = 0.13245 0.34570
#
# Static dielectric constant tensor:
#      x y z
#    x 1.649270 0.007510 0.025840 
#    y 0.007510 1.741660 0.019500 
#    z 0.025840 0.019500 1.616470 
# 
# From -- ./inp_files/281390.got.cif
#   From: 2010.05.17/outbox.cif.g08.bks.cpg/sg2_141_cif.got.tgz:281390.got - 2010.06.03 11:33:40.
