data_PCOD9099073
_publ_section_title
;
Structure prediction by ZEFSAII (Michael W. Deem and Ramdas Pophale) SiO2 
 PCOD9099073
Probable space group: P -1
;
_chemical_formula_sum "Si O2"
_cell_formula_units_Z 16
_cell_length_a 14.902575
_cell_length_b 7.559794
_cell_length_c 7.838879
_cell_angle_alpha 50.330773
_cell_angle_beta 102.068255
_cell_angle_gamma 109.527356
_cell_volume 640.672618
_symmetry_space_group_name_H-M "P -1"
_symmetry_group_IT_number 2
_symmetry_cell_setting 'triclinic'
loop_
_space_group_symop_operation_xyz
x,y,z
-x,-y,-z
loop_
_atom_site_type_symbol
_atom_site_label
_atom_site_fract_x
_atom_site_fract_y
_atom_site_fract_z
Si Si1 0.767475 0.455397 0.560479
Si Si2 0.623868 0.221251 0.887395
Si Si3 0.361395 0.536670 0.799930
Si Si4 0.022626 0.358034 0.375913
Si Si5 0.083648 0.365532 0.024178
Si Si6 0.756761 0.168310 0.223988
Si Si7 0.833334 0.042730 0.663712
Si Si8 0.528448 0.825499 0.860052
O O1 0.711437 0.432881 0.729859
O O2 0.697974 0.527648 0.354928
O O3 0.875246 0.612631 0.516596
O O4 0.781938 0.197989 0.665159
O O5 0.543615 0.270573 0.948074
O O6 0.680550 0.059591 0.114548
O O7 0.573875 0.092448 0.776503
O O8 0.295384 0.654815 0.813189
O O9 0.390296 0.311459 0.026104
O O10 0.461900 0.744599 0.719511
O O11 0.036111 0.266237 0.246476
O O12 0.936760 0.210369 0.546429
O O13 0.992375 0.601458 0.166495
O O14 0.147868 0.192734 0.104100
O O15 0.146388 0.639416 0.913411
O O16 0.778767 0.002473 0.483634
#
# Coordination Sequence:
#
# PCOD9099073 Si02
#       8
#     2   2   2   2   2   2   2   2
#     4  11  22  37  57  88 115 147 192 239 279 341
#     4  10  20  37  59  84 116 147 190 236 287 343
#     4   9  20  38  59  83 114 150 186 238 292 338
#     4  10  21  39  56  85 123 149 191 241 278 332
#     4  10  20  37  61  83 115 161 190 231 284 337
#     4   9  19  38  58  85 120 150 194 237 274 340
#     4  10  22  37  59  86 119 156 191 230 287 334
#     4   9  20  39  60  81 112 154 183 236 298 343
#
# _framework density 24.973751
#
# number of rings (size 3 to 8) (size 9 to 14) (size 15 to 20)
#    0.000    2.250    1.250    0.750    1.750    2.500 
#    2.250    0.000    0.000    0.000    0.000    0.000 
#    0.000    0.000    0.000    0.000    0.000    0.000 
#
# Total GULP energy -89267.688455 kJ/mol
# GULP energy per Si atom -5579.230528 kJ/mol
# Density = 2.491691 g / cm^3
# Si number density = 24.973751 Si / 1000 Ang^3
#
#
#
# Elastic Constant Matrix: (Units=GPa)
#
#
# Indices 1 2 3 4 5 6 
#
# 1 112.5800 11.8349 36.1991 -2.1788 23.5193 7.2131
# 2 11.8349 54.7977 26.6836 7.4687 13.8376 4.3107
# 3 36.1991 26.6836 61.3674 14.6808 21.2280 10.3350
# 4 -2.1788 7.4687 14.6808 39.0228 12.1518 17.3705
# 5 23.5193 13.8376 21.2280 12.1518 33.6587 8.1294
# 6 7.2131 4.3107 10.3350 17.3705 8.1294 35.4357
#
#
#
# Elastic Compliance Matrix: (Units=1/GPa)
#
#
# Indices 1 2 3 4 5 6 
#
# 1 0.012604 0.001705 -0.006902 0.006063 -0.006820 -0.002167
# 2 0.001705 0.023840 -0.009824 0.000605 -0.005136 0.000500
# 3 -0.006902 -0.009824 0.028694 -0.006861 -0.006540 -0.000905
# 4 0.006063 0.000605 -0.006861 0.038725 -0.010292 -0.015929
# 5 -0.006820 -0.005136 -0.006540 -0.010292 0.044741 -0.001299
# 6 -0.002167 0.000500 -0.000905 -0.015929 -0.001299 0.036971
#
#
# Mechanical properties :
#
#
# Convention : Reuss Voigt Hill
#
# Bulk Modulus (GPa) = 28.49373 42.02004 35.25689
# Shear Modulus (GPa) = 21.99592 31.89193 26.94392
#
# Velocity S-wave (km/s) = 2.97098 3.57742 3.28821
# Velocity P-wave (km/s) = 4.81697 5.82461 5.34459
#
# Compressibility (1/GPa) = 0.03509544
#
# Stress axis : x y z
#
# Youngs Moduli (GPa) = 79.34209 41.94703 34.84998
#
# Poissons Ratio (x) = -0.07154 0.24054
# Poissons Ratio (y) = -0.13531 0.34238
# Poissons Ratio (z) = 0.54764 0.41210
#
# Static dielectric constant tensor:
#      x y z
#    x 1.954570 0.040880 0.009690 
#    y 0.040880 2.077500 0.039770 
#    z 0.009690 0.039770 2.051300 
# 
# From -- ./inp_files/89943.got.cif
#   From: 2010.05.17/outbox.cif.g08.bks.cpg/sg2_45_cif.got.tgz:89943.got - 2010.06.03 11:33:40.
