data_PCOD9099346
_publ_section_title
;
Structure prediction by ZEFSAII (Michael W. Deem and Ramdas Pophale) SiO2 
 PCOD9099346
Probable space group: P -1
;
_chemical_formula_sum "Si O2"
_cell_formula_units_Z 14
_cell_length_a 9.699849
_cell_length_b 16.078877
_cell_length_c 8.826515
_cell_angle_alpha 123.172984
_cell_angle_beta 48.097158
_cell_angle_gamma 145.428282
_cell_volume 581.371838
_symmetry_space_group_name_H-M "P -1"
_symmetry_group_IT_number 2
_symmetry_cell_setting 'triclinic'
loop_
_space_group_symop_operation_xyz
x,y,z
-x,-y,-z
loop_
_atom_site_type_symbol
_atom_site_label
_atom_site_fract_x
_atom_site_fract_y
_atom_site_fract_z
Si Si1 0.902477 0.657093 0.959630
Si Si2 0.552212 0.371042 0.720649
Si Si3 0.308838 0.098958 0.826519
Si Si4 0.301279 0.329856 0.435818
Si Si5 0.164373 0.720576 0.253998
Si Si6 0.762116 0.385666 0.263305
Si Si7 0.925302 0.193621 0.323115
O O1 0.734092 0.507117 0.838867
O O2 0.119875 0.677685 0.914465
O O3 0.057395 0.781757 0.842127
O O4 0.680576 0.643198 0.181658
O O5 0.407566 0.225597 0.771722
O O6 0.721787 0.393987 0.479286
O O7 0.515625 0.169510 0.887902
O O8 0.264811 0.973084 0.660222
O O9 0.000000 0.000000 0.000000
O O10 0.500000 0.500000 0.500000
O O11 0.464757 0.297212 0.329637
O O12 0.007595 0.249633 0.639618
O O13 0.225627 0.294578 0.277740
O O14 0.163263 0.742673 0.460240
O O15 0.981374 0.551077 0.202839
#
# Coordination Sequence:
#
# PCOD9099346 Si02
#       7
#     2   2   2   2   2   2   2
#     4  11  20  35  61  90 118 148 203 251 291 339
#     4  11  22  35  59  91 119 152 198 252 294 343
#     4  12  22  36  56  88 126 154 191 246 299 352
#     4   8  18  36  60  86 115 154 201 239 292 355
#     4   9  19  36  60  86 114 155 196 241 291 358
#     4  11  19  38  65  87 118 155 195 249 302 344
#     4  10  20  37  60  86 115 155 199 237 294 355
#
# _framework density 24.080976
#
# number of rings (size 3 to 8) (size 9 to 14) (size 15 to 20)
#    0.857    0.857    4.286    1.714    0.000    0.000 
#    0.000    2.143    0.000    7.714    0.000    0.000 
#    0.000    0.000    0.000    0.000    0.000    0.000 
#
# Total GULP energy -78137.532624 kJ/mol
# GULP energy per Si atom -5581.252330 kJ/mol
# Density = 2.402617 g / cm^3
# Si number density = 24.080976 Si / 1000 Ang^3
#
#
#
# Elastic Constant Matrix: (Units=GPa)
#
#
# Indices 1 2 3 4 5 6 
#
# 1 145.5567 37.1096 28.7557 -7.2867 -55.9213 6.4922
# 2 37.1096 108.0914 23.4032 -4.0588 -4.7028 -10.0829
# 3 28.7557 23.4032 106.7457 12.6925 -33.0160 2.9017
# 4 -7.2867 -4.0588 12.6925 24.1616 2.7083 -11.1080
# 5 -55.9213 -4.7028 -33.0160 2.7083 57.0630 -9.0165
# 6 6.4922 -10.0829 2.9017 -11.1080 -9.0165 32.3553
#
#
#
# Elastic Compliance Matrix: (Units=1/GPa)
#
#
# Indices 1 2 3 4 5 6 
#
# 1 0.012555 -0.004002 0.001295 0.001012 0.012675 -0.000003
# 2 -0.004002 0.012003 -0.003811 0.005919 -0.004524 0.005657
# 3 0.001295 -0.003811 0.013938 -0.010293 0.008916 -0.003746
# 4 0.001012 0.005919 -0.010293 0.058435 -0.003844 0.021555
# 5 0.012675 -0.004524 0.008916 -0.003844 0.035519 0.003826
# 6 -0.000003 0.005657 -0.003746 0.021555 0.003826 0.041472
#
#
# Mechanical properties :
#
#
# Convention : Reuss Voigt Hill
#
# Bulk Modulus (GPa) = 39.27325 59.88118 49.57721
# Shear Modulus (GPa) = 25.58288 40.79100 33.18694
#
# Velocity S-wave (km/s) = 3.26294 4.12018 3.71636
# Velocity P-wave (km/s) = 5.52629 6.89602 6.24880
#
# Compressibility (1/GPa) = 0.02546263
#
# Stress axis : x y z
#
# Youngs Moduli (GPa) = 79.65119 83.31017 71.74586
#
# Poissons Ratio (x) = 0.33337 -0.09293
# Poissons Ratio (y) = 0.31873 0.27339
# Poissons Ratio (z) = -0.10317 0.31746
#
# Static dielectric constant tensor:
#      x y z
#    x 2.086340 0.069010 -0.040380 
#    y 0.069010 1.910360 -0.007030 
#    z -0.040380 -0.007030 2.061440 
# 
# From -- ./inp_files/436860.got.cif
#   From: 2010.05.17/outbox.cif.g08.bks.cpg/sg2_219_cif.got.tgz:436860.got - 2010.06.03 11:33:40.
