data_PCOD9099882
_publ_section_title
;
Structure prediction by ZEFSAII (Michael W. Deem and Ramdas Pophale) SiO2 
 PCOD9099882
Probable space group: P -1
;
_chemical_formula_sum "Si O2"
_cell_formula_units_Z 16
_cell_length_a 7.915881
_cell_length_b 16.176436
_cell_length_c 11.800838
_cell_angle_alpha 121.003319
_cell_angle_beta 37.894280
_cell_angle_gamma 98.989360
_cell_volume 699.929819
_symmetry_space_group_name_H-M "P -1"
_symmetry_group_IT_number 2
_symmetry_cell_setting 'triclinic'
loop_
_space_group_symop_operation_xyz
x,y,z
-x,-y,-z
loop_
_atom_site_type_symbol
_atom_site_label
_atom_site_fract_x
_atom_site_fract_y
_atom_site_fract_z
Si Si1 0.204954 0.523121 0.316372
Si Si2 0.068487 0.756319 0.951022
Si Si3 0.626573 0.306518 0.587276
Si Si4 0.716614 0.738954 0.598969
Si Si5 0.809898 0.777117 0.335405
Si Si6 0.413473 0.299878 0.935239
Si Si7 0.653536 0.839616 0.938364
Si Si8 0.295081 0.014895 0.817122
O O1 0.414713 0.571609 0.295908
O O2 0.000000 0.500000 0.500000
O O3 0.960076 0.624397 0.443171
O O4 0.385102 0.413665 0.072329
O O5 0.066251 0.748308 0.082845
O O6 0.922961 0.684181 0.922061
O O7 0.829858 0.879995 0.124287
O O8 0.410168 0.732003 0.716891
O O9 0.356210 0.295968 0.659117
O O10 0.623783 0.262499 0.685129
O O11 0.967372 0.230475 0.301113
O O12 0.873252 0.763648 0.425678
O O13 0.600822 0.827587 0.825592
O O14 0.550928 0.903905 0.547765
O O15 0.486967 0.219174 0.946194
O O16 0.567476 0.954987 0.122604
O O17 0.000000 0.000000 0.000000
#
# Coordination Sequence:
#
# PCOD9099882 Si02
#       8
#     2   2   2   2   2   2   2   2
#     4  11  22  40  61  87 115 160 199 239 295 350
#     4  10  23  40  61  90 119 155 196 241 295 346
#     4  10  20  37  62  84 117 152 201 242 287 347
#     4  11  23  38  58  85 127 151 189 251 293 343
#     4  11  22  41  60  90 120 154 196 245 289 350
#     4  10  20  40  61  84 116 156 202 242 283 353
#     4  10  21  38  59  92 115 157 197 238 296 339
#     4  11  19  39  70  83 117 159 198 235 290 357
#
# _framework density 22.859435000000001
#
# number of rings (size 3 to 8) (size 9 to 14) (size 15 to 20)
#    0.000    1.500    5.000    1.500    0.000    3.000 
#    2.250    1.875    0.000    0.000    0.000    0.000 
#    0.000    0.000    0.000    0.000    0.000    0.000 
#
# Total GULP energy -89437.234340 kJ/mol
# GULP energy per Si atom -5589.827146 kJ/mol
# Density = 2.280741 g / cm^3
# Si number density = 22.859435 Si / 1000 Ang^3
#
#
#
# Elastic Constant Matrix: (Units=GPa)
#
#
# Indices 1 2 3 4 5 6 
#
# 1 80.9431 32.9132 4.7208 0.0082 25.0837 6.0966
# 2 32.9132 91.3040 24.5821 -8.7064 20.9589 -0.5673
# 3 4.7208 24.5821 69.6302 -18.6502 23.8743 -4.6645
# 4 0.0082 -8.7064 -18.6502 47.2764 -5.5233 19.9776
# 5 25.0837 20.9589 23.8743 -5.5233 38.3190 -3.7838
# 6 6.0966 -0.5673 -4.6645 19.9776 -3.7838 43.5838
#
#
#
# Elastic Compliance Matrix: (Units=1/GPa)
#
#
# Indices 1 2 3 4 5 6 
#
# 1 0.018203 -0.004924 0.004810 0.001088 -0.012425 -0.003673
# 2 -0.004924 0.014320 -0.003728 0.000983 -0.002161 -0.000162
# 3 0.004810 -0.003728 0.022004 0.007663 -0.014020 -0.003096
# 4 0.001088 0.000983 0.007663 0.029546 -0.003062 -0.013128
# 5 -0.012425 -0.002161 -0.014020 -0.003062 0.044244 0.005454
# 6 -0.003673 -0.000162 -0.003096 -0.013128 0.005454 0.029616
#
#
# Mechanical properties :
#
#
# Convention : Reuss Voigt Hill
#
# Bulk Modulus (GPa) = 21.34827 40.70105 31.02466
# Shear Modulus (GPa) = 27.58917 37.81326 32.70121
#
# Velocity S-wave (km/s) = 3.47782 4.07155 3.78634
# Velocity P-wave (km/s) = 5.04839 6.32036 5.71984
#
# Compressibility (1/GPa) = 0.04684221
#
# Stress axis : x y z
#
# Youngs Moduli (GPa) = 54.93649 69.83347 45.44667
#
# Poissons Ratio (x) = 0.34383 -0.21858
# Poissons Ratio (y) = 0.27048 0.16943
# Poissons Ratio (z) = -0.26423 0.26035
#
# Static dielectric constant tensor:
#      x y z
#    x 1.931870 0.000760 0.036080 
#    y 0.000760 1.837290 -0.020660 
#    z 0.036080 -0.020660 1.815810 
# 
# From -- ./inp_files/282397.got.cif
#   From: 2010.05.17/outbox.cif.g08.bks.cpg/sg2_142_cif.got.tgz:282397.got - 2010.06.03 11:33:40.
