data_PCOD9099335
_publ_section_title
;
Structure prediction by ZEFSAII (Michael W. Deem and Ramdas Pophale) SiO2 
 PCOD9099335
Probable space group: P -1
;
_chemical_formula_sum "Si O2"
_cell_formula_units_Z 14
_cell_length_a 9.921482
_cell_length_b 14.413253
_cell_length_c 17.526637
_cell_angle_alpha 38.385719
_cell_angle_beta 51.525368
_cell_angle_gamma 25.850321
_cell_volume 645.713198
_symmetry_space_group_name_H-M "P -1"
_symmetry_group_IT_number 2
_symmetry_cell_setting 'triclinic'
loop_
_space_group_symop_operation_xyz
x,y,z
-x,-y,-z
loop_
_atom_site_type_symbol
_atom_site_label
_atom_site_fract_x
_atom_site_fract_y
_atom_site_fract_z
Si Si1 0.410108 0.151828 0.806699
Si Si2 0.516832 0.222759 0.035228
Si Si3 0.219825 0.824997 0.310777
Si Si4 0.050400 0.969071 0.108032
Si Si5 0.855207 0.439051 0.906488
Si Si6 0.058757 0.837403 0.518260
Si Si7 0.751196 0.769800 0.625149
O O1 0.671817 0.083419 0.775647
O O2 0.213938 0.241662 0.892976
O O3 0.106598 0.451842 0.674114
O O4 0.540623 0.907458 0.878865
O O5 0.253679 0.477005 0.022522
O O6 0.855069 0.995538 0.109138
O O7 0.597997 0.254354 0.909230
O O8 0.008256 0.934736 0.387232
O O9 0.561916 0.485476 0.406297
O O10 0.066317 0.914405 0.225135
O O11 0.862055 0.267451 0.981454
O O12 0.645442 0.709455 0.755132
O O13 0.842288 0.847300 0.594133
O O14 0.000000 0.000000 0.500000
O O15 0.500000 0.000000 0.500000
#
# Coordination Sequence:
#
# PCOD9099335 Si02
#       7
#     2   2   2   2   2   2   2
#     4   8  20  37  56  83 116 144 193 235 281 345
#     4  10  20  37  60  85 119 146 195 240 280 347
#     4  10  22  40  60  83 122 153 185 242 290 333
#     4  10  22  38  59  89 116 151 190 239 294 337
#     4   9  20  37  58  83 119 145 189 242 284 338
#     4  10  23  41  59  87 117 152 198 233 279 353
#     4   9  20  39  60  83 115 150 193 239 286 335
#
# _framework density 21.681453999999999
#
# number of rings (size 3 to 8) (size 9 to 14) (size 15 to 20)
#    0.857    1.714    0.000    0.429    4.000    4.571 
#    0.000    2.143    0.000    0.000    0.000    0.000 
#    0.000    0.000    0.000    0.000    0.000    0.000 
#
# Total GULP energy -78079.794139 kJ/mol
# GULP energy per Si atom -5577.128153 kJ/mol
# Density = 2.163211 g / cm^3
# Si number density = 21.681454 Si / 1000 Ang^3
#
#
#
# Elastic Constant Matrix: (Units=GPa)
#
#
# Indices 1 2 3 4 5 6 
#
# 1 51.4404 19.7719 11.2468 1.2347 1.0117 18.1395
# 2 19.7719 87.9588 30.6901 12.0426 -1.7898 29.3099
# 3 11.2468 30.6901 75.1531 13.5708 23.2292 4.4453
# 4 1.2347 12.0426 13.5708 25.5290 1.2446 5.3208
# 5 1.0117 -1.7898 23.2292 1.2446 24.4777 -2.0907
# 6 18.1395 29.3099 4.4453 5.3208 -2.0907 32.4917
#
#
#
# Elastic Compliance Matrix: (Units=1/GPa)
#
#
# Indices 1 2 3 4 5 6 
#
# 1 0.025151 -0.000105 -0.004007 0.003800 0.001372 -0.013932
# 2 -0.000105 0.020927 -0.010421 -0.001375 0.010083 -0.016519
# 3 -0.004007 -0.010421 0.027295 -0.009807 -0.025327 0.007880
# 4 0.003800 -0.001375 -0.009807 0.045940 0.006144 -0.006667
# 5 0.001372 0.010083 -0.025327 0.006144 0.064982 -0.003222
# 6 -0.013932 -0.016519 0.007880 -0.006667 -0.003222 0.053263
#
#
# Mechanical properties :
#
#
# Convention : Reuss Voigt Hill
#
# Bulk Modulus (GPa) = 22.57060 37.55219 30.06139
# Shear Modulus (GPa) = 17.76870 26.68925 22.22898
#
# Velocity S-wave (km/s) = 2.86586 3.51233 3.20543
# Velocity P-wave (km/s) = 4.62423 5.81431 5.25308
#
# Compressibility (1/GPa) = 0.04430543
#
# Stress axis : x y z
#
# Youngs Moduli (GPa) = 39.75928 47.78584 36.63678
#
# Poissons Ratio (x) = 0.00503 0.14682
# Poissons Ratio (y) = 0.00418 0.38180
# Poissons Ratio (z) = 0.15933 0.49799
#
# Static dielectric constant tensor:
#      x y z
#    x 1.765650 -0.044310 0.003620 
#    y -0.044310 1.801020 0.003320 
#    z 0.003620 0.003320 1.869890 
# 
# From -- ./inp_files/500010.got.cif
#   From: 2010.05.17/outbox.cif.g08.bks.cpg/sg2_251_cif.got.tgz:500010.got - 2010.06.03 11:33:40.
