data_PCOD9099250
_publ_section_title
;
Structure prediction by ZEFSAII (Michael W. Deem and Ramdas Pophale) SiO2 
 PCOD9099250
Probable space group: P -1
;
_chemical_formula_sum "Si O2"
_cell_formula_units_Z 14
_cell_length_a 8.389850
_cell_length_b 9.879154
_cell_length_c 8.585808
_cell_angle_alpha 92.721291
_cell_angle_beta 57.811515
_cell_angle_gamma 113.049798
_cell_volume 542.185796
_symmetry_space_group_name_H-M "P -1"
_symmetry_group_IT_number 2
_symmetry_cell_setting 'triclinic'
loop_
_space_group_symop_operation_xyz
x,y,z
-x,-y,-z
loop_
_atom_site_type_symbol
_atom_site_label
_atom_site_fract_x
_atom_site_fract_y
_atom_site_fract_z
Si Si1 0.399833 0.176043 0.095340
Si Si2 0.761375 0.624383 0.689291
Si Si3 0.181387 0.845797 0.615377
Si Si4 0.155106 0.302283 0.705561
Si Si5 0.472102 0.715135 0.303774
Si Si6 0.234397 0.846328 0.922277
Si Si7 0.000000 0.000000 0.500000
Si Si8 0.000000 0.500000 0.000000
O O1 0.429901 0.341804 0.150301
O O2 0.566388 0.125384 0.077150
O O3 0.173445 0.079555 0.275973
O O4 0.417578 0.188365 0.901369
O O5 0.843500 0.708621 0.483389
O O6 0.687213 0.449458 0.688550
O O7 0.952380 0.699148 0.715010
O O8 0.344105 0.787480 0.464808
O O9 0.242152 0.919692 0.756838
O O10 0.172930 0.967274 0.508419
O O11 0.365184 0.310962 0.671340
O O12 0.113612 0.441009 0.796109
O O13 0.957374 0.162816 0.873536
O O14 0.160894 0.672912 0.899105
#
# Coordination Sequence:
#
# PCOD9099250 Si02
#       8
#     2   2   2   2   2   2   1   1
#     4  11  24  42  65  93 130 172 218 265 324 368
#     4  11  22  37  62  98 136 169 206 264 324 398
#     4  11  24  42  65  94 130 171 221 262 325 371
#     4  10  20  37  59  94 141 166 203 250 322 397
#     4  12  23  37  65  98 129 169 211 268 328 393
#     4  10  21  38  64  94 131 169 205 263 319 390
#     4  10  26  48  64  86 126 172 230 278 300 386
#     4   8  20  32  62  92 138 160 196 244 318 398
#
# _framework density 25.821404999999999
#
# number of rings (size 3 to 8) (size 9 to 14) (size 15 to 20)
#    0.857    0.571    0.000    6.429    2.000    1.143 
#    0.000    0.000    0.000    9.429    0.000    0.000 
#    0.000    0.000    0.000    0.000    0.000    0.000 
#
# Total GULP energy -77946.234134 kJ/mol
# GULP energy per Si atom -5567.588152 kJ/mol
# Density = 2.576263 g / cm^3
# Si number density = 25.821405 Si / 1000 Ang^3
#
#
#
# Elastic Constant Matrix: (Units=GPa)
#
#
# Indices 1 2 3 4 5 6 
#
# 1 138.6704 39.2293 55.5778 19.6489 11.0603 1.0554
# 2 39.2293 84.4730 25.6382 22.7036 18.5257 7.2047
# 3 55.5778 25.6382 137.0077 6.7074 18.6968 1.9041
# 4 19.6489 22.7036 6.7074 40.4750 9.1755 -0.7472
# 5 11.0603 18.5257 18.6968 9.1755 35.5244 3.7879
# 6 1.0554 7.2047 1.9041 -0.7472 3.7879 28.7961
#
#
#
# Elastic Compliance Matrix: (Units=1/GPa)
#
#
# Indices 1 2 3 4 5 6 
#
# 1 0.009721 -0.003017 -0.003387 -0.002679 0.000976 0.000425
# 2 -0.003017 0.016728 -0.000814 -0.006655 -0.005264 -0.003501
# 3 -0.003387 -0.000814 0.009269 0.001430 -0.003796 0.000251
# 4 -0.002679 -0.006655 0.001430 0.030622 -0.004685 0.003080
# 5 0.000976 -0.005264 -0.003796 -0.004685 0.034127 -0.003079
# 6 0.000425 -0.003501 0.000251 0.003080 -0.003079 0.036056
#
#
# Mechanical properties :
#
#
# Convention : Reuss Voigt Hill
#
# Bulk Modulus (GPa) = 46.98416 66.78240 56.88328
# Shear Modulus (GPa) = 31.63535 36.93950 34.28742
#
# Velocity S-wave (km/s) = 3.50403 3.78640 3.64795
# Velocity P-wave (km/s) = 5.88271 6.71082 6.31036
#
# Compressibility (1/GPa) = 0.02128377
#
# Stress axis : x y z
#
# Youngs Moduli (GPa) = 102.87446 59.78131 107.88113
#
# Poissons Ratio (x) = 0.18033 0.36535
# Poissons Ratio (y) = 0.31033 0.08779
# Poissons Ratio (z) = 0.34840 0.04865
#
# Static dielectric constant tensor:
#      x y z
#    x 1.690110 -0.352290 -0.214440 
#    y -0.352290 1.416430 -0.415610 
#    z -0.214440 -0.415610 1.805480 
# 
# From -- ./inp_files/169148.got.cif
#   From: 2010.05.17/outbox.cif.g08.bks.cpg/sg2_85_cif.got.tgz:169148.got - 2010.06.03 11:33:40.
