data_PCOD9099625
_publ_section_title
;
Structure prediction by ZEFSAII (Michael W. Deem and Ramdas Pophale) SiO2 
 PCOD9099625
Probable space group: P -1
;
_chemical_formula_sum "Si O2"
_cell_formula_units_Z 16
_cell_length_a 18.686687
_cell_length_b 9.768734
_cell_length_c 6.517079
_cell_angle_alpha 45.688015
_cell_angle_beta 113.547827
_cell_angle_gamma 120.316236
_cell_volume 732.730083
_symmetry_space_group_name_H-M "P -1"
_symmetry_group_IT_number 2
_symmetry_cell_setting 'triclinic'
loop_
_space_group_symop_operation_xyz
x,y,z
-x,-y,-z
loop_
_atom_site_type_symbol
_atom_site_label
_atom_site_fract_x
_atom_site_fract_y
_atom_site_fract_z
Si Si1 0.820339 0.640110 0.774718
Si Si2 0.124389 0.003237 0.244637
Si Si3 0.591529 0.156286 0.401567
Si Si4 0.944315 0.749512 0.422779
Si Si5 0.466463 0.561489 0.191120
Si Si6 0.371684 0.227177 0.129342
Si Si7 0.706141 0.491829 0.435525
Si Si8 0.153968 0.610066 0.555250
O O1 0.894860 0.715712 0.614655
O O2 0.737586 0.531603 0.661247
O O3 0.817241 0.830406 0.707121
O O4 0.840364 0.487677 0.115385
O O5 0.156752 0.837445 0.352914
O O6 0.041654 0.873320 0.412976
O O7 0.094958 0.125108 0.906656
O O8 0.620367 0.316706 0.454680
O O9 0.500000 0.000000 0.500000
O O10 0.645614 0.009914 0.609049
O O11 0.585417 0.284834 0.058825
O O12 0.925840 0.532607 0.514633
O O13 0.500000 0.500000 0.500000
O O14 0.406529 0.352644 0.242677
O O15 0.550030 0.675854 0.036618
O O16 0.299417 0.298481 0.880356
O O17 0.771950 0.420391 0.460693
#
# Coordination Sequence:
#
# PCOD9099625 Si02
#       8
#     2   2   2   2   2   2   2   2
#     4  10  22  37  56  85 117 150 193 236 284 341
#     4  10  20  37  61  87 115 151 194 235 282 340
#     4   9  19  37  59  82 107 145 190 231 284 340
#     4   9  20  38  59  85 118 151 188 239 287 333
#     4   9  18  34  57  85 111 135 177 237 287 336
#     4   9  19  36  56  77 110 148 183 226 281 343
#     4  10  22  38  56  81 119 153 187 239 289 337
#     4  10  22  37  56  86 118 152 194 234 282 342
#
# _framework density 21.836145999999999
#
# number of rings (size 3 to 8) (size 9 to 14) (size 15 to 20)
#    0.000    2.500    0.000    1.500    0.000    9.000 
#    0.000    2.500    0.000    1.500    0.000    0.000 
#    0.000    0.000    0.000    0.000    0.000    0.000 
#
# Total GULP energy -89322.432127 kJ/mol
# GULP energy per Si atom -5582.652008 kJ/mol
# Density = 2.178645 g / cm^3
# Si number density = 21.836146 Si / 1000 Ang^3
#
#
#
# Elastic Constant Matrix: (Units=GPa)
#
#
# Indices 1 2 3 4 5 6 
#
# 1 56.3015 27.6376 4.6462 -9.4473 5.6377 -4.6269
# 2 27.6376 121.1864 64.9159 -13.6992 11.0485 -10.8733
# 3 4.6462 64.9159 76.2388 -3.5125 6.0673 -18.2586
# 4 -9.4473 -13.6992 -3.5125 39.4357 -11.5223 12.9458
# 5 5.6377 11.0485 6.0673 -11.5223 26.0517 -8.6398
# 6 -4.6269 -10.8733 -18.2586 12.9458 -8.6398 37.4917
#
#
#
# Elastic Compliance Matrix: (Units=1/GPa)
#
#
# Indices 1 2 3 4 5 6 
#
# 1 0.021610 -0.007508 0.005830 0.001958 -0.001196 0.002377
# 2 -0.007508 0.019231 -0.016877 0.004523 -0.002492 -0.005704
# 3 0.005830 -0.016877 0.029805 -0.005738 0.000544 0.012447
# 4 0.001958 0.004523 -0.005738 0.033295 0.010282 -0.010368
# 5 -0.001196 -0.002492 0.000544 0.010282 0.046280 0.006510
# 6 0.002377 -0.005704 0.012447 -0.010368 0.006510 0.036454
#
#
# Mechanical properties :
#
#
# Convention : Reuss Voigt Hill
#
# Bulk Modulus (GPa) = 29.81756 49.79178 39.80467
# Shear Modulus (GPa) = 21.28014 31.03095 26.15555
#
# Velocity S-wave (km/s) = 3.12515 3.77381 3.46469
# Velocity P-wave (km/s) = 5.16786 6.46845 5.85439
#
# Compressibility (1/GPa) = 0.03353729
#
# Stress axis : x y z
#
# Youngs Moduli (GPa) = 46.27589 51.99943 33.55169
#
# Poissons Ratio (x) = 0.39040 -0.19562
# Poissons Ratio (y) = 0.34743 0.56624
# Poissons Ratio (z) = -0.26981 0.87758
#
# Static dielectric constant tensor:
#      x y z
#    x 1.892960 0.026570 0.031550 
#    y 0.026570 1.797750 -0.007820 
#    z 0.031550 -0.007820 1.778480 
# 
# From -- ./inp_files/106100.got.cif
#   From: 2010.05.17/outbox.cif.g08.bks.cpg/sg2_54_cif.got.tgz:106100.got - 2010.06.03 11:33:40.
