data_PCOD9099252
_publ_section_title
;
Structure prediction by ZEFSAII (Michael W. Deem and Ramdas Pophale) SiO2 
 PCOD9099252
Probable space group: P -1
;
_chemical_formula_sum "Si O2"
_cell_formula_units_Z 16
_cell_length_a 8.133707
_cell_length_b 14.883967
_cell_length_c 12.270280
_cell_angle_alpha 140.996387
_cell_angle_beta 64.307469
_cell_angle_gamma 95.058227
_cell_volume 757.123994
_symmetry_space_group_name_H-M "P -1"
_symmetry_group_IT_number 2
_symmetry_cell_setting 'triclinic'
loop_
_space_group_symop_operation_xyz
x,y,z
-x,-y,-z
loop_
_atom_site_type_symbol
_atom_site_label
_atom_site_fract_x
_atom_site_fract_y
_atom_site_fract_z
Si Si1 0.235366 0.979927 0.994710
Si Si2 0.466670 0.463180 0.658320
Si Si3 0.960816 0.705776 0.515686
Si Si4 0.593950 0.896569 0.269434
Si Si5 0.807891 0.470170 0.411178
Si Si6 0.585958 0.555391 0.923322
Si Si7 0.040745 0.145434 0.990410
Si Si8 0.417015 0.152291 0.374789
O O1 0.095214 0.133343 0.249786
O O2 0.158370 0.014779 0.924410
O O3 0.472855 0.912096 0.835157
O O4 0.181303 0.848155 0.941763
O O5 0.660749 0.461324 0.537479
O O6 0.292720 0.521871 0.671567
O O7 0.445370 0.563987 0.867719
O O8 0.485507 0.288561 0.519307
O O9 0.865639 0.613788 0.530526
O O10 0.822276 0.761517 0.499516
O O11 0.190823 0.585421 0.305654
O O12 0.500000 0.000000 0.500000
O O13 0.477627 0.007036 0.303577
O O14 0.593252 0.724101 0.101919
O O15 0.823325 0.879818 0.177070
O O16 0.013451 0.310631 0.203287
O O17 0.500000 0.500000 0.000000
#
# Coordination Sequence:
#
# PCOD9099252 Si02
#       8
#     2   2   2   2   2   2   2   2
#     4  10  21  34  64  93 134 162 201 255 322 381
#     4  10  22  39  66  92 135 161 203 259 317 380
#     4  11  24  39  65  96 129 165 209 261 314 382
#     4  11  25  44  65  88 125 170 217 264 312 368
#     4  10  20  39  62 100 126 163 200 259 326 373
#     4  12  27  45  65  92 125 172 221 263 311 371
#     4  10  20  37  59  95 121 164 207 251 321 374
#     4  10  22  43  63  95 129 166 204 255 323 374
#
# _framework density 21.132601999999999
#
# number of rings (size 3 to 8) (size 9 to 14) (size 15 to 20)
#    0.000    1.500    2.500    1.875    8.750    2.000 
#    2.250    2.500    0.000    0.000    0.000    0.000 
#    0.000    0.000    0.000    0.000    0.000    0.000 
#
# Total GULP energy -89179.939944 kJ/mol
# GULP energy per Si atom -5573.746246 kJ/mol
# Density = 2.108450 g / cm^3
# Si number density = 21.132602 Si / 1000 Ang^3
#
#
#
# Elastic Constant Matrix: (Units=GPa)
#
#
# Indices 1 2 3 4 5 6 
#
# 1 47.1953 29.3540 34.9705 -11.8803 0.0312 4.1031
# 2 29.3540 127.3980 54.9384 1.8506 4.8061 17.2583
# 3 34.9705 54.9384 115.6521 -2.0402 18.7999 8.4089
# 4 -11.8803 1.8506 -2.0402 43.4398 -1.4800 -0.1498
# 5 0.0312 4.8061 18.7999 -1.4800 29.6730 5.1863
# 6 4.1031 17.2583 8.4089 -0.1498 5.1863 16.7532
#
#
#
# Elastic Compliance Matrix: (Units=1/GPa)
#
#
# Indices 1 2 3 4 5 6 
#
# 1 0.032509 -0.003841 -0.008857 0.008869 0.006925 -0.001624
# 2 -0.003841 0.011791 -0.004134 -0.001701 0.002355 -0.009875
# 3 -0.008857 -0.004134 0.014579 -0.001861 -0.008978 0.001873
# 4 0.008869 -0.001701 -0.001861 0.025524 0.002736 -0.000105
# 5 0.006925 0.002355 -0.008978 0.002736 0.041300 -0.012376
# 6 -0.001624 -0.009875 0.001873 -0.000105 -0.012376 0.073150
#
#
# Mechanical properties :
#
#
# Convention : Reuss Voigt Hill
#
# Bulk Modulus (GPa) = 39.65926 58.75236 49.20581
# Shear Modulus (GPa) = 20.75353 29.37205 25.06279
#
# Velocity S-wave (km/s) = 3.13719 3.73217 3.44754
# Velocity P-wave (km/s) = 5.65068 6.81427 6.25957
#
# Compressibility (1/GPa) = 0.02521479
#
# Stress axis : x y z
#
# Youngs Moduli (GPa) = 30.76037 84.81064 68.59193
#
# Poissons Ratio (x) = 0.32579 0.60749
# Poissons Ratio (y) = 0.11816 0.28358
# Poissons Ratio (z) = 0.27243 0.35064
#
# Static dielectric constant tensor:
#      x y z
#    x 1.896730 0.006150 -0.032670 
#    y 0.006150 1.752720 0.008070 
#    z -0.032670 0.008070 1.758030 
# 
# From -- ./inp_files/397869.got.cif
#   From: 2010.05.17/outbox.cif.g08.bks.cpg/sg2_199_cif.got.tgz:397869.got - 2010.06.03 11:33:40.
