data_PCOD9099602
_publ_section_title
;
Structure prediction by ZEFSAII (Michael W. Deem and Ramdas Pophale) SiO2 
 PCOD9099602
Probable space group: P -1
;
_chemical_formula_sum "Si O2"
_cell_formula_units_Z 16
_cell_length_a 9.374184
_cell_length_b 11.216928
_cell_length_c 12.279303
_cell_angle_alpha 128.301469
_cell_angle_beta 124.295317
_cell_angle_gamma 88.746418
_cell_volume 722.550181
_symmetry_space_group_name_H-M "P -1"
_symmetry_group_IT_number 2
_symmetry_cell_setting 'triclinic'
loop_
_space_group_symop_operation_xyz
x,y,z
-x,-y,-z
loop_
_atom_site_type_symbol
_atom_site_label
_atom_site_fract_x
_atom_site_fract_y
_atom_site_fract_z
Si Si1 0.299407 0.104580 0.769166
Si Si2 0.054830 0.870170 0.122614
Si Si3 0.018939 0.808979 0.315296
Si Si4 0.342282 0.151147 0.061405
Si Si5 0.546021 0.548886 0.419441
Si Si6 0.161143 0.541090 0.258937
Si Si7 0.664062 0.087575 0.911816
Si Si8 0.047365 0.401819 0.369273
O O1 0.519159 0.158775 0.854257
O O2 0.208862 0.233593 0.793431
O O3 0.146635 0.932565 0.539315
O O4 0.309257 0.071196 0.882458
O O5 0.087733 0.911439 0.287637
O O6 0.246715 0.957413 0.179330
O O7 0.877384 0.898503 0.019240
O O8 0.960287 0.659360 0.949098
O O9 0.061015 0.650300 0.238044
O O10 0.467223 0.360810 0.221032
O O11 0.438590 0.082329 0.150920
O O12 0.500000 0.500000 0.500000
O O13 0.392013 0.616342 0.364906
O O14 0.783585 0.650469 0.559386
O O15 0.137521 0.525572 0.371302
O O16 0.844080 0.234543 0.145136
O O17 0.000000 0.500000 0.500000
#
# Coordination Sequence:
#
# PCOD9099602 Si02
#       8
#     2   2   2   2   2   2   2   2
#     4  10  23  37  58  84 114 153 198 232 277 351
#     4   9  20  38  56  87 115 146 190 244 281 332
#     4  10  21  40  59  79 112 158 202 229 270 350
#     4  10  20  37  61  86 117 151 187 233 292 348
#     4   9  19  35  58  86 116 148 194 227 276 355
#     4   9  19  36  61  79 110 156 194 231 279 337
#     4  11  22  36  58  88 122 145 181 244 303 324
#     4  10  21  35  54  89 125 144 182 238 290 344
#
# _framework density 22.143792000000001
#
# number of rings (size 3 to 8) (size 9 to 14) (size 15 to 20)
#    0.000    2.250    0.000    2.625    5.250    0.500 
#    0.000    3.750    0.000    0.000    0.000    0.000 
#    0.000    0.000    0.000    0.000    0.000    0.000 
#
# Total GULP energy -89308.872702 kJ/mol
# GULP energy per Si atom -5581.804544 kJ/mol
# Density = 2.209339 g / cm^3
# Si number density = 22.143792 Si / 1000 Ang^3
#
#
#
# Elastic Constant Matrix: (Units=GPa)
#
#
# Indices 1 2 3 4 5 6 
#
# 1 100.5343 9.4343 16.7858 -5.0556 4.8156 -34.0684
# 2 9.4343 46.6587 2.8602 -5.6837 3.9659 -31.3694
# 3 16.7858 2.8602 67.9851 -5.9137 -7.5604 3.2202
# 4 -5.0556 -5.6837 -5.9137 19.2497 3.3091 -3.8537
# 5 4.8156 3.9659 -7.5604 3.3091 40.9394 -13.8949
# 6 -34.0684 -31.3694 3.2202 -3.8537 -13.8949 39.6081
#
#
#
# Elastic Compliance Matrix: (Units=1/GPa)
#
#
# Indices 1 2 3 4 5 6 
#
# 1 0.032366 0.044540 -0.009222 0.031011 0.011770 0.071011
# 2 0.044540 0.121275 -0.014366 0.068904 0.026181 0.151416
# 3 -0.009222 -0.014366 0.018034 -0.005271 -0.001127 -0.021685
# 4 0.031011 0.068904 -0.005271 0.095665 0.013452 0.095701
# 5 0.011770 0.026181 -0.001127 0.013452 0.034235 0.044269
# 6 0.071011 0.151416 -0.021685 0.095701 0.044269 0.232852
#
#
# Mechanical properties :
#
#
# Convention : Reuss Voigt Hill
#
# Bulk Modulus (GPa) = 4.68214 30.37096 17.52655
# Shear Modulus (GPa) = 8.86970 32.36597 20.61784
#
# Velocity S-wave (km/s) = 2.00355 3.82727 3.05469
# Velocity P-wave (km/s) = 2.73336 5.76852 4.51370
#
# Compressibility (1/GPa) = 0.21357756
#
# Stress axis : x y z
#
# Youngs Moduli (GPa) = 30.89629 8.24573 55.45126
#
# Poissons Ratio (x) = -0.36726 0.51140
# Poissons Ratio (y) = -1.37612 0.79662
# Poissons Ratio (z) = 0.28494 0.11846
#
# Static dielectric constant tensor:
#      x y z
#    x 1.872640 -0.028100 0.020690 
#    y -0.028100 1.838200 0.004760 
#    z 0.020690 0.004760 1.839320 
# 
# From -- ./inp_files/237878.got.cif
#   From: 2010.05.17/outbox.cif.g08.bks.cpg/sg2_119_cif.got.tgz:237878.got - 2010.06.03 11:33:40.
