data_PCOD9099919
_publ_section_title
;
Structure prediction by ZEFSAII (Michael W. Deem and Ramdas Pophale) SiO2 
 PCOD9099919
Probable space group: P -1
;
_chemical_formula_sum "Si O2"
_cell_formula_units_Z 16
_cell_length_a 9.288368
_cell_length_b 12.356780
_cell_length_c 13.874409
_cell_angle_alpha 116.380649
_cell_angle_beta 103.386590
_cell_angle_gamma 33.089312
_cell_volume 745.894928
_symmetry_space_group_name_H-M "P -1"
_symmetry_group_IT_number 2
_symmetry_cell_setting 'triclinic'
loop_
_space_group_symop_operation_xyz
x,y,z
-x,-y,-z
loop_
_atom_site_type_symbol
_atom_site_label
_atom_site_fract_x
_atom_site_fract_y
_atom_site_fract_z
Si Si1 0.837316 0.853150 0.686212
Si Si2 0.193362 0.693653 0.852763
Si Si3 0.389541 0.219244 0.485843
Si Si4 0.581695 0.649945 0.130514
Si Si5 0.707891 0.464713 0.506367
Si Si6 0.353536 0.834796 0.954090
Si Si7 0.908851 0.564937 0.900316
Si Si8 0.091779 0.296017 0.644498
O O1 0.749932 0.777899 0.612270
O O2 0.035573 0.728714 0.759385
O O3 0.014655 0.777724 0.594492
O O4 0.582399 0.118464 0.768463
O O5 0.440715 0.450548 0.845130
O O6 0.311265 0.740669 0.851134
O O7 0.947260 0.903100 0.970248
O O8 0.376047 0.366071 0.508809
O O9 0.239580 0.291626 0.593124
O O10 0.700383 0.958582 0.431091
O O11 0.911493 0.444952 0.109353
O O12 0.476385 0.708146 0.027814
O O13 0.500000 0.500000 0.500000
O O14 0.801266 0.462015 0.618604
O O15 0.580495 0.773801 0.927176
O O16 0.035053 0.375419 0.775759
O O17 0.000000 0.500000 0.000000
#
# Coordination Sequence:
#
# PCOD9099919 Si02
#       8
#     2   2   2   2   2   2   2   2
#     4  10  21  38  59  92 120 155 213 256 301 391
#     4  10  21  36  64  82 122 170 202 247 320 369
#     4  10  22  42  69  92 123 167 217 258 315 388
#     4  10  20  37  62  87 118 166 209 252 309 371
#     4  11  26  42  62  99 129 159 210 268 322 382
#     4   9  21  40  53  89 126 160 208 258 298 377
#     4  10  21  38  63  94 129 156 211 267 304 370
#     4  10  21  41  68  91 127 172 206 261 320 370
#
# _framework density 21.450741000000001
#
# number of rings (size 3 to 8) (size 9 to 14) (size 15 to 20)
#    0.000    2.000    1.250    1.875    5.250    1.000 
#    2.250    2.500    0.000    0.000    0.000    0.000 
#    0.000    0.000    0.000    0.000    0.000    0.000 
#
# Total GULP energy -89170.403042 kJ/mol
# GULP energy per Si atom -5573.150190 kJ/mol
# Density = 2.140192 g / cm^3
# Si number density = 21.450741 Si / 1000 Ang^3
#
#
#
# Elastic Constant Matrix: (Units=GPa)
#
#
# Indices 1 2 3 4 5 6 
#
# 1 106.7032 28.3556 26.2757 8.7522 6.2426 -2.7690
# 2 28.3556 81.3109 24.9420 -2.1383 5.6058 4.5186
# 3 26.2757 24.9420 99.2949 -12.4331 1.9600 9.2245
# 4 8.7522 -2.1383 -12.4331 22.0359 -4.1520 0.5735
# 5 6.2426 5.6058 1.9600 -4.1520 13.1671 8.4916
# 6 -2.7690 4.5186 9.2245 0.5735 8.4916 22.8642
#
#
#
# Elastic Compliance Matrix: (Units=1/GPa)
#
#
# Indices 1 2 3 4 5 6 
#
# 1 0.013357 -0.003048 -0.004793 -0.011212 -0.014093 0.009669
# 2 -0.003048 0.014475 -0.002621 0.000472 -0.003642 -0.000832
# 3 -0.004793 -0.002621 0.014274 0.012225 0.011927 -0.010557
# 4 -0.011212 0.000472 0.012225 0.064484 0.037855 -0.022060
# 5 -0.014093 -0.003642 0.011927 0.037855 0.129776 -0.054947
# 6 0.009669 -0.000832 -0.010557 -0.022060 -0.054947 0.070291
#
#
# Mechanical properties :
#
#
# Convention : Reuss Voigt Hill
#
# Bulk Modulus (GPa) = 47.21128 49.60621 48.40874
# Shear Modulus (GPa) = 14.94129 25.46248 20.20189
#
# Velocity S-wave (km/s) = 2.64207 3.44905 3.07217
# Velocity P-wave (km/s) = 5.60038 6.24797 5.93302
#
# Compressibility (1/GPa) = 0.02118138
#
# Stress axis : x y z
#
# Youngs Moduli (GPa) = 74.86610 69.08306 70.05841
#
# Poissons Ratio (x) = 0.21060 0.33578
# Poissons Ratio (y) = 0.22823 0.18363
# Poissons Ratio (z) = 0.35882 0.18108
#
# Static dielectric constant tensor:
#      x y z
#    x 1.838440 -0.029650 0.013640 
#    y -0.029650 1.811040 -0.032760 
#    z 0.013640 -0.032760 1.821690 
# 
# From -- ./inp_files/500710.got.cif
#   From: 2010.05.17/outbox.cif.g08.bks.cpg/sg2_251_cif.got.tgz:500710.got - 2010.06.03 11:33:40.
