data_PCOD9099863
_publ_section_title
;
Structure prediction by ZEFSAII (Michael W. Deem and Ramdas Pophale) SiO2 
 PCOD9099863
Probable space group: P -1
;
_chemical_formula_sum "Si O2"
_cell_formula_units_Z 12
_cell_length_a 22.943798
_cell_length_b 5.602669
_cell_length_c 15.116390
_cell_angle_alpha 52.961201
_cell_angle_beta 16.783062
_cell_angle_gamma 55.965552
_cell_volume 446.652594
_symmetry_space_group_name_H-M "P -1"
_symmetry_group_IT_number 2
_symmetry_cell_setting 'triclinic'
loop_
_space_group_symop_operation_xyz
x,y,z
-x,-y,-z
loop_
_atom_site_type_symbol
_atom_site_label
_atom_site_fract_x
_atom_site_fract_y
_atom_site_fract_z
Si Si1 0.835488 0.710389 0.955458
Si Si2 0.932019 0.654391 0.154012
Si Si3 0.265916 0.189024 0.337412
Si Si4 0.796550 0.290044 0.963589
Si Si5 0.788229 0.902761 0.752990
Si Si6 0.459996 0.213116 0.227683
O O1 0.973153 0.547135 0.862887
O O2 0.717479 0.446608 0.130687
O O3 0.999258 0.896559 0.610024
O O4 0.715406 0.965475 0.120346
O O5 0.688645 0.667855 0.510079
O O6 0.000000 0.500000 0.000000
O O7 0.000000 0.000000 0.000000
O O8 0.309765 0.029581 0.216399
O O9 0.315536 0.081813 0.386937
O O10 0.028639 0.234306 0.663980
O O11 0.392367 0.504704 0.077952
O O12 0.802226 0.546465 0.822589
O O13 0.628354 0.977394 0.044138
#
# Coordination Sequence:
#
# PCOD9099863 Si02
#       6
#     2   2   2   2   2   2
#     4  11  21  42  65  97 133 170 218 264 319 394
#     4  12  28  46  68  91 125 183 237 273 316 372
#     4  10  20  37  62 103 134 171 200 270 346 392
#     4  11  22  38  68 106 137 174 198 254 348 420
#     4  11  23  35  70 105 141 164 206 259 355 405
#     4  11  22  39  64  96 135 165 218 284 325 381
#
# _framework density 26.866517999999999
#
# number of rings (size 3 to 8) (size 9 to 14) (size 15 to 20)
#    0.000    1.000    3.333    5.000    7.000    0.000 
#    0.000    0.000    0.000    6.000    0.000    0.000 
#    0.000    0.000    0.000    0.000    0.000    0.000 
#
# Total GULP energy -67073.435536 kJ/mol
# GULP energy per Si atom -5589.452961 kJ/mol
# Density = 2.680537 g / cm^3
# Si number density = 26.866518 Si / 1000 Ang^3
#
#
#
# Elastic Constant Matrix: (Units=GPa)
#
#
# Indices 1 2 3 4 5 6 
#
# 1 123.8039 44.7523 33.7207 14.2213 11.5215 18.1109
# 2 44.7523 209.7648 50.3465 20.6929 17.2848 19.9471
# 3 33.7207 50.3465 80.7566 23.7449 5.7612 11.0101
# 4 14.2213 20.6929 23.7449 48.4558 14.7697 10.3686
# 5 11.5215 17.2848 5.7612 14.7697 27.7923 6.5521
# 6 18.1109 19.9471 11.0101 10.3686 6.5521 54.6654
#
#
#
# Elastic Compliance Matrix: (Units=1/GPa)
#
#
# Indices 1 2 3 4 5 6 
#
# 1 0.009766 -0.000971 -0.003095 0.000245 -0.002459 -0.002009
# 2 -0.000971 0.005998 -0.003084 0.000231 -0.002580 -0.000980
# 3 -0.003095 -0.003084 0.017571 -0.007388 0.003583 -0.000416
# 4 0.000245 0.000231 -0.007388 0.028702 -0.013373 -0.002519
# 5 -0.002459 -0.002580 0.003583 -0.013373 0.045411 -0.001872
# 6 -0.002009 -0.000980 -0.000416 -0.002519 -0.001872 0.020102
#
#
# Mechanical properties :
#
#
# Convention : Reuss Voigt Hill
#
# Bulk Modulus (GPa) = 52.53477 74.66269 63.59873
# Shear Modulus (GPa) = 33.73916 45.21643 39.47779
#
# Velocity S-wave (km/s) = 3.54758 4.10689 3.83744
# Velocity P-wave (km/s) = 6.03132 7.09502 6.58469
#
# Compressibility (1/GPa) = 0.01903501
#
# Stress axis : x y z
#
# Youngs Moduli (GPa) = 102.39571 166.73325 56.91074
#
# Poissons Ratio (x) = 0.16191 0.17614
# Poissons Ratio (y) = 0.09944 0.17551
# Poissons Ratio (z) = 0.31692 0.51418
#
# Static dielectric constant tensor:
#      x y z
#    x 2.268190 0.030640 0.032300 
#    y 0.030640 2.142310 0.071260 
#    z 0.032300 0.071260 2.102420 
# 
# From -- ./inp_files/65105.got.cif
#   From: 2010.05.17/outbox.cif.g08.bks.cpg/sg2_33_cif.got.tgz:65105.got - 2010.06.03 11:33:40.
