data_PCOD9099860
_publ_section_title
;
Structure prediction by ZEFSAII (Michael W. Deem and Ramdas Pophale) SiO2 
 PCOD9099860
Probable space group: P -1
;
_chemical_formula_sum "Si O2"
_cell_formula_units_Z 14
_cell_length_a 16.214245
_cell_length_b 8.768694
_cell_length_c 19.531968
_cell_angle_alpha 139.743896
_cell_angle_beta 20.235685
_cell_angle_gamma 147.799421
_cell_volume 504.651641
_symmetry_space_group_name_H-M "P -1"
_symmetry_group_IT_number 2
_symmetry_cell_setting 'triclinic'
loop_
_space_group_symop_operation_xyz
x,y,z
-x,-y,-z
loop_
_atom_site_type_symbol
_atom_site_label
_atom_site_fract_x
_atom_site_fract_y
_atom_site_fract_z
Si Si1 0.164329 0.529609 0.766268
Si Si2 0.216056 0.264634 0.873953
Si Si3 0.175914 0.338208 0.497654
Si Si4 0.581872 0.190143 0.931328
Si Si5 0.318514 0.028675 0.590320
Si Si6 0.033706 0.136814 0.315705
Si Si7 0.442706 0.105000 0.292339
O O1 0.421712 0.747963 0.587768
O O2 0.084397 0.206802 0.716598
O O3 0.289198 0.703216 0.799880
O O4 0.878926 0.520788 0.970872
O O5 0.160571 0.131413 0.795929
O O6 0.635702 0.674446 0.594099
O O7 0.000000 0.000000 0.000000
O O8 0.937897 0.391669 0.723863
O O9 0.522554 0.033538 0.849339
O O10 0.000000 0.000000 0.500000
O O11 0.436444 0.562650 0.321066
O O12 0.373824 0.299626 0.126322
O O13 0.500000 0.000000 0.000000
O O14 0.062755 0.800395 0.658696
O O15 0.500000 0.000000 0.500000
O O16 0.840706 0.139743 0.527284
#
# Coordination Sequence:
#
# PCOD9099860 Si02
#       7
#     2   2   2   2   2   2   2
#     4  11  22  40  68 102 135 181 233 303 359 413
#     4  12  24  42  66  99 139 186 230 292 365 422
#     4  10  21  39  64  97 134 174 233 288 342 421
#     4  11  22  37  61  98 137 186 225 291 350 414
#     4  11  23  41  64 102 140 185 233 290 361 437
#     4  11  22  38  69 101 138 179 240 299 351 411
#     4  10  20  37  62 101 138 171 230 300 349 412
#
# _framework density 27.741907000000001
#
# number of rings (size 3 to 8) (size 9 to 14) (size 15 to 20)
#    0.000    1.143    2.857    6.000    0.000    1.714 
#    0.000    0.000    0.000    8.571    0.000    0.000 
#    0.000    0.000    0.000    0.000    0.000    0.000 
#
# Total GULP energy -78271.385232 kJ/mol
# GULP energy per Si atom -5590.813231 kJ/mol
# Density = 2.767877 g / cm^3
# Si number density = 27.741907 Si / 1000 Ang^3
#
#
#
# Elastic Constant Matrix: (Units=GPa)
#
#
# Indices 1 2 3 4 5 6 
#
# 1 148.4456 33.7544 70.5139 0.8403 17.5092 -3.2928
# 2 33.7544 53.8170 30.8592 -8.4379 1.9819 -8.3752
# 3 70.5139 30.8592 215.3352 -20.6610 -6.5417 -8.5317
# 4 0.8403 -8.4379 -20.6610 46.0611 3.9425 -0.1046
# 5 17.5092 1.9819 -6.5417 3.9425 68.1695 9.3605
# 6 -3.2928 -8.3752 -8.5317 -0.1046 9.3605 47.1122
#
#
#
# Elastic Compliance Matrix: (Units=1/GPa)
#
#
# Indices 1 2 3 4 5 6 
#
# 1 0.009335 -0.004576 -0.002673 -0.002004 -0.002381 -0.000176
# 2 -0.004576 0.023411 -0.001357 0.003803 -0.000360 0.003676
# 3 -0.002673 -0.001357 0.005994 0.002396 0.001102 0.000444
# 4 -0.002004 0.003803 0.002396 0.023597 -0.000895 0.001200
# 5 -0.002381 -0.000360 0.001102 -0.000895 0.015887 -0.003189
# 6 -0.000176 0.003676 0.000444 0.001200 -0.003189 0.022584
#
#
# Mechanical properties :
#
#
# Convention : Reuss Voigt Hill
#
# Bulk Modulus (GPa) = 46.44874 76.42809 61.43841
# Shear Modulus (GPa) = 39.93707 51.09993 45.51850
#
# Velocity S-wave (km/s) = 3.79831 4.29648 4.05505
# Velocity P-wave (km/s) = 6.00131 7.22651 6.64222
#
# Compressibility (1/GPa) = 0.02152911
#
# Stress axis : x y z
#
# Youngs Moduli (GPa) = 107.12542 42.71409 166.82063
#
# Poissons Ratio (x) = 0.19548 0.44584
# Poissons Ratio (y) = 0.49025 0.22635
# Poissons Ratio (z) = 0.28630 0.05796
#
# Static dielectric constant tensor:
#      x y z
#    x 2.203370 0.002820 -0.009550 
#    y 0.002820 2.363920 -0.084820 
#    z -0.009550 -0.084820 2.329640 
# 
# From -- ./inp_files/599502.got.cif
#   From: 2010.05.17/outbox.cif.g08.bks.cpg/sg2_300_cif.got.tgz:599502.got - 2010.06.03 11:33:40.
