data_PCOD9099336
_publ_section_title
;
Structure prediction by ZEFSAII (Michael W. Deem and Ramdas Pophale) SiO2 
 PCOD9099336
Probable space group: P -1
;
_chemical_formula_sum "Si O2"
_cell_formula_units_Z 14
_cell_length_a 16.343705
_cell_length_b 5.247033
_cell_length_c 7.247989
_cell_angle_alpha 111.396302
_cell_angle_beta 103.661229
_cell_angle_gamma 74.500985
_cell_volume 550.971707
_symmetry_space_group_name_H-M "P -1"
_symmetry_group_IT_number 2
_symmetry_cell_setting 'triclinic'
loop_
_space_group_symop_operation_xyz
x,y,z
-x,-y,-z
loop_
_atom_site_type_symbol
_atom_site_label
_atom_site_fract_x
_atom_site_fract_y
_atom_site_fract_z
Si Si1 0.582549 0.209836 0.863538
Si Si2 0.953520 0.892163 0.206502
Si Si3 0.448872 0.666950 0.746373
Si Si4 0.739682 0.468044 0.961142
Si Si5 0.128861 0.455465 0.653859
Si Si6 0.877063 0.924101 0.787470
Si Si7 0.372398 0.324470 0.368428
O O1 0.490953 0.376909 0.795254
O O2 0.650627 0.407445 0.970940
O O3 0.617942 0.997974 0.660313
O O4 0.578974 0.111632 0.048057
O O5 0.941265 0.681165 0.306801
O O6 0.901396 0.210818 0.298091
O O7 0.915956 0.795813 0.969233
O O8 0.049311 0.932034 0.227104
O O9 0.371760 0.582861 0.568953
O O10 0.531291 0.711204 0.684062
O O11 0.707819 0.630942 0.800363
O O12 0.799993 0.175874 0.861782
O O13 0.789682 0.601185 0.179475
O O14 0.144889 0.297773 0.427366
#
# Coordination Sequence:
#
# PCOD9099336 Si02
#       7
#     2   2   2   2   2   2   2
#     4  10  20  38  57  85 120 156 203 257 306 381
#     4  10  24  44  70  98 125 172 232 265 317 393
#     4   9  20  37  61  85 110 159 209 250 311 370
#     4  10  25  38  54  95 127 159 209 256 325 390
#     4  11  24  44  67  97 132 174 220 270 324 387
#     4  10  23  44  67  94 133 171 213 276 323 379
#     4  10  20  37  60  85 119 156 205 254 310 378
#
# _framework density 25.409654
#
# number of rings (size 3 to 8) (size 9 to 14) (size 15 to 20)
#    0.000    2.000    0.000    1.714    4.000    9.714 
#    0.000    2.857    0.000    0.000    0.000    0.000 
#    0.000    0.000    0.000    0.000    0.000    0.000 
#
# Total GULP energy -78221.605504 kJ/mol
# GULP energy per Si atom -5587.257536 kJ/mol
# Density = 2.535182 g / cm^3
# Si number density = 25.409654 Si / 1000 Ang^3
#
#
#
# Elastic Constant Matrix: (Units=GPa)
#
#
# Indices 1 2 3 4 5 6 
#
# 1 50.2173 2.4463 18.6887 -2.1235 8.8546 -13.7368
# 2 2.4463 45.1315 27.1477 6.0550 -0.6105 -4.3363
# 3 18.6887 27.1477 199.2833 6.9215 16.7618 -9.7143
# 4 -2.1235 6.0550 6.9215 23.3604 -3.9605 1.9741
# 5 8.8546 -0.6105 16.7618 -3.9605 36.5858 -9.1539
# 6 -13.7368 -4.3363 -9.7143 1.9741 -9.1539 34.7386
#
#
#
# Elastic Compliance Matrix: (Units=1/GPa)
#
#
# Indices 1 2 3 4 5 6 
#
# 1 0.023230 0.000273 -0.001647 0.001395 -0.002719 0.007964
# 2 0.000273 0.025184 -0.003286 -0.005448 0.002067 0.003187
# 3 -0.001647 -0.003286 0.005882 -0.001467 -0.002508 0.000006
# 4 0.001395 -0.005448 -0.001467 0.045742 0.004721 -0.001894
# 5 -0.002719 0.002067 -0.002508 0.004721 0.031303 0.006461
# 6 0.007964 0.003187 0.000006 -0.001894 0.006461 0.034145
#
#
# Mechanical properties :
#
#
# Convention : Reuss Voigt Hill
#
# Bulk Modulus (GPa) = 22.23374 43.46640 32.85007
# Shear Modulus (GPa) = 26.34379 35.36025 30.85202
#
# Velocity S-wave (km/s) = 3.22337 3.73447 3.48830
# Velocity P-wave (km/s) = 4.75632 5.97816 5.40190
#
# Compressibility (1/GPa) = 0.04497669
#
# Stress axis : x y z
#
# Youngs Moduli (GPa) = 43.04762 39.70736 170.00262
#
# Poissons Ratio (x) = -0.01084 0.28003
# Poissons Ratio (y) = -0.01175 0.55857
# Poissons Ratio (z) = 0.07091 0.13046
#
# Static dielectric constant tensor:
#      x y z
#    x 2.030150 0.080060 -0.028750 
#    y 0.080060 2.117490 -0.008710 
#    z -0.028750 -0.008710 2.116020 
# 
# From -- ./inp_files/137877.got.cif
#   From: 2010.05.17/outbox.cif.g08.bks.cpg/sg2_69_cif.got.tgz:137877.got - 2010.06.03 11:33:40.
