data_PCOD9099666
_publ_section_title
;
Structure prediction by ZEFSAII (Michael W. Deem and Ramdas Pophale) SiO2 
 PCOD9099666
Probable space group: P -1
;
_chemical_formula_sum "Si O2"
_cell_formula_units_Z 12
_cell_length_a 6.902066
_cell_length_b 13.460388
_cell_length_c 8.619286
_cell_angle_alpha 100.753310
_cell_angle_beta 114.783618
_cell_angle_gamma 124.175186
_cell_volume 497.549360
_symmetry_space_group_name_H-M "P -1"
_symmetry_group_IT_number 2
_symmetry_cell_setting 'triclinic'
loop_
_space_group_symop_operation_xyz
x,y,z
-x,-y,-z
loop_
_atom_site_type_symbol
_atom_site_label
_atom_site_fract_x
_atom_site_fract_y
_atom_site_fract_z
Si Si1 0.651100 0.346260 0.856293
Si Si2 0.361636 0.056453 0.285860
Si Si3 0.011653 0.137434 0.162219
Si Si4 0.551287 0.631941 0.896219
Si Si5 0.845275 0.221154 0.722466
Si Si6 0.286093 0.383026 0.533246
O O1 0.649836 0.230172 0.766809
O O2 0.450119 0.349582 0.677942
O O3 0.561082 0.330102 0.999697
O O4 0.000000 0.500000 0.000000
O O5 0.162719 0.087720 0.266220
O O6 0.709197 0.191137 0.496903
O O7 0.227283 0.918975 0.301856
O O8 0.293532 0.999083 0.070510
O O9 0.252042 0.249118 0.138509
O O10 0.015855 0.232876 0.308245
O O11 0.285933 0.477943 0.678331
O O12 0.800387 0.645348 0.073153
O O13 0.500000 0.500000 0.500000
#
# Coordination Sequence:
#
# PCOD9099666 Si02
#       6
#     2   2   2   2   2   2
#     4  12  23  39  63  90 119 156 200 246 301 352
#     4   9  18  36  63  86 120 162 194 242 290 346
#     4   9  18  37  64  88 124 158 192 243 298 347
#     4  10  22  39  62  92 120 153 197 247 298 354
#     4  10  20  37  63  90 118 156 202 240 291 352
#     4  10  20  37  61  88 121 154 191 248 303 347
#
# _framework density 24.118210000000001
#
# number of rings (size 3 to 8) (size 9 to 14) (size 15 to 20)
#    0.000    2.000    3.333    0.500    0.000    0.000 
#    0.000   13.333    0.000    0.000    0.000    0.000 
#    0.000    0.000    0.000    0.000    0.000    0.000 
#
# Total GULP energy -67000.276398 kJ/mol
# GULP energy per Si atom -5583.356366 kJ/mol
# Density = 2.406332 g / cm^3
# Si number density = 24.118210 Si / 1000 Ang^3
#
#
#
# Elastic Constant Matrix: (Units=GPa)
#
#
# Indices 1 2 3 4 5 6 
#
# 1 96.7781 44.0745 50.2265 -0.0144 -42.4560 0.8841
# 2 44.0745 70.2539 31.3502 -1.3076 -11.6075 -7.2645
# 3 50.2265 31.3502 169.4266 22.0372 -29.9139 -7.8053
# 4 -0.0144 -1.3076 22.0372 37.5695 -0.4983 -4.3805
# 5 -42.4560 -11.6075 -29.9139 -0.4983 48.2495 1.1076
# 6 0.8841 -7.2645 -7.8053 -4.3805 1.1076 29.5563
#
#
#
# Elastic Compliance Matrix: (Units=1/GPa)
#
#
# Indices 1 2 3 4 5 6 
#
# 1 0.024830 -0.012132 -0.002310 0.000604 0.017617 -0.004905
# 2 -0.012132 0.022186 -0.001689 0.002368 -0.006498 0.005964
# 3 -0.002310 -0.001689 0.007972 -0.004588 0.002433 0.000988
# 4 0.000604 0.002368 -0.004588 0.029817 -0.001523 0.003829
# 5 0.017617 -0.006498 0.002433 -0.001523 0.036227 -0.003065
# 6 -0.004905 0.005964 0.000988 0.003829 -0.003065 0.036390
#
#
# Mechanical properties :
#
#
# Convention : Reuss Voigt Hill
#
# Bulk Modulus (GPa) = 44.00368 65.30679 54.65524
# Shear Modulus (GPa) = 25.34731 37.12887 31.23809
#
# Velocity S-wave (km/s) = 3.24537 3.92784 3.60280
# Velocity P-wave (km/s) = 5.68576 6.90704 6.32594
#
# Compressibility (1/GPa) = 0.02272537
#
# Stress axis : x y z
#
# Youngs Moduli (GPa) = 40.27352 45.07305 125.44639
#
# Poissons Ratio (x) = 0.54682 0.28981
# Poissons Ratio (y) = 0.48859 0.21190
# Poissons Ratio (z) = 0.09304 0.07613
#
# Static dielectric constant tensor:
#      x y z
#    x 1.920180 0.031120 -0.000310 
#    y 0.031120 1.968600 0.013750 
#    z -0.000310 0.013750 1.995670 
# 
# From -- ./inp_files/20444.got.cif
#   From: 2010.05.17/outbox.cif.g08.bks.cpg/sg2_11_cif.got.tgz:20444.got - 2010.06.03 11:33:40.
