data_PCOD9099744
_publ_section_title
;
Structure prediction by ZEFSAII (Michael W. Deem and Ramdas Pophale) SiO2 
 PCOD9099744
Probable space group: P -1
;
_chemical_formula_sum "Si O2"
_cell_formula_units_Z 16
_cell_length_a 20.989546
_cell_length_b 5.781537
_cell_length_c 5.609275
_cell_angle_alpha 73.872712
_cell_angle_beta 80.953684
_cell_angle_gamma 91.488155
_cell_volume 644.032318
_symmetry_space_group_name_H-M "P -1"
_symmetry_group_IT_number 2
_symmetry_cell_setting 'triclinic'
loop_
_space_group_symop_operation_xyz
x,y,z
-x,-y,-z
loop_
_atom_site_type_symbol
_atom_site_label
_atom_site_fract_x
_atom_site_fract_y
_atom_site_fract_z
Si Si1 0.216490 0.783561 0.137429
Si Si2 0.004421 0.216789 0.131498
Si Si3 0.581201 0.584210 0.194412
Si Si4 0.556046 0.293754 0.789866
Si Si5 0.772828 0.810339 0.394785
Si Si6 0.110612 0.994425 0.409631
Si Si7 0.328623 0.946479 0.394061
Si Si8 0.283791 0.500510 0.845853
O O1 0.147306 0.800148 0.291579
O O2 0.272911 0.867687 0.261802
O O3 0.240293 0.538745 0.088046
O O4 0.217638 0.973387 0.865876
O O5 0.944438 0.142217 0.360705
O O6 0.073352 0.180559 0.222075
O O7 0.000000 0.500000 0.000000
O O8 0.000000 0.000000 0.000000
O O9 0.571432 0.410305 0.011027
O O10 0.521397 0.753844 0.164461
O O11 0.428557 0.524316 0.498371
O O12 0.657355 0.670712 0.109389
O O13 0.602297 0.082947 0.754280
O O14 0.767101 0.572951 0.308884
O O15 0.833068 0.862779 0.514565
O O16 0.700409 0.820973 0.542656
O O17 0.321764 0.749843 0.669360
#
# Coordination Sequence:
#
# PCOD9099744 Si02
#       8
#     2   2   2   2   2   2   2   2
#     4  10  20  41  60  96 130 175 224 279 355 426
#     4  11  26  55  81 111 150 193 239 300 361 442
#     4   9  17  30  56  88 120 175 237 290 360 436
#     4   9  16  31  55  85 123 173 235 295 359 436
#     4  10  22  41  59 100 133 174 225 290 354 429
#     4  10  24  48  73 109 141 187 239 288 368 437
#     4   9  19  36  57  84 127 176 224 285 357 418
#     4  10  20  37  61  90 131 175 227 290 355 421
#
# _framework density 24.843475000000002
#
# number of rings (size 3 to 8) (size 9 to 14) (size 15 to 20)
#    0.000    2.250    1.250    0.750    0.000    4.000 
#   29.250    0.625    0.000    0.750    0.000    0.000 
#    0.000    0.000    0.000    0.000    0.000    0.000 
#
# Total GULP energy -89316.579231 kJ/mol
# GULP energy per Si atom -5582.286202 kJ/mol
# Density = 2.478693 g / cm^3
# Si number density = 24.843475 Si / 1000 Ang^3
#
#
#
# Elastic Constant Matrix: (Units=GPa)
#
#
# Indices 1 2 3 4 5 6 
#
# 1 177.3223 55.7799 63.7274 12.9396 -1.3285 -44.3380
# 2 55.7799 90.4514 43.5920 4.5336 0.9101 -28.7982
# 3 63.7274 43.5920 108.8194 13.5347 4.0507 -21.3732
# 4 12.9396 4.5336 13.5347 50.7686 -12.5827 -2.8695
# 5 -1.3285 0.9101 4.0507 -12.5827 48.6035 12.8325
# 6 -44.3380 -28.7982 -21.3732 -2.8695 12.8325 40.3490
#
#
#
# Elastic Compliance Matrix: (Units=1/GPa)
#
#
# Indices 1 2 3 4 5 6 
#
# 1 0.009325 -0.001685 -0.002960 -0.001471 -0.001958 0.007994
# 2 -0.001685 0.016825 -0.003912 -0.000126 -0.002401 0.008839
# 3 -0.002960 -0.003912 0.013222 -0.002895 -0.002247 0.001468
# 4 -0.001471 -0.000126 -0.002895 0.022376 0.007021 -0.003881
# 5 -0.001958 -0.002401 -0.002247 0.007021 0.025953 -0.012811
# 6 0.007994 0.008839 0.001468 -0.003881 -0.012811 0.044453
#
#
# Mechanical properties :
#
#
# Convention : Reuss Voigt Hill
#
# Bulk Modulus (GPa) = 44.92815 78.08795 61.50805
# Shear Modulus (GPa) = 31.91079 42.17715 37.04397
#
# Velocity S-wave (km/s) = 3.58784 4.12480 3.86566
# Velocity P-wave (km/s) = 5.94031 7.36108 6.68853
#
# Compressibility (1/GPa) = 0.02225776
#
# Stress axis : x y z
#
# Youngs Moduli (GPa) = 107.24030 59.43557 75.63192
#
# Poissons Ratio (x) = 0.10017 0.22385
# Poissons Ratio (y) = 0.18075 0.29586
# Poissons Ratio (z) = 0.31740 0.23250
#
# Static dielectric constant tensor:
#      x y z
#    x 1.895970 -0.034790 0.021310 
#    y -0.034790 2.058640 -0.025930 
#    z 0.021310 -0.025930 2.069360 
# 
# From -- ./inp_files/10962.got.cif
#   From: 2010.05.17/outbox.cif.g08.bks.cpg/sg2_6_cif.got.tgz:10962.got - 2010.06.03 11:33:40.
