data_PCOD9099904
_publ_section_title
;
Structure prediction by ZEFSAII (Michael W. Deem and Ramdas Pophale) SiO2 
 PCOD9099904
Probable space group: P -1
;
_chemical_formula_sum "Si O2"
_cell_formula_units_Z 16
_cell_length_a 15.247655
_cell_length_b 10.001119
_cell_length_c 11.840424
_cell_angle_alpha 89.810884
_cell_angle_beta 28.178299
_cell_angle_gamma 79.810872
_cell_volume 792.640032
_symmetry_space_group_name_H-M "P -1"
_symmetry_group_IT_number 2
_symmetry_cell_setting 'triclinic'
loop_
_space_group_symop_operation_xyz
x,y,z
-x,-y,-z
loop_
_atom_site_type_symbol
_atom_site_label
_atom_site_fract_x
_atom_site_fract_y
_atom_site_fract_z
Si Si1 0.856287 0.710763 0.648665
Si Si2 0.431577 0.014510 0.906466
Si Si3 0.640785 0.867636 0.263328
Si Si4 0.683517 0.232733 0.040333
Si Si5 0.697074 0.461497 0.853077
Si Si6 0.570187 0.330537 0.420317
Si Si7 0.013031 0.156972 0.973784
Si Si8 0.870129 0.850933 0.413558
O O1 0.747107 0.604612 0.811558
O O2 0.866283 0.722171 0.500435
O O3 0.084217 0.651504 0.436255
O O4 0.724524 0.870500 0.836995
O O5 0.378280 0.076232 0.841276
O O6 0.409546 0.860054 0.928602
O O7 0.663709 0.984075 0.666908
O O8 0.568269 0.735370 0.355817
O O9 0.858558 0.824183 0.068805
O O10 0.500000 0.000000 0.500000
O O11 0.589382 0.268442 0.271120
O O12 0.660434 0.381416 0.005519
O O13 0.919513 0.138005 0.790166
O O14 0.500000 0.500000 0.000000
O O15 0.500000 0.500000 0.500000
O O16 0.789559 0.268109 0.224264
O O17 0.113233 0.172566 0.740304
O O18 0.000000 0.000000 0.000000
#
# Coordination Sequence:
#
# PCOD9099904 Si02
#       8
#     2   2   2   2   2   2   2   2
#     4  10  24  39  60  93 118 157 205 248 299 364
#     4  12  22  38  63  93 122 154 204 252 300 364
#     4  12  21  39  63  91 124 163 201 250 312 368
#     4  10  22  39  61  86 118 162 200 248 305 364
#     4  10  22  43  61  83 123 162 198 246 308 357
#     4  11  24  40  61  92 125 161 211 257 307 366
#     4  11  20  40  66  91 123 165 205 252 309 367
#     4  10  20  37  62  86 120 156 196 251 300 351
#
# _framework density 20.185708000000002
#
# number of rings (size 3 to 8) (size 9 to 14) (size 15 to 20)
#    0.000    1.250    3.750    1.875    1.750    3.500 
#    2.250    0.000    0.000    0.000    0.000    0.000 
#    0.000    0.000    0.000    0.000    0.000    0.000 
#
# Total GULP energy -89325.687121 kJ/mol
# GULP energy per Si atom -5582.855445 kJ/mol
# Density = 2.013976 g / cm^3
# Si number density = 20.185708 Si / 1000 Ang^3
#
#
#
# Elastic Constant Matrix: (Units=GPa)
#
#
# Indices 1 2 3 4 5 6 
#
# 1 90.8343 21.3014 41.2212 -0.1638 -13.8438 -27.2552
# 2 21.3014 110.0110 30.3581 -6.1080 1.6165 -11.7093
# 3 41.2212 30.3581 66.7061 5.4370 -24.9537 -4.0588
# 4 -0.1638 -6.1080 5.4370 36.7536 -16.7859 3.1147
# 5 -13.8438 1.6165 -24.9537 -16.7859 33.5119 1.5489
# 6 -27.2552 -11.7093 -4.0588 3.1147 1.5489 30.2128
#
#
#
# Elastic Compliance Matrix: (Units=1/GPa)
#
#
# Indices 1 2 3 4 5 6 
#
# 1 0.022559 0.001697 -0.014484 -0.000281 -0.002577 0.019224
# 2 0.001697 0.011760 -0.008516 -0.000227 -0.006566 0.005305
# 3 -0.014484 -0.008516 0.035667 0.005506 0.024363 -0.013392
# 4 -0.000281 -0.000227 0.005506 0.037170 0.022825 -0.004604
# 5 -0.002577 -0.006566 0.024363 0.022825 0.058989 -0.006974
# 6 0.019224 0.005305 -0.013392 -0.004604 -0.006974 0.051529
#
#
# Mechanical properties :
#
#
# Convention : Reuss Voigt Hill
#
# Bulk Modulus (GPa) = 36.52198 50.36809 43.44504
# Shear Modulus (GPa) = 18.55934 31.74038 25.14986
#
# Velocity S-wave (km/s) = 3.03550 3.96968 3.53359
# Velocity P-wave (km/s) = 5.51525 6.78363 6.18205
#
# Compressibility (1/GPa) = 0.02738077
#
# Stress axis : x y z
#
# Youngs Moduli (GPa) = 44.32825 85.03526 28.03679
#
# Poissons Ratio (x) = -0.14434 0.40610
# Poissons Ratio (y) = -0.07524 0.23875
# Poissons Ratio (z) = 0.64207 0.72414
#
# Static dielectric constant tensor:
#      x y z
#    x 1.720540 -0.013550 -0.005520 
#    y -0.013550 1.699640 -0.010500 
#    z -0.005520 -0.010500 1.728740 
# 
# From -- ./inp_files/206206.got.cif
#   From: 2010.05.17/outbox.cif.g08.bks.cpg/sg2_104_cif.got.tgz:206206.got - 2010.06.03 11:33:40.
