data_PCOD9099916
_publ_section_title
;
Structure prediction by ZEFSAII (Michael W. Deem and Ramdas Pophale) SiO2 
 PCOD9099916
Probable space group: P -1
;
_chemical_formula_sum "Si O2"
_cell_formula_units_Z 16
_cell_length_a 7.527840
_cell_length_b 16.029104
_cell_length_c 8.504681
_cell_angle_alpha 105.946081
_cell_angle_beta 118.915265
_cell_angle_gamma 109.488319
_cell_volume 718.937556
_symmetry_space_group_name_H-M "P -1"
_symmetry_group_IT_number 2
_symmetry_cell_setting 'triclinic'
loop_
_space_group_symop_operation_xyz
x,y,z
-x,-y,-z
loop_
_atom_site_type_symbol
_atom_site_label
_atom_site_fract_x
_atom_site_fract_y
_atom_site_fract_z
Si Si1 0.019693 0.726709 0.849087
Si Si2 0.688376 0.767401 0.948378
Si Si3 0.877435 0.071961 0.599835
Si Si4 0.472887 0.597474 0.046875
Si Si5 0.437268 0.849570 0.326281
Si Si6 0.325676 0.714463 0.504220
Si Si7 0.053552 0.242257 0.511819
Si Si8 0.048249 0.486609 0.329407
O O1 0.029469 0.774836 0.710727
O O2 0.911058 0.605715 0.711844
O O3 0.847692 0.742284 0.894026
O O4 0.281893 0.781432 0.074979
O O5 0.495771 0.769330 0.756525
O O6 0.566656 0.674203 0.974797
O O7 0.874591 0.876952 0.168888
O O8 0.716829 0.106927 0.641554
O O9 0.955282 0.134462 0.502607
O O10 0.703263 0.948310 0.449688
O O11 0.658258 0.674869 0.299622
O O12 0.500000 0.500000 0.000000
O O13 0.186426 0.548852 0.897978
O O14 0.439162 0.778986 0.428071
O O15 0.075768 0.707591 0.427063
O O16 0.263907 0.598429 0.418527
O O17 0.000000 0.500000 0.500000
#
# Coordination Sequence:
#
# PCOD9099916 Si02
#       8
#     2   2   2   2   2   2   2   2
#     4  11  23  38  57  90 124 147 197 243 285 338
#     4  10  22  37  60  90 118 149 198 243 283 345
#     4   8  18  39  62  82 115 155 193 237 297 345
#     4  11  20  38  62  81 115 160 196 229 288 352
#     4   9  20  38  59  86 116 151 196 246 286 338
#     4  11  21  39  60  85 120 161 194 229 292 352
#     4  10  20  37  62  87 115 156 195 234 289 353
#     4  12  22  39  60  85 120 160 191 232 288 352
#
# _framework density 22.25506
#
# number of rings (size 3 to 8) (size 9 to 14) (size 15 to 20)
#    0.000    1.750    3.750    0.750    0.000    3.000 
#    0.000    0.000    0.000    7.500    0.000    0.000 
#    0.000    0.000    0.000    0.000    0.000    0.000 
#
# Total GULP energy -89501.387082 kJ/mol
# GULP energy per Si atom -5593.836693 kJ/mol
# Density = 2.220441 g / cm^3
# Si number density = 22.255060 Si / 1000 Ang^3
#
#
#
# Elastic Constant Matrix: (Units=GPa)
#
#
# Indices 1 2 3 4 5 6 
#
# 1 40.0146 15.9857 14.7496 6.0061 -2.8610 -12.3634
# 2 15.9857 112.2324 85.9828 2.4138 -1.6518 29.4370
# 3 14.7496 85.9828 146.5368 -12.3592 8.4059 23.5110
# 4 6.0061 2.4138 -12.3592 37.0960 -0.8284 5.0730
# 5 -2.8610 -1.6518 8.4059 -0.8284 32.5474 2.7515
# 6 -12.3634 29.4370 23.5110 5.0730 2.7515 26.9748
#
#
#
# Elastic Compliance Matrix: (Units=1/GPa)
#
#
# Indices 1 2 3 4 5 6 
#
# 1 0.049202 -0.015077 -0.004748 -0.014829 0.000530 0.045877
# 2 -0.015077 0.025116 -0.008967 0.001653 0.004614 -0.027285
# 3 -0.004748 -0.008967 0.014279 0.006804 -0.003904 -0.005717
# 4 -0.014829 0.001653 0.006804 0.034377 -0.000330 -0.020963
# 5 0.000530 0.004614 -0.003904 -0.000330 0.032397 -0.004632
# 6 0.045877 -0.027285 -0.005717 -0.020963 -0.004632 0.097271
#
#
# Mechanical properties :
#
#
# Convention : Reuss Voigt Hill
#
# Bulk Modulus (GPa) = 32.24380 59.13556 45.68968
# Shear Modulus (GPa) = 15.59752 31.46134 23.52943
#
# Velocity S-wave (km/s) = 2.65023 3.76396 3.25508
# Velocity P-wave (km/s) = 4.88720 6.74680 5.89084
#
# Compressibility (1/GPa) = 0.03101372
#
# Stress axis : x y z
#
# Youngs Moduli (GPa) = 20.32426 39.81467 70.03358
#
# Poissons Ratio (x) = 0.60028 0.33249
# Poissons Ratio (y) = 0.30643 0.62802
# Poissons Ratio (z) = 0.09649 0.35703
#
# Static dielectric constant tensor:
#      x y z
#    x 1.855850 -0.010180 0.002420 
#    y -0.010180 1.777480 0.000920 
#    z 0.002420 0.000920 1.819030 
# 
# From -- ./inp_files/178210.got.cif
#   From: 2010.05.17/outbox.cif.g08.bks.cpg/sg2_90_cif.got.tgz:178210.got - 2010.06.03 11:33:40.
