data_PCOD9099789
_publ_section_title
;
Structure prediction by ZEFSAII (Michael W. Deem and Ramdas Pophale) SiO2 
 PCOD9099789
Probable space group: P -1
;
_chemical_formula_sum "Si O2"
_cell_formula_units_Z 16
_cell_length_a 11.865126
_cell_length_b 9.499551
_cell_length_c 11.995895
_cell_angle_alpha 54.583534
_cell_angle_beta 127.880798
_cell_angle_gamma 120.398591
_cell_volume 845.688410
_symmetry_space_group_name_H-M "P -1"
_symmetry_group_IT_number 2
_symmetry_cell_setting 'triclinic'
loop_
_space_group_symop_operation_xyz
x,y,z
-x,-y,-z
loop_
_atom_site_type_symbol
_atom_site_label
_atom_site_fract_x
_atom_site_fract_y
_atom_site_fract_z
Si Si1 0.167925 0.989360 0.587124
Si Si2 0.177654 0.367911 0.168336
Si Si3 0.390781 0.915788 0.371884
Si Si4 0.161209 0.126310 0.058156
Si Si5 0.118834 0.416350 0.745145
Si Si6 0.169119 0.741072 0.492874
Si Si7 0.593503 0.697714 0.490091
Si Si8 0.103046 0.647288 0.841936
O O1 0.181850 0.904329 0.511613
O O2 0.186554 0.838085 0.756578
O O3 0.282026 0.181443 0.570692
O O4 0.000000 0.000000 0.500000
O O5 0.141718 0.222805 0.117045
O O6 0.317614 0.334285 0.331540
O O7 0.045151 0.344242 0.186951
O O8 0.192248 0.554634 0.026761
O O9 0.265786 0.779686 0.424794
O O10 0.481049 0.820840 0.388263
O O11 0.500000 0.000000 0.500000
O O12 0.299070 0.038859 0.197913
O O13 0.190559 0.270574 0.911155
O O14 0.000000 0.000000 0.000000
O O15 0.213942 0.582218 0.660151
O O16 0.061627 0.515058 0.770642
O O17 0.995189 0.321383 0.626289
O O18 0.500000 0.500000 0.500000
#
# Coordination Sequence:
#
# PCOD9099789 Si02
#       8
#     2   2   2   2   2   2   2   2
#     4  11  21  39  63  92 124 170 219 265 316 382
#     4  10  20  39  58  94 125 166 206 267 323 372
#     4  12  23  41  62  89 131 169 207 258 323 387
#     4  11  21  37  64  95 123 162 220 262 314 383
#     4   9  20  35  60  99 122 154 212 270 309 370
#     4  10  20  37  61  92 129 160 208 262 320 371
#     4  12  27  41  62  93 132 177 211 258 333 394
#     4   9  20  35  64  88 126 158 211 270 316 362
#
# _framework density 18.919498000000001
#
# number of rings (size 3 to 8) (size 9 to 14) (size 15 to 20)
#    0.000    1.500    5.000    0.000    1.750    2.000 
#    0.000    2.500    0.000    0.000    0.000    0.000 
#    0.000    0.000    0.000    0.000    0.000    0.000 
#
# Total GULP energy -89153.335910 kJ/mol
# GULP energy per Si atom -5572.083494 kJ/mol
# Density = 1.887644 g / cm^3
# Si number density = 18.919498 Si / 1000 Ang^3
#
#
#
# Elastic Constant Matrix: (Units=GPa)
#
#
# Indices 1 2 3 4 5 6 
#
# 1 64.4874 22.4818 24.4782 -25.4167 3.7357 2.4646
# 2 22.4818 100.6735 50.7365 -14.5321 3.3803 17.1466
# 3 24.4782 50.7365 138.8142 -30.9817 2.8520 0.5077
# 4 -25.4167 -14.5321 -30.9817 28.0287 -1.3192 0.1219
# 5 3.7357 3.3803 2.8520 -1.3192 32.8510 -7.4251
# 6 2.4646 17.1466 0.5077 0.1219 -7.4251 18.5903
#
#
#
# Elastic Compliance Matrix: (Units=1/GPa)
#
#
# Indices 1 2 3 4 5 6 
#
# 1 0.025170 -0.002792 0.001837 0.023311 -0.002216 -0.001850
# 2 -0.002792 0.016092 -0.005273 -0.000161 -0.004535 -0.016138
# 3 0.001837 -0.005273 0.011336 0.011482 0.000844 0.004572
# 4 0.023311 -0.000161 0.011482 0.069357 -0.001852 -0.004450
# 5 -0.002216 -0.004535 0.000844 -0.001852 0.035198 0.018524
# 6 -0.001850 -0.016138 0.004572 -0.004450 0.018524 0.076224
#
#
# Mechanical properties :
#
#
# Convention : Reuss Voigt Hill
#
# Bulk Modulus (GPa) = 24.91194 55.48536 40.19865
# Shear Modulus (GPa) = 19.28917 29.64589 24.46753
#
# Velocity S-wave (km/s) = 3.19649 3.96277 3.60007
# Velocity P-wave (km/s) = 5.17873 7.09428 6.21080
#
# Compressibility (1/GPa) = 0.04014139
#
# Stress axis : x y z
#
# Youngs Moduli (GPa) = 39.73036 62.14405 88.21695
#
# Poissons Ratio (x) = 0.17352 -0.16207
# Poissons Ratio (y) = 0.11094 0.46514
# Poissons Ratio (z) = -0.07299 0.32767
#
# Static dielectric constant tensor:
#      x y z
#    x 1.700740 0.034300 0.018710 
#    y 0.034300 1.691080 -0.055220 
#    z 0.018710 -0.055220 1.621820 
# 
# From -- ./inp_files/331730.got.cif
#   From: 2010.05.17/outbox.cif.g08.bks.cpg/sg2_166_cif.got.tgz:331730.got - 2010.06.03 11:33:40.
