data_PCOD9099347
_publ_section_title
;
Structure prediction by ZEFSAII (Michael W. Deem and Ramdas Pophale) SiO2 
 PCOD9099347
Probable space group: P -1
;
_chemical_formula_sum "Si O2"
_cell_formula_units_Z 16
_cell_length_a 12.992391
_cell_length_b 11.399359
_cell_length_c 6.567761
_cell_angle_alpha 104.449320
_cell_angle_beta 70.101721
_cell_angle_gamma 93.377256
_cell_volume 885.351962
_symmetry_space_group_name_H-M "P -1"
_symmetry_group_IT_number 2
_symmetry_cell_setting 'triclinic'
loop_
_space_group_symop_operation_xyz
x,y,z
-x,-y,-z
loop_
_atom_site_type_symbol
_atom_site_label
_atom_site_fract_x
_atom_site_fract_y
_atom_site_fract_z
Si Si1 0.454425 0.183175 0.950269
Si Si2 0.726988 0.689697 0.649602
Si Si3 0.648784 0.029819 0.814654
Si Si4 0.655474 0.847260 0.387233
Si Si5 0.916861 0.515985 0.371018
Si Si6 0.978547 0.305085 0.950743
Si Si7 0.096325 0.946786 0.266314
Si Si8 0.853689 0.847594 0.957172
O O1 0.388300 0.295124 0.147378
O O2 0.392822 0.062057 0.022315
O O3 0.578460 0.154563 0.921122
O O4 0.436463 0.192835 0.725708
O O5 0.700184 0.744851 0.469673
O O6 0.796664 0.565279 0.539663
O O7 0.805763 0.777902 0.763228
O O8 0.779085 0.041381 0.733395
O O9 0.617761 0.959712 0.599043
O O10 0.756745 0.880804 0.192012
O O11 0.000000 0.500000 0.500000
O O12 0.966325 0.617052 0.230657
O O13 0.911038 0.396447 0.183310
O O14 0.920239 0.192463 0.838697
O O15 0.067948 0.243834 0.013434
O O16 0.091739 0.032945 0.109479
O O17 0.000000 0.000000 0.500000
#
# Coordination Sequence:
#
# PCOD9099347 Si02
#       8
#     2   2   2   2   2   2   2   2
#     4   9  19  31  55  79 109 148 185 230 272 327
#     4  10  18  33  57  80 106 144 185 236 279 315
#     4  10  19  34  49  81 116 145 184 225 274 334
#     4  10  16  31  55  79 108 145 184 221 278 326
#     4  11  22  39  56  79 114 144 197 242 267 327
#     4  11  24  34  56  82 110 159 189 221 284 333
#     4  12  23  37  56  83 126 154 175 226 288 351
#     4  11  19  36  53  83 117 146 182 221 277 351
#
# _framework density 18.071909000000002
#
# number of rings (size 3 to 8) (size 9 to 14) (size 15 to 20)
#    0.000    1.500    6.250    2.250    0.000    0.000 
#    0.000    0.000    0.000    0.750    0.000    1.750 
#    0.000    0.000    0.000    0.000    0.000    0.000 
#
# Total GULP energy -89154.157707 kJ/mol
# GULP energy per Si atom -5572.134857 kJ/mol
# Density = 1.803078 g / cm^3
# Si number density = 18.071909 Si / 1000 Ang^3
#
#
#
# Elastic Constant Matrix: (Units=GPa)
#
#
# Indices 1 2 3 4 5 6 
#
# 1 91.4616 19.5102 38.9420 1.6921 -11.1756 -27.8770
# 2 19.5102 64.5710 32.1763 9.3378 -4.9938 -14.3461
# 3 38.9420 32.1763 86.7318 7.8534 8.9276 -15.6897
# 4 1.6921 9.3378 7.8534 33.9985 -16.1783 -0.5101
# 5 -11.1756 -4.9938 8.9276 -16.1783 24.3521 5.9543
# 6 -27.8770 -14.3461 -15.6897 -0.5101 5.9543 33.1427
#
#
#
# Elastic Compliance Matrix: (Units=1/GPa)
#
#
# Indices 1 2 3 4 5 6 
#
# 1 0.019786 0.001162 -0.010177 0.009212 0.016861 0.009440
# 2 0.001162 0.020768 -0.007706 -0.001311 0.005445 0.005321
# 3 -0.010177 -0.007706 0.023659 -0.015091 -0.025859 0.003718
# 4 0.009212 -0.001311 -0.015091 0.055724 0.048419 -0.007805
# 5 0.016861 0.005445 -0.025859 0.048419 0.094483 -0.011932
# 6 0.009440 0.005321 0.003718 -0.007805 -0.011932 0.044200
#
#
# Mechanical properties :
#
#
# Convention : Reuss Voigt Hill
#
# Bulk Modulus (GPa) = 32.49714 47.11349 39.80532
# Shear Modulus (GPa) = 16.53887 28.44106 22.48997
#
# Velocity S-wave (km/s) = 3.02846 3.97138 3.53153
# Velocity P-wave (km/s) = 5.49999 6.86701 6.22116
#
# Compressibility (1/GPa) = 0.03077194
#
# Stress axis : x y z
#
# Youngs Moduli (GPa) = 50.54153 48.14991 42.26785
#
# Poissons Ratio (x) = -0.05596 0.43015
# Poissons Ratio (y) = -0.05873 0.32571
# Poissons Ratio (z) = 0.51435 0.37104
#
# Static dielectric constant tensor:
#      x y z
#    x 1.662950 -0.028270 -0.001790 
#    y -0.028270 1.627960 0.020550 
#    z -0.001790 0.020550 1.654740 
# 
# From -- ./inp_files/71169.got.cif
#   From: 2010.05.17/outbox.cif.g08.bks.cpg/sg2_36_cif.got.tgz:71169.got - 2010.06.03 11:33:40.
