data_PCOD9099311
_publ_section_title
;
Structure prediction by ZEFSAII (Michael W. Deem and Ramdas Pophale) SiO2 
 PCOD9099311
Probable space group: P -1
;
_chemical_formula_sum "Si O2"
_cell_formula_units_Z 14
_cell_length_a 9.477644
_cell_length_b 21.251267
_cell_length_c 9.437644
_cell_angle_alpha 35.139539
_cell_angle_beta 134.693403
_cell_angle_gamma 127.150076
_cell_volume 775.831009
_symmetry_space_group_name_H-M "P -1"
_symmetry_group_IT_number 2
_symmetry_cell_setting 'triclinic'
loop_
_space_group_symop_operation_xyz
x,y,z
-x,-y,-z
loop_
_atom_site_type_symbol
_atom_site_label
_atom_site_fract_x
_atom_site_fract_y
_atom_site_fract_z
Si Si1 0.278998 0.023661 0.759797
Si Si2 0.011170 0.659283 0.438223
Si Si3 0.066689 0.163899 0.151426
Si Si4 0.048486 0.628426 0.833436
Si Si5 0.587614 0.397276 0.331793
Si Si6 0.791838 0.753054 0.627965
Si Si7 0.324467 0.540101 0.399598
O O1 0.239203 0.085611 0.467492
O O2 0.211206 0.118047 0.644965
O O3 0.132414 0.915313 0.854917
O O4 0.500000 0.000000 0.000000
O O5 0.844539 0.558542 0.512319
O O6 0.085051 0.683004 0.606722
O O7 0.200341 0.626804 0.540336
O O8 0.915233 0.762078 0.109834
O O9 0.066978 0.246663 0.133878
O O10 0.868721 0.680436 0.690946
O O11 0.225933 0.631069 0.066866
O O12 0.000000 0.500000 0.000000
O O13 0.425757 0.294963 0.390248
O O14 0.606508 0.421412 0.467677
O O15 0.500000 0.500000 0.000000
O O16 0.500000 0.500000 0.500000
#
# Coordination Sequence:
#
# PCOD9099311 Si02
#       7
#     2   2   2   2   2   2   2
#     4   9  19  38  64  89 117 150 201 252 316 356
#     4  11  21  36  57  84 119 155 204 253 292 345
#     4   9  20  37  62  89 115 147 203 257 298 348
#     4  10  21  37  54  79 121 165 190 234 296 359
#     4  12  21  32  56  89 117 156 208 248 288 356
#     4  10  20  37  60  84 118 159 196 235 313 356
#     4  11  22  37  53  79 125 164 202 238 298 360
#
# _framework density 18.045166999999999
#
# number of rings (size 3 to 8) (size 9 to 14) (size 15 to 20)
#    0.857    0.857    0.000    7.286    0.000    0.000 
#    0.000    0.714    0.000    0.857    0.000    0.000 
#    0.000    0.000    0.000    0.000    0.000    0.000 
#
# Total GULP energy -77963.240045 kJ/mol
# GULP energy per Si atom -5568.802860 kJ/mol
# Density = 1.800410 g / cm^3
# Si number density = 18.045167 Si / 1000 Ang^3
#
#
#
# Elastic Constant Matrix: (Units=GPa)
#
#
# Indices 1 2 3 4 5 6 
#
# 1 109.9357 44.8263 29.0239 6.9612 6.8498 -1.9340
# 2 44.8263 110.1568 30.8482 12.5159 -7.8954 7.7439
# 3 29.0239 30.8482 118.7962 24.3527 -12.6523 -4.1649
# 4 6.9612 12.5159 24.3527 25.2225 0.0192 -0.7497
# 5 6.8498 -7.8954 -12.6523 0.0192 30.8784 8.8451
# 6 -1.9340 7.7439 -4.1649 -0.7497 8.8451 25.1272
#
#
#
# Elastic Compliance Matrix: (Units=1/GPa)
#
#
# Indices 1 2 3 4 5 6 
#
# 1 0.012268 -0.005259 -0.002523 0.001797 -0.006374 0.004444
# 2 -0.005259 0.012836 -0.000731 -0.004417 0.006087 -0.006757
# 3 -0.002523 -0.000731 0.011930 -0.010469 0.005318 -0.000176
# 4 0.001797 -0.004417 -0.010469 0.051568 -0.006921 0.003739
# 5 -0.006374 0.006087 0.005318 -0.006921 0.042287 -0.016577
# 6 0.004444 -0.006757 -0.000176 0.003739 -0.016577 0.048140
#
#
# Mechanical properties :
#
#
# Convention : Reuss Voigt Hill
#
# Bulk Modulus (GPa) = 49.98084 60.92060 55.45072
# Shear Modulus (GPa) = 24.66377 31.85831 28.26104
#
# Velocity S-wave (km/s) = 3.70101 4.20632 3.96173
# Velocity P-wave (km/s) = 6.78388 7.57787 7.19184
#
# Compressibility (1/GPa) = 0.02000767
#
# Stress axis : x y z
#
# Youngs Moduli (GPa) = 81.51027 77.90520 83.81909
#
# Poissons Ratio (x) = 0.40973 0.21148
# Poissons Ratio (y) = 0.42869 0.06129
# Poissons Ratio (z) = 0.20566 0.05697
#
# Static dielectric constant tensor:
#      x y z
#    x 1.606220 -0.011690 0.009010 
#    y -0.011690 1.636520 0.016120 
#    z 0.009010 0.016120 1.672200 
# 
# From -- ./inp_files/220374.got.cif
#   From: 2010.05.17/outbox.cif.g08.bks.cpg/sg2_111_cif.got.tgz:220374.got - 2010.06.03 11:33:40.
