data_PCOD9099887
_publ_section_title
;
Structure prediction by ZEFSAII (Michael W. Deem and Ramdas Pophale) SiO2 
 PCOD9099887
Probable space group: P -1
;
_chemical_formula_sum "Si O2"
_cell_formula_units_Z 16
_cell_length_a 13.654060
_cell_length_b 6.702456
_cell_length_c 29.076617
_cell_angle_alpha 128.323153
_cell_angle_beta 23.632540
_cell_angle_gamma 136.466291
_cell_volume 725.302762
_symmetry_space_group_name_H-M "P -1"
_symmetry_group_IT_number 2
_symmetry_cell_setting 'triclinic'
loop_
_space_group_symop_operation_xyz
x,y,z
-x,-y,-z
loop_
_atom_site_type_symbol
_atom_site_label
_atom_site_fract_x
_atom_site_fract_y
_atom_site_fract_z
Si Si1 0.810922 0.128550 0.935448
Si Si2 0.189403 0.198975 0.488127
Si Si3 0.403868 0.472208 0.897434
Si Si4 0.970395 0.289998 0.243449
Si Si5 0.835604 0.400395 0.224684
Si Si6 0.996957 0.337549 0.346820
Si Si7 0.367048 0.150090 0.498972
Si Si8 0.959908 0.035843 0.956506
O O1 0.027695 0.359937 0.839100
O O2 0.902208 0.163850 0.954210
O O3 0.572083 0.224265 0.051558
O O4 0.823570 0.838044 0.875354
O O5 0.516108 0.316861 0.355237
O O6 0.153114 0.060869 0.535196
O O7 0.125974 0.462229 0.555228
O O8 0.000000 0.000000 0.500000
O O9 0.682045 0.546293 0.760576
O O10 0.131774 0.286546 0.955557
O O11 0.325381 0.233969 0.937983
O O12 0.997202 0.495607 0.218049
O O13 0.623870 0.091891 0.366267
O O14 0.021895 0.373300 0.286216
O O15 0.861361 0.120574 0.157617
O O16 0.790427 0.019889 0.411550
O O17 0.500000 0.500000 0.500000
#
# Coordination Sequence:
#
# PCOD9099887 Si02
#       8
#     2   2   2   2   2   2   2   2
#     4  10  20  37  62  85 116 163 203 252 311 368
#     4  11  24  40  63  97 131 160 207 269 317 371
#     4  10  22  38  59  90 124 160 208 260 306 379
#     4  10  22  38  62  88 117 162 209 253 310 379
#     4   9  20  37  61  88 121 159 206 252 312 375
#     4  12  25  39  65  93 127 166 212 259 316 373
#     4  11  24  43  67  92 126 171 214 253 318 389
#     4   9  19  40  62  86 121 164 207 250 320 376
#
# _framework density 22.059750999999999
#
# number of rings (size 3 to 8) (size 9 to 14) (size 15 to 20)
#    0.000    1.750    1.250    2.250    3.500    3.000 
#    0.000    5.625    0.000    0.000    0.000    0.000 
#    0.000    0.000    0.000    0.000    0.000    0.000 
#
# Total GULP energy -89229.175307 kJ/mol
# GULP energy per Si atom -5576.823457 kJ/mol
# Density = 2.200954 g / cm^3
# Si number density = 22.059751 Si / 1000 Ang^3
#
#
#
# Elastic Constant Matrix: (Units=GPa)
#
#
# Indices 1 2 3 4 5 6 
#
# 1 133.6072 36.7038 0.8413 -18.5343 17.6236 -11.5605
# 2 36.7038 74.9030 27.4179 5.3253 1.6184 -10.5811
# 3 0.8413 27.4179 81.7677 -4.3659 0.0591 -18.5488
# 4 -18.5343 5.3253 -4.3659 23.7891 -6.2173 6.3169
# 5 17.6236 1.6184 0.0591 -6.2173 35.6311 -0.3791
# 6 -11.5605 -10.5811 -18.5488 6.3169 -0.3791 29.2191
#
#
#
# Elastic Compliance Matrix: (Units=1/GPa)
#
#
# Indices 1 2 3 4 5 6 
#
# 1 0.011381 -0.007091 0.003193 0.009607 -0.003617 0.001838
# 2 -0.007091 0.020573 -0.006803 -0.012022 0.000518 0.002932
# 3 0.003193 -0.006803 0.016619 0.004753 -0.000380 0.008317
# 4 0.009607 -0.012022 0.004753 0.057171 0.005658 -0.009822
# 5 -0.003617 0.000518 -0.000380 0.005658 0.030794 -0.002308
# 6 0.001838 0.002932 0.008317 -0.009822 -0.002308 0.043387
#
#
# Mechanical properties :
#
#
# Convention : Reuss Voigt Hill
#
# Bulk Modulus (GPa) = 36.80235 46.68931 41.74583
# Shear Modulus (GPa) = 23.76605 32.74885 28.25745
#
# Velocity S-wave (km/s) = 3.28586 3.85717 3.58292
# Velocity P-wave (km/s) = 5.57809 6.40686 6.00679
#
# Compressibility (1/GPa) = 0.02717218
#
# Stress axis : x y z
#
# Youngs Moduli (GPa) = 87.86206 48.60691 60.17276
#
# Poissons Ratio (x) = 0.34468 -0.19215
# Poissons Ratio (y) = 0.62305 0.40934
# Poissons Ratio (z) = -0.28057 0.33066
#
# Static dielectric constant tensor:
#      x y z
#    x 1.855430 -0.011210 -0.000160 
#    y -0.011210 1.817700 0.033510 
#    z -0.000160 0.033510 1.823130 
# 
# From -- ./inp_files/82476.got.cif
#   From: 2010.05.17/outbox.cif.g08.bks.cpg/sg2_42_cif.got.tgz:82476.got - 2010.06.03 11:33:40.
