data_PCOD9099952
_publ_section_title
;
Structure prediction by ZEFSAII (Michael W. Deem and Ramdas Pophale) SiO2 
 PCOD9099952
Probable space group: P -1
;
_chemical_formula_sum "Si O2"
_cell_formula_units_Z 14
_cell_length_a 8.777475
_cell_length_b 8.985490
_cell_length_c 17.202629
_cell_angle_alpha 39.057325
_cell_angle_beta 52.978310
_cell_angle_gamma 65.678574
_cell_volume 678.360338
_symmetry_space_group_name_H-M "P -1"
_symmetry_group_IT_number 2
_symmetry_cell_setting 'triclinic'
loop_
_space_group_symop_operation_xyz
x,y,z
-x,-y,-z
loop_
_atom_site_type_symbol
_atom_site_label
_atom_site_fract_x
_atom_site_fract_y
_atom_site_fract_z
Si Si1 0.679282 0.648397 0.614880
Si Si2 0.377883 0.032831 0.363906
Si Si3 0.917149 0.752118 0.933655
Si Si4 0.751839 0.813821 0.350205
Si Si5 0.894552 0.328081 0.469498
Si Si6 0.416899 0.154255 0.895125
Si Si7 0.667010 0.932700 0.798867
O O1 0.726765 0.754006 0.473260
O O2 0.551005 0.400903 0.747654
O O3 0.879797 0.628484 0.605241
O O4 0.575895 0.821482 0.632191
O O5 0.547563 0.874319 0.358515
O O6 0.184040 0.849728 0.503253
O O7 0.358525 0.188800 0.228822
O O8 0.779909 0.799575 0.882834
O O9 0.789223 0.783282 0.037660
O O10 0.090685 0.961614 0.797623
O O11 0.000000 0.500000 0.000000
O O12 0.815654 0.580123 0.385488
O O13 0.799674 0.178104 0.633846
O O14 0.465824 0.003497 0.865621
O O15 0.500000 0.000000 0.000000
#
# Coordination Sequence:
#
# PCOD9099952 Si02
#       7
#     2   2   2   2   2   2   2
#     4  12  20  38  65  92 116 161 205 248 296 355
#     4  10  23  36  59  96 125 150 194 261 306 341
#     4  11  23  40  62  91 122 157 203 253 296 354
#     4  12  21  39  64  91 119 160 205 246 295 362
#     4  10  20  37  62  88 121 149 201 247 301 343
#     4  10  21  39  63  87 117 162 203 241 296 362
#     4   9  20  42  60  84 125 156 194 246 304 349
#
# _framework density 20.638000000000002
#
# number of rings (size 3 to 8) (size 9 to 14) (size 15 to 20)
#    0.857    0.571    2.857    4.286    0.000    0.000 
#    0.000    8.571    0.000    1.714    0.000    0.000 
#    0.000    0.000    0.000    0.000    0.000    0.000 
#
# Total GULP energy -78075.316838 kJ/mol
# GULP energy per Si atom -5576.808346 kJ/mol
# Density = 2.059103 g / cm^3
# Si number density = 20.638000 Si / 1000 Ang^3
#
#
#
# Elastic Constant Matrix: (Units=GPa)
#
#
# Indices 1 2 3 4 5 6 
#
# 1 41.6919 -8.5484 -2.7572 -6.8247 -13.0684 -11.6621
# 2 -8.5484 72.8702 22.8356 -12.8279 -3.0526 -10.2422
# 3 -2.7572 22.8356 83.3455 1.4868 -21.7292 -5.0919
# 4 -6.8247 -12.8279 1.4868 18.4400 -14.4434 1.6003
# 5 -13.0684 -3.0526 -21.7292 -14.4434 5.2350 2.6444
# 6 -11.6621 -10.2422 -5.0919 1.6003 2.6444 41.3253
#
#
#
# Elastic Compliance Matrix: (Units=1/GPa)
#
#
# Indices 1 2 3 4 5 6 
#
# 1 0.015347 0.001014 -0.005763 -0.013506 -0.025322 0.006015
# 2 0.001014 0.016830 -0.007408 0.003224 -0.011611 0.004162
# 3 -0.005763 -0.007408 0.012005 -0.014273 -0.007788 -0.000932
# 4 -0.013506 0.003224 -0.014273 0.015170 -0.048072 -0.002282
# 5 -0.025322 -0.011611 -0.007788 -0.048072 -0.040621 -0.006522
# 6 0.006015 0.004162 -0.000932 -0.002282 -0.006522 0.027318
#
#
# Mechanical properties :
#
#
# Convention : Reuss Voigt Hill
#
# Bulk Modulus (GPa) = 50.33807 24.55194 37.44501
# Shear Modulus (GPa) = 64.94679 25.42525 45.18602
#
# Velocity S-wave (km/s) = 5.61586 3.51374 4.68424
# Velocity P-wave (km/s) = 8.15441 5.32768 6.88762
#
# Compressibility (1/GPa) = 0.01986568
#
# Stress axis : x y z
#
# Youngs Moduli (GPa) = 65.16069 59.41891 83.30151
#
# Poissons Ratio (x) = -0.06022 0.48009
# Poissons Ratio (y) = -0.06604 0.61709
# Poissons Ratio (z) = 0.37554 0.44017
#
# Static dielectric constant tensor:
#      x y z
#    x 1.742530 -0.007920 0.005380 
#    y -0.007920 1.758790 0.021410 
#    z 0.005380 0.021410 1.719690 
# 
# From -- ./inp_files/218583.got.cif
#   From: 2010.05.17/outbox.cif.g08.bks.cpg/sg2_110_cif.got.tgz:218583.got - 2010.06.03 11:33:40.
