data_PCOD9099175
_publ_section_title
;
Structure prediction by ZEFSAII (Michael W. Deem and Ramdas Pophale) SiO2 
 PCOD9099175
Probable space group: P -1
;
_chemical_formula_sum "Si O2"
_cell_formula_units_Z 16
_cell_length_a 12.236472
_cell_length_b 13.510130
_cell_length_c 9.332671
_cell_angle_alpha 70.662283
_cell_angle_beta 83.584991
_cell_angle_gamma 33.321662
_cell_volume 758.145416
_symmetry_space_group_name_H-M "P -1"
_symmetry_group_IT_number 2
_symmetry_cell_setting 'triclinic'
loop_
_space_group_symop_operation_xyz
x,y,z
-x,-y,-z
loop_
_atom_site_type_symbol
_atom_site_label
_atom_site_fract_x
_atom_site_fract_y
_atom_site_fract_z
Si Si1 0.816879 0.034360 0.095864
Si Si2 0.279386 0.712728 0.236205
Si Si3 0.037593 0.139593 0.401613
Si Si4 0.369462 0.106538 0.114736
Si Si5 0.675456 0.289559 0.452940
Si Si6 0.005587 0.256741 0.037036
Si Si7 0.410815 0.291536 0.193228
Si Si8 0.428912 0.950190 0.461771
O O1 0.635459 0.146395 0.173239
O O2 0.735719 0.201988 0.941011
O O3 0.038794 0.874305 0.216658
O O4 0.874561 0.902432 0.029306
O O5 0.457948 0.479541 0.310257
O O6 0.353928 0.707215 0.374955
O O7 0.810342 0.287839 0.418942
O O8 0.008550 0.184444 0.214696
O O9 0.183913 0.920668 0.517359
O O10 0.182989 0.119032 0.440847
O O11 0.370506 0.216953 0.143162
O O12 0.134999 0.257871 0.045212
O O13 0.456623 0.947743 0.290062
O O14 0.500000 0.000000 0.000000
O O15 0.771702 0.478317 0.922828
O O16 0.431674 0.247039 0.379431
O O17 0.500000 0.000000 0.500000
#
# Coordination Sequence:
#
# PCOD9099175 Si02
#       8
#     2   2   2   2   2   2   2   2
#     4  11  22  39  58  88 127 155 203 257 307 356
#     4  10  22  38  55  87 118 160 200 259 302 365
#     4  10  20  37  59  88 119 164 203 256 300 364
#     4  10  20  41  66  89 124 162 200 252 303 364
#     4  10  20  37  60  83 119 161 211 245 310 360
#     4  11  22  38  62  91 121 163 208 245 308 371
#     4  11  22  39  65  90 122 164 202 251 308 360
#     4   9  21  38  62  90 126 160 200 255 306 358
#
# _framework density 21.104132
#
# number of rings (size 3 to 8) (size 9 to 14) (size 15 to 20)
#    0.000    1.750    2.500    1.875    1.750    0.000 
#    0.000    2.500    5.500    0.000    0.000    0.000 
#    0.000    0.000    0.000    0.000    0.000    0.000 
#
# Total GULP energy -89272.084140 kJ/mol
# GULP energy per Si atom -5579.505259 kJ/mol
# Density = 2.105610 g / cm^3
# Si number density = 21.104132 Si / 1000 Ang^3
#
#
#
# Elastic Constant Matrix: (Units=GPa)
#
#
# Indices 1 2 3 4 5 6 
#
# 1 81.9602 25.8501 34.0335 -13.4948 -1.8094 -20.8272
# 2 25.8501 97.7439 63.7876 -26.7604 -10.5072 -16.0147
# 3 34.0335 63.7876 140.3950 -21.0948 -1.2572 -17.3124
# 4 -13.4948 -26.7604 -21.0948 41.5587 -1.8796 -1.4839
# 5 -1.8094 -10.5072 -1.2572 -1.8796 25.1061 1.7023
# 6 -20.8272 -16.0147 -17.3124 -1.4839 1.7023 18.5191
#
#
#
# Elastic Compliance Matrix: (Units=1/GPa)
#
#
# Indices 1 2 3 4 5 6 
#
# 1 0.019151 0.001706 -0.001589 0.007345 0.001072 0.022017
# 2 0.001706 0.019840 -0.006004 0.011131 0.008036 0.013616
# 3 -0.001589 -0.006004 0.010806 0.001124 -0.002234 0.003418
# 4 0.007345 0.011131 0.001124 0.035233 0.006447 0.021168
# 5 0.001072 0.008036 -0.002234 0.006447 0.043467 0.002587
# 6 0.022017 0.013616 0.003418 0.021168 0.002587 0.095188
#
#
# Mechanical properties :
#
#
# Convention : Reuss Voigt Hill
#
# Bulk Modulus (GPa) = 26.30051 63.04903 44.67477
# Shear Modulus (GPa) = 20.15034 30.13196 25.14115
#
# Velocity S-wave (km/s) = 3.09334 3.78269 3.45525
# Velocity P-wave (km/s) = 5.02471 7.00131 6.09369
#
# Compressibility (1/GPa) = 0.03802208
#
# Stress axis : x y z
#
# Youngs Moduli (GPa) = 52.21702 50.40209 92.53773
#
# Poissons Ratio (x) = -0.08598 0.14707
# Poissons Ratio (y) = -0.08908 0.55563
# Poissons Ratio (z) = 0.08299 0.30263
#
# Static dielectric constant tensor:
#      x y z
#    x 1.823830 0.007060 0.017520 
#    y 0.007060 1.750360 0.006050 
#    z 0.017520 0.006050 1.772310 
# 
# From -- ./inp_files/217637.got.cif
#   From: 2010.05.17/outbox.cif.g08.bks.cpg/sg2_109_cif.got.tgz:217637.got - 2010.06.03 11:33:40.
