data_PCOD9099552
_publ_section_title
;
Structure prediction by ZEFSAII (Michael W. Deem and Ramdas Pophale) SiO2 
 PCOD9099552
Probable space group: P -1
;
_chemical_formula_sum "Si O2"
_cell_formula_units_Z 16
_cell_length_a 8.043626
_cell_length_b 30.759818
_cell_length_c 15.289403
_cell_angle_alpha 160.911273
_cell_angle_beta 37.380096
_cell_angle_gamma 147.848468
_cell_volume 658.028455
_symmetry_space_group_name_H-M "P -1"
_symmetry_group_IT_number 2
_symmetry_cell_setting 'triclinic'
loop_
_space_group_symop_operation_xyz
x,y,z
-x,-y,-z
loop_
_atom_site_type_symbol
_atom_site_label
_atom_site_fract_x
_atom_site_fract_y
_atom_site_fract_z
Si Si1 0.911466 0.092751 0.147016
Si Si2 0.300271 0.828167 0.455065
Si Si3 0.086266 0.172968 0.813267
Si Si4 0.860149 0.543420 0.015587
Si Si5 0.236196 0.404011 0.544563
Si Si6 0.832709 0.711511 0.825377
Si Si7 0.100765 0.998115 0.731091
Si Si8 0.137282 0.295889 0.844896
O O1 0.218458 0.254434 0.308672
O O2 0.670721 0.121880 0.360935
O O3 0.845999 0.006484 0.918367
O O4 0.000000 0.000000 0.000000
O O5 0.541544 0.767075 0.217627
O O6 0.320588 0.957670 0.625099
O O7 0.959015 0.688046 0.310329
O O8 0.020895 0.251960 0.908672
O O9 0.964466 0.206575 0.018322
O O10 0.000000 0.000000 0.500000
O O11 0.502516 0.418488 0.929983
O O12 0.050646 0.455530 0.784427
O O13 0.976818 0.619750 0.015462
O O14 0.561288 0.548540 0.661281
O O15 0.047982 0.333891 0.398331
O O16 0.735919 0.837842 0.072390
O O17 0.943655 0.862469 0.469776
#
# Coordination Sequence:
#
# PCOD9099552 Si02
#       8
#     2   2   2   2   2   2   2   2
#     4   9  19  36  59  90 112 139 190 241 279 327
#     4  10  21  36  62  85 110 152 192 231 279 334
#     4  12  23  37  55  86 119 148 189 236 277 329
#     4  10  21  39  60  85 111 150 191 231 285 334
#     4  10  20  37  61  82 111 150 194 227 278 340
#     4  10  21  37  57  84 113 153 188 232 275 334
#     4   9  19  40  58  82 116 151 188 227 281 340
#     4  10  22  37  58  85 118 145 185 241 283 327
#
# _framework density 24.315056999999999
#
# number of rings (size 3 to 8) (size 9 to 14) (size 15 to 20)
#    0.000    2.000    2.500    0.750    1.750    2.500 
#    2.250    2.500    0.000    0.000    0.000    0.000 
#    0.000    0.000    0.000    0.000    0.000    0.000 
#
# Total GULP energy -89193.039233 kJ/mol
# GULP energy per Si atom -5574.564952 kJ/mol
# Density = 2.425971 g / cm^3
# Si number density = 24.315057 Si / 1000 Ang^3
#
#
#
# Elastic Constant Matrix: (Units=GPa)
#
#
# Indices 1 2 3 4 5 6 
#
# 1 52.8370 26.5286 17.5881 13.3219 0.6644 -33.2206
# 2 26.5286 61.2212 30.3523 13.5672 6.2318 -31.0018
# 3 17.5881 30.3523 125.1138 19.7361 9.3869 -16.4966
# 4 13.3219 13.5672 19.7361 48.8156 -12.3961 -2.0191
# 5 0.6644 6.2318 9.3869 -12.3961 38.2489 7.4763
# 6 -33.2206 -31.0018 -16.4966 -2.0191 7.4763 47.5154
#
#
#
# Elastic Compliance Matrix: (Units=1/GPa)
#
#
# Indices 1 2 3 4 5 6 
#
# 1 0.041251 0.002085 0.001007 -0.013990 -0.012064 0.031855
# 2 0.002085 0.031907 -0.002361 -0.010738 -0.012628 0.022986
# 3 0.001007 -0.002361 0.009845 -0.004516 -0.004106 0.003036
# 4 -0.013990 -0.010738 -0.004516 0.032760 0.017574 -0.019728
# 5 -0.012064 -0.012628 -0.004106 0.017574 0.039728 -0.023603
# 6 0.031855 0.022986 0.003036 -0.019728 -0.023603 0.062244
#
#
# Mechanical properties :
#
#
# Convention : Reuss Voigt Hill
#
# Bulk Modulus (GPa) = 11.83943 43.12333 27.48138
# Shear Modulus (GPa) = 20.45590 37.89619 29.17604
#
# Velocity S-wave (km/s) = 2.90364 3.95213 3.46774
# Velocity P-wave (km/s) = 4.01513 6.21285 5.23071
#
# Compressibility (1/GPa) = 0.08446354
#
# Stress axis : x y z
#
# Youngs Moduli (GPa) = 24.24165 31.34147 101.57835
#
# Poissons Ratio (x) = -0.06533 -0.10233
# Poissons Ratio (y) = -0.05053 0.23987
# Poissons Ratio (z) = -0.02442 0.07401
#
# Static dielectric constant tensor:
#      x y z
#    x 1.991950 -0.006170 0.050400 
#    y -0.006170 2.011730 0.017730 
#    z 0.050400 0.017730 1.981650 
# 
# From -- ./inp_files/258935.got.cif
#   From: 2010.05.17/outbox.cif.g08.bks.cpg/sg2_130_cif.got.tgz:258935.got - 2010.06.03 11:33:40.
