data_PCOD9099633
_publ_section_title
;
Structure prediction by ZEFSAII (Michael W. Deem and Ramdas Pophale) SiO2 
 PCOD9099633
Probable space group: P -1
;
_chemical_formula_sum "Si O2"
_cell_formula_units_Z 12
_cell_length_a 8.159072
_cell_length_b 8.296658
_cell_length_c 14.595472
_cell_angle_alpha 27.253911
_cell_angle_beta 89.862498
_cell_angle_gamma 85.253460
_cell_volume 445.377644
_symmetry_space_group_name_H-M "P -1"
_symmetry_group_IT_number 2
_symmetry_cell_setting 'triclinic'
loop_
_space_group_symop_operation_xyz
x,y,z
-x,-y,-z
loop_
_atom_site_type_symbol
_atom_site_label
_atom_site_fract_x
_atom_site_fract_y
_atom_site_fract_z
Si Si1 0.135802 0.124447 0.805399
Si Si2 0.526729 0.876336 0.940240
Si Si3 0.011175 0.112708 0.246277
Si Si4 0.947353 0.557648 0.740788
Si Si5 0.581638 0.561588 0.689369
Si Si6 0.397865 0.855350 0.369278
O O1 0.333187 0.062775 0.847477
O O2 0.049148 0.450686 0.702595
O O3 0.097238 0.101071 0.709603
O O4 0.066566 0.797594 0.019590
O O5 0.625984 0.166921 0.838309
O O6 0.577836 0.826212 0.860364
O O7 0.528628 0.537648 0.175617
O O8 0.972738 0.204742 0.306354
O O9 0.200215 0.898711 0.350620
O O10 0.000000 0.500000 0.000000
O O11 0.753473 0.679468 0.655548
O O12 0.477383 0.824856 0.484319
O O13 0.500000 0.500000 0.500000
#
# Coordination Sequence:
#
# PCOD9099633 Si02
#       6
#     2   2   2   2   2   2
#     4   9  17  34  58  84 117 159 199 240 299 360
#     4   9  18  34  61  88 115 156 200 247 298 354
#     4  10  21  37  60  88 120 161 201 242 302 363
#     4   9  18  34  58  84 118 160 197 243 299 357
#     4   9  18  34  55  85 115 150 200 242 291 353
#     4  10  20  37  61  87 118 158 200 246 299 356
#
# _framework density 26.943427
#
# number of rings (size 3 to 8) (size 9 to 14) (size 15 to 20)
#    0.000    2.667    0.000    2.000    0.000    6.000 
#    0.000   16.667    0.000   10.000    0.000    0.000 
#    0.000    0.000    0.000    0.000    0.000    0.000 
#
# Total GULP energy -67198.501192 kJ/mol
# GULP energy per Si atom -5599.875099 kJ/mol
# Density = 2.688210 g / cm^3
# Si number density = 26.943427 Si / 1000 Ang^3
#
#
#
# Elastic Constant Matrix: (Units=GPa)
#
#
# Indices 1 2 3 4 5 6 
#
# 1 77.4791 80.5686 26.4786 12.3703 5.2578 7.1028
# 2 80.5686 176.7155 58.7470 30.5025 14.7209 19.6138
# 3 26.4786 58.7470 104.7625 26.6495 -3.0923 12.9362
# 4 12.3703 30.5025 26.6495 71.1388 2.0016 2.4396
# 5 5.2578 14.7209 -3.0923 2.0016 49.5846 9.2912
# 6 7.1028 19.6138 12.9362 2.4396 9.2912 42.7377
#
#
#
# Elastic Compliance Matrix: (Units=1/GPa)
#
#
# Indices 1 2 3 4 5 6 
#
# 1 0.024632 -0.011480 -0.000053 0.000607 0.000575 0.001031
# 2 -0.011480 0.012887 -0.003591 -0.002040 -0.002319 -0.002299
# 3 -0.000053 -0.003591 0.012782 -0.003221 0.002480 -0.002568
# 4 0.000607 -0.002040 -0.003221 0.016012 -0.000494 0.001004
# 5 0.000575 -0.002319 0.002480 -0.000494 0.021812 -0.004496
# 6 0.001031 -0.002299 -0.002568 0.001004 -0.004496 0.025979
#
#
# Mechanical properties :
#
#
# Convention : Reuss Voigt Hill
#
# Bulk Modulus (GPa) = 49.86601 76.72728 63.29665
# Shear Modulus (GPa) = 33.10470 45.56975 39.33722
#
# Velocity S-wave (km/s) = 3.50905 4.11702 3.82513
# Velocity P-wave (km/s) = 5.91318 7.15114 6.56142
#
# Compressibility (1/GPa) = 0.02005374
#
# Stress axis : x y z
#
# Youngs Moduli (GPa) = 40.59789 77.59843 78.23525
#
# Poissons Ratio (x) = 0.89081 0.00415
# Poissons Ratio (y) = 0.46605 0.28091
# Poissons Ratio (z) = 0.00216 0.27863
#
# Static dielectric constant tensor:
#      x y z
#    x 1.987880 0.007750 -0.048140 
#    y 0.007750 2.188670 -0.001930 
#    z -0.048140 -0.001930 2.189700 
# 
# From -- ./inp_files/152243.got.cif
#   From: 2010.05.17/outbox.cif.g08.bks.cpg/sg2_77_cif.got.tgz:152243.got - 2010.06.03 11:33:40.
