data_PCOD9099530
_publ_section_title
;
Structure prediction by ZEFSAII (Michael W. Deem and Ramdas Pophale) SiO2 
 PCOD9099530
Probable space group: P -1
;
_chemical_formula_sum "Si O2"
_cell_formula_units_Z 10
_cell_length_a 15.848099
_cell_length_b 5.271688
_cell_length_c 7.143523
_cell_angle_alpha 78.350347
_cell_angle_beta 64.035653
_cell_angle_gamma 58.158119
_cell_volume 455.495289
_symmetry_space_group_name_H-M "P -1"
_symmetry_group_IT_number 2
_symmetry_cell_setting 'triclinic'
loop_
_space_group_symop_operation_xyz
x,y,z
-x,-y,-z
loop_
_atom_site_type_symbol
_atom_site_label
_atom_site_fract_x
_atom_site_fract_y
_atom_site_fract_z
Si Si1 0.477705 0.313660 0.895541
Si Si2 0.018476 0.187750 0.116411
Si Si3 0.195599 0.667399 0.546405
Si Si4 0.305614 0.015636 0.464281
Si Si5 0.749630 0.237617 0.116907
O O1 0.570034 0.216570 0.662288
O O2 0.355795 0.511563 0.916241
O O3 0.500000 0.500000 0.000000
O O4 0.500000 0.000000 0.000000
O O5 0.929351 0.246957 0.351824
O O6 0.000000 0.500000 0.000000
O O7 0.144072 0.966994 0.077514
O O8 0.000000 0.000000 0.000000
O O9 0.231082 0.913759 0.436658
O O10 0.221922 0.621280 0.752282
O O11 0.269294 0.358354 0.415469
O O12 0.280919 0.982574 0.709004
#
# Coordination Sequence:
#
# PCOD9099530 Si02
#       5
#     2   2   2   2   2
#     4  12  27  40  55  80 119 157 188 228 280 333
#     4  10  16  31  55  95 111 131 176 245 283 319
#     4   9  18  32  62  91 107 135 185 244 279 320
#     4  10  20  37  60  82 113 142 194 233 275 324
#     4   9  22  35  64  83 114 144 192 228 278 330
#
# _framework density 21.954125000000001
#
# number of rings (size 3 to 8) (size 9 to 14) (size 15 to 20)
#    1.200    0.800    2.000    1.800    2.800    0.800 
#    0.000    0.000    0.000    7.200    0.000    0.000 
#    0.000    0.000    0.000    0.000    0.000    0.000 
#
# Total GULP energy -55734.141008 kJ/mol
# GULP energy per Si atom -5573.414101 kJ/mol
# Density = 2.190416 g / cm^3
# Si number density = 21.954125 Si / 1000 Ang^3
#
#
#
# Elastic Constant Matrix: (Units=GPa)
#
#
# Indices 1 2 3 4 5 6 
#
# 1 81.7504 61.4331 29.8588 10.9324 -15.3241 -5.6722
# 2 61.4331 103.1723 24.8329 37.8203 -13.7752 26.2479
# 3 29.8588 24.8329 33.6757 17.4449 -14.7399 -20.9517
# 4 10.9324 37.8203 17.4449 35.5267 -4.4638 -24.5793
# 5 -15.3241 -13.7752 -14.7399 -4.4638 23.6416 11.8895
# 6 -5.6722 26.2479 -20.9517 -24.5793 11.8895 47.0729
#
#
#
# Elastic Compliance Matrix: (Units=1/GPa)
#
#
# Indices 1 2 3 4 5 6 
#
# 1 0.018034 0.005480 -0.021474 -0.013301 0.008850 -0.019621
# 2 0.005480 -0.014211 0.002397 0.030566 -0.011847 0.028603
# 3 -0.021474 0.002397 0.077184 -0.021954 0.025105 0.012625
# 4 -0.013301 0.030566 -0.021954 -0.015332 0.012512 -0.039584
# 5 0.008850 -0.011847 0.025105 0.012512 0.053131 0.011960
# 6 -0.019621 0.028603 0.012625 -0.039584 0.011960 -0.015140
#
#
# Mechanical properties :
#
#
# Convention : Reuss Voigt Hill
#
# Bulk Modulus (GPa) = 18.58311 50.09420 34.33866
# Shear Modulus (GPa) = 33.60217 28.07982 30.84099
#
# Velocity S-wave (km/s) = 3.91648 3.58022 3.75212
# Velocity P-wave (km/s) = 5.37910 6.32122 5.86910
#
# Compressibility (1/GPa) = 0.05381231
#
# Stress axis : x y z
#
# Youngs Moduli (GPa) = 55.45058 -70.36977 12.95601
#
# Poissons Ratio (x) = 0.38561 0.27822
# Poissons Ratio (y) = -0.30386 -0.03105
# Poissons Ratio (z) = 1.19076 0.16867
#
# Static dielectric constant tensor:
#      x y z
#    x 1.996860 0.042520 0.060980 
#    y 0.042520 1.798970 0.038080 
#    z 0.060980 0.038080 1.961950 
# 
# From -- ./inp_files/20274.got.cif
#   From: 2010.05.17/outbox.cif.g08.bks.cpg/sg2_11_cif.got.tgz:20274.got - 2010.06.03 11:33:40.
