data_PCOD9099195
_publ_section_title
;
Structure prediction by ZEFSAII (Michael W. Deem and Ramdas Pophale) SiO2 
 PCOD9099195
Probable space group: P -1
;
_chemical_formula_sum "Si O2"
_cell_formula_units_Z 16
_cell_length_a 12.093100
_cell_length_b 7.713402
_cell_length_c 13.529338
_cell_angle_alpha 149.030777
_cell_angle_beta 102.431563
_cell_angle_gamma 87.585816
_cell_volume 608.153734
_symmetry_space_group_name_H-M "P -1"
_symmetry_group_IT_number 2
_symmetry_cell_setting 'triclinic'
loop_
_space_group_symop_operation_xyz
x,y,z
-x,-y,-z
loop_
_atom_site_type_symbol
_atom_site_label
_atom_site_fract_x
_atom_site_fract_y
_atom_site_fract_z
Si Si1 0.706213 0.679668 0.478491
Si Si2 0.884174 0.053127 0.547022
Si Si3 0.570455 0.966203 0.208197
Si Si4 0.329675 0.766728 0.455631
Si Si5 0.308012 0.360630 0.063622
Si Si6 0.214397 0.016170 0.162242
Si Si7 0.042244 0.279634 0.985083
Si Si8 0.649189 0.234770 0.075720
O O1 0.662436 0.330211 0.365467
O O2 0.726537 0.974377 0.713193
O O3 0.629753 0.540669 0.294587
O O4 0.832857 0.794653 0.503150
O O5 0.773145 0.046735 0.453658
O O6 0.919651 0.450852 0.786492
O O7 0.000000 0.000000 0.500000
O O8 0.562907 0.035338 0.357161
O O9 0.626359 0.656662 0.035192
O O10 0.453101 0.901895 0.090263
O O11 0.340282 0.706252 0.310249
O O12 0.281176 0.372149 0.293796
O O13 0.166144 0.212079 0.948537
O O14 0.347564 0.072799 0.997191
O O15 0.232645 0.715254 0.944609
O O16 0.078232 0.004818 0.146781
O O17 0.000000 0.500000 0.000000
#
# Coordination Sequence:
#
# PCOD9099195 Si02
#       8
#     2   2   2   2   2   2   2   2
#     4  10  20  37  59  89 116 159 199 243 301 353
#     4  11  23  38  59  87 129 157 195 251 298 358
#     4  10  21  39  67  86 118 159 206 247 295 350
#     4   9  22  37  57  91 118 155 202 244 296 350
#     4   9  20  36  59  87 120 150 200 245 288 357
#     4  10  21  39  63  87 120 156 206 242 293 366
#     4  11  22  38  60  87 120 161 193 241 307 353
#     4  10  21  39  64  91 115 158 204 254 292 345
#
# _framework density 26.309135999999999
#
# number of rings (size 3 to 8) (size 9 to 14) (size 15 to 20)
#    0.000    2.000    1.250    2.250    1.750   12.000 
#    0.000    5.000    2.750   10.500    0.000    0.000 
#    0.000    0.000    0.000    0.000    0.000    0.000 
#
# Total GULP energy -89234.409102 kJ/mol
# GULP energy per Si atom -5577.150569 kJ/mol
# Density = 2.624926 g / cm^3
# Si number density = 26.309136 Si / 1000 Ang^3
#
#
#
# Elastic Constant Matrix: (Units=GPa)
#
#
# Indices 1 2 3 4 5 6 
#
# 1 94.1807 9.1379 -5.1079 0.0270 8.3915 -8.0839
# 2 9.1379 95.6236 11.1795 -24.3111 13.5469 0.8020
# 3 -5.1079 11.1795 90.5686 -25.0661 17.9763 -2.5948
# 4 0.0270 -24.3111 -25.0661 39.5826 3.4403 5.4454
# 5 8.3915 13.5469 17.9763 3.4403 32.1745 -3.7024
# 6 -8.0839 0.8020 -2.5948 5.4454 -3.7024 40.6677
#
#
#
# Elastic Compliance Matrix: (Units=1/GPa)
#
#
# Indices 1 2 3 4 5 6 
#
# 1 0.011240 -0.000624 0.001634 0.000673 -0.003429 0.001948
# 2 -0.000624 0.014626 0.003381 0.012325 -0.009515 -0.002713
# 3 0.001634 0.003381 0.017287 0.014419 -0.013254 -0.001776
# 4 0.000673 0.012325 0.014419 0.044561 -0.018978 -0.006884
# 5 -0.003429 -0.009515 -0.013254 -0.018978 0.046036 0.005393
# 6 0.001948 -0.002713 -0.001776 -0.006884 0.005393 0.026330
#
#
# Mechanical properties :
#
#
# Convention : Reuss Voigt Hill
#
# Bulk Modulus (GPa) = 19.25522 34.53245 26.89384
# Shear Modulus (GPa) = 29.65444 40.16250 34.90847
#
# Velocity S-wave (km/s) = 3.36095 3.91136 3.64656
# Velocity P-wave (km/s) = 4.73245 5.79245 5.28907
#
# Compressibility (1/GPa) = 0.05193396
#
# Stress axis : x y z
#
# Youngs Moduli (GPa) = 88.97064 68.37018 57.84826
#
# Poissons Ratio (x) = 0.04269 -0.09451
# Poissons Ratio (y) = 0.05555 -0.19560
# Poissons Ratio (z) = -0.14536 -0.23118
#
# Static dielectric constant tensor:
#      x y z
#    x 2.161040 -0.057150 0.010530 
#    y -0.057150 2.219490 0.005470 
#    z 0.010530 0.005470 2.194850 
# 
# From -- ./inp_files/188709.got.cif
#   From: 2010.05.17/outbox.cif.g08.bks.cpg/sg2_95_cif.got.tgz:188709.got - 2010.06.03 11:33:40.
