data_PCOD9099213
_publ_section_title
;
Structure prediction by ZEFSAII (Michael W. Deem and Ramdas Pophale) SiO2 
 PCOD9099213
Probable space group: P -1
;
_chemical_formula_sum "Si O2"
_cell_formula_units_Z 14
_cell_length_a 5.467966
_cell_length_b 14.511792
_cell_length_c 11.183708
_cell_angle_alpha 123.328039
_cell_angle_beta 62.018234
_cell_angle_gamma 104.804889
_cell_volume 654.795264
_symmetry_space_group_name_H-M "P -1"
_symmetry_group_IT_number 2
_symmetry_cell_setting 'triclinic'
loop_
_space_group_symop_operation_xyz
x,y,z
-x,-y,-z
loop_
_atom_site_type_symbol
_atom_site_label
_atom_site_fract_x
_atom_site_fract_y
_atom_site_fract_z
Si Si1 0.234719 0.858564 0.442968
Si Si2 0.745106 0.758090 0.588106
Si Si3 0.603650 0.430542 0.540961
Si Si4 0.876329 0.883960 0.306999
Si Si5 0.097482 0.160379 0.990097
Si Si6 0.597472 0.040685 0.137001
Si Si7 0.791279 0.643669 0.738475
O O1 0.562210 0.837953 0.352671
O O2 0.069676 0.774143 0.505255
O O3 0.075900 0.852205 0.347628
O O4 0.174398 0.983944 0.588722
O O5 0.610938 0.668617 0.467520
O O6 0.614271 0.879072 0.691295
O O7 0.669742 0.718026 0.710874
O O8 0.500000 0.500000 0.500000
O O9 0.642934 0.525493 0.698797
O O10 0.901248 0.384107 0.399900
O O11 0.006949 0.844558 0.124163
O O12 0.333783 0.066938 0.879295
O O13 0.193312 0.279474 0.095439
O O14 0.868938 0.114995 0.103344
O O15 0.500000 0.000000 0.000000
#
# Coordination Sequence:
#
# PCOD9099213 Si02
#       7
#     2   2   2   2   2   2   2
#     4  10  24  40  59  83 121 169 213 239 286 351
#     4  11  21  35  62  86 121 156 200 253 293 363
#     4   9  20  37  57  87 115 151 196 245 314 357
#     4  10  24  40  57  84 123 170 206 242 286 360
#     4  11  23  35  57  87 124 156 194 245 308 367
#     4  11  22  33  53  91 122 152 189 241 315 365
#     4  10  20  37  59  90 115 151 195 251 314 360
#
# _framework density 21.380728999999999
#
# number of rings (size 3 to 8) (size 9 to 14) (size 15 to 20)
#    0.000    1.714    2.857    0.857   12.000    0.000 
#    0.000    0.000    0.000    1.714    0.000    0.000 
#    0.000    0.000    0.000    0.000    0.000    0.000 
#
# Total GULP energy -78239.083831 kJ/mol
# GULP energy per Si atom -5588.505988 kJ/mol
# Density = 2.133207 g / cm^3
# Si number density = 21.380729 Si / 1000 Ang^3
#
#
#
# Elastic Constant Matrix: (Units=GPa)
#
#
# Indices 1 2 3 4 5 6 
#
# 1 83.4011 29.9151 27.0711 12.1844 10.5681 16.2971
# 2 29.9151 61.2661 34.4247 11.1797 4.1831 24.0253
# 3 27.0711 34.4247 85.0215 17.8246 26.7544 4.9140
# 4 12.1844 11.1797 17.8246 30.4797 2.6791 0.1936
# 5 10.5681 4.1831 26.7544 2.6791 41.4044 -2.4571
# 6 16.2971 24.0253 4.9140 0.1936 -2.4571 42.2040
#
#
#
# Elastic Compliance Matrix: (Units=1/GPa)
#
#
# Indices 1 2 3 4 5 6 
#
# 1 0.015612 -0.004804 -0.001274 -0.003481 -0.002646 -0.003284
# 2 -0.004804 0.030454 -0.010705 -0.003292 0.004451 -0.013961
# 3 -0.001274 -0.010705 0.021524 -0.007133 -0.011837 0.003423
# 4 -0.003481 -0.003292 -0.007133 0.039243 0.003533 0.004075
# 5 -0.002646 0.004451 -0.011837 0.003533 0.031899 0.001707
# 6 -0.003284 -0.013961 0.003423 0.004075 0.001707 0.032592
#
#
# Mechanical properties :
#
#
# Convention : Reuss Voigt Hill
#
# Bulk Modulus (GPa) = 29.38934 45.83450 37.61192
# Shear Modulus (GPa) = 23.12337 32.03614 27.57975
#
# Velocity S-wave (km/s) = 3.29219 3.87507 3.59546
# Velocity P-wave (km/s) = 5.31290 6.44247 5.90476
#
# Compressibility (1/GPa) = 0.03402594
#
# Stress axis : x y z
#
# Youngs Moduli (GPa) = 64.05210 32.83594 46.45990
#
# Poissons Ratio (x) = 0.15774 0.05917
# Poissons Ratio (y) = 0.30771 0.49734
# Poissons Ratio (z) = 0.08158 0.35150
#
# Static dielectric constant tensor:
#      x y z
#    x 1.877530 0.008080 0.003090 
#    y 0.008080 1.796790 -0.001950 
#    z 0.003090 -0.001950 1.750520 
# 
# From -- ./inp_files/34070.got.cif
#   From: 2010.05.17/outbox.cif.g08.bks.cpg/sg2_18_cif.got.tgz:34070.got - 2010.06.03 11:33:40.
