data_PCOD9099474
_publ_section_title
;
Structure prediction by ZEFSAII (Michael W. Deem and Ramdas Pophale) SiO2 
 PCOD9099474
Probable space group: P -1
;
_chemical_formula_sum "Si O2"
_cell_formula_units_Z 16
_cell_length_a 13.718288
_cell_length_b 9.087894
_cell_length_c 11.069644
_cell_angle_alpha 78.930008
_cell_angle_beta 85.059169
_cell_angle_gamma 144.046360
_cell_volume 721.947577
_symmetry_space_group_name_H-M "P -1"
_symmetry_group_IT_number 2
_symmetry_cell_setting 'triclinic'
loop_
_space_group_symop_operation_xyz
x,y,z
-x,-y,-z
loop_
_atom_site_type_symbol
_atom_site_label
_atom_site_fract_x
_atom_site_fract_y
_atom_site_fract_z
Si Si1 0.885104 0.152420 0.868308
Si Si2 0.493666 0.312271 0.561308
Si Si3 0.545452 0.825901 0.677640
Si Si4 0.649597 0.665316 0.801868
Si Si5 0.153473 0.296996 0.375950
Si Si6 0.258158 0.067924 0.830125
Si Si7 0.852177 0.758077 0.154496
Si Si8 0.120749 0.594599 0.360443
O O1 0.895122 0.316675 0.766372
O O2 0.056402 0.269949 0.795262
O O3 0.711374 0.825665 0.893370
O O4 0.870069 0.157793 0.013149
O O5 0.500000 0.500000 0.500000
O O6 0.669568 0.492473 0.590499
O O7 0.317217 0.056726 0.706258
O O8 0.491635 0.218823 0.452636
O O9 0.665288 0.829396 0.685024
O O10 0.354081 0.556001 0.811191
O O11 0.667836 0.117969 0.665655
O O12 0.786284 0.706361 0.753644
O O13 0.450642 0.346974 0.836223
O O14 0.086984 0.380379 0.362728
O O15 0.000000 0.000000 0.500000
O O16 0.183639 0.134691 0.786730
O O17 0.000000 0.000000 0.000000
O O18 0.000000 0.500000 0.500000
#
# Coordination Sequence:
#
# PCOD9099474 Si02
#       8
#     2   2   2   2   2   2   2   2
#     4  10  20  37  60  90 130 160 204 262 313 380
#     4  11  20  36  65  93 124 161 210 268 311 370
#     4  10  20  39  62  95 128 161 208 266 318 372
#     4   9  18  34  59  90 115 162 206 253 309 367
#     4  11  23  39  61  92 122 160 213 261 318 384
#     4   9  18  34  59  93 124 162 214 254 309 368
#     4   9  18  33  60  96 128 161 210 253 306 374
#     4  11  26  42  59  92 129 169 209 264 330 379
#
# _framework density 22.162272999999999
#
# number of rings (size 3 to 8) (size 9 to 14) (size 15 to 20)
#    0.000    2.000    3.750    1.875    3.500    1.500 
#    0.000    2.500    0.000    0.750    0.000    0.875 
#    0.000    0.000    0.000    0.000    0.000    0.000 
#
# Total GULP energy -89224.619460 kJ/mol
# GULP energy per Si atom -5576.538716 kJ/mol
# Density = 2.211183 g / cm^3
# Si number density = 22.162273 Si / 1000 Ang^3
#
#
#
# Elastic Constant Matrix: (Units=GPa)
#
#
# Indices 1 2 3 4 5 6 
#
# 1 116.6083 21.5520 40.3080 -7.5408 5.0750 -10.1501
# 2 21.5520 42.9424 22.5842 -11.0955 3.0651 -6.8169
# 3 40.3080 22.5842 102.3265 3.5973 -5.9120 -13.7783
# 4 -7.5408 -11.0955 3.5973 27.2516 0.2838 0.2969
# 5 5.0750 3.0651 -5.9120 0.2838 29.6672 -4.7066
# 6 -10.1501 -6.8169 -13.7783 0.2969 -4.7066 29.8096
#
#
#
# Elastic Compliance Matrix: (Units=1/GPa)
#
#
# Indices 1 2 3 4 5 6 
#
# 1 0.010659 -0.002433 -0.003744 0.002465 -0.002187 0.000973
# 2 -0.002433 0.032018 -0.006421 0.013220 -0.003856 0.002785
# 3 -0.003744 -0.006421 0.013732 -0.005561 0.004794 0.004416
# 4 0.002465 0.013220 -0.005561 0.043524 -0.003257 0.000345
# 5 -0.002187 -0.003856 0.004794 -0.003257 0.036479 0.006381
# 6 0.000973 0.002785 0.004416 0.000345 0.006381 0.037560
#
#
# Mechanical properties :
#
#
# Convention : Reuss Voigt Hill
#
# Bulk Modulus (GPa) = 32.03750 47.86287 39.95018
# Shear Modulus (GPa) = 23.85835 29.17455 26.51645
#
# Velocity S-wave (km/s) = 3.28461 3.63217 3.46275
# Velocity P-wave (km/s) = 5.37328 6.26367 5.83549
#
# Compressibility (1/GPa) = 0.03121342
#
# Stress axis : x y z
#
# Youngs Moduli (GPa) = 93.81942 31.23232 72.82503
#
# Poissons Ratio (x) = 0.07599 0.27264
# Poissons Ratio (y) = 0.22827 0.46759
# Poissons Ratio (z) = 0.35123 0.20053
#
# Static dielectric constant tensor:
#      x y z
#    x 1.849870 0.021850 -0.027300 
#    y 0.021850 1.894300 0.027440 
#    z -0.027300 0.027440 1.863140 
# 
# From -- ./inp_files/514107.got.cif
#   From: 2010.05.17/outbox.cif.g08.bks.cpg/sg2_258_cif.got.tgz:514107.got - 2010.06.03 11:33:40.
