data_PCOD9099217
_publ_section_title
;
Structure prediction by ZEFSAII (Michael W. Deem and Ramdas Pophale) SiO2 
 PCOD9099217
Probable space group: P -1
;
_chemical_formula_sum "Si O2"
_cell_formula_units_Z 16
_cell_length_a 14.305666
_cell_length_b 17.284032
_cell_length_c 22.622095
_cell_angle_alpha 156.318499
_cell_angle_beta 156.899309
_cell_angle_gamma 36.763098
_cell_volume 850.745181
_symmetry_space_group_name_H-M "P -1"
_symmetry_group_IT_number 2
_symmetry_cell_setting 'triclinic'
loop_
_space_group_symop_operation_xyz
x,y,z
-x,-y,-z
loop_
_atom_site_type_symbol
_atom_site_label
_atom_site_fract_x
_atom_site_fract_y
_atom_site_fract_z
Si Si1 0.003035 0.697311 0.309597
Si Si2 0.566682 0.791647 0.906580
Si Si3 0.134796 0.822828 0.821163
Si Si4 0.449024 0.527662 0.420674
Si Si5 0.031682 0.574880 0.478066
Si Si6 0.039258 0.150805 0.073972
Si Si7 0.284008 0.124973 0.823580
Si Si8 0.226967 0.524763 0.862653
O O1 0.799161 0.721373 0.160632
O O2 0.889941 0.555233 0.198619
O O3 0.221747 0.627192 0.355964
O O4 0.122786 0.909661 0.558730
O O5 0.621292 0.680680 0.801964
O O6 0.324305 0.634471 0.681013
O O7 0.752441 0.834355 0.099950
O O8 0.500000 0.000000 0.000000
O O9 0.065264 0.645475 0.705206
O O10 0.995101 0.729516 0.614949
O O11 0.429280 0.870209 0.015700
O O12 0.064604 0.018240 0.939403
O O13 0.500000 0.500000 0.500000
O O14 0.704375 0.676282 0.650039
O O15 0.915882 0.590493 0.358024
O O16 0.816893 0.255756 0.014897
O O17 0.000000 0.000000 0.000000
O O18 0.500000 0.500000 0.000000
#
# Coordination Sequence:
#
# PCOD9099217 Si02
#       8
#     2   2   2   2   2   2   2   2
#     4  11  23  39  61  90 129 164 209 258 319 375
#     4  11  22  37  62  90 122 159 210 259 309 370
#     4  10  20  37  63  88 121 160 211 254 305 373
#     4  12  22  39  63  93 125 162 212 263 307 376
#     4  10  20  37  59  90 120 161 207 254 306 374
#     4  12  23  39  64  96 122 165 213 256 311 372
#     4  10  22  38  61  91 124 167 203 256 318 376
#     4  12  24  40  61  91 129 165 206 262 320 375
#
# _framework density 18.807043
#
# number of rings (size 3 to 8) (size 9 to 14) (size 15 to 20)
#    0.000    1.000    5.000    2.250    1.750    0.500 
#    0.000    0.625    0.000    6.000    0.000    0.000 
#    0.000    0.000    0.000    0.000    0.000    0.000 
#
# Total GULP energy -89306.618913 kJ/mol
# GULP energy per Si atom -5581.663682 kJ/mol
# Density = 1.876424 g / cm^3
# Si number density = 18.807043 Si / 1000 Ang^3
#
#
#
# Elastic Constant Matrix: (Units=GPa)
#
#
# Indices 1 2 3 4 5 6 
#
# 1 95.4574 45.5781 29.0541 8.3525 -30.0559 4.1861
# 2 45.5781 117.3691 32.0914 1.8508 -21.9493 -6.3624
# 3 29.0541 32.0914 60.7696 8.5776 -24.0410 -4.8840
# 4 8.3525 1.8508 8.5776 30.0429 -2.0562 -1.3630
# 5 -30.0559 -21.9493 -24.0410 -2.0562 53.7177 4.2828
# 6 4.1861 -6.3624 -4.8840 -1.3630 4.2828 40.6457
#
#
#
# Elastic Compliance Matrix: (Units=1/GPa)
#
#
# Indices 1 2 3 4 5 6 
#
# 1 0.015659 -0.004376 -0.002666 -0.003069 0.005930 -0.003346
# 2 -0.004376 0.011427 -0.003881 0.001730 0.000407 0.001788
# 3 -0.002666 -0.003881 0.023438 -0.005155 0.007090 0.001563
# 4 -0.003069 0.001730 -0.005155 0.035425 -0.002071 0.001373
# 5 0.005930 0.000407 0.007090 -0.002071 0.025388 -0.002440
# 6 -0.003346 0.001788 0.001563 0.001373 -0.002440 0.025718
#
#
# Mechanical properties :
#
#
# Convention : Reuss Voigt Hill
#
# Bulk Modulus (GPa) = 34.87071 54.11592 44.49332
# Shear Modulus (GPa) = 29.68067 36.00610 32.84338
#
# Velocity S-wave (km/s) = 3.97693 4.38025 4.18345
# Velocity P-wave (km/s) = 6.29837 7.37691 6.85887
#
# Compressibility (1/GPa) = 0.02867736
#
# Stress axis : x y z
#
# Youngs Moduli (GPa) = 63.86153 87.51561 42.66589
#
# Poissons Ratio (x) = 0.38298 0.11373
# Poissons Ratio (y) = 0.27946 0.16560
# Poissons Ratio (z) = 0.17022 0.33968
#
# Static dielectric constant tensor:
#      x y z
#    x 1.703890 -0.000960 -0.017470 
#    y -0.000960 1.647920 0.011860 
#    z -0.017470 0.011860 1.661070 
# 
# From -- ./inp_files/333620.got.cif
#   From: 2010.05.17/outbox.cif.g08.bks.cpg/sg2_167_cif.got.tgz:333620.got - 2010.06.03 11:33:40.
