data_PCOD9099737
_publ_section_title
;
Structure prediction by ZEFSAII (Michael W. Deem and Ramdas Pophale) SiO2 
 PCOD9099737
Probable space group: P -1
;
_chemical_formula_sum "Si O2"
_cell_formula_units_Z 11
_cell_length_a 8.634412
_cell_length_b 7.269157
_cell_length_c 10.392329
_cell_angle_alpha 120.212272
_cell_angle_beta 48.951767
_cell_angle_gamma 97.214693
_cell_volume 403.549398
_symmetry_space_group_name_H-M "P -1"
_symmetry_group_IT_number 2
_symmetry_cell_setting 'triclinic'
loop_
_space_group_symop_operation_xyz
x,y,z
-x,-y,-z
loop_
_atom_site_type_symbol
_atom_site_label
_atom_site_fract_x
_atom_site_fract_y
_atom_site_fract_z
Si Si1 0.505970 0.292341 0.338181
Si Si2 0.137295 0.884644 0.207338
Si Si3 0.689475 0.067246 0.589566
Si Si4 0.000000 0.000000 0.000000
Si Si5 0.230889 0.333424 0.264279
Si Si6 0.230598 0.375217 0.981190
O O1 0.500000 0.500000 0.500000
O O2 0.411639 0.358318 0.271115
O O3 0.345620 0.167910 0.441375
O O4 0.745732 0.123407 0.151893
O O5 0.211348 0.863462 0.309651
O O6 0.164397 0.632038 0.062712
O O7 0.239683 0.073305 0.171196
O O8 0.883028 0.021920 0.367026
O O9 0.455925 0.233232 0.742164
O O10 0.942956 0.758404 0.972579
O O11 0.278351 0.381766 0.110519
O O12 0.000000 0.500000 0.500000
#
# Coordination Sequence:
#
# PCOD9099737 Si02
#       6
#     2   2   2   1   2   2
#     4  10  20  37  61  90 126 165 205 257 316 371
#     4  10  20  38  61  91 127 162 203 262 318 364
#     4   9  19  34  59  87 117 159 202 248 308 366
#     4  10  22  38  64  92 124 170 208 252 320 376
#     4  11  23  39  68  99 123 163 218 262 309 378
#     4  11  22  41  64  91 125 164 211 259 311 374
#
# _framework density 27.258123999999999
#
# number of rings (size 3 to 8) (size 9 to 14) (size 15 to 20)
#    0.000    1.818    0.000    6.000    0.000    6.545 
#    0.000    4.545    0.000   41.455    0.000   10.182 
#    0.000    0.000    0.000    0.000    0.000    0.000 
#
# Total GULP energy -61444.059733 kJ/mol
# GULP energy per Si atom -5585.823612 kJ/mol
# Density = 2.719608 g / cm^3
# Si number density = 27.258124 Si / 1000 Ang^3
#
#
#
# Elastic Constant Matrix: (Units=GPa)
#
#
# Indices 1 2 3 4 5 6 
#
# 1 146.3541 43.3490 48.5292 0.6698 -0.5549 16.0537
# 2 43.3490 184.4850 26.6520 40.6195 18.0331 42.3499
# 3 48.5292 26.6520 85.7786 28.3653 -12.7020 14.8100
# 4 0.6698 40.6195 28.3653 43.4649 15.1348 1.3241
# 5 -0.5549 18.0331 -12.7020 15.1348 51.2512 -3.4968
# 6 16.0537 42.3499 14.8100 1.3241 -3.4968 58.8072
#
#
#
# Elastic Compliance Matrix: (Units=1/GPa)
#
#
# Indices 1 2 3 4 5 6 
#
# 1 0.010690 -0.003391 -0.009249 0.010375 -0.003952 0.001385
# 2 -0.003391 0.009695 0.003971 -0.011564 0.000489 -0.006767
# 3 -0.009249 0.003971 0.026744 -0.025073 0.012140 -0.005784
# 4 0.010375 -0.011564 -0.025073 0.055966 -0.017913 0.009485
# 5 -0.003952 0.000489 0.012140 -0.017913 0.027576 -0.000288
# 6 0.001385 -0.006767 -0.005784 0.009485 -0.000288 0.022726
#
#
# Mechanical properties :
#
#
# Convention : Reuss Voigt Hill
#
# Bulk Modulus (GPa) = 33.56741 72.63090 53.09915
# Shear Modulus (GPa) = 27.67541 50.57716 39.12629
#
# Velocity S-wave (km/s) = 3.18985 4.31221 3.79278
# Velocity P-wave (km/s) = 5.09001 7.17614 6.22114
#
# Compressibility (1/GPa) = 0.02979080
#
# Stress axis : x y z
#
# Youngs Moduli (GPa) = 93.54727 103.14081 37.39116
#
# Poissons Ratio (x) = 0.34980 0.34583
# Poissons Ratio (y) = 0.31726 -0.14849
# Poissons Ratio (z) = 0.86523 -0.40959
#
# Static dielectric constant tensor:
#      x y z
#    x 2.068510 -0.069250 0.074130 
#    y -0.069250 2.044850 -0.027280 
#    z 0.074130 -0.027280 2.237060 
# 
# From -- ./inp_files/377258.got.cif
#   From: 2010.05.17/outbox.cif.g08.bks.cpg/sg2_189_cif.got.tgz:377258.got - 2010.06.03 11:33:40.
