data_PCOD9099603
_publ_section_title
;
Structure prediction by ZEFSAII (Michael W. Deem and Ramdas Pophale) SiO2 
 PCOD9099603
Probable space group: P -1
;
_chemical_formula_sum "Si O2"
_cell_formula_units_Z 16
_cell_length_a 8.306480
_cell_length_b 22.338985
_cell_length_c 8.383262
_cell_angle_alpha 127.485842
_cell_angle_beta 62.835117
_cell_angle_gamma 139.863325
_cell_volume 795.570699
_symmetry_space_group_name_H-M "P -1"
_symmetry_group_IT_number 2
_symmetry_cell_setting 'triclinic'
loop_
_space_group_symop_operation_xyz
x,y,z
-x,-y,-z
loop_
_atom_site_type_symbol
_atom_site_label
_atom_site_fract_x
_atom_site_fract_y
_atom_site_fract_z
Si Si1 0.887192 0.258832 0.863274
Si Si2 0.616516 0.664860 0.083874
Si Si3 0.782596 0.193249 0.444717
Si Si4 0.448770 0.173087 0.129090
Si Si5 0.294092 0.670668 0.457460
Si Si6 0.909924 0.520274 0.919989
Si Si7 0.672786 0.984966 0.819489
Si Si8 0.865304 0.813012 0.935762
O O1 0.847725 0.213674 0.633335
O O2 0.132665 0.297531 0.898822
O O3 0.646680 0.179199 0.953435
O O4 0.926625 0.360046 0.989848
O O5 0.523567 0.709121 0.303706
O O6 0.378587 0.541261 0.009574
O O7 0.666448 0.706037 0.948680
O O8 0.817059 0.285877 0.500707
O O9 0.491573 0.088379 0.375454
O O10 0.961825 0.188103 0.258976
O O11 0.604736 0.278779 0.333585
O O12 0.317490 0.082136 0.170638
O O13 0.267967 0.162468 0.070930
O O14 0.110311 0.546386 0.322034
O O15 0.000000 0.500000 0.000000
O O16 0.500000 0.000000 0.000000
O O17 0.950141 0.097638 0.869773
#
# Coordination Sequence:
#
# PCOD9099603 Si02
#       8
#     2   2   2   2   2   2   2   2
#     4  12  21  38  61  85 121 157 191 242 290 342
#     4  10  22  38  59  87 116 156 194 238 286 344
#     4  10  20  37  61  86 117 154 194 241 292 341
#     4  11  22  38  61  88 118 156 193 237 290 344
#     4   9  20  38  58  84 119 148 196 237 287 338
#     4  10  20  38  62  83 121 151 195 236 295 340
#     4   9  20  39  60  86 116 151 194 242 289 347
#     4  11  21  40  61  85 119 156 192 241 291 345
#
# _framework density 20.111349000000001
#
# number of rings (size 3 to 8) (size 9 to 14) (size 15 to 20)
#    0.750    1.000    1.250    5.250    0.000    0.500 
#    0.000   13.125    0.000    0.000    0.000    0.000 
#    0.000    0.000    0.000    0.000    0.000    0.000 
#
# Total GULP energy -89251.173857 kJ/mol
# GULP energy per Si atom -5578.198366 kJ/mol
# Density = 2.006557 g / cm^3
# Si number density = 20.111349 Si / 1000 Ang^3
#
#
#
# Elastic Constant Matrix: (Units=GPa)
#
#
# Indices 1 2 3 4 5 6 
#
# 1 96.8189 -17.4941 0.5604 -7.5171 -2.8315 4.0857
# 2 -17.4941 31.6237 3.5972 -1.1395 2.4991 0.2300
# 3 0.5604 3.5972 67.1798 -1.2432 7.6456 3.1703
# 4 -7.5171 -1.1395 -1.2432 25.7716 3.0936 -8.4810
# 5 -2.8315 2.4991 7.6456 3.0936 25.5774 -2.0006
# 6 4.0857 0.2300 3.1703 -8.4810 -2.0006 20.7712
#
#
#
# Elastic Compliance Matrix: (Units=1/GPa)
#
#
# Indices 1 2 3 4 5 6 
#
# 1 0.011854 0.006708 -0.000384 0.003394 0.000288 -0.000934
# 2 0.006708 0.035866 -0.001583 0.003725 -0.002756 -0.000220
# 3 -0.000384 -0.001583 0.015650 0.000280 -0.004807 -0.002644
# 4 0.003394 0.003725 0.000280 0.046327 -0.004287 0.017751
# 5 0.000288 -0.002756 -0.004807 -0.004287 0.041585 0.002963
# 6 -0.000934 -0.000220 -0.002644 0.017751 0.002963 0.056267
#
#
# Mechanical properties :
#
#
# Convention : Reuss Voigt Hill
#
# Bulk Modulus (GPa) = 13.72661 18.77216 16.24938
# Shear Modulus (GPa) = 22.48679 28.35463 25.42071
#
# Velocity S-wave (km/s) = 3.34745 3.75891 3.55913
# Velocity P-wave (km/s) = 4.66698 5.30977 4.99871
#
# Compressibility (1/GPa) = 0.07285120
#
# Stress axis : x y z
#
# Youngs Moduli (GPa) = 84.35887 27.88134 63.89604
#
# Poissons Ratio (x) = -0.18702 0.02453
# Poissons Ratio (y) = -0.56585 0.10118
# Poissons Ratio (z) = 0.03239 0.04415
#
# Static dielectric constant tensor:
#      x y z
#    x 1.693870 0.016910 0.003570 
#    y 0.016910 1.718070 0.033010 
#    z 0.003570 0.033010 1.710450 
# 
# From -- ./inp_files/225002.got.cif
#   From: 2010.05.17/outbox.cif.g08.bks.cpg/sg2_113_cif.got.tgz:225002.got - 2010.06.03 11:33:40.
