data_PCOD9099592
_publ_section_title
;
Structure prediction by ZEFSAII (Michael W. Deem and Ramdas Pophale) SiO2 
 PCOD9099592
Probable space group: P -1
;
_chemical_formula_sum "Si O2"
_cell_formula_units_Z 10
_cell_length_a 7.949441
_cell_length_b 10.241309
_cell_length_c 8.772430
_cell_angle_alpha 132.344539
_cell_angle_beta 89.469007
_cell_angle_gamma 120.114799
_cell_volume 391.646274
_symmetry_space_group_name_H-M "P -1"
_symmetry_group_IT_number 2
_symmetry_cell_setting 'triclinic'
loop_
_space_group_symop_operation_xyz
x,y,z
-x,-y,-z
loop_
_atom_site_type_symbol
_atom_site_label
_atom_site_fract_x
_atom_site_fract_y
_atom_site_fract_z
Si Si1 0.093505 0.424678 0.321137
Si Si2 0.363741 0.261175 0.912838
Si Si3 0.168279 0.783643 0.397605
Si Si4 0.701901 0.589342 0.406829
Si Si5 0.864298 0.077347 0.805186
O O1 0.207656 0.618716 0.338000
O O2 0.249098 0.415994 0.420909
O O3 0.000000 0.500000 0.500000
O O4 0.884975 0.175131 0.048643
O O5 0.490216 0.346222 0.139921
O O6 0.500000 0.500000 0.000000
O O7 0.111750 0.161400 0.851299
O O8 0.338346 0.050569 0.673485
O O9 0.168966 0.801343 0.230057
O O10 0.079831 0.327704 0.626716
O O11 0.697611 0.797868 0.557351
#
# Coordination Sequence:
#
# PCOD9099592 Si02
#       5
#     2   2   2   2   2
#     4  10  23  39  56  83 120 151 182 235 287 324
#     4  11  19  36  63  87 111 143 192 236 274 331
#     4  10  20  37  61  86 112 147 188 231 282 338
#     4  10  20  38  61  85 114 146 185 236 282 332
#     4  11  20  37  63  85 108 152 195 223 276 344
#
# _framework density 25.533242999999999
#
# number of rings (size 3 to 8) (size 9 to 14) (size 15 to 20)
#    0.000    1.600    4.000    2.400    0.000    1.600 
#    0.000    5.000    0.000    0.000    0.000    0.000 
#    0.000    0.000    0.000    0.000    0.000    0.000 
#
# Total GULP energy -56029.470840 kJ/mol
# GULP energy per Si atom -5602.947084 kJ/mol
# Density = 2.547513 g / cm^3
# Si number density = 25.533243 Si / 1000 Ang^3
#
#
#
# Elastic Constant Matrix: (Units=GPa)
#
#
# Indices 1 2 3 4 5 6 
#
# 1 58.3499 8.8187 8.0503 -3.8628 10.6215 7.3412
# 2 8.8187 116.6009 26.9821 -19.5877 21.6060 -31.8378
# 3 8.0503 26.9821 163.4732 -22.9313 20.0540 -9.6522
# 4 -3.8628 -19.5877 -22.9313 51.9929 -4.3344 8.9609
# 5 10.6215 21.6060 20.0540 -4.3344 29.7290 -2.8620
# 6 7.3412 -31.8378 -9.6522 8.9609 -2.8620 38.3395
#
#
#
# Elastic Compliance Matrix: (Units=1/GPa)
#
#
# Indices 1 2 3 4 5 6 
#
# 1 0.019326 -0.001735 -0.000107 0.001256 -0.005957 -0.005906
# 2 -0.001735 0.013374 -0.000248 0.002401 -0.007596 0.010247
# 3 -0.000107 -0.000248 0.007067 0.002554 -0.004109 0.000690
# 4 0.001256 0.002401 0.002554 0.021749 -0.001011 -0.002763
# 5 -0.005957 -0.007596 -0.004109 -0.001011 0.043650 -0.002707
# 6 -0.005906 0.010247 0.000690 -0.002763 -0.002707 0.036340
#
#
# Mechanical properties :
#
#
# Convention : Reuss Voigt Hill
#
# Bulk Modulus (GPa) = 28.10127 47.34734 37.72431
# Shear Modulus (GPa) = 31.73647 43.65049 37.69348
#
# Velocity S-wave (km/s) = 3.52937 4.13916 3.84637
# Velocity P-wave (km/s) = 5.25721 6.43640 5.87646
#
# Compressibility (1/GPa) = 0.03558558
#
# Stress axis : x y z
#
# Youngs Moduli (GPa) = 51.74491 74.77366 141.51215
#
# Poissons Ratio (x) = 0.12970 0.01516
# Poissons Ratio (y) = 0.08976 0.03515
# Poissons Ratio (z) = 0.00554 0.01857
#
# Static dielectric constant tensor:
#      x y z
#    x 2.036130 0.029280 0.001550 
#    y 0.029280 2.038210 -0.021420 
#    z 0.001550 -0.021420 1.988830 
# 
# From -- ./inp_files/147432.got.cif
#   From: 2010.05.17/outbox.cif.g08.bks.cpg/sg2_74_cif.got.tgz:147432.got - 2010.06.03 11:33:40.
