data_PCOD9099807
_publ_section_title
;
Structure prediction by ZEFSAII (Michael W. Deem and Ramdas Pophale) SiO2 
 PCOD9099807
Probable space group: P -1
;
_chemical_formula_sum "Si O2"
_cell_formula_units_Z 16
_cell_length_a 8.075779
_cell_length_b 8.326970
_cell_length_c 10.772637
_cell_angle_alpha 88.997703
_cell_angle_beta 117.232954
_cell_angle_gamma 89.830770
_cell_volume 643.977446
_symmetry_space_group_name_H-M "P -1"
_symmetry_group_IT_number 2
_symmetry_cell_setting 'triclinic'
loop_
_space_group_symop_operation_xyz
x,y,z
-x,-y,-z
loop_
_atom_site_type_symbol
_atom_site_label
_atom_site_fract_x
_atom_site_fract_y
_atom_site_fract_z
Si Si1 0.064285 0.422579 0.310559
Si Si2 0.617789 0.616916 0.391908
Si Si3 0.541570 0.188333 0.010410
Si Si4 0.059172 0.067109 0.259954
Si Si5 0.342627 0.983167 0.551008
Si Si6 0.354825 0.863864 0.216001
Si Si7 0.289643 0.686215 0.680586
Si Si8 0.839619 0.740853 0.227230
O O1 0.267441 0.417379 0.443576
O O2 0.911454 0.386230 0.364641
O O3 0.993454 0.602891 0.244821
O O4 0.041522 0.258439 0.221290
O O5 0.430559 0.722856 0.334394
O O6 0.569848 0.450698 0.313421
O O7 0.754764 0.702841 0.335812
O O8 0.662342 0.206649 0.925757
O O9 0.342924 0.276493 0.921775
O O10 0.644003 0.247263 0.166264
O O11 0.500000 0.000000 0.000000
O O12 0.170111 0.074792 0.429396
O O13 0.188062 0.975260 0.204251
O O14 0.907064 0.926713 0.234602
O O15 0.271020 0.810361 0.561789
O O16 0.500000 0.000000 0.500000
O O17 0.460138 0.026938 0.712569
#
# Coordination Sequence:
#
# PCOD9099807 Si02
#       8
#     2   2   2   2   2   2   2   2
#     4  11  22  38  66  99 132 166 214 269 322 385
#     4  10  21  39  64  98 129 161 218 271 315 385
#     4  11  22  42  69  90 127 174 225 261 304 386
#     4  11  22  40  66  94 134 171 203 268 338 366
#     4  10  20  37  61  93 126 158 207 259 323 382
#     4  10  22  40  61  96 130 168 215 259 315 387
#     4  11  22  39  67  95 122 173 212 265 327 369
#     4  10  23  40  60  98 127 166 224 262 312 384
#
# _framework density 24.845590999999999
#
# number of rings (size 3 to 8) (size 9 to 14) (size 15 to 20)
#    0.000    1.500    2.500    3.750    1.750    5.500 
#    4.500    4.375    0.000    4.500    0.000    0.000 
#    0.000    0.000    0.000    0.000    0.000    0.000 
#
# Total GULP energy -89204.416293 kJ/mol
# GULP energy per Si atom -5575.276018 kJ/mol
# Density = 2.478904 g / cm^3
# Si number density = 24.845591 Si / 1000 Ang^3
#
#
#
# Elastic Constant Matrix: (Units=GPa)
#
#
# Indices 1 2 3 4 5 6 
#
# 1 66.8918 27.8927 23.5007 1.8515 -0.5181 -19.9148
# 2 27.8927 115.2993 27.9086 9.7054 -8.0696 -36.5779
# 3 23.5007 27.9086 111.8206 12.8123 0.8335 -7.0896
# 4 1.8515 9.7054 12.8123 27.8701 -4.2577 3.7990
# 5 -0.5181 -8.0696 0.8335 -4.2577 19.6604 4.3484
# 6 -19.9148 -36.5779 -7.0896 3.7990 4.3484 40.6496
#
#
#
# Elastic Compliance Matrix: (Units=1/GPa)
#
#
# Indices 1 2 3 4 5 6 
#
# 1 0.018918 -0.001484 -0.003029 -0.000670 -0.001822 0.007663
# 2 -0.001484 0.013705 -0.001805 -0.005114 0.002000 0.011554
# 3 -0.003029 -0.001805 0.010485 -0.004209 -0.002029 -0.000669
# 4 -0.000670 -0.005114 -0.004209 0.042569 0.009641 -0.010674
# 5 -0.001822 0.002000 -0.002029 0.009641 0.055193 -0.006252
# 6 0.007663 0.011554 -0.000669 -0.010674 -0.006252 0.040301
#
#
# Mechanical properties :
#
#
# Convention : Reuss Voigt Hill
#
# Bulk Modulus (GPa) = 32.81721 50.29063 41.55392
# Shear Modulus (GPa) = 24.51402 31.94998 28.23200
#
# Velocity S-wave (km/s) = 3.14451 3.58989 3.37456
# Velocity P-wave (km/s) = 5.14015 6.12114 5.65197
#
# Compressibility (1/GPa) = 0.03047182
#
# Stress axis : x y z
#
# Youngs Moduli (GPa) = 52.85929 72.96677 95.37396
#
# Poissons Ratio (x) = 0.10825 0.28893
# Poissons Ratio (y) = 0.07842 0.17216
# Poissons Ratio (z) = 0.16014 0.13172
#
# Static dielectric constant tensor:
#      x y z
#    x 2.017940 -0.026800 -0.002880 
#    y -0.026800 2.154200 0.024950 
#    z -0.002880 0.024950 1.981360 
# 
# From -- ./inp_files/382428.got.cif
#   From: 2010.05.17/outbox.cif.g08.bks.cpg/sg2_192_cif.got.tgz:382428.got - 2010.06.03 11:33:40.
