data_PCOD9099984
_publ_section_title
;
Structure prediction by ZEFSAII (Michael W. Deem and Ramdas Pophale) SiO2 
 PCOD9099984
Probable space group: P -1
;
_chemical_formula_sum "Si O2"
_cell_formula_units_Z 16
_cell_length_a 10.176290
_cell_length_b 9.567875
_cell_length_c 9.667351
_cell_angle_alpha 63.405143
_cell_angle_beta 104.039532
_cell_angle_gamma 123.281054
_cell_volume 703.624963
_symmetry_space_group_name_H-M "P -1"
_symmetry_group_IT_number 2
_symmetry_cell_setting 'triclinic'
loop_
_space_group_symop_operation_xyz
x,y,z
-x,-y,-z
loop_
_atom_site_type_symbol
_atom_site_label
_atom_site_fract_x
_atom_site_fract_y
_atom_site_fract_z
Si Si1 0.011129 0.511473 0.723805
Si Si2 0.696270 0.381669 0.807801
Si Si3 0.125678 0.799469 0.410810
Si Si4 0.841635 0.918557 0.906289
Si Si5 0.554260 0.151679 0.599582
Si Si6 0.519037 0.572715 0.629376
Si Si7 0.693077 0.517372 0.135083
Si Si8 0.489517 0.158206 0.097019
O O1 0.033088 0.688590 0.570996
O O2 0.176362 0.540910 0.800389
O O3 0.879458 0.453691 0.832084
O O4 0.950855 0.347660 0.668664
O O5 0.645725 0.300050 0.677424
O O6 0.650596 0.536565 0.741775
O O7 0.587163 0.219907 0.954484
O O8 0.305712 0.845423 0.452844
O O9 0.123322 0.975018 0.277318
O O10 0.699438 0.942729 0.922402
O O11 0.770493 0.704389 0.990015
O O12 0.000000 0.000000 0.000000
O O13 0.456732 0.226603 0.461951
O O14 0.468977 0.963631 0.742005
O O15 0.500000 0.500000 0.500000
O O16 0.364342 0.462721 0.735544
O O17 0.543265 0.348200 0.102957
#
# Coordination Sequence:
#
# PCOD9099984 Si02
#       8
#     2   2   2   2   2   2   2   2
#     4  10  20  37  62  89 124 169 207 256 313 367
#     4  10  21  38  63  89 133 163 211 262 313 374
#     4   9  18  35  60  89 117 157 217 258 293 370
#     4  11  22  38  62  95 122 162 216 262 305 378
#     4   9  19  38  61  90 116 165 220 259 304 376
#     4  10  21  38  61  94 122 167 211 264 312 373
#     4  12  23  41  65  93 131 168 212 258 324 379
#     4  11  24  40  63  96 130 168 207 265 322 374
#
# _framework density 22.739386
#
# number of rings (size 3 to 8) (size 9 to 14) (size 15 to 20)
#    0.000    1.750    3.750    0.750    1.750    1.000 
#    0.000    0.000    0.000    1.500    0.000    0.000 
#    0.000    0.000    0.000    0.000    0.000    0.000 
#
# Total GULP energy -89352.055692 kJ/mol
# GULP energy per Si atom -5584.503481 kJ/mol
# Density = 2.268763 g / cm^3
# Si number density = 22.739386 Si / 1000 Ang^3
#
#
#
# Elastic Constant Matrix: (Units=GPa)
#
#
# Indices 1 2 3 4 5 6 
#
# 1 102.9342 34.6870 36.7417 -4.7734 4.8044 26.1019
# 2 34.6870 65.0731 34.0248 -13.1533 9.9030 0.3690
# 3 36.7417 34.0248 114.6318 -33.0300 12.0690 -0.8575
# 4 -4.7734 -13.1533 -33.0300 36.0749 -12.4860 4.1005
# 5 4.8044 9.9030 12.0690 -12.4860 40.5008 -8.2909
# 6 26.1019 0.3690 -0.8575 4.1005 -8.2909 25.4053
#
#
#
# Elastic Compliance Matrix: (Units=1/GPa)
#
#
# Indices 1 2 3 4 5 6 
#
# 1 0.019274 -0.007826 -0.004612 -0.003688 -0.004368 -0.020674
# 2 -0.007826 0.021827 -0.002905 0.003076 -0.001216 0.006732
# 3 -0.004612 -0.002905 0.014234 0.011379 0.001313 0.003853
# 4 -0.003688 0.003076 0.011379 0.041949 0.009308 0.000395
# 5 -0.004368 -0.001216 0.001313 0.009308 0.030656 0.013052
# 6 -0.020674 0.006732 0.003853 0.000395 0.013052 0.064831
#
#
# Mechanical properties :
#
#
# Convention : Reuss Voigt Hill
#
# Bulk Modulus (GPa) = 40.57209 54.83846 47.70527
# Shear Modulus (GPa) = 21.58211 32.20856 26.89533
#
# Velocity S-wave (km/s) = 3.08410 3.76762 3.44287
# Velocity P-wave (km/s) = 5.52840 6.56468 6.06870
#
# Compressibility (1/GPa) = 0.02464749
#
# Stress axis : x y z
#
# Youngs Moduli (GPa) = 51.88383 45.81534 70.25625
#
# Poissons Ratio (x) = 0.35854 0.32404
# Poissons Ratio (y) = 0.40603 0.20412
# Poissons Ratio (z) = 0.23930 0.13311
#
# Static dielectric constant tensor:
#      x y z
#    x 1.865200 -0.011120 0.013060 
#    y -0.011120 1.885270 0.024570 
#    z 0.013060 0.024570 1.876440 
# 
# From -- ./inp_files/392117.got.cif
#   From: 2010.05.17/outbox.cif.g08.bks.cpg/sg2_197_cif.got.tgz:392117.got - 2010.06.03 11:33:40.
