data_PCOD9099974
_publ_section_title
;
Structure prediction by ZEFSAII (Michael W. Deem and Ramdas Pophale) SiO2 
 PCOD9099974
Probable space group: P -1
;
_chemical_formula_sum "Si O2"
_cell_formula_units_Z 16
_cell_length_a 11.518797
_cell_length_b 8.813669
_cell_length_c 15.264777
_cell_angle_alpha 44.945183
_cell_angle_beta 45.730183
_cell_angle_gamma 46.297741
_cell_volume 722.128644
_symmetry_space_group_name_H-M "P -1"
_symmetry_group_IT_number 2
_symmetry_cell_setting 'triclinic'
loop_
_space_group_symop_operation_xyz
x,y,z
-x,-y,-z
loop_
_atom_site_type_symbol
_atom_site_label
_atom_site_fract_x
_atom_site_fract_y
_atom_site_fract_z
Si Si1 0.271663 0.974765 0.381324
Si Si2 0.698827 0.485814 0.415162
Si Si3 0.198515 0.167100 0.062191
Si Si4 0.487406 0.578129 0.836617
Si Si5 0.458554 0.054088 0.601122
Si Si6 0.231847 0.477317 0.146876
Si Si7 0.554706 0.233715 0.801421
Si Si8 0.946628 0.622199 0.114936
O O1 0.182927 0.786129 0.516323
O O2 0.366127 0.975033 0.423948
O O3 0.408433 0.842008 0.286499
O O4 0.199638 0.239632 0.277268
O O5 0.500000 0.500000 0.500000
O O6 0.676723 0.681009 0.420294
O O7 0.782382 0.566968 0.256467
O O8 0.381775 0.191745 0.935877
O O9 0.108335 0.179079 0.010863
O O10 0.075740 0.387275 0.093477
O O11 0.265212 0.930552 0.177665
O O12 0.670479 0.495716 0.827808
O O13 0.514667 0.485042 0.761075
O O14 0.404293 0.858247 0.757426
O O15 0.370190 0.472804 0.998578
O O16 0.500000 0.000000 0.500000
O O17 0.049526 0.658233 0.130226
#
# Coordination Sequence:
#
# PCOD9099974 Si02
#       8
#     2   2   2   2   2   2   2   2
#     4  10  20  37  62  89 120 161 214 255 305 372
#     4  10  22  39  63  89 120 168 210 258 314 372
#     4  10  21  34  63  95 131 160 202 269 308 366
#     4  10  21  36  66  88 130 171 209 247 315 387
#     4  10  21  39  60  91 119 164 211 258 308 380
#     4  10  20  39  58  92 127 169 202 256 317 365
#     4  11  18  38  64  95 121 169 212 244 317 382
#     4  11  21  39  60  96 133 156 212 272 311 358
#
# _framework density 22.156718999999999
#
# number of rings (size 3 to 8) (size 9 to 14) (size 15 to 20)
#    0.000    1.750    2.500    3.000    0.000    3.500 
#    0.000    2.500    0.000    2.250    0.000    0.000 
#    0.000    0.000    0.000    0.000    0.000    0.000 
#
# Total GULP energy -89092.251837 kJ/mol
# GULP energy per Si atom -5568.265740 kJ/mol
# Density = 2.210629 g / cm^3
# Si number density = 22.156719 Si / 1000 Ang^3
#
#
#
# Elastic Constant Matrix: (Units=GPa)
#
#
# Indices 1 2 3 4 5 6 
#
# 1 101.8060 26.4062 28.7796 0.9771 13.4080 -2.7378
# 2 26.4062 44.1641 10.0458 -12.7521 14.0959 9.5062
# 3 28.7796 10.0458 68.3177 0.8803 17.8158 -2.1263
# 4 0.9771 -12.7521 0.8803 41.0650 -0.6443 7.1509
# 5 13.4080 14.0959 17.8158 -0.6443 28.6424 3.1448
# 6 -2.7378 9.5062 -2.1263 7.1509 3.1448 31.2339
#
#
#
# Elastic Compliance Matrix: (Units=1/GPa)
#
#
# Indices 1 2 3 4 5 6 
#
# 1 0.013574 -0.009388 -0.004219 -0.003951 0.000292 0.004635
# 2 -0.009388 0.040039 0.001055 0.015021 -0.013984 -0.014968
# 3 -0.004219 0.001055 0.019092 -0.000459 -0.010626 0.001784
# 4 -0.003951 0.015021 -0.000459 0.031114 -0.003269 -0.011744
# 5 0.000292 -0.013984 -0.010626 -0.003269 0.048255 -0.000552
# 6 0.004635 -0.014968 0.001784 -0.011744 -0.000552 0.039844
#
#
# Mechanical properties :
#
#
# Convention : Reuss Voigt Hill
#
# Bulk Modulus (GPa) = 21.00815 38.30567 29.65691
# Shear Modulus (GPa) = 21.46935 30.12532 25.79733
#
# Velocity S-wave (km/s) = 3.11622 3.69134 3.41590
# Velocity P-wave (km/s) = 4.73814 5.95769 5.38256
#
# Compressibility (1/GPa) = 0.04760057
#
# Stress axis : x y z
#
# Youngs Moduli (GPa) = 73.66778 24.97572 52.37773
#
# Poissons Ratio (x) = 0.23448 0.22098
# Poissons Ratio (y) = 0.69162 -0.05525
# Poissons Ratio (z) = 0.31080 -0.02635
#
# Static dielectric constant tensor:
#      x y z
#    x 2.097520 -0.208640 0.344150 
#    y -0.208640 1.990150 -0.312090 
#    z 0.344150 -0.312090 2.293760 
# 
# From -- ./inp_files/515036.got.cif
#   From: 2010.05.17/outbox.cif.g08.bks.cpg/sg2_258_cif.got.tgz:515036.got - 2010.06.03 11:33:40.
