data_PCOD9099024
_publ_section_title
;
Structure prediction by ZEFSAII (Michael W. Deem and Ramdas Pophale) SiO2 
 PCOD9099024
Probable space group: P -1
;
_chemical_formula_sum "Si O2"
_cell_formula_units_Z 12
_cell_length_a 9.196181
_cell_length_b 5.183476
_cell_length_c 27.938813
_cell_angle_alpha 52.954661
_cell_angle_beta 39.032102
_cell_angle_gamma 54.785447
_cell_volume 653.589294
_symmetry_space_group_name_H-M "P -1"
_symmetry_group_IT_number 2
_symmetry_cell_setting 'triclinic'
loop_
_space_group_symop_operation_xyz
x,y,z
-x,-y,-z
loop_
_atom_site_type_symbol
_atom_site_label
_atom_site_fract_x
_atom_site_fract_y
_atom_site_fract_z
Si Si1 0.413375 0.186457 0.852220
Si Si2 0.786280 0.430878 0.669997
Si Si3 0.804897 0.152013 0.592741
Si Si4 0.880741 0.231738 0.088049
Si Si5 0.748001 0.385062 0.476045
Si Si6 0.387701 0.876509 0.996176
O O1 0.653411 0.225265 0.761364
O O2 0.247134 0.556407 0.858456
O O3 0.293824 0.928763 0.882178
O O4 0.439485 0.065118 0.913834
O O5 0.746376 0.345305 0.634963
O O6 0.069435 0.381909 0.609940
O O7 0.696368 0.824297 0.656877
O O8 0.729009 0.361552 0.540983
O O9 0.088178 0.980929 0.537222
O O10 0.108055 0.940354 0.070925
O O11 0.000000 0.500000 0.000000
O O12 0.500000 0.500000 0.500000
O O13 0.500000 0.500000 0.000000
O O14 0.500000 0.000000 0.000000
#
# Coordination Sequence:
#
# PCOD9099024 Si02
#       6
#     2   2   2   2   2   2
#     4  11  21  37  61  81 114 154 193 241 286 345
#     4  10  20  38  57  82 117 149 192 242 294 325
#     4   9  20  37  59  83 114 154 199 226 288 350
#     4  10  20  37  59  81 103 153 200 218 284 360
#     4   9  20  37  62  85 116 154 199 231 287 348
#     4  11  21  36  58  82 115 145 189 242 286 340
#
# _framework density 18.360154000000001
#
# number of rings (size 3 to 8) (size 9 to 14) (size 15 to 20)
#    1.000    1.000    0.000    6.500    0.000    0.667 
#    0.000    5.000    0.000    0.000    0.000    0.000 
#    0.000    0.000    0.000    0.000    0.000    0.000 
#
# Total GULP energy -66800.706020 kJ/mol
# GULP energy per Si atom -5566.725502 kJ/mol
# Density = 1.831837 g / cm^3
# Si number density = 18.360154 Si / 1000 Ang^3
#
#
#
# Elastic Constant Matrix: (Units=GPa)
#
#
# Indices 1 2 3 4 5 6 
#
# 1 127.8751 45.6871 63.5241 -6.4327 -15.4656 8.1192
# 2 45.6871 83.0092 18.0923 -1.6427 -7.2773 8.2267
# 3 63.5241 18.0923 118.3876 -7.6529 -16.0229 -2.4621
# 4 -6.4327 -1.6427 -7.6529 14.9179 4.2004 -2.3127
# 5 -15.4656 -7.2773 -16.0229 4.2004 18.5301 -3.3889
# 6 8.1192 8.2267 -2.4621 -2.3127 -3.3889 42.8343
#
#
#
# Elastic Compliance Matrix: (Units=1/GPa)
#
#
# Indices 1 2 3 4 5 6 
#
# 1 0.013213 -0.005559 -0.005749 0.000957 0.003391 -0.001447
# 2 -0.005559 0.015254 0.000812 -0.001130 0.001993 -0.001732
# 3 -0.005749 0.000812 0.012451 0.002631 0.006107 0.002275
# 4 0.000957 -0.001130 0.002631 0.072902 -0.013335 0.003068
# 5 0.003391 0.001993 0.006107 -0.013335 0.066591 0.003874
# 6 -0.001447 -0.001732 0.002275 0.003068 0.003874 0.024556
#
#
# Mechanical properties :
#
#
# Convention : Reuss Voigt Hill
#
# Bulk Modulus (GPa) = 50.18693 64.87543 57.53118
# Shear Modulus (GPa) = 21.49614 28.72103 25.10859
#
# Velocity S-wave (km/s) = 3.42541 3.95943 3.70206
# Velocity P-wave (km/s) = 6.56039 7.50429 7.04816
#
# Compressibility (1/GPa) = 0.01992551
#
# Stress axis : x y z
#
# Youngs Moduli (GPa) = 75.68576 65.55865 80.31165
#
# Poissons Ratio (x) = 0.36446 0.46173
# Poissons Ratio (y) = 0.42075 -0.06525
# Poissons Ratio (z) = 0.43514 -0.05326
#
# Static dielectric constant tensor:
#      x y z
#    x 1.625760 -0.002420 -0.018840 
#    y -0.002420 1.706850 -0.000340 
#    z -0.018840 -0.000340 1.643750 
# 
# From -- ./inp_files/616145.got.cif
#   From: 2010.05.17/outbox.cif.g08.bks.cpg/sg2_309_cif.got.tgz:616145.got - 2010.06.03 11:33:40.
