data_PCOD9099490
_publ_section_title
;
Structure prediction by ZEFSAII (Michael W. Deem and Ramdas Pophale) SiO2 
 PCOD9099490
Probable space group: P -1
;
_chemical_formula_sum "Si O2"
_cell_formula_units_Z 14
_cell_length_a 16.085637
_cell_length_b 8.582084
_cell_length_c 15.607610
_cell_angle_alpha 38.303145
_cell_angle_beta 25.278507
_cell_angle_gamma 52.192312
_cell_volume 530.945328
_symmetry_space_group_name_H-M "P -1"
_symmetry_group_IT_number 2
_symmetry_cell_setting 'triclinic'
loop_
_space_group_symop_operation_xyz
x,y,z
-x,-y,-z
loop_
_atom_site_type_symbol
_atom_site_label
_atom_site_fract_x
_atom_site_fract_y
_atom_site_fract_z
Si Si1 0.258195 0.447990 0.261409
Si Si2 0.886709 0.727163 0.339007
Si Si3 0.588651 0.946881 0.103126
Si Si4 0.318828 0.176859 0.746856
Si Si5 0.898530 0.162548 0.582824
Si Si6 0.151067 0.655256 0.682602
Si Si7 0.758534 0.213648 0.258899
O O1 0.185773 0.309879 0.479154
O O2 0.088194 0.298885 0.414278
O O3 0.500000 0.500000 0.000000
O O4 0.274755 0.753023 0.123945
O O5 0.845433 0.417028 0.484494
O O6 0.784922 0.946624 0.309249
O O7 0.132005 0.893334 0.029878
O O8 0.625952 0.781229 0.220738
O O9 0.341065 0.893022 0.357415
O O10 0.693270 0.949412 0.913036
O O11 0.228859 0.404296 0.708358
O O12 0.521224 0.185951 0.502606
O O13 0.000000 0.000000 0.500000
O O14 0.162354 0.753396 0.728850
O O15 0.906918 0.499178 0.955648
#
# Coordination Sequence:
#
# PCOD9099490 Si02
#       7
#     2   2   2   2   2   2   2
#     4  11  20  35  60  87 109 147 196 241 287 339
#     4  10  19  34  56  81 114 151 188 238 286 339
#     4  10  17  34  53  79 116 146 185 235 282 340
#     4  10  16  31  55  85 118 141 186 239 292 330
#     4  11  23  39  57  82 116 158 194 233 291 342
#     4   9  18  28  49  92 116 137 182 248 284 328
#     4   9  17  28  50  86 118 136 182 237 293 331
#
# _framework density 26.368061999999998
#
# number of rings (size 3 to 8) (size 9 to 14) (size 15 to 20)
#    0.000    2.000    2.857    4.286    0.000    0.000 
#    2.571    2.857    0.000    3.429    0.000    5.000 
#    0.000    0.000    0.000    0.000    0.000    0.000 
#
# Total GULP energy -78263.458789 kJ/mol
# GULP energy per Si atom -5590.247056 kJ/mol
# Density = 2.630805 g / cm^3
# Si number density = 26.368062 Si / 1000 Ang^3
#
#
#
# Elastic Constant Matrix: (Units=GPa)
#
#
# Indices 1 2 3 4 5 6 
#
# 1 66.8337 24.5063 42.8558 -0.3916 -0.1508 4.1887
# 2 24.5063 146.5730 57.3904 10.1019 1.1131 -0.9184
# 3 42.8558 57.3904 244.5502 22.2353 -7.0059 2.7278
# 4 -0.3916 10.1019 22.2353 50.5163 -4.9127 -2.4068
# 5 -0.1508 1.1131 -7.0059 -4.9127 32.2243 2.8420
# 6 4.1887 -0.9184 2.7278 -2.4068 2.8420 36.6358
#
#
#
# Elastic Compliance Matrix: (Units=1/GPa)
#
#
# Indices 1 2 3 4 5 6 
#
# 1 0.017570 -0.001988 -0.002745 0.001655 -0.000040 -0.001742
# 2 -0.001988 0.007788 -0.001417 -0.001001 -0.000785 0.000523
# 3 -0.002745 -0.001417 0.005105 -0.001914 0.000880 -0.000296
# 4 0.001655 -0.001001 -0.001914 0.021171 0.002756 0.001105
# 5 -0.000040 -0.000785 0.000880 0.002756 0.031880 -0.002373
# 6 -0.001742 0.000523 -0.000296 0.001105 -0.002373 0.027787
#
#
# Mechanical properties :
#
#
# Convention : Reuss Voigt Hill
#
# Bulk Modulus (GPa) = 55.05103 78.60687 66.82895
# Shear Modulus (GPa) = 38.56401 46.08891 42.32646
#
# Velocity S-wave (km/s) = 3.82845 4.18533 4.01086
# Velocity P-wave (km/s) = 6.36128 7.29604 6.84464
#
# Compressibility (1/GPa) = 0.01816496
#
# Stress axis : x y z
#
# Youngs Moduli (GPa) = 56.91466 128.40696 195.88248
#
# Poissons Ratio (x) = 0.25522 0.53766
# Poissons Ratio (y) = 0.11312 0.27749
# Poissons Ratio (z) = 0.15622 0.18191
#
# Static dielectric constant tensor:
#      x y z
#    x 2.186810 -0.008270 0.113940 
#    y -0.008270 2.094620 -0.032840 
#    z 0.113940 -0.032840 2.227190 
# 
# From -- ./inp_files/354437.got.cif
#   From: 2010.05.17/outbox.cif.g08.bks.cpg/sg2_178_cif.got.tgz:354437.got - 2010.06.03 11:33:40.
