data_PCOD9099524
_publ_section_title
;
Structure prediction by ZEFSAII (Michael W. Deem and Ramdas Pophale) SiO2 
 PCOD9099524
Probable space group: P -1
;
_chemical_formula_sum "Si O2"
_cell_formula_units_Z 16
_cell_length_a 17.588411
_cell_length_b 10.824963
_cell_length_c 9.081039
_cell_angle_alpha 126.762784
_cell_angle_beta 67.338544
_cell_angle_gamma 146.183642
_cell_volume 746.159109
_symmetry_space_group_name_H-M "P -1"
_symmetry_group_IT_number 2
_symmetry_cell_setting 'triclinic'
loop_
_space_group_symop_operation_xyz
x,y,z
-x,-y,-z
loop_
_atom_site_type_symbol
_atom_site_label
_atom_site_fract_x
_atom_site_fract_y
_atom_site_fract_z
Si Si1 0.479911 0.361569 0.560724
Si Si2 0.206695 0.129854 0.660153
Si Si3 0.053813 0.364506 0.296952
Si Si4 0.826105 0.596894 0.037456
Si Si5 0.961858 0.189870 0.732016
Si Si6 0.302371 0.098207 0.095580
Si Si7 0.871771 0.348401 0.287273
Si Si8 0.585856 0.998603 0.852108
O O1 0.500000 0.500000 0.500000
O O2 0.327211 0.183556 0.605588
O O3 0.603470 0.604942 0.751721
O O4 0.481443 0.190761 0.374139
O O5 0.260098 0.378955 0.846931
O O6 0.083151 0.900432 0.701644
O O7 0.134057 0.030016 0.482004
O O8 0.002168 0.434096 0.291763
O O9 0.155722 0.583409 0.504424
O O10 0.111842 0.323897 0.115810
O O11 0.950569 0.779553 0.196496
O O12 0.730542 0.300754 0.913949
O O13 0.074369 0.466371 0.757293
O O14 0.846584 0.102231 0.853914
O O15 0.382292 0.086848 0.116337
O O16 0.258309 0.958929 0.874298
O O17 0.500000 0.000000 0.000000
#
# Coordination Sequence:
#
# PCOD9099524 Si02
#       8
#     2   2   2   2   2   2   2   2
#     4  10  21  38  60  85 122 165 200 252 299 368
#     4  11  23  40  59  92 131 161 204 246 313 368
#     4  10  23  36  62  89 130 163 203 245 313 372
#     4  12  22  38  64  93 125 161 203 259 308 357
#     4  11  20  35  64  97 121 151 206 264 305 354
#     4  11  19  37  63  87 125 154 206 255 306 358
#     4  10  20  37  60  94 117 161 202 253 304 360
#     4  11  23  37  63  92 122 156 206 254 309 359
#
# _framework density 21.443148000000001
#
# number of rings (size 3 to 8) (size 9 to 14) (size 15 to 20)
#    0.000    1.250    5.000    3.375    3.500    0.000 
#    0.000    0.625    0.000    1.500    0.000    0.000 
#    0.000    0.000    0.000    0.000    0.000    0.000 
#
# Total GULP energy -89329.017731 kJ/mol
# GULP energy per Si atom -5583.063608 kJ/mol
# Density = 2.139434 g / cm^3
# Si number density = 21.443148 Si / 1000 Ang^3
#
#
#
# Elastic Constant Matrix: (Units=GPa)
#
#
# Indices 1 2 3 4 5 6 
#
# 1 34.9492 5.1566 26.3302 -5.4046 -15.4453 7.1281
# 2 5.1566 51.6322 47.4759 -4.1714 4.0427 7.6719
# 3 26.3302 47.4759 159.2344 16.6465 -9.5429 0.2192
# 4 -5.4046 -4.1714 16.6465 34.7668 2.2848 -3.3654
# 5 -15.4453 4.0427 -9.5429 2.2848 32.8020 0.2711
# 6 7.1281 7.6719 0.2192 -3.3654 0.2711 16.9856
#
#
#
# Elastic Compliance Matrix: (Units=1/GPa)
#
#
# Indices 1 2 3 4 5 6 
#
# 1 0.049803 0.007042 -0.010212 0.010067 0.019094 -0.022259
# 2 0.007042 0.033792 -0.012561 0.009947 -0.005064 -0.016004
# 3 -0.010212 -0.012561 0.012639 -0.008423 0.000936 0.008112
# 4 0.010067 0.009947 -0.008423 0.035495 -0.001396 -0.001554
# 5 0.019094 -0.005064 0.000936 -0.001396 0.040525 -0.006661
# 6 -0.022259 -0.016004 0.008112 -0.001554 -0.006661 0.075137
#
#
# Mechanical properties :
#
#
# Convention : Reuss Voigt Hill
#
# Bulk Modulus (GPa) = 15.43880 44.86012 30.14946
# Shear Modulus (GPa) = 16.64197 28.03444 22.33821
#
# Velocity S-wave (km/s) = 2.78888 3.61970 3.23110
# Velocity P-wave (km/s) = 4.19356 6.19964 5.29252
#
# Compressibility (1/GPa) = 0.06477188
#
# Stress axis : x y z
#
# Youngs Moduli (GPa) = 20.07926 29.59242 79.11913
#
# Poissons Ratio (x) = -0.20839 0.80797
# Poissons Ratio (y) = -0.14140 0.99381
# Poissons Ratio (z) = 0.20505 0.37171
#
# Static dielectric constant tensor:
#      x y z
#    x 1.769090 -0.014710 0.000840 
#    y -0.014710 1.810960 0.039900 
#    z 0.000840 0.039900 1.855830 
# 
# From -- ./inp_files/206799.got.cif
#   From: 2010.05.17/outbox.cif.g08.bks.cpg/sg2_104_cif.got.tgz:206799.got - 2010.06.03 11:33:40.
