data_PCOD9099719
_publ_section_title
;
Structure prediction by ZEFSAII (Michael W. Deem and Ramdas Pophale) SiO2 
 PCOD9099719
Probable space group: P -1
;
_chemical_formula_sum "Si O2"
_cell_formula_units_Z 14
_cell_length_a 11.502707
_cell_length_b 9.098398
_cell_length_c 15.811147
_cell_angle_alpha 121.544319
_cell_angle_beta 153.238875
_cell_angle_gamma 61.666462
_cell_volume 634.863492
_symmetry_space_group_name_H-M "P -1"
_symmetry_group_IT_number 2
_symmetry_cell_setting 'triclinic'
loop_
_space_group_symop_operation_xyz
x,y,z
-x,-y,-z
loop_
_atom_site_type_symbol
_atom_site_label
_atom_site_fract_x
_atom_site_fract_y
_atom_site_fract_z
Si Si1 0.378270 0.868679 0.225505
Si Si2 0.818420 0.406724 0.585239
Si Si3 0.425410 0.385227 0.997210
Si Si4 0.130521 0.211688 0.230770
Si Si5 0.300297 0.428570 0.616194
Si Si6 0.893486 0.169383 0.251077
Si Si7 0.836479 0.025480 0.488363
O O1 0.511846 0.734651 0.336441
O O2 0.319345 0.053013 0.284291
O O3 0.595513 0.896793 0.302476
O O4 0.113381 0.800415 0.994713
O O5 0.757653 0.594999 0.643202
O O6 0.759302 0.443809 0.460095
O O7 0.714104 0.217395 0.476429
O O8 0.120964 0.374153 0.791300
O O9 0.529925 0.487525 0.176258
O O10 0.590899 0.207753 0.055322
O O11 0.500000 0.500000 0.000000
O O12 0.012533 0.174724 0.236083
O O13 0.030530 0.335679 0.433404
O O14 0.982228 0.017502 0.325277
O O15 0.000000 0.000000 0.500000
#
# Coordination Sequence:
#
# PCOD9099719 Si02
#       7
#     2   2   2   2   2   2   2
#     4  10  22  42  68  89 130 160 211 267 301 376
#     4  11  24  38  63  93 125 165 207 255 316 374
#     4  12  20  34  62  92 124 158 212 264 296 371
#     4  10  21  43  68  95 113 171 222 253 305 360
#     4  10  20  37  61  90 118 164 211 259 301 361
#     4  10  22  37  63  91 124 165 210 256 311 369
#     4  11  26  41  58  95 134 165 197 258 329 371
#
# _framework density 22.051984000000001
#
# number of rings (size 3 to 8) (size 9 to 14) (size 15 to 20)
#    0.000    1.429    4.286    1.286    6.000    6.286 
#    2.571    0.000    0.000    3.429    0.000    0.000 
#    0.000    0.000    0.000    0.000    0.000    0.000 
#
# Total GULP energy -78113.013388 kJ/mol
# GULP energy per Si atom -5579.500956 kJ/mol
# Density = 2.200179 g / cm^3
# Si number density = 22.051984 Si / 1000 Ang^3
#
#
#
# Elastic Constant Matrix: (Units=GPa)
#
#
# Indices 1 2 3 4 5 6 
#
# 1 34.8357 29.0943 6.6856 -1.0012 -4.8571 -9.6844
# 2 29.0943 128.8826 21.9822 -25.3359 -19.1458 12.7249
# 3 6.6856 21.9822 94.7061 -21.7022 -17.5406 1.4567
# 4 -1.0012 -25.3359 -21.7022 45.2981 -0.6564 -0.7122
# 5 -4.8571 -19.1458 -17.5406 -0.6564 25.2121 -1.3785
# 6 -9.6844 12.7249 1.4567 -0.7122 -1.3785 32.0868
#
#
#
# Elastic Compliance Matrix: (Units=1/GPa)
#
#
# Indices 1 2 3 4 5 6 
#
# 1 0.045065 -0.013424 -0.002512 -0.007456 -0.002428 0.018770
# 2 -0.013424 0.014479 0.001337 0.008427 0.009051 -0.009278
# 3 -0.002512 0.001337 0.014128 0.007593 0.010487 -0.001311
# 4 -0.007456 0.008427 0.007593 0.030343 0.010773 -0.004801
# 5 -0.002428 0.009051 0.010487 0.010773 0.053522 -0.002260
# 6 0.018770 -0.009278 -0.001311 -0.004801 -0.002260 0.040366
#
#
# Mechanical properties :
#
#
# Convention : Reuss Voigt Hill
#
# Bulk Modulus (GPa) = 22.48539 41.54985 32.01762
# Shear Modulus (GPa) = 20.66743 33.89688 27.28215
#
# Velocity S-wave (km/s) = 3.06472 3.92488 3.52117
# Velocity P-wave (km/s) = 4.76886 6.27872 5.57514
#
# Compressibility (1/GPa) = 0.04447333
#
# Stress axis : x y z
#
# Youngs Moduli (GPa) = 22.19003 69.06702 70.78010
#
# Poissons Ratio (x) = 0.92718 0.17783
# Poissons Ratio (y) = 0.29789 -0.09466
# Poissons Ratio (z) = 0.05575 -0.09236
#
# Static dielectric constant tensor:
#      x y z
#    x 1.860630 -0.081000 -0.013110 
#    y -0.081000 1.911090 0.066430 
#    z -0.013110 0.066430 1.823660 
# 
# From -- ./inp_files/307747.got.cif
#   From: 2010.05.17/outbox.cif.g08.bks.cpg/sg2_154_cif.got.tgz:307747.got - 2010.06.03 11:33:40.
