data_PCOD9099944
_publ_section_title
;
Structure prediction by ZEFSAII (Michael W. Deem and Ramdas Pophale) SiO2 
 PCOD9099944
Probable space group: P -1
;
_chemical_formula_sum "Si O2"
_cell_formula_units_Z 16
_cell_length_a 9.827082
_cell_length_b 22.217111
_cell_length_c 8.058019
_cell_angle_alpha 37.295521
_cell_angle_beta 56.887887
_cell_angle_gamma 40.282675
_cell_volume 680.942515
_symmetry_space_group_name_H-M "P -1"
_symmetry_group_IT_number 2
_symmetry_cell_setting 'triclinic'
loop_
_space_group_symop_operation_xyz
x,y,z
-x,-y,-z
loop_
_atom_site_type_symbol
_atom_site_label
_atom_site_fract_x
_atom_site_fract_y
_atom_site_fract_z
Si Si1 0.789720 0.143103 0.684445
Si Si2 0.632649 0.320286 0.078394
Si Si3 0.410638 0.021562 0.270286
Si Si4 0.235942 0.517211 0.363260
Si Si5 0.231017 0.022755 0.737044
Si Si6 0.218636 0.422863 0.922338
Si Si7 0.948413 0.926694 0.810340
Si Si8 0.764157 0.698520 0.137975
O O1 0.674163 0.241246 0.392628
O O2 0.980304 0.138408 0.624131
O O3 0.909829 0.995792 0.857062
O O4 0.699268 0.118956 0.954395
O O5 0.846799 0.222733 0.034581
O O6 0.622635 0.442367 0.851786
O O7 0.423350 0.363406 0.030297
O O8 0.328595 0.001758 0.535095
O O9 0.278645 0.027129 0.197152
O O10 0.662722 0.936626 0.302982
O O11 0.336927 0.164363 0.020969
O O12 0.201433 0.515223 0.588774
O O13 0.315643 0.375364 0.571372
O O14 0.012655 0.612987 0.207642
O O15 0.250522 0.313582 0.023159
O O16 0.000000 0.500000 0.000000
O O17 0.000000 0.000000 0.500000
#
# Coordination Sequence:
#
# PCOD9099944 Si02
#       8
#     2   2   2   2   2   2   2   2
#     4  10  22  40  58  93 127 152 200 257 292 355
#     4  11  20  39  66  84 122 164 200 242 311 353
#     4  11  20  38  65  87 122 165 197 242 306 366
#     4   9  19  40  64  83 115 160 204 240 296 371
#     4  10  22  37  61  91 126 154 203 245 299 360
#     4  10  23  39  61  91 123 149 204 262 295 351
#     4  10  20  37  62  88 117 163 199 244 299 362
#     4   9  20  38  64  86 118 154 204 241 297 358
#
# _framework density 23.496842999999998
#
# number of rings (size 3 to 8) (size 9 to 14) (size 15 to 20)
#    0.750    1.250    3.750    0.375    1.750    2.500 
#    2.250    0.625    2.750    0.000    0.000    0.000 
#    0.000    0.000    0.000    0.000    0.000    0.000 
#
# Total GULP energy -89179.261019 kJ/mol
# GULP energy per Si atom -5573.703814 kJ/mol
# Density = 2.344336 g / cm^3
# Si number density = 23.496843 Si / 1000 Ang^3
#
#
#
# Elastic Constant Matrix: (Units=GPa)
#
#
# Indices 1 2 3 4 5 6 
#
# 1 197.8827 15.5530 45.4186 -8.8426 19.6934 -18.8300
# 2 15.5530 25.1136 -0.0663 -3.4103 0.6093 2.9896
# 3 45.4186 -0.0663 107.8026 -3.0113 6.4820 -5.6286
# 4 -8.8426 -3.4103 -3.0113 25.9011 4.2879 -3.4343
# 5 19.6934 0.6093 6.4820 4.2879 26.6645 -1.6870
# 6 -18.8300 2.9896 -5.6286 -3.4343 -1.6870 25.4337
#
#
#
# Elastic Compliance Matrix: (Units=1/GPa)
#
#
# Indices 1 2 3 4 5 6 
#
# 1 0.007049 -0.004481 -0.002328 0.003028 -0.004688 0.005328
# 2 -0.004481 0.043929 0.001552 0.003270 0.000919 -0.007635
# 3 -0.002328 0.001552 0.010360 0.000828 -0.000940 0.000436
# 4 0.003028 0.003270 0.000828 0.042598 -0.008907 0.007202
# 5 -0.004688 0.000919 -0.000940 -0.008907 0.042468 -0.002172
# 6 0.005328 -0.007635 0.000436 0.007202 -0.002172 0.045085
#
#
# Mechanical properties :
#
#
# Convention : Reuss Voigt Hill
#
# Bulk Modulus (GPa) = 19.67527 50.28993 34.98260
# Shear Modulus (GPa) = 22.83694 33.59279 28.21486
#
# Velocity S-wave (km/s) = 3.12094 3.78520 3.46901
# Velocity P-wave (km/s) = 4.62372 6.36812 5.56470
#
# Compressibility (1/GPa) = 0.05082523
#
# Stress axis : x y z
#
# Youngs Moduli (GPa) = 141.86767 22.76406 96.52176
#
# Poissons Ratio (x) = 0.10200 0.22469
# Poissons Ratio (y) = 0.63569 -0.14983
# Poissons Ratio (z) = 0.33025 -0.03534
#
# Static dielectric constant tensor:
#      x y z
#    x 1.971320 -0.036010 0.154310 
#    y -0.036010 2.283630 0.671340 
#    z 0.154310 0.671340 3.737380 
# 
# From -- ./inp_files/224794.got.cif
#   From: 2010.05.17/outbox.cif.g08.bks.cpg/sg2_113_cif.got.tgz:224794.got - 2010.06.03 11:33:40.
