data_PCOD9099256
_publ_section_title
;
Structure prediction by ZEFSAII (Michael W. Deem and Ramdas Pophale) SiO2 
 PCOD9099256
Probable space group: P -1
;
_chemical_formula_sum "Si O2"
_cell_formula_units_Z 16
_cell_length_a 8.469364
_cell_length_b 16.250171
_cell_length_c 8.487483
_cell_angle_alpha 78.097928
_cell_angle_beta 129.162412
_cell_angle_gamma 129.474467
_cell_volume 660.882225
_symmetry_space_group_name_H-M "P -1"
_symmetry_group_IT_number 2
_symmetry_cell_setting 'triclinic'
loop_
_space_group_symop_operation_xyz
x,y,z
-x,-y,-z
loop_
_atom_site_type_symbol
_atom_site_label
_atom_site_fract_x
_atom_site_fract_y
_atom_site_fract_z
Si Si1 0.066088 0.063952 0.182125
Si Si2 0.738041 0.833580 0.211566
Si Si3 0.919056 0.776209 0.045110
Si Si4 0.913099 0.450680 0.727592
Si Si5 0.618996 0.535491 0.885036
Si Si6 0.288364 0.756063 0.495742
Si Si7 0.672387 0.663877 0.456706
Si Si8 0.165245 0.702147 0.792920
O O1 0.390882 0.158064 0.373329
O O2 0.925727 0.967356 0.262725
O O3 0.966536 0.130510 0.053688
O O4 0.000000 0.000000 0.000000
O O5 0.785552 0.778869 0.399263
O O6 0.777307 0.792533 0.087903
O O7 0.423437 0.774543 0.040720
O O8 0.139734 0.781347 0.276769
O O9 0.695638 0.653794 0.876095
O O10 0.853958 0.372839 0.575394
O O11 0.615464 0.391469 0.628004
O O12 0.106497 0.445545 0.960877
O O13 0.077683 0.581631 0.758868
O O14 0.500000 0.500000 0.000000
O O15 0.402911 0.430662 0.678905
O O16 0.250750 0.764670 0.652996
O O17 0.906709 0.683403 0.695672
#
# Coordination Sequence:
#
# PCOD9099256 Si02
#       8
#     2   2   2   2   2   2   2   2
#     4  10  22  38  63  95 123 157 211 266 304 360
#     4  11  22  40  62  93 127 159 210 258 310 360
#     4  10  20  37  59  96 120 158 204 256 315 350
#     4  11  25  40  60  96 132 165 202 251 321 369
#     4  11  20  38  64  91 125 160 204 252 309 366
#     4  11  22  39  65  94 125 160 207 267 303 368
#     4  12  24  41  61  92 133 169 199 255 311 378
#     4  12  22  38  63  93 123 165 209 253 310 369
#
# _framework density 24.210063999999999
#
# number of rings (size 3 to 8) (size 9 to 14) (size 15 to 20)
#    0.000    1.000    6.250    1.875    1.750    3.000 
#    0.000    0.625    0.000    3.750    0.000    0.000 
#    0.000    0.000    0.000    0.000    0.000    0.000 
#
# Total GULP energy -89576.854650 kJ/mol
# GULP energy per Si atom -5598.553416 kJ/mol
# Density = 2.415496 g / cm^3
# Si number density = 24.210064 Si / 1000 Ang^3
#
#
#
# Elastic Constant Matrix: (Units=GPa)
#
#
# Indices 1 2 3 4 5 6 
#
# 1 51.1318 -6.6945 2.1983 -4.5229 3.3980 -3.9258
# 2 -6.6945 166.8146 23.4581 -13.0907 2.8021 4.1716
# 3 2.1983 23.4581 88.5919 -10.0384 25.3656 -1.4960
# 4 -4.5229 -13.0907 -10.0384 35.1885 -1.0456 5.3414
# 5 3.3980 2.8021 25.3656 -1.0456 31.6693 1.4604
# 6 -3.9258 4.1716 -1.4960 5.3414 1.4604 23.5706
#
#
#
# Elastic Compliance Matrix: (Units=1/GPa)
#
#
# Indices 1 2 3 4 5 6 
#
# 1 0.020278 0.000942 0.000315 0.002544 -0.002557 0.002813
# 2 0.000942 0.006489 -0.001763 0.002314 0.000891 -0.001683
# 3 0.000315 -0.001763 0.015693 0.003283 -0.012403 0.001385
# 4 0.002544 0.002314 0.003283 0.031525 -0.001752 -0.006813
# 5 -0.002557 0.000891 -0.012403 -0.001752 0.041813 -0.003564
# 6 0.002813 -0.001683 0.001385 -0.006813 -0.003564 0.045045
#
#
# Mechanical properties :
#
#
# Convention : Reuss Voigt Hill
#
# Bulk Modulus (GPa) = 24.12616 38.27358 31.19987
# Shear Modulus (GPa) = 28.46240 37.25742 32.85991
#
# Velocity S-wave (km/s) = 3.43249 3.92717 3.68813
# Velocity P-wave (km/s) = 5.06915 6.03380 5.57239
#
# Compressibility (1/GPa) = 0.04144879
#
# Stress axis : x y z
#
# Youngs Moduli (GPa) = 49.31465 154.10459 63.72169
#
# Poissons Ratio (x) = -0.14511 -0.02010
# Poissons Ratio (y) = -0.04644 0.11233
# Poissons Ratio (z) = -0.01556 0.27167
#
# Static dielectric constant tensor:
#      x y z
#    x 1.952220 0.006240 -0.011950 
#    y 0.006240 1.935590 -0.027020 
#    z -0.011950 -0.027020 1.932840 
# 
# From -- ./inp_files/399012.got.cif
#   From: 2010.05.17/outbox.cif.g08.bks.cpg/sg2_200_cif.got.tgz:399012.got - 2010.06.03 11:33:40.
