data_PCOD9099708
_publ_section_title
;
Structure prediction by ZEFSAII (Michael W. Deem and Ramdas Pophale) SiO2 
 PCOD9099708
Probable space group: P -1
;
_chemical_formula_sum "Si O2"
_cell_formula_units_Z 16
_cell_length_a 9.037363
_cell_length_b 5.145734
_cell_length_c 21.671489
_cell_angle_alpha 115.365068
_cell_angle_beta 126.089588
_cell_angle_gamma 61.351677
_cell_volume 699.401165
_symmetry_space_group_name_H-M "P -1"
_symmetry_group_IT_number 2
_symmetry_cell_setting 'triclinic'
loop_
_space_group_symop_operation_xyz
x,y,z
-x,-y,-z
loop_
_atom_site_type_symbol
_atom_site_label
_atom_site_fract_x
_atom_site_fract_y
_atom_site_fract_z
Si Si1 0.591690 0.274758 0.054656
Si Si2 0.619662 0.740463 0.456594
Si Si3 0.653483 0.706508 0.321292
Si Si4 0.038473 0.084143 0.947316
Si Si5 0.252939 0.553547 0.337297
Si Si6 0.688915 0.583375 0.899589
Si Si7 0.580261 0.758483 0.766131
Si Si8 0.915899 0.727089 0.623335
O O1 0.504033 0.418894 0.113050
O O2 0.819946 0.173611 0.087062
O O3 0.500000 0.500000 0.000000
O O4 0.500000 0.000000 0.000000
O O5 0.645992 0.831479 0.402300
O O6 0.478123 0.535858 0.397898
O O7 0.824512 0.629439 0.529265
O O8 0.500000 0.000000 0.500000
O O9 0.511590 0.505455 0.267232
O O10 0.864122 0.475068 0.337997
O O11 0.574586 0.968437 0.278585
O O12 0.833967 0.256514 0.883790
O O13 0.172385 0.303865 0.009166
O O14 0.000000 0.000000 0.000000
O O15 0.247001 0.397165 0.254290
O O16 0.195832 0.362425 0.356618
O O17 0.128603 0.908512 0.348777
O O18 0.645565 0.815848 0.855915
#
# Coordination Sequence:
#
# PCOD9099708 Si02
#       8
#     2   2   2   2   2   2   2   2
#     4  10  20  37  61  89 124 149 189 253 301 348
#     4   9  19  37  63  89 115 162 206 252 312 354
#     4  11  24  40  60  89 125 159 206 255 300 368
#     4  10  20  39  66  96 119 152 212 255 303 362
#     4  10  21  39  61  87 125 159 203 252 303 372
#     4  10  23  40  64  90 125 165 200 253 310 369
#     4  11  24  43  61  84 125 172 199 237 313 375
#     4  11  21  39  62  91 121 155 208 266 301 348
#
# _framework density 22.876715000000001
#
# number of rings (size 3 to 8) (size 9 to 14) (size 15 to 20)
#    0.000    1.750    1.250    3.750    1.750    3.000 
#    4.500    6.250    0.000    0.000    0.000    0.000 
#    0.000    0.000    0.000    0.000    0.000    0.000 
#
# Total GULP energy -89294.102477 kJ/mol
# GULP energy per Si atom -5580.881405 kJ/mol
# Density = 2.282465 g / cm^3
# Si number density = 22.876715 Si / 1000 Ang^3
#
#
#
# Elastic Constant Matrix: (Units=GPa)
#
#
# Indices 1 2 3 4 5 6 
#
# 1 98.8885 33.1715 33.0627 -18.4465 -17.0398 -25.8382
# 2 33.1715 102.7908 26.8781 -28.4225 -6.1059 -10.7839
# 3 33.0627 26.8781 76.2566 -26.9383 -19.2166 -12.9260
# 4 -18.4465 -28.4225 -26.9383 36.6208 4.6764 2.0980
# 5 -17.0398 -6.1059 -19.2166 4.6764 29.1301 -7.6484
# 6 -25.8382 -10.7839 -12.9260 2.0980 -7.6484 49.6430
#
#
#
# Elastic Compliance Matrix: (Units=1/GPa)
#
#
# Indices 1 2 3 4 5 6 
#
# 1 0.015954 -0.002344 -0.000590 0.003964 0.010190 0.009043
# 2 -0.002344 0.013095 -0.000311 0.008674 0.000089 0.001191
# 3 -0.000590 -0.000311 0.023581 0.014496 0.014769 0.007428
# 4 0.003964 0.008674 0.014496 0.045233 0.008299 0.007089
# 5 0.010190 0.000089 0.014769 0.008299 0.053185 0.017012
# 6 0.009043 0.001191 0.007428 0.007089 0.017012 0.029365
#
#
# Mechanical properties :
#
#
# Convention : Reuss Voigt Hill
#
# Bulk Modulus (GPa) = 21.67328 51.57341 36.62335
# Shear Modulus (GPa) = 24.71789 35.40037 30.05913
#
# Velocity S-wave (km/s) = 3.29064 3.93802 3.62879
# Velocity P-wave (km/s) = 4.89206 6.57802 5.79666
#
# Compressibility (1/GPa) = 0.04613976
#
# Stress axis : x y z
#
# Youngs Moduli (GPa) = 62.67957 76.36508 42.40774
#
# Poissons Ratio (x) = 0.17902 0.02502
# Poissons Ratio (y) = 0.14694 0.01318
# Poissons Ratio (z) = 0.03698 0.02373
#
# Static dielectric constant tensor:
#      x y z
#    x 1.855200 -0.049100 0.009170 
#    y -0.049100 1.951720 0.060540 
#    z 0.009170 0.060540 1.986630 
# 
# From -- ./inp_files/115906.got.cif
#   From: 2010.05.17/outbox.cif.g08.bks.cpg/sg2_58_cif.got.tgz:115906.got - 2010.06.03 11:33:40.
