data_PCOD9099323
_publ_section_title
;
Structure prediction by ZEFSAII (Michael W. Deem and Ramdas Pophale) SiO2 
 PCOD9099323
Probable space group: P -1
;
_chemical_formula_sum "Si O2"
_cell_formula_units_Z 16
_cell_length_a 8.911546
_cell_length_b 17.269884
_cell_length_c 19.905027
_cell_angle_alpha 22.479730
_cell_angle_beta 43.316259
_cell_angle_gamma 44.788632
_cell_volume 795.333776
_symmetry_space_group_name_H-M "P -1"
_symmetry_group_IT_number 2
_symmetry_cell_setting 'triclinic'
loop_
_space_group_symop_operation_xyz
x,y,z
-x,-y,-z
loop_
_atom_site_type_symbol
_atom_site_label
_atom_site_fract_x
_atom_site_fract_y
_atom_site_fract_z
Si Si1 0.059807 0.150613 0.110937
Si Si2 0.486614 0.721588 0.124628
Si Si3 0.908848 0.180427 0.985524
Si Si4 0.988775 0.236755 0.494647
Si Si5 0.252813 0.134327 0.800179
Si Si6 0.705667 0.116086 0.358282
Si Si7 0.543803 0.473951 0.428079
Si Si8 0.376103 0.448548 0.263297
O O1 0.020185 0.168405 0.030743
O O2 0.828691 0.202628 0.185030
O O3 0.128899 0.912316 0.299591
O O4 0.252538 0.272160 0.975464
O O5 0.460295 0.669022 0.253335
O O6 0.398890 0.542665 0.253854
O O7 0.367043 0.938970 0.962652
O O8 0.853857 0.963866 0.150100
O O9 0.687462 0.345546 0.925604
O O10 0.067999 0.244493 0.823070
O O11 0.805970 0.406458 0.388006
O O12 0.174862 0.324770 0.407919
O O13 0.108903 0.076742 0.528462
O O14 0.417434 0.284659 0.602248
O O15 0.601304 0.301004 0.290634
O O16 0.500000 0.000000 0.500000
O O17 0.500000 0.500000 0.500000
#
# Coordination Sequence:
#
# PCOD9099323 Si02
#       8
#     2   2   2   2   2   2   2   2
#     4  10  20  37  60  85 114 160 185 242 294 338
#     4  11  24  37  62  89 120 153 196 241 292 346
#     4  10  22  37  61  82 123 151 198 241 291 345
#     4   9  20  38  58  85 117 152 192 240 287 341
#     4  10  22  42  54  91 122 154 190 249 286 342
#     4   8  18  35  62  82 117 153 192 244 293 336
#     4  12  24  38  63  86 119 159 197 234 294 352
#     4  10  20  40  57  87 115 152 201 238 287 355
#
# _framework density 20.117338
#
# number of rings (size 3 to 8) (size 9 to 14) (size 15 to 20)
#    0.750    1.250    1.250    2.250    3.500    2.000 
#    0.000    3.125    0.000    0.000    0.000    0.000 
#    0.000    0.000    0.000    0.000    0.000    0.000 
#
# Total GULP energy -89078.546672 kJ/mol
# GULP energy per Si atom -5567.409167 kJ/mol
# Density = 2.007155 g / cm^3
# Si number density = 20.117338 Si / 1000 Ang^3
#
#
#
# Elastic Constant Matrix: (Units=GPa)
#
#
# Indices 1 2 3 4 5 6 
#
# 1 71.4544 10.8119 16.3263 6.0767 -9.5730 -5.7764
# 2 10.8119 71.6325 8.5664 -11.3729 -1.9405 -14.9220
# 3 16.3263 8.5664 65.8720 4.1022 -9.9956 -0.1394
# 4 6.0767 -11.3729 4.1022 25.4946 -8.2637 -0.6686
# 5 -9.5730 -1.9405 -9.9956 -8.2637 32.3534 0.9162
# 6 -5.7764 -14.9220 -0.1394 -0.6686 0.9162 20.8392
#
#
#
# Elastic Compliance Matrix: (Units=1/GPa)
#
#
# Indices 1 2 3 4 5 6 
#
# 1 0.015840 -0.001864 -0.003065 -0.003151 0.002744 0.002814
# 2 -0.001864 0.018983 -0.002297 0.010324 0.002138 0.013298
# 3 -0.003065 -0.002297 0.016924 -0.001859 0.003783 -0.002607
# 4 -0.003151 0.010324 -0.001859 0.048758 0.011352 0.007572
# 5 0.002744 0.002138 0.003783 0.011352 0.035886 0.001103
# 6 0.002814 0.013298 -0.002607 0.007572 0.001103 0.058466
#
#
# Mechanical properties :
#
#
# Convention : Reuss Voigt Hill
#
# Bulk Modulus (GPa) = 26.81337 31.15200 28.98268
# Shear Modulus (GPa) = 22.54887 27.28772 24.91830
#
# Velocity S-wave (km/s) = 3.35157 3.68697 3.52326
# Velocity P-wave (km/s) = 5.32304 5.80032 5.56680
#
# Compressibility (1/GPa) = 0.03729483
#
# Stress axis : x y z
#
# Youngs Moduli (GPa) = 63.12998 52.67750 59.08888
#
# Poissons Ratio (x) = 0.09820 0.18111
# Poissons Ratio (y) = 0.11768 0.13573
# Poissons Ratio (z) = 0.19350 0.12101
#
# Static dielectric constant tensor:
#      x y z
#    x 1.733480 -0.033890 -0.018670 
#    y -0.033890 1.748390 -0.026440 
#    z -0.018670 -0.026440 1.752640 
# 
# From -- ./inp_files/591174.got.cif
#   From: 2010.05.17/outbox.cif.g08.bks.cpg/sg2_296_cif.got.tgz:591174.got - 2010.06.03 11:33:40.
