data_PCOD9099431
_publ_section_title
;
Structure prediction by ZEFSAII (Michael W. Deem and Ramdas Pophale) SiO2 
 PCOD9099431
Probable space group: P -1
;
_chemical_formula_sum "Si O2"
_cell_formula_units_Z 16
_cell_length_a 12.348859
_cell_length_b 8.673760
_cell_length_c 14.940238
_cell_angle_alpha 136.252481
_cell_angle_beta 45.421909
_cell_angle_gamma 131.461681
_cell_volume 748.101079
_symmetry_space_group_name_H-M "P -1"
_symmetry_group_IT_number 2
_symmetry_cell_setting 'triclinic'
loop_
_space_group_symop_operation_xyz
x,y,z
-x,-y,-z
loop_
_atom_site_type_symbol
_atom_site_label
_atom_site_fract_x
_atom_site_fract_y
_atom_site_fract_z
Si Si1 0.225092 0.768350 0.289299
Si Si2 0.080855 0.485812 0.746991
Si Si3 0.735111 0.151068 0.343825
Si Si4 0.679298 0.660402 0.940209
Si Si5 0.309720 0.455758 0.752547
Si Si6 0.860067 0.760838 0.063042
Si Si7 0.531360 0.004559 0.088852
Si Si8 0.619717 0.994244 0.532334
O O1 0.234929 0.522377 0.222171
O O2 0.368625 0.865355 0.175935
O O3 0.062383 0.706096 0.301513
O O4 0.268691 0.946528 0.421032
O O5 0.204141 0.618983 0.654698
O O6 0.166039 0.395361 0.739197
O O7 0.010048 0.677404 0.915678
O O8 0.559676 0.998089 0.342891
O O9 0.867729 0.015681 0.202566
O O10 0.699257 0.164038 0.474988
O O11 0.500000 0.500000 0.000000
O O12 0.766919 0.746832 0.018547
O O13 0.661118 0.872136 0.980447
O O14 0.241409 0.412958 0.874928
O O15 0.401614 0.269008 0.600451
O O16 0.409092 0.727833 0.799313
O O17 0.500000 0.000000 0.000000
#
# Coordination Sequence:
#
# PCOD9099431 Si02
#       8
#     2   2   2   2   2   2   2   2
#     4  10  22  39  58  85 123 160 203 246 294 356
#     4  11  22  37  60  90 121 157 198 255 310 350
#     4  10  21  38  63  86 114 158 208 252 294 355
#     4   9  17  33  57  82 115 152 194 246 292 341
#     4  11  23  39  62  89 125 162 199 244 301 365
#     4  10  20  37  60  89 119 153 200 251 303 354
#     4  11  22  37  61  92 121 155 199 252 303 350
#     4  10  23  42  61  86 119 164 207 242 289 363
#
# _framework density 21.387484000000001
#
# number of rings (size 3 to 8) (size 9 to 14) (size 15 to 20)
#    0.000    1.750    0.000    6.000    0.000    6.000 
#    0.000    2.500    0.000    0.000    0.000    0.000 
#    0.000    0.000    0.000    0.000    0.000    0.000 
#
# Total GULP energy -89336.737501 kJ/mol
# GULP energy per Si atom -5583.546094 kJ/mol
# Density = 2.133881 g / cm^3
# Si number density = 21.387484 Si / 1000 Ang^3
#
#
#
# Elastic Constant Matrix: (Units=GPa)
#
#
# Indices 1 2 3 4 5 6 
#
# 1 117.9182 23.9090 25.4925 2.1201 8.2006 -13.4415
# 2 23.9090 79.7909 25.3577 -2.0150 8.1833 -12.6831
# 3 25.4925 25.3577 76.4618 2.2673 3.0358 -2.3535
# 4 2.1201 -2.0150 2.2673 23.8786 0.1702 -1.3984
# 5 8.2006 8.1833 3.0358 0.1702 28.5302 5.9581
# 6 -13.4415 -12.6831 -2.3535 -1.3984 5.9581 33.3692
#
#
#
# Elastic Compliance Matrix: (Units=1/GPa)
#
#
# Indices 1 2 3 4 5 6 
#
# 1 0.009967 -0.001224 -0.002663 -0.000486 -0.003039 0.003884
# 2 -0.001224 0.015908 -0.004544 0.002283 -0.005042 0.006229
# 3 -0.002663 -0.004544 0.015431 -0.001731 0.000841 -0.001934
# 4 -0.000486 0.002283 -0.001731 0.042435 -0.001112 0.002527
# 5 -0.003039 -0.005042 0.000841 -0.001112 0.039410 -0.010165
# 6 0.003884 0.006229 -0.001934 0.002527 -0.010165 0.035684
#
#
# Mechanical properties :
#
#
# Convention : Reuss Voigt Hill
#
# Bulk Modulus (GPa) = 40.90465 47.07657 43.99061
# Shear Modulus (GPa) = 27.19686 30.44970 28.82328
#
# Velocity S-wave (km/s) = 3.56985 3.77731 3.67505
# Velocity P-wave (km/s) = 6.01322 6.40961 6.21458
#
# Compressibility (1/GPa) = 0.02444710
#
# Stress axis : x y z
#
# Youngs Moduli (GPa) = 100.33096 62.86014 64.80279
#
# Poissons Ratio (x) = 0.07692 0.17254
# Poissons Ratio (y) = 0.12276 0.29444
# Poissons Ratio (z) = 0.26714 0.28561
#
# Static dielectric constant tensor:
#      x y z
#    x 1.765990 0.000030 -0.016350 
#    y 0.000030 1.785690 0.038590 
#    z -0.016350 0.038590 1.807390 
# 
# From -- ./inp_files/307894.got.cif
#   From: 2010.05.17/outbox.cif.g08.bks.cpg/sg2_154_cif.got.tgz:307894.got - 2010.06.03 11:33:40.
