data_PCOD9099983
_publ_section_title
;
Structure prediction by ZEFSAII (Michael W. Deem and Ramdas Pophale) SiO2 
 PCOD9099983
Probable space group: P -1
;
_chemical_formula_sum "Si O2"
_cell_formula_units_Z 16
_cell_length_a 9.595232
_cell_length_b 9.661958
_cell_length_c 7.335183
_cell_angle_alpha 71.434379
_cell_angle_beta 113.389613
_cell_angle_gamma 91.269650
_cell_volume 587.411898
_symmetry_space_group_name_H-M "P -1"
_symmetry_group_IT_number 2
_symmetry_cell_setting 'triclinic'
loop_
_space_group_symop_operation_xyz
x,y,z
-x,-y,-z
loop_
_atom_site_type_symbol
_atom_site_label
_atom_site_fract_x
_atom_site_fract_y
_atom_site_fract_z
Si Si1 0.268993 0.545723 0.013356
Si Si2 0.845028 0.761082 0.288449
Si Si3 0.545313 0.685417 0.281797
Si Si4 0.421668 0.258615 0.323223
Si Si5 0.249438 0.803394 0.660059
Si Si6 0.695848 0.069686 0.968274
Si Si7 0.923489 0.271604 0.885563
Si Si8 0.151923 0.104009 0.364599
O O1 0.426988 0.607289 0.133364
O O2 0.312367 0.373070 0.096300
O O3 0.151259 0.586312 0.101352
O O4 0.212998 0.641326 0.767229
O O5 0.714632 0.657549 0.304776
O O6 0.876811 0.817751 0.486390
O O7 0.988857 0.700064 0.265487
O O8 0.758480 0.900008 0.070212
O O9 0.549174 0.654884 0.511050
O O10 0.480294 0.861703 0.171126
O O11 0.582607 0.213637 0.332910
O O12 0.323018 0.129690 0.381568
O O13 0.259703 0.879436 0.829958
O O14 0.143017 0.930841 0.447445
O O15 0.786855 0.168481 0.838922
O O16 0.037697 0.180387 0.124655
#
# Coordination Sequence:
#
# PCOD9099983 Si02
#       8
#     2   2   2   2   2   2   2   2
#     4  10  23  42  58  89 126 161 206 243 305 375
#     4  10  20  37  62  89 124 162 196 256 311 351
#     4   9  20  36  59  87 116 157 207 256 289 364
#     4  11  21  38  64  89 122 161 203 254 306 354
#     4   9  20  37  59  89 119 153 199 257 300 351
#     4   9  20  37  56  91 124 153 204 244 311 369
#     4  10  22  39  60  87 130 167 193 252 306 366
#     4  10  23  38  62  97 122 152 214 251 298 373
#
# _framework density 27.238126000000001
#
# number of rings (size 3 to 8) (size 9 to 14) (size 15 to 20)
#    0.000    2.500    0.000    1.875    5.250    6.000 
#    9.000    2.500    0.000    0.000    0.000    0.000 
#    0.000    0.000    0.000    0.000    0.000    0.000 
#
# Total GULP energy -89632.488216 kJ/mol
# GULP energy per Si atom -5602.030513 kJ/mol
# Density = 2.717613 g / cm^3
# Si number density = 27.238126 Si / 1000 Ang^3
#
#
#
# Elastic Constant Matrix: (Units=GPa)
#
#
# Indices 1 2 3 4 5 6 
#
# 1 170.9083 24.7052 9.6878 23.2111 -42.7326 -32.9053
# 2 24.7052 79.4798 26.4316 -3.1366 -9.2030 -9.9272
# 3 9.6878 26.4316 104.3035 11.7820 -3.8986 -11.0230
# 4 23.2111 -3.1366 11.7820 39.1724 -14.7154 -5.4108
# 5 -42.7326 -9.2030 -3.8986 -14.7154 35.5985 8.7872
# 6 -32.9053 -9.9272 -11.0230 -5.4108 8.7872 36.7208
#
#
#
# Elastic Compliance Matrix: (Units=1/GPa)
#
#
# Indices 1 2 3 4 5 6 
#
# 1 0.009721 -0.001504 0.000665 -0.001824 0.009104 0.006056
# 2 -0.001504 0.015107 -0.003944 0.004712 0.003254 0.001468
# 3 0.000665 -0.003944 0.011229 -0.004250 -0.001392 0.002607
# 4 -0.001824 0.004712 -0.004250 0.032838 0.012060 0.000317
# 5 0.009104 0.003254 -0.001392 0.012060 0.044772 -0.000317
# 6 0.006056 0.001468 0.002607 0.000317 -0.000317 0.033962
#
#
# Mechanical properties :
#
#
# Convention : Reuss Voigt Hill
#
# Bulk Modulus (GPa) = 37.75057 52.92674 45.33866
# Shear Modulus (GPa) = 30.11593 41.88950 36.00271
#
# Velocity S-wave (km/s) = 3.32874 3.92586 3.63957
# Velocity P-wave (km/s) = 5.35384 6.32638 5.86032
#
# Compressibility (1/GPa) = 0.02648966
#
# Stress axis : x y z
#
# Youngs Moduli (GPa) = 102.87131 66.19452 89.05783
#
# Poissons Ratio (x) = 0.09955 -0.05919
# Poissons Ratio (y) = 0.15471 0.35125
# Poissons Ratio (z) = -0.06837 0.26108
#
# Static dielectric constant tensor:
#      x y z
#    x 2.118460 0.027520 -0.022470 
#    y 0.027520 2.138630 -0.032660 
#    z -0.022470 -0.032660 2.177280 
# 
# From -- ./inp_files/185956.got.cif
#   From: 2010.05.17/outbox.cif.g08.bks.cpg/sg2_93_cif.got.tgz:185956.got - 2010.06.03 11:33:40.
