data_PCOD9099110
_publ_section_title
;
Structure prediction by ZEFSAII (Michael W. Deem and Ramdas Pophale) SiO2 
 PCOD9099110
Probable space group: P -1
;
_chemical_formula_sum "Si O2"
_cell_formula_units_Z 16
_cell_length_a 8.649249
_cell_length_b 18.652474
_cell_length_c 13.421717
_cell_angle_alpha 158.770631
_cell_angle_beta 55.799650
_cell_angle_gamma 120.611158
_cell_volume 647.700248
_symmetry_space_group_name_H-M "P -1"
_symmetry_group_IT_number 2
_symmetry_cell_setting 'triclinic'
loop_
_space_group_symop_operation_xyz
x,y,z
-x,-y,-z
loop_
_atom_site_type_symbol
_atom_site_label
_atom_site_fract_x
_atom_site_fract_y
_atom_site_fract_z
Si Si1 0.877611 0.769165 0.528410
Si Si2 0.521114 0.175446 0.296258
Si Si3 0.975188 0.763448 0.691077
Si Si4 0.876555 0.236551 0.753259
Si Si5 0.920825 0.761315 0.111613
Si Si6 0.509473 0.316414 0.885876
Si Si7 0.622396 0.253342 0.557165
Si Si8 0.102577 0.752178 0.834307
O O1 0.682536 0.724539 0.491459
O O2 0.840456 0.716129 0.589090
O O3 0.032776 0.695476 0.296436
O O4 0.904959 0.007163 0.837319
O O5 0.574191 0.100268 0.290460
O O6 0.691508 0.297965 0.351348
O O7 0.500000 0.000000 0.000000
O O8 0.168274 0.692661 0.474004
O O9 0.962199 0.699110 0.726830
O O10 0.000000 0.000000 0.000000
O O11 0.650658 0.274648 0.872533
O O12 0.985802 0.308758 0.906748
O O13 0.915115 0.999220 0.431511
O O14 0.710185 0.725044 0.100408
O O15 0.052584 0.681825 0.870390
O O16 0.599396 0.192639 0.599530
O O17 0.508214 0.550268 0.162481
#
# Coordination Sequence:
#
# PCOD9099110 Si02
#       8
#     2   2   2   2   2   2   2   2
#     4   9  15  29  53  83 106 138 192 246 296 330
#     4   9  17  33  55  82 111 151 193 252 294 333
#     4   9  16  32  55  79 110 145 193 249 283 336
#     4  10  20  37  59  85 118 154 206 247 283 363
#     4  10  21  38  57  85 119 163 200 240 296 355
#     4  11  22  39  58  89 127 161 190 245 310 361
#     4  10  21  37  57  87 125 149 197 253 301 362
#     4   8  17  31  51  79 112 142 190 245 287 344
#
# _framework density 24.702783
#
# number of rings (size 3 to 8) (size 9 to 14) (size 15 to 20)
#    0.000    2.500    1.250    1.875    0.000    1.000 
#    4.500    4.375    0.000    3.000    0.000    0.000 
#    0.000    0.000    0.000    0.000    0.000    0.000 
#
# Total GULP energy -89096.695670 kJ/mol
# GULP energy per Si atom -5568.543479 kJ/mol
# Density = 2.464656 g / cm^3
# Si number density = 24.702783 Si / 1000 Ang^3
#
#
#
# Elastic Constant Matrix: (Units=GPa)
#
#
# Indices 1 2 3 4 5 6 
#
# 1 149.4285 35.4194 11.8184 -26.8789 12.4527 -14.4156
# 2 35.4194 79.7760 11.9666 -10.6506 7.1090 -17.2679
# 3 11.8184 11.9666 61.2137 -4.2840 16.9897 -2.3010
# 4 -26.8789 -10.6506 -4.2840 35.7601 -3.1424 -4.6852
# 5 12.4527 7.1090 16.9897 -3.1424 36.5613 -8.7059
# 6 -14.4156 -17.2679 -2.3010 -4.6852 -8.7059 29.9274
#
#
#
# Elastic Compliance Matrix: (Units=1/GPa)
#
#
# Indices 1 2 3 4 5 6 
#
# 1 0.008804 -0.002110 -0.000439 0.006337 -0.000958 0.003703
# 2 -0.002110 0.016306 -0.002486 0.004296 0.001274 0.009244
# 3 -0.000439 -0.002486 0.019304 0.000091 -0.008987 -0.002761
# 4 0.006337 0.004296 0.000091 0.035844 0.002901 0.011993
# 5 -0.000958 0.001274 -0.008987 0.002901 0.034236 0.009996
# 6 0.003703 0.009244 -0.002761 0.011993 0.009996 0.045105
#
#
# Mechanical properties :
#
#
# Convention : Reuss Voigt Hill
#
# Bulk Modulus (GPa) = 29.11644 45.42524 37.27084
# Shear Modulus (GPa) = 27.60678 35.86399 31.73539
#
# Velocity S-wave (km/s) = 3.34662 3.81441 3.58814
# Velocity P-wave (km/s) = 5.17160 6.15047 5.68215
#
# Compressibility (1/GPa) = 0.03434486
#
# Stress axis : x y z
#
# Youngs Moduli (GPa) = 113.58391 61.32853 51.80333
#
# Poissons Ratio (x) = 0.12941 0.02272
# Poissons Ratio (y) = 0.23967 0.12876
# Poissons Ratio (z) = 0.04982 0.15244
#
# Static dielectric constant tensor:
#      x y z
#    x 2.058780 -0.029770 -0.038800 
#    y -0.029770 2.006720 0.091050 
#    z -0.038800 0.091050 2.110780 
# 
# From -- ./inp_files/262845.got.cif
#   From: 2010.05.17/outbox.cif.g08.bks.cpg/sg2_132_cif.got.tgz:262845.got - 2010.06.03 11:33:40.
