data_PCOD9099366
_publ_section_title
;
Structure prediction by ZEFSAII (Michael W. Deem and Ramdas Pophale) SiO2 
 PCOD9099366
Probable space group: P -1
;
_chemical_formula_sum "Si O2"
_cell_formula_units_Z 14
_cell_length_a 11.650740
_cell_length_b 11.186628
_cell_length_c 8.994218
_cell_angle_alpha 68.958795
_cell_angle_beta 85.065052
_cell_angle_gamma 140.750626
_cell_volume 545.008318
_symmetry_space_group_name_H-M "P -1"
_symmetry_group_IT_number 2
_symmetry_cell_setting 'triclinic'
loop_
_space_group_symop_operation_xyz
x,y,z
-x,-y,-z
loop_
_atom_site_type_symbol
_atom_site_label
_atom_site_fract_x
_atom_site_fract_y
_atom_site_fract_z
Si Si1 0.370710 0.573773 0.539952
Si Si2 0.629852 0.603421 0.636132
Si Si3 0.639997 0.121003 0.750470
Si Si4 0.983570 0.336185 0.391921
Si Si5 0.773220 0.132454 0.204712
Si Si6 0.879852 0.951404 0.713655
Si Si7 0.142493 0.898395 0.097023
O O1 0.426507 0.501575 0.660366
O O2 0.413964 0.572440 0.363589
O O3 0.116857 0.376842 0.691359
O O4 0.565344 0.859887 0.433256
O O5 0.869509 0.873143 0.402388
O O6 0.703656 0.694785 0.756372
O O7 0.779769 0.221759 0.541087
O O8 0.683050 0.038183 0.883884
O O9 0.783083 0.374709 0.698715
O O10 0.377552 0.900204 0.839251
O O11 0.961063 0.335452 0.218750
O O12 0.927603 0.133951 0.537639
O O13 0.866438 0.132361 0.062767
O O14 0.806703 0.920417 0.901825
#
# Coordination Sequence:
#
# PCOD9099366 Si02
#       7
#     2   2   2   2   2   2   2
#     4  10  20  37  60  87 115 153 196 240 288 347
#     4   9  17  34  63  80 113 159 190 235 297 340
#     4  10  21  39  58  85 122 155 193 243 288 347
#     4  10  20  37  63  90 113 155 201 236 287 357
#     4  12  22  39  63  88 118 157 193 243 295 342
#     4   9  17  36  59  85 116 154 193 237 292 348
#     4  10  23  39  57  88 122 148 196 245 288 351
#
# _framework density 25.687681000000001
#
# number of rings (size 3 to 8) (size 9 to 14) (size 15 to 20)
#    0.000    2.000    1.429    4.286    0.000    0.571 
#    2.571    7.143    0.000    0.000    0.000    0.000 
#    0.000    0.000    0.000    0.000    0.000    0.000 
#
# Total GULP energy -78213.552450 kJ/mol
# GULP energy per Si atom -5586.682318 kJ/mol
# Density = 2.562921 g / cm^3
# Si number density = 25.687681 Si / 1000 Ang^3
#
#
#
# Elastic Constant Matrix: (Units=GPa)
#
#
# Indices 1 2 3 4 5 6 
#
# 1 81.7931 10.6878 30.4637 -0.6101 -2.3592 8.1914
# 2 10.6878 145.4207 45.6983 22.0475 2.9417 0.3907
# 3 30.4637 45.6983 96.8630 29.4994 -12.4551 -0.0250
# 4 -0.6101 22.0475 29.4994 53.8604 -5.8067 3.1536
# 5 -2.3592 2.9417 -12.4551 -5.8067 17.3808 4.3473
# 6 8.1914 0.3907 -0.0250 3.1536 4.3473 23.2463
#
#
#
# Elastic Compliance Matrix: (Units=1/GPa)
#
#
# Indices 1 2 3 4 5 6 
#
# 1 0.015026 0.000186 -0.005881 0.003716 0.000512 -0.005904
# 2 0.000186 0.008575 -0.004233 -0.001824 -0.005326 0.001029
# 3 -0.005881 -0.004233 0.017559 -0.006962 0.009859 0.001263
# 4 0.003716 -0.001824 -0.006962 0.024057 0.005245 -0.005531
# 5 0.000512 -0.005326 0.009859 0.005245 0.070834 -0.014039
# 6 -0.005904 0.001029 0.001263 -0.005531 -0.014039 0.048458
#
#
# Mechanical properties :
#
#
# Convention : Reuss Voigt Hill
#
# Bulk Modulus (GPa) = 46.94073 55.30850 51.12462
# Shear Modulus (GPa) = 23.64457 34.71263 29.17860
#
# Velocity S-wave (km/s) = 3.03721 3.68004 3.37397
# Velocity P-wave (km/s) = 5.53288 6.29562 5.92653
#
# Compressibility (1/GPa) = 0.02130346
#
# Stress axis : x y z
#
# Youngs Moduli (GPa) = 66.55282 116.62278 56.95226
#
# Poissons Ratio (x) = -0.02167 0.33491
# Poissons Ratio (y) = -0.01236 0.24107
# Poissons Ratio (z) = 0.39137 0.49365
#
# Static dielectric constant tensor:
#      x y z
#    x 2.058670 -0.011760 0.046790 
#    y -0.011760 2.032320 0.020380 
#    z 0.046790 0.020380 2.049620 
# 
# From -- ./inp_files/233587.got.cif
#   From: 2010.05.17/outbox.cif.g08.bks.cpg/sg2_117_cif.got.tgz:233587.got - 2010.06.03 11:33:40.
