data_PCOD9099853
_publ_section_title
;
Structure prediction by ZEFSAII (Michael W. Deem and Ramdas Pophale) SiO2 
 PCOD9099853
Probable space group: P -1
;
_chemical_formula_sum "Si O2"
_cell_formula_units_Z 16
_cell_length_a 9.435654
_cell_length_b 14.234271
_cell_length_c 8.708028
_cell_angle_alpha 107.485408
_cell_angle_beta 131.458236
_cell_angle_gamma 93.298545
_cell_volume 780.357375
_symmetry_space_group_name_H-M "P -1"
_symmetry_group_IT_number 2
_symmetry_cell_setting 'triclinic'
loop_
_space_group_symop_operation_xyz
x,y,z
-x,-y,-z
loop_
_atom_site_type_symbol
_atom_site_label
_atom_site_fract_x
_atom_site_fract_y
_atom_site_fract_z
Si Si1 0.697357 0.290448 0.551761
Si Si2 0.518048 0.904068 0.871431
Si Si3 0.440042 0.766534 0.017239
Si Si4 0.275673 0.262071 0.365863
Si Si5 0.187026 0.812230 0.126391
Si Si6 0.068640 0.601742 0.489423
Si Si7 0.648142 0.613620 0.221218
Si Si8 0.231172 0.036063 0.231834
O O1 0.678817 0.186272 0.386720
O O2 0.468071 0.288748 0.403436
O O3 0.777603 0.265997 0.760147
O O4 0.831174 0.393317 0.604111
O O5 0.577980 0.841112 0.020853
O O6 0.653327 0.945665 0.839284
O O7 0.500000 0.000000 0.000000
O O8 0.241542 0.686244 0.753044
O O9 0.340753 0.818367 0.099560
O O10 0.558834 0.698069 0.138044
O O11 0.324210 0.360003 0.564460
O O12 0.279711 0.152725 0.394404
O O13 0.049906 0.231643 0.117935
O O14 0.248894 0.935380 0.283450
O O15 0.000000 0.500000 0.500000
O O16 0.871752 0.630544 0.333176
O O17 0.500000 0.500000 0.000000
O O18 0.000000 0.000000 0.000000
#
# Coordination Sequence:
#
# PCOD9099853 Si02
#       8
#     2   2   2   2   2   2   2   2
#     4  10  24  39  67  97 126 164 222 260 328 385
#     4  10  20  37  61  99 133 174 214 257 317 393
#     4  11  22  39  69  93 136 171 211 270 326 377
#     4  10  22  41  63  97 132 166 219 267 315 387
#     4  11  20  40  68  94 133 174 207 267 324 379
#     4  11  24  46  66  90 128 170 213 277 330 380
#     4  12  24  41  68  95 121 171 224 264 330 386
#     4   9  20  35  62  92 132 171 212 252 320 379
#
# _framework density 20.503429000000001
#
# number of rings (size 3 to 8) (size 9 to 14) (size 15 to 20)
#    0.000    1.500    5.000    0.000    0.000    7.000 
#    0.000    3.125    0.000   10.500    0.000    0.000 
#    0.000    0.000    0.000    0.000    0.000    0.000 
#
# Total GULP energy -89074.381335 kJ/mol
# GULP energy per Si atom -5567.148833 kJ/mol
# Density = 2.045676 g / cm^3
# Si number density = 20.503429 Si / 1000 Ang^3
#
#
#
# Elastic Constant Matrix: (Units=GPa)
#
#
# Indices 1 2 3 4 5 6 
#
# 1 83.1767 40.1031 34.5804 -4.5438 16.1380 8.4744
# 2 40.1031 83.6182 23.7949 -4.6434 5.1185 13.5680
# 3 34.5804 23.7949 83.9345 -3.5865 8.1657 -3.9303
# 4 -4.5438 -4.6434 -3.5865 32.4477 -10.1642 -1.6451
# 5 16.1380 5.1185 8.1657 -10.1642 37.1457 -2.8266
# 6 8.4744 13.5680 -3.9303 -1.6451 -2.8266 33.5736
#
#
#
# Elastic Compliance Matrix: (Units=1/GPa)
#
#
# Indices 1 2 3 4 5 6 
#
# 1 0.019155 -0.006710 -0.005541 -0.001181 -0.006761 -0.003399
# 2 -0.006710 0.016658 -0.002249 0.001270 0.001070 -0.005149
# 3 -0.005541 -0.002249 0.015066 0.000751 -0.000077 0.004102
# 4 -0.001181 0.001270 0.000751 0.034068 0.009674 0.002357
# 5 -0.006761 0.001070 -0.000077 0.009674 0.032717 0.004494
# 6 -0.003399 -0.005149 0.004102 0.002357 0.004494 0.033698
#
#
# Mechanical properties :
#
#
# Convention : Reuss Voigt Hill
#
# Bulk Modulus (GPa) = 45.70671 49.74290 47.72480
# Shear Modulus (GPa) = 26.64455 30.78349 28.71402
#
# Velocity S-wave (km/s) = 3.60879 3.87897 3.74632
# Velocity P-wave (km/s) = 6.30120 6.66148 6.48384
#
# Compressibility (1/GPa) = 0.02187863
#
# Stress axis : x y z
#
# Youngs Moduli (GPa) = 52.20517 60.03233 66.37357
#
# Poissons Ratio (x) = 0.40282 0.36780
# Poissons Ratio (y) = 0.35030 0.14926
# Poissons Ratio (z) = 0.28929 0.13500
#
# Static dielectric constant tensor:
#      x y z
#    x 1.769450 0.017770 -0.028690 
#    y 0.017770 1.806150 0.008650 
#    z -0.028690 0.008650 1.750970 
# 
# From -- ./inp_files/203385.got.cif
#   From: 2010.05.17/outbox.cif.g08.bks.cpg/sg2_102_cif.got.tgz:203385.got - 2010.06.03 11:33:40.
