data_PCOD9099087
_publ_section_title
;
Structure prediction by ZEFSAII (Michael W. Deem and Ramdas Pophale) SiO2 
 PCOD9099087
Probable space group: P -1
;
_chemical_formula_sum "Si O2"
_cell_formula_units_Z 16
_cell_length_a 14.781021
_cell_length_b 12.582401
_cell_length_c 9.281790
_cell_angle_alpha 58.972864
_cell_angle_beta 111.199159
_cell_angle_gamma 153.485688
_cell_volume 637.584601
_symmetry_space_group_name_H-M "P -1"
_symmetry_group_IT_number 2
_symmetry_cell_setting 'triclinic'
loop_
_space_group_symop_operation_xyz
x,y,z
-x,-y,-z
loop_
_atom_site_type_symbol
_atom_site_label
_atom_site_fract_x
_atom_site_fract_y
_atom_site_fract_z
Si Si1 0.069587 0.964770 0.408254
Si Si2 0.332208 0.712256 0.167267
Si Si3 0.729744 0.797492 0.364528
Si Si4 0.000315 0.528572 0.651045
Si Si5 0.201636 0.536657 0.906733
Si Si6 0.481871 0.479738 0.831315
Si Si7 0.763521 0.546429 0.290966
Si Si8 0.550108 0.946672 0.382729
O O1 0.145333 0.989269 0.585343
O O2 0.282166 0.269110 0.263006
O O3 0.227395 0.848487 0.580074
O O4 0.883954 0.853020 0.405606
O O5 0.172737 0.593146 0.272991
O O6 0.471256 0.787772 0.303364
O O7 0.218136 0.528477 0.090451
O O8 0.500000 0.000000 0.000000
O O9 0.500000 0.500000 0.500000
O O10 0.674930 0.779327 0.181283
O O11 0.970361 0.778245 0.346353
O O12 0.000000 0.500000 0.500000
O O13 0.017252 0.418350 0.828381
O O14 0.195481 0.414178 0.882527
O O15 0.400561 0.853393 0.765049
O O16 0.388042 0.510331 0.725572
O O17 0.500000 0.500000 0.000000
O O18 0.627194 0.273130 0.448348
#
# Coordination Sequence:
#
# PCOD9099087 Si02
#       8
#     2   2   2   2   2   2   2   2
#     4   9  19  37  62  91 115 154 203 253 309 373
#     4  10  20  37  59  84 118 163 209 259 307 357
#     4   8  16  36  64  87 111 150 194 245 312 373
#     4  10  21  34  60  88 115 166 218 246 302 367
#     4   9  21  37  58  85 124 165 203 248 308 356
#     4  10  22  39  62  89 123 159 201 254 318 373
#     4  11  21  38  58  91 123 157 210 261 301 370
#     4   9  22  37  59  83 121 163 207 248 304 361
#
# _framework density 25.094709000000002
#
# number of rings (size 3 to 8) (size 9 to 14) (size 15 to 20)
#    0.750    1.750    0.000    1.500    3.500    4.000 
#    0.000    8.750    0.000    0.000    0.000    0.000 
#    0.000    0.000    0.000    0.000    0.000    0.000 
#
# Total GULP energy -89122.660491 kJ/mol
# GULP energy per Si atom -5570.166281 kJ/mol
# Density = 2.503759 g / cm^3
# Si number density = 25.094709 Si / 1000 Ang^3
#
#
#
# Elastic Constant Matrix: (Units=GPa)
#
#
# Indices 1 2 3 4 5 6 
#
# 1 82.0261 55.2127 26.8457 21.5172 -29.5268 1.9093
# 2 55.2127 175.0152 95.2631 49.5122 -31.8705 10.3845
# 3 26.8457 95.2631 145.9710 53.0235 -41.9612 -11.6197
# 4 21.5172 49.5122 53.0235 54.2994 -15.7284 -12.8668
# 5 -29.5268 -31.8705 -41.9612 -15.7284 40.4272 7.5848
# 6 1.9093 10.3845 -11.6197 -12.8668 7.5848 33.8157
#
#
#
# Elastic Compliance Matrix: (Units=1/GPa)
#
#
# Indices 1 2 3 4 5 6 
#
# 1 0.020904 -0.005135 0.005714 -0.005409 0.015648 -0.003208
# 2 -0.005135 0.012446 -0.006075 -0.005428 -0.000955 -0.007471
# 3 0.005714 -0.006075 0.017029 -0.009300 0.013277 0.000878
# 4 -0.005409 -0.005428 -0.009300 0.036014 -0.006485 0.013934
# 5 0.015648 -0.000955 0.013277 -0.006485 0.048425 -0.009357
# 6 -0.003208 -0.007471 0.000878 0.013934 -0.009357 0.039750
#
#
# Mechanical properties :
#
#
# Convention : Reuss Voigt Hill
#
# Bulk Modulus (GPa) = 25.38944 84.18391 54.78668
# Shear Modulus (GPa) = 25.16514 40.75452 32.95983
#
# Velocity S-wave (km/s) = 3.17015 4.03430 3.62804
# Velocity P-wave (km/s) = 4.85172 7.43774 6.27930
#
# Compressibility (1/GPa) = 0.03938645
#
# Stress axis : x y z
#
# Youngs Moduli (GPa) = 47.83826 80.35032 58.72240
#
# Poissons Ratio (x) = 0.41260 -0.33556
# Poissons Ratio (y) = 0.24565 0.35676
# Poissons Ratio (z) = -0.27337 0.48816
#
# Static dielectric constant tensor:
#      x y z
#    x 2.107880 -0.048470 -0.006710 
#    y -0.048470 2.043000 0.097700 
#    z -0.006710 0.097700 2.060460 
# 
# From -- ./inp_files/314811.got.cif
#   From: 2010.05.17/outbox.cif.g08.bks.cpg/sg2_158_cif.got.tgz:314811.got - 2010.06.03 11:33:40.
