data_PCOD9099372
_publ_section_title
;
Structure prediction by ZEFSAII (Michael W. Deem and Ramdas Pophale) SiO2 
 PCOD9099372
Probable space group: P -1
;
_chemical_formula_sum "Si O2"
_cell_formula_units_Z 15
_cell_length_a 14.734603
_cell_length_b 14.847907
_cell_length_c 13.622630
_cell_angle_alpha 149.421403
_cell_angle_beta 152.009346
_cell_angle_gamma 27.029309
_cell_volume 595.776884
_symmetry_space_group_name_H-M "P -1"
_symmetry_group_IT_number 2
_symmetry_cell_setting 'triclinic'
loop_
_space_group_symop_operation_xyz
x,y,z
-x,-y,-z
loop_
_atom_site_type_symbol
_atom_site_label
_atom_site_fract_x
_atom_site_fract_y
_atom_site_fract_z
Si Si1 0.462317 0.663076 0.760238
Si Si2 0.210612 0.032813 0.726164
Si Si3 0.708756 0.029369 0.947155
Si Si4 0.535520 0.828979 0.453353
Si Si5 0.015168 0.294797 0.609493
Si Si6 0.033566 0.674547 0.066661
Si Si7 0.000000 0.500000 0.500000
Si Si8 0.038126 0.118248 0.254087
O O1 0.234526 0.657417 0.550897
O O2 0.696449 0.438238 0.757590
O O3 0.418138 0.826898 0.784346
O O4 0.470186 0.769670 0.969754
O O5 0.210514 0.099059 0.677595
O O6 0.120101 0.238726 0.900911
O O7 0.000000 0.000000 0.500000
O O8 0.610128 0.897963 0.686901
O O9 0.920660 0.880456 0.083548
O O10 0.817450 0.104109 0.040023
O O11 0.739379 0.605225 0.399245
O O12 0.500000 0.000000 0.500000
O O13 0.275283 0.886929 0.268739
O O14 0.050384 0.237218 0.475025
O O15 0.013954 0.499997 0.828011
O O16 0.026773 0.269685 0.300164
#
# Coordination Sequence:
#
# PCOD9099372 Si02
#       8
#     2   2   2   2   2   2   1   2
#     4   9  21  39  59  86 120 159 197 241 292 340
#     4   9  20  38  55  85 126 156 199 248 283 341
#     4  10  22  39  60  89 120 151 198 241 284 356
#     4  10  22  41  62  86 116 150 188 241 299 350
#     4  10  20  37  60  87 118 153 202 247 285 348
#     4  11  21  36  60  86 119 163 198 238 293 340
#     4  10  22  40  60  86 114 142 192 240 284 358
#     4  10  22  41  62  85 117 155 191 243 301 344
#
# _framework density 25.177209999999999
#
# number of rings (size 3 to 8) (size 9 to 14) (size 15 to 20)
#    0.000    2.133    0.000    2.800    0.000    9.067 
#    0.000   12.667    0.000    0.000    0.000    0.000 
#    0.000    0.000    0.000    0.000    0.000    0.000 
#
# Total GULP energy -83672.129045 kJ/mol
# GULP energy per Si atom -5578.141936 kJ/mol
# Density = 2.511991 g / cm^3
# Si number density = 25.177210 Si / 1000 Ang^3
#
#
#
# Elastic Constant Matrix: (Units=GPa)
#
#
# Indices 1 2 3 4 5 6 
#
# 1 38.2607 15.7870 13.4209 -8.3911 1.6580 -13.1854
# 2 15.7870 118.8979 2.7965 -8.0309 0.9398 -22.4095
# 3 13.4209 2.7965 75.4412 0.8560 -4.8406 -17.0643
# 4 -8.3911 -8.0309 0.8560 31.4421 -3.5307 2.1304
# 5 1.6580 0.9398 -4.8406 -3.5307 40.4525 -6.2883
# 6 -13.1854 -22.4095 -17.0643 2.1304 -6.2883 39.3250
#
#
#
# Elastic Compliance Matrix: (Units=1/GPa)
#
#
# Indices 1 2 3 4 5 6 
#
# 1 0.032830 -0.002329 -0.004150 0.007780 0.000052 0.007466
# 2 -0.002329 0.009819 0.001335 0.001594 0.001016 0.005470
# 3 -0.004150 0.001335 0.015665 -0.001317 0.002941 0.006708
# 4 0.007780 0.001594 -0.001317 0.034528 0.002735 0.001512
# 5 0.000052 0.001016 0.002941 0.002735 0.026205 0.005915
# 6 0.007466 0.005470 0.006708 0.001512 0.005915 0.034824
#
#
# Mechanical properties :
#
#
# Convention : Reuss Voigt Hill
#
# Bulk Modulus (GPa) = 20.82241 32.95652 26.88947
# Shear Modulus (GPa) = 27.75156 35.61694 31.68425
#
# Velocity S-wave (km/s) = 3.32362 3.76526 3.55131
# Velocity P-wave (km/s) = 4.79759 5.65873 5.24586
#
# Compressibility (1/GPa) = 0.04802517
#
# Stress axis : x y z
#
# Youngs Moduli (GPa) = 30.45960 101.84348 63.83541
#
# Poissons Ratio (x) = 0.23722 0.26493
# Poissons Ratio (y) = 0.07095 -0.08521
# Poissons Ratio (z) = 0.12642 -0.13594
#
# Static dielectric constant tensor:
#      x y z
#    x 1.988070 0.010310 0.038620 
#    y 0.010310 1.999840 -0.055420 
#    z 0.038620 -0.055420 1.998830 
# 
# From -- ./inp_files/337346.got.cif
#   From: 2010.05.17/outbox.cif.g08.bks.cpg/sg2_169_cif.got.tgz:337346.got - 2010.06.03 11:33:40.
