data_PCOD9099859
_publ_section_title
;
Structure prediction by ZEFSAII (Michael W. Deem and Ramdas Pophale) SiO2 
 PCOD9099859
Probable space group: P -1
;
_chemical_formula_sum "Si O2"
_cell_formula_units_Z 13
_cell_length_a 12.788399
_cell_length_b 9.762422
_cell_length_c 5.067887
_cell_angle_alpha 84.541859
_cell_angle_beta 89.381718
_cell_angle_gamma 127.845912
_cell_volume 495.430042
_symmetry_space_group_name_H-M "P -1"
_symmetry_group_IT_number 2
_symmetry_cell_setting 'triclinic'
loop_
_space_group_symop_operation_xyz
x,y,z
-x,-y,-z
loop_
_atom_site_type_symbol
_atom_site_label
_atom_site_fract_x
_atom_site_fract_y
_atom_site_fract_z
Si Si1 0.153158 0.305987 0.758607
Si Si2 0.724625 0.112809 0.372639
Si Si3 0.030988 0.400720 0.315178
Si Si4 0.618385 0.500395 0.903252
Si Si5 0.000000 0.000000 0.000000
Si Si6 0.307297 0.734227 0.130153
Si Si7 0.786250 0.868434 0.554191
O O1 0.101906 0.352007 0.518314
O O2 0.294312 0.449955 0.844336
O O3 0.137830 0.127232 0.714581
O O4 0.053206 0.206269 0.020387
O O5 0.698766 0.185274 0.615594
O O6 0.881507 0.238891 0.274371
O O7 0.701456 0.933694 0.475676
O O8 0.652797 0.129620 0.129030
O O9 0.154528 0.556100 0.105599
O O10 0.000000 0.500000 0.500000
O O11 0.500000 0.500000 0.000000
O O12 0.604828 0.333414 0.833726
O O13 0.696255 0.663535 0.668462
O O14 0.112091 0.028638 0.230579
#
# Coordination Sequence:
#
# PCOD9099859 Si02
#       7
#     2   2   2   2   1   2   2
#     4  11  22  39  65 101 137 175 233 279 343 415
#     4  11  25  40  70 103 147 179 218 281 361 429
#     4  10  20  37  62 100 139 183 212 271 349 425
#     4  11  26  47  71  93 131 188 246 296 336 397
#     4  10  22  36  62  98 142 176 214 276 344 420
#     4  11  24  45  65 101 141 183 232 280 346 425
#     4  11  24  41  68 101 138 180 230 283 351 411
#
# _framework density 26.239830999999999
#
# number of rings (size 3 to 8) (size 9 to 14) (size 15 to 20)
#    0.000    1.231    3.077    2.769    4.308    1.846 
#    0.000    1.538    0.000    0.000    0.000    0.000 
#    0.000    0.000    0.000    0.000    0.000    0.000 
#
# Total GULP energy -72568.353512 kJ/mol
# GULP energy per Si atom -5582.181039 kJ/mol
# Density = 2.618011 g / cm^3
# Si number density = 26.239831 Si / 1000 Ang^3
#
#
#
# Elastic Constant Matrix: (Units=GPa)
#
#
# Indices 1 2 3 4 5 6 
#
# 1 151.0713 55.6749 68.9838 3.8941 -10.4696 -59.8867
# 2 55.6749 80.9349 49.2209 -18.5051 10.4241 -53.7641
# 3 68.9838 49.2209 168.0447 -14.0633 21.0797 -29.9505
# 4 3.8941 -18.5051 -14.0633 37.9341 -16.1779 9.0795
# 5 -10.4696 10.4241 21.0797 -16.1779 34.7906 -1.2424
# 6 -59.8867 -53.7641 -29.9505 9.0795 -1.2424 49.9472
#
#
#
# Elastic Compliance Matrix: (Units=1/GPa)
#
#
# Indices 1 2 3 4 5 6 
#
# 1 0.017348 0.006947 -0.005594 -0.004334 0.005437 0.025847
# 2 0.006947 0.055513 -0.006735 0.006680 -0.005116 0.062705
# 3 -0.005594 -0.006735 0.009425 0.000502 -0.005447 -0.008533
# 4 -0.004334 0.006680 0.000502 0.036957 0.013429 -0.004089
# 5 0.005437 -0.005116 -0.005447 0.013429 0.041327 -0.003668
# 6 0.025847 0.062705 -0.008533 -0.004089 -0.003668 0.114044
#
#
# Mechanical properties :
#
#
# Convention : Reuss Voigt Hill
#
# Bulk Modulus (GPa) = 13.98189 83.09000 48.53595
# Shear Modulus (GPa) = 16.16981 39.61246 27.89113
#
# Velocity S-wave (km/s) = 2.48509 3.88961 3.26380
# Velocity P-wave (km/s) = 3.68434 7.20461 5.72192
#
# Compressibility (1/GPa) = 0.07152107
#
# Stress axis : x y z
#
# Youngs Moduli (GPa) = 57.64235 18.01386 106.10486
#
# Poissons Ratio (x) = -0.12515 0.59360
# Poissons Ratio (y) = -0.40046 0.71465
# Poissons Ratio (z) = 0.32248 0.12133
#
# Static dielectric constant tensor:
#      x y z
#    x 2.268690 -0.084010 -0.327240 
#    y -0.084010 2.302390 0.028420 
#    z -0.327240 0.028420 2.364270 
# 
# From -- ./inp_files/59207.got.cif
#   From: 2010.05.17/outbox.cif.g08.bks.cpg/sg2_30_cif.got.tgz:59207.got - 2010.06.03 11:33:40.
