data_PCOD9099940
_publ_section_title
;
Structure prediction by ZEFSAII (Michael W. Deem and Ramdas Pophale) SiO2 
 PCOD9099940
Probable space group: P -1
;
_chemical_formula_sum "Si O2"
_cell_formula_units_Z 16
_cell_length_a 14.886533
_cell_length_b 15.966142
_cell_length_c 12.192590
_cell_angle_alpha 24.813229
_cell_angle_beta 37.688296
_cell_angle_gamma 37.220190
_cell_volume 708.299095
_symmetry_space_group_name_H-M "P -1"
_symmetry_group_IT_number 2
_symmetry_cell_setting 'triclinic'
loop_
_space_group_symop_operation_xyz
x,y,z
-x,-y,-z
loop_
_atom_site_type_symbol
_atom_site_label
_atom_site_fract_x
_atom_site_fract_y
_atom_site_fract_z
Si Si1 0.476248 0.944600 0.782742
Si Si2 0.832133 0.407661 0.504275
Si Si3 0.766247 0.760701 0.616149
Si Si4 0.495287 0.483500 0.394311
Si Si5 0.148349 0.022482 0.921055
Si Si6 0.076777 0.284256 0.246651
Si Si7 0.969759 0.394423 0.767108
Si Si8 0.622326 0.042931 0.742059
O O1 0.595961 0.913787 0.605260
O O2 0.301782 0.057242 0.784788
O O3 0.537943 0.045298 0.704855
O O4 0.494628 0.705222 0.084131
O O5 0.666181 0.541087 0.462763
O O6 0.922393 0.550532 0.307689
O O7 0.922290 0.272728 0.472877
O O8 0.820024 0.225489 0.814908
O O9 0.822882 0.718265 0.737237
O O10 0.798671 0.530542 0.806186
O O11 0.860786 0.878235 0.309395
O O12 0.500000 0.500000 0.500000
O O13 0.629769 0.275969 0.479280
O O14 0.012027 0.154539 0.976023
O O15 0.203910 0.120791 0.241322
O O16 0.000000 0.500000 0.000000
O O17 0.000000 0.500000 0.500000
O O18 0.500000 0.000000 0.000000
#
# Coordination Sequence:
#
# PCOD9099940 Si02
#       8
#     2   2   2   2   2   2   2   2
#     4  10  21  37  60  86 118 153 199 248 298 356
#     4  10  22  39  60  89 123 153 198 254 289 360
#     4   9  20  37  58  85 119 153 193 249 294 351
#     4  11  22  38  59  86 120 158 203 244 297 356
#     4  10  20  37  62  88 115 157 198 238 305 354
#     4  10  22  38  59  89 119 160 198 246 302 351
#     4   9  19  36  59  85 115 154 194 238 297 352
#     4  11  21  38  63  83 119 164 199 248 300 353
#
# _framework density 22.589327000000001
#
# number of rings (size 3 to 8) (size 9 to 14) (size 15 to 20)
#    0.000    2.000    1.250    1.875    1.750    6.500 
#    0.000    4.375    0.000   13.500    0.000    0.000 
#    0.000    0.000    0.000    0.000    0.000    0.000 
#
# Total GULP energy -89116.655612 kJ/mol
# GULP energy per Si atom -5569.790976 kJ/mol
# Density = 2.253791 g / cm^3
# Si number density = 22.589327 Si / 1000 Ang^3
#
#
#
# Elastic Constant Matrix: (Units=GPa)
#
#
# Indices 1 2 3 4 5 6 
#
# 1 92.6453 27.3587 11.2455 -12.7249 18.0800 -2.9730
# 2 27.3587 162.9116 11.0883 -11.5391 12.0256 5.7724
# 3 11.2455 11.0883 47.7934 -12.6238 22.4482 10.6824
# 4 -12.7249 -11.5391 -12.6238 36.0909 0.0928 0.3835
# 5 18.0800 12.0256 22.4482 0.0928 28.9812 -3.3139
# 6 -2.9730 5.7724 10.6824 0.3835 -3.3139 30.7140
#
#
#
# Elastic Compliance Matrix: (Units=1/GPa)
#
#
# Indices 1 2 3 4 5 6 
#
# 1 0.013675 -0.001272 0.004373 0.005988 -0.011556 -0.001280
# 2 -0.001272 0.006743 0.001416 0.002236 -0.003368 -0.002274
# 3 0.004373 0.001416 0.051825 0.020486 -0.046165 -0.023104
# 4 0.005988 0.002236 0.020486 0.037859 -0.021772 -0.009787
# 5 -0.011556 -0.003368 -0.046165 -0.021772 0.081761 0.024664
# 6 -0.001280 -0.002274 -0.023104 -0.009787 0.024664 0.043681
#
#
# Mechanical properties :
#
#
# Convention : Reuss Voigt Hill
#
# Bulk Modulus (GPa) = 12.30363 44.74836 28.52600
# Shear Modulus (GPa) = 19.71590 36.06773 27.89181
#
# Velocity S-wave (km/s) = 2.95752 4.00017 3.51769
# Velocity P-wave (km/s) = 4.13776 6.41776 5.39948
#
# Compressibility (1/GPa) = 0.08127681
#
# Stress axis : x y z
#
# Youngs Moduli (GPa) = 73.12511 148.30028 19.29586
#
# Poissons Ratio (x) = 0.18859 -0.08438
# Poissons Ratio (y) = 0.09299 -0.02732
# Poissons Ratio (z) = -0.31977 -0.20995
#
# Static dielectric constant tensor:
#      x y z
#    x 1.858210 -0.048810 -0.008020 
#    y -0.048810 1.920490 0.018510 
#    z -0.008020 0.018510 1.838550 
# 
# From -- ./inp_files/454308.got.cif
#   From: 2010.05.17/outbox.cif.g08.bks.cpg/sg2_228_cif.got.tgz:454308.got - 2010.06.03 11:33:40.
