data_PCOD9099012
_publ_section_title
;
Structure prediction by ZEFSAII (Michael W. Deem and Ramdas Pophale) SiO2 
 PCOD9099012
Probable space group: P -1
;
_chemical_formula_sum "Si O2"
_cell_formula_units_Z 12
_cell_length_a 16.403568
_cell_length_b 11.514981
_cell_length_c 7.316747
_cell_angle_alpha 87.413848
_cell_angle_beta 61.482576
_cell_angle_gamma 138.032954
_cell_volume 594.689855
_symmetry_space_group_name_H-M "P -1"
_symmetry_group_IT_number 2
_symmetry_cell_setting 'triclinic'
loop_
_space_group_symop_operation_xyz
x,y,z
-x,-y,-z
loop_
_atom_site_type_symbol
_atom_site_label
_atom_site_fract_x
_atom_site_fract_y
_atom_site_fract_z
Si Si1 0.430022 0.404770 0.876912
Si Si2 0.428182 0.600641 0.573870
Si Si3 0.388777 0.992698 0.179846
Si Si4 0.012328 0.523904 0.203116
Si Si5 0.631356 0.237224 0.236464
Si Si6 0.236444 0.981627 0.030008
O O1 0.400853 0.489233 0.785374
O O2 0.581223 0.493212 0.588205
O O3 0.500000 0.500000 0.000000
O O4 0.239752 0.117120 0.089050
O O5 0.310116 0.590806 0.709708
O O6 0.645507 0.882201 0.294567
O O7 0.367538 0.058331 0.032431
O O8 0.178398 0.730297 0.486876
O O9 0.508539 0.162861 0.214265
O O10 0.500000 0.000000 0.000000
O O11 0.058691 0.705252 0.206574
O O12 0.193087 0.640386 0.044811
O O13 0.000000 0.500000 0.000000
O O14 0.500000 0.000000 0.500000
#
# Coordination Sequence:
#
# PCOD9099012 Si02
#       6
#     2   2   2   2   2   2
#     4   9  18  35  62  93 118 169 216 258 314 369
#     4   9  19  35  59  91 125 159 210 261 307 380
#     4  12  23  37  62  92 132 169 208 260 318 380
#     4  12  24  37  60  94 132 168 205 260 322 385
#     4  12  20  39  60  93 131 163 207 258 327 380
#     4  10  20  37  58  93 127 161 210 257 311 376
#
# _framework density 20.178585000000002
#
# number of rings (size 3 to 8) (size 9 to 14) (size 15 to 20)
#    1.000    0.333    5.000    1.500    0.000    0.000 
#    0.000    0.000    0.000    2.000    4.333    0.000 
#    0.000    0.000    0.000    0.000    0.000    0.000 
#
# Total GULP energy -66832.818388 kJ/mol
# GULP energy per Si atom -5569.401532 kJ/mol
# Density = 2.013266 g / cm^3
# Si number density = 20.178585 Si / 1000 Ang^3
#
#
#
# Elastic Constant Matrix: (Units=GPa)
#
#
# Indices 1 2 3 4 5 6 
#
# 1 92.6559 44.7154 35.9492 -4.8725 25.2008 -9.9644
# 2 44.7154 112.3840 24.6328 9.5623 9.6793 -8.1493
# 3 35.9492 24.6328 85.4354 -1.7131 -4.6301 -9.1277
# 4 -4.8725 9.5623 -1.7131 31.6039 3.9654 2.4233
# 5 25.2008 9.6793 -4.6301 3.9654 27.8858 1.9246
# 6 -9.9644 -8.1493 -9.1277 2.4233 1.9246 40.4283
#
#
#
# Elastic Compliance Matrix: (Units=1/GPa)
#
#
# Indices 1 2 3 4 5 6 
#
# 1 0.024159 -0.006081 -0.009130 0.007648 -0.022552 0.003282
# 2 -0.006081 0.011795 -0.000738 -0.004855 0.001907 0.000912
# 3 -0.009130 -0.000738 0.016436 -0.001795 0.011431 0.000875
# 4 0.007648 -0.004855 -0.001795 0.035598 -0.010508 -0.001133
# 5 -0.022552 0.001907 0.011431 -0.010508 0.059302 -0.004786
# 6 0.003282 0.000912 0.000875 -0.001133 -0.004786 0.026221
#
#
# Mechanical properties :
#
#
# Convention : Reuss Voigt Hill
#
# Bulk Modulus (GPa) = 48.80441 55.67445 52.23943
# Shear Modulus (GPa) = 23.55819 32.32880 27.94350
#
# Velocity S-wave (km/s) = 3.42055 4.00701 3.72534
# Velocity P-wave (km/s) = 6.31181 7.00421 6.66701
#
# Compressibility (1/GPa) = 0.02048995
#
# Stress axis : x y z
#
# Youngs Moduli (GPa) = 41.39292 84.78447 60.84062
#
# Poissons Ratio (x) = 0.51561 0.55548
# Poissons Ratio (y) = 0.25173 0.04492
# Poissons Ratio (z) = 0.37792 0.06259
#
# Static dielectric constant tensor:
#      x y z
#    x 1.747190 -0.002560 -0.038750 
#    y -0.002560 1.845460 0.067720 
#    z -0.038750 0.067720 1.799500 
# 
# From -- ./inp_files/40530.got.cif
#   From: 2010.05.17/outbox.cif.g08.bks.cpg/sg2_21_cif.got.tgz:40530.got - 2010.06.03 11:33:40.
