data_PCOD9099731
_publ_section_title
;
Structure prediction by ZEFSAII (Michael W. Deem and Ramdas Pophale) SiO2 
 PCOD9099731
Probable space group: P -1
;
_chemical_formula_sum "Si O2"
_cell_formula_units_Z 16
_cell_length_a 18.786108
_cell_length_b 6.435247
_cell_length_c 25.445930
_cell_angle_alpha 117.854937
_cell_angle_beta 163.235232
_cell_angle_gamma 68.991356
_cell_volume 735.337201
_symmetry_space_group_name_H-M "P -1"
_symmetry_group_IT_number 2
_symmetry_cell_setting 'triclinic'
loop_
_space_group_symop_operation_xyz
x,y,z
-x,-y,-z
loop_
_atom_site_type_symbol
_atom_site_label
_atom_site_fract_x
_atom_site_fract_y
_atom_site_fract_z
Si Si1 0.950864 0.968818 0.578315
Si Si2 0.023413 0.347372 0.917657
Si Si3 0.214693 0.753438 0.371982
Si Si4 0.598296 0.470615 0.319355
Si Si5 0.197458 0.759600 0.648000
Si Si6 0.780805 0.004426 0.124587
Si Si7 0.187332 0.888388 0.151473
Si Si8 0.095200 0.502436 0.361224
O O1 0.924811 0.232293 0.604838
O O2 0.159364 0.937087 0.764741
O O3 0.690610 0.729317 0.381271
O O4 0.067020 0.952598 0.601151
O O5 0.829183 0.327674 0.729298
O O6 0.895225 0.156731 0.851233
O O7 0.290442 0.320406 0.081544
O O8 0.130735 0.620615 0.052408
O O9 0.157853 0.527103 0.346825
O O10 0.999788 0.886563 0.247509
O O11 0.507273 0.939650 0.613549
O O12 0.751930 0.299212 0.383007
O O13 0.684211 0.529847 0.447614
O O14 0.000000 0.500000 0.500000
O O15 0.486444 0.827416 0.885322
O O16 0.839781 0.264722 0.165940
O O17 0.000000 0.000000 0.000000
#
# Coordination Sequence:
#
# PCOD9099731 Si02
#       8
#     2   2   2   2   2   2   2   2
#     4   9  20  36  60  86 125 167 210 262 315 366
#     4  11  23  42  67  93 127 168 211 256 318 384
#     4  11  23  43  66  94 127 172 211 255 317 383
#     4  10  20  40  62  88 124 166 210 261 315 374
#     4  10  20  37  61  90 122 168 210 261 317 368
#     4  10  20  39  61  89 124 168 212 257 310 374
#     4  11  25  42  66  99 129 160 206 265 319 376
#     4  10  21  37  60  90 126 165 211 262 311 369
#
# _framework density 21.758725999999999
#
# number of rings (size 3 to 8) (size 9 to 14) (size 15 to 20)
#    0.000    1.750    1.250    3.750    0.000    3.500 
#    4.500    2.500    0.000    0.000    0.000    0.000 
#    0.000    0.000    0.000    0.000    0.000    0.000 
#
# Total GULP energy -89312.151079 kJ/mol
# GULP energy per Si atom -5582.009442 kJ/mol
# Density = 2.170920 g / cm^3
# Si number density = 21.758726 Si / 1000 Ang^3
#
#
#
# Elastic Constant Matrix: (Units=GPa)
#
#
# Indices 1 2 3 4 5 6 
#
# 1 120.3325 27.8555 35.8885 -7.7716 -9.6413 26.7209
# 2 27.8555 57.9782 32.7794 -0.5750 13.9768 13.7187
# 3 35.8885 32.7794 133.1934 3.6470 6.0129 15.1438
# 4 -7.7716 -0.5750 3.6470 20.1252 0.1378 -1.5132
# 5 -9.6413 13.9768 6.0129 0.1378 35.3694 -6.7568
# 6 26.7209 13.7187 15.1438 -1.5132 -6.7568 29.1902
#
#
#
# Elastic Compliance Matrix: (Units=1/GPa)
#
#
# Indices 1 2 3 4 5 6 
#
# 1 0.011864 -0.003913 -0.001715 0.004225 0.003708 -0.007054
# 2 -0.003913 0.026752 -0.003783 -0.000729 -0.012913 -0.010054
# 3 -0.001715 -0.003783 0.009211 -0.002566 -0.000865 -0.001764
# 4 0.004225 -0.000729 -0.002566 0.051821 0.001850 0.000921
# 5 0.003708 -0.012913 -0.000865 0.001850 0.036767 0.011730
# 6 -0.007054 -0.010054 -0.001764 0.000921 0.011730 0.049119
#
#
# Mechanical properties :
#
#
# Convention : Reuss Voigt Hill
#
# Bulk Modulus (GPa) = 34.47777 56.06121 45.26949
# Shear Modulus (GPa) = 23.36179 31.26901 27.31540
#
# Velocity S-wave (km/s) = 3.28025 3.79500 3.54697
# Velocity P-wave (km/s) = 5.49787 6.70996 6.13393
#
# Compressibility (1/GPa) = 0.02900420
#
# Stress axis : x y z
#
# Youngs Moduli (GPa) = 84.28863 37.38075 108.56758
#
# Poissons Ratio (x) = 0.14629 0.18615
# Poissons Ratio (y) = 0.32986 0.41073
# Poissons Ratio (z) = 0.14452 0.14142
#
# Static dielectric constant tensor:
#      x y z
#    x 1.879640 -0.033800 -0.010370 
#    y -0.033800 1.806430 -0.004470 
#    z -0.010370 -0.004470 1.765070 
# 
# From -- ./inp_files/51158.got.cif
#   From: 2010.05.17/outbox.cif.g08.bks.cpg/sg2_26_cif.got.tgz:51158.got - 2010.06.03 11:33:40.
