data_PCOD9099758
_publ_section_title
;
Structure prediction by ZEFSAII (Michael W. Deem and Ramdas Pophale) SiO2 
 PCOD9099758
Probable space group: P -1
;
_chemical_formula_sum "Si O2"
_cell_formula_units_Z 15
_cell_length_a 14.467618
_cell_length_b 13.238987
_cell_length_c 8.373222
_cell_angle_alpha 69.172489
_cell_angle_beta 130.104900
_cell_angle_gamma 143.970720
_cell_volume 670.991762
_symmetry_space_group_name_H-M "P -1"
_symmetry_group_IT_number 2
_symmetry_cell_setting 'triclinic'
loop_
_space_group_symop_operation_xyz
x,y,z
-x,-y,-z
loop_
_atom_site_type_symbol
_atom_site_label
_atom_site_fract_x
_atom_site_fract_y
_atom_site_fract_z
Si Si1 0.661422 0.922240 0.515852
Si Si2 0.198803 0.124429 0.041369
Si Si3 0.163346 0.529682 0.721194
Si Si4 0.970112 0.367596 0.944006
Si Si5 0.027018 0.836121 0.745862
Si Si6 0.500000 0.000000 0.500000
Si Si7 0.872504 0.730790 0.301508
Si Si8 0.459000 0.095588 0.930455
O O1 0.525098 0.822180 0.260137
O O2 0.614155 0.001291 0.501058
O O3 0.896723 0.089505 0.618470
O O4 0.642533 0.820770 0.694064
O O5 0.264502 0.284646 0.943817
O O6 0.111822 0.985692 0.880353
O O7 0.000000 0.000000 0.000000
O O8 0.000000 0.500000 0.500000
O O9 0.087901 0.451045 0.860078
O O10 0.175850 0.430184 0.687786
O O11 0.385629 0.747208 0.852808
O O12 0.725465 0.178801 0.744763
O O13 0.054456 0.326140 0.158864
O O14 0.000000 0.500000 0.000000
O O15 0.880763 0.767861 0.476949
O O16 0.228397 0.938576 0.822300
O O17 0.500000 0.000000 0.000000
#
# Coordination Sequence:
#
# PCOD9099758 Si02
#       8
#     2   2   2   2   2   1   2   2
#     4  10  20  37  61  91 125 169 216 261 326 390
#     4  10  20  39  66  94 125 170 224 266 322 404
#     4  12  24  41  62  94 134 168 214 276 334 392
#     4  12  24  38  61  99 132 173 223 272 332 403
#     4  11  22  41  65  94 126 170 225 267 332 396
#     4  12  20  36  64  92 132 166 218 266 330 382
#     4  10  21  40  62  93 125 170 216 270 327 391
#     4  11  24  40  62  95 133 174 212 274 334 395
#
# _framework density 22.354969000000001
#
# number of rings (size 3 to 8) (size 9 to 14) (size 15 to 20)
#    0.000    1.067    2.667    6.000    1.867    0.000 
#    0.000    1.333    0.000    3.200    0.000    0.000 
#    0.000    0.000    0.000    0.000    0.000    0.000 
#
# Total GULP energy -83580.689991 kJ/mol
# GULP energy per Si atom -5572.045999 kJ/mol
# Density = 2.230409 g / cm^3
# Si number density = 22.354969 Si / 1000 Ang^3
#
#
#
# Elastic Constant Matrix: (Units=GPa)
#
#
# Indices 1 2 3 4 5 6 
#
# 1 61.7353 -11.8586 -1.0222 -18.7762 -21.7080 -10.4837
# 2 -11.8586 55.1735 30.3884 -17.6132 2.1321 -13.1044
# 3 -1.0222 30.3884 107.7031 -20.3536 -11.6113 -5.1756
# 4 -18.7762 -17.6132 -20.3536 39.1145 3.2370 -3.3728
# 5 -21.7080 2.1321 -11.6113 3.2370 14.3753 0.2209
# 6 -10.4837 -13.1044 -5.1756 -3.3728 0.2209 33.6731
#
#
#
# Elastic Compliance Matrix: (Units=1/GPa)
#
#
# Indices 1 2 3 4 5 6 
#
# 1 0.160746 0.063683 0.034316 0.112040 0.234404 0.089788
# 2 0.063683 0.053868 0.006876 0.055792 0.080448 0.046908
# 3 0.034316 0.006876 0.020160 0.026643 0.060797 0.018728
# 4 0.112040 0.055792 0.026643 0.111514 0.156237 0.070834
# 5 0.234404 0.080448 0.060797 0.156237 0.423584 0.126500
# 6 0.089788 0.046908 0.018728 0.070834 0.126500 0.085050
#
#
# Mechanical properties :
#
#
# Convention : Reuss Voigt Hill
#
# Bulk Modulus (GPa) = 2.24959 28.84745 15.54852
# Shear Modulus (GPa) = 6.30243 31.23956 18.77099
#
# Velocity S-wave (km/s) = 1.68088 3.74228 2.90086
# Velocity P-wave (km/s) = 2.18533 5.62185 4.26502
#
# Compressibility (1/GPa) = 0.44452535
#
# Stress axis : x y z
#
# Youngs Moduli (GPa) = 6.22099 18.56394 49.60366
#
# Poissons Ratio (x) = -1.18221 -1.70222
# Poissons Ratio (y) = -0.39617 -0.34109
# Poissons Ratio (z) = -0.21348 -0.12765
#
# Static dielectric constant tensor:
#      x y z
#    x 1.764370 0.014290 -0.011820 
#    y 0.014290 1.882260 -0.097340 
#    z -0.011820 -0.097340 1.961790 
# 
# From -- ./inp_files/237302.got.cif
#   From: 2010.05.17/outbox.cif.g08.bks.cpg/sg2_119_cif.got.tgz:237302.got - 2010.06.03 11:33:40.
