data_PCOD9099649
_publ_section_title
;
Structure prediction by ZEFSAII (Michael W. Deem and Ramdas Pophale) SiO2 
 PCOD9099649
Probable space group: P -1
;
_chemical_formula_sum "Si O2"
_cell_formula_units_Z 14
_cell_length_a 16.212674
_cell_length_b 10.895889
_cell_length_c 8.894618
_cell_angle_alpha 77.867334
_cell_angle_beta 78.251390
_cell_angle_gamma 145.795801
_cell_volume 627.682062
_symmetry_space_group_name_H-M "P -1"
_symmetry_group_IT_number 2
_symmetry_cell_setting 'triclinic'
loop_
_space_group_symop_operation_xyz
x,y,z
-x,-y,-z
loop_
_atom_site_type_symbol
_atom_site_label
_atom_site_fract_x
_atom_site_fract_y
_atom_site_fract_z
Si Si1 0.203153 0.082485 0.139084
Si Si2 0.596782 0.627132 0.675844
Si Si3 0.857850 0.751861 0.484024
Si Si4 0.849732 0.165578 0.267428
Si Si5 0.237477 0.685247 0.828872
Si Si6 0.380439 0.830564 0.242023
Si Si7 0.924623 0.477414 0.374934
O O1 0.303266 0.229767 0.230372
O O2 0.361749 0.314335 0.885919
O O3 0.017202 0.929413 0.249290
O O4 0.116347 0.824522 0.230334
O O5 0.682150 0.616808 0.568818
O O6 0.678055 0.846830 0.481517
O O7 0.746702 0.470667 0.634718
O O8 0.000000 0.000000 0.500000
O O9 0.774418 0.177573 0.185765
O O10 0.944605 0.369725 0.320366
O O11 0.039519 0.359403 0.065761
O O12 0.207380 0.627893 0.677871
O O13 0.442367 0.920638 0.764878
O O14 0.216181 0.712888 0.378109
O O15 0.500000 0.000000 0.000000
#
# Coordination Sequence:
#
# PCOD9099649 Si02
#       7
#     2   2   2   2   2   2   2
#     4   9  20  36  58  90 123 158 204 252 305 358
#     4  10  20  37  61  87 125 163 199 252 307 363
#     4   9  21  38  54  88 126 151 194 258 298 363
#     4   9  21  38  62  85 119 165 199 245 306 365
#     4   9  21  41  58  89 124 153 204 254 300 366
#     4  11  23  37  66  92 113 163 207 251 310 355
#     4   9  20  40  59  84 126 152 197 261 296 357
#
# _framework density 22.304285
#
# number of rings (size 3 to 8) (size 9 to 14) (size 15 to 20)
#    0.857    1.714    0.000    0.429    8.000    4.000 
#    0.000    2.857    0.000    3.429    0.000    0.000 
#    0.000    0.000    0.000    0.000    0.000    0.000 
#
# Total GULP energy -78037.771244 kJ/mol
# GULP energy per Si atom -5574.126517 kJ/mol
# Density = 2.225352 g / cm^3
# Si number density = 22.304285 Si / 1000 Ang^3
#
#
#
# Elastic Constant Matrix: (Units=GPa)
#
#
# Indices 1 2 3 4 5 6 
#
# 1 27.6002 -4.3790 39.6915 -2.2351 -2.9513 -15.4045
# 2 -4.3790 43.0955 8.4080 -3.5222 3.0739 1.7306
# 3 39.6915 8.4080 207.1519 -25.1201 -17.3862 -4.2359
# 4 -2.2351 -3.5222 -25.1201 27.3105 0.1809 3.2355
# 5 -2.9513 3.0739 -17.3862 0.1809 24.5664 4.3243
# 6 -15.4045 1.7306 -4.2359 3.2355 4.3243 27.8838
#
#
#
# Elastic Compliance Matrix: (Units=1/GPa)
#
#
# Indices 1 2 3 4 5 6 
#
# 1 0.093337 0.011056 -0.020309 -0.015652 -0.013530 0.051707
# 2 0.011056 0.025204 -0.003411 0.000488 -0.005081 0.004757
# 3 -0.020309 -0.003411 0.010280 0.008677 0.007236 -0.011575
# 4 -0.015652 0.000488 0.008677 0.044942 0.006253 -0.013544
# 5 -0.013530 -0.005081 0.007236 0.006253 0.047276 -0.014117
# 6 0.051707 0.004757 -0.011575 -0.013544 -0.014117 0.066136
#
#
# Mechanical properties :
#
#
# Convention : Reuss Voigt Hill
#
# Bulk Modulus (GPa) = 9.66256 40.58764 25.12510
# Shear Modulus (GPa) = 14.40914 31.56062 22.98488
#
# Velocity S-wave (km/s) = 2.54446 3.76573 3.21364
# Velocity P-wave (km/s) = 3.60193 6.09462 5.00591
#
# Compressibility (1/GPa) = 0.10349222
#
# Stress axis : x y z
#
# Youngs Moduli (GPa) = 10.71391 39.67547 97.27679
#
# Poissons Ratio (x) = -0.43864 1.97558
# Poissons Ratio (y) = -0.11845 0.33185
# Poissons Ratio (z) = 0.21759 0.13535
#
# Static dielectric constant tensor:
#      x y z
#    x 1.857290 0.037280 -0.021020 
#    y 0.037280 1.834340 0.015160 
#    z -0.021020 0.015160 1.823740 
# 
# From -- ./inp_files/331935.got.cif
#   From: 2010.05.17/outbox.cif.g08.bks.cpg/sg2_166_cif.got.tgz:331935.got - 2010.06.03 11:33:40.
