data_PCOD9099844
_publ_section_title
;
Structure prediction by ZEFSAII (Michael W. Deem and Ramdas Pophale) SiO2 
 PCOD9099844
Probable space group: P -1
;
_chemical_formula_sum "Si O2"
_cell_formula_units_Z 16
_cell_length_a 16.362719
_cell_length_b 8.203978
_cell_length_c 7.980223
_cell_angle_alpha 108.888737
_cell_angle_beta 103.790612
_cell_angle_gamma 125.717492
_cell_volume 683.817192
_symmetry_space_group_name_H-M "P -1"
_symmetry_group_IT_number 2
_symmetry_cell_setting 'triclinic'
loop_
_space_group_symop_operation_xyz
x,y,z
-x,-y,-z
loop_
_atom_site_type_symbol
_atom_site_label
_atom_site_fract_x
_atom_site_fract_y
_atom_site_fract_z
Si Si1 0.899008 0.997676 0.557495
Si Si2 0.547254 0.192798 0.357945
Si Si3 0.291339 0.277518 0.914346
Si Si4 0.533180 0.804140 0.308687
Si Si5 0.919465 0.857784 0.075894
Si Si6 0.921044 0.494040 0.087879
Si Si7 0.676824 0.732966 0.547672
Si Si8 0.678049 0.975079 0.937964
O O1 0.794099 0.807283 0.312217
O O2 0.820447 0.943929 0.662288
O O3 0.987675 0.980396 0.666665
O O4 0.987064 0.287504 0.658544
O O5 0.516215 0.200871 0.536800
O O6 0.633614 0.472671 0.430938
O O7 0.423475 0.029345 0.136346
O O8 0.590264 0.058863 0.338188
O O9 0.199352 0.202364 0.992637
O O10 0.416186 0.563764 0.072311
O O11 0.318053 0.117745 0.915237
O O12 0.618211 0.769192 0.388366
O O13 0.877767 0.599172 0.997734
O O14 0.000000 0.000000 0.000000
O O15 0.000000 0.500000 0.000000
O O16 0.807763 0.235849 0.030587
O O17 0.640031 0.771231 0.715834
#
# Coordination Sequence:
#
# PCOD9099844 Si02
#       8
#     2   2   2   2   2   2   2   2
#     4  10  25  38  61  90 130 167 200 264 315 381
#     4  10  20  37  61  98 114 162 220 258 312 359
#     4  12  21  40  62  92 128 165 205 252 335 365
#     4  10  21  35  65  92 123 163 206 270 305 377
#     4  10  22  40  63  88 118 164 212 256 304 372
#     4  10  20  38  60  90 116 161 211 254 305 362
#     4  11  19  42  61  91 125 161 219 252 314 368
#     4  11  19  37  64  86 126 160 207 269 302 375
#
# _framework density 23.398064999999999
#
# number of rings (size 3 to 8) (size 9 to 14) (size 15 to 20)
#    0.750    0.750    3.750    3.375    0.000    1.000 
#    0.000    0.625    2.750    0.000    0.000    0.000 
#    0.000    0.000    0.000    0.000    0.000    0.000 
#
# Total GULP energy -89341.990471 kJ/mol
# GULP energy per Si atom -5583.874404 kJ/mol
# Density = 2.334481 g / cm^3
# Si number density = 23.398065 Si / 1000 Ang^3
#
#
#
# Elastic Constant Matrix: (Units=GPa)
#
#
# Indices 1 2 3 4 5 6 
#
# 1 75.5931 21.9165 18.8684 9.5603 14.1875 -24.9960
# 2 21.9165 139.9857 30.6625 20.5286 2.5673 -32.4893
# 3 18.8684 30.6625 93.6667 0.8043 23.0998 -16.5407
# 4 9.5603 20.5286 0.8043 40.3143 2.9774 3.0983
# 5 14.1875 2.5673 23.0998 2.9774 28.2478 -5.4937
# 6 -24.9960 -32.4893 -16.5407 3.0983 -5.4937 36.9320
#
#
#
# Elastic Compliance Matrix: (Units=1/GPa)
#
#
# Indices 1 2 3 4 5 6 
#
# 1 0.019353 0.001113 -0.000257 -0.005716 -0.006385 0.013492
# 2 0.001113 0.010860 -0.002770 -0.006770 0.003405 0.010141
# 3 -0.000257 -0.002770 0.014846 0.001861 -0.011534 0.002167
# 4 -0.005716 -0.006770 0.001861 0.030770 -0.003634 -0.012113
# 5 -0.006385 0.003405 -0.011534 -0.003634 0.048308 0.000999
# 6 0.013492 0.010141 0.002167 -0.012113 0.000999 0.047264
#
#
# Mechanical properties :
#
#
# Convention : Reuss Voigt Hill
#
# Bulk Modulus (GPa) = 24.25333 50.23778 37.24555
# Shear Modulus (GPa) = 26.45896 36.95202 31.70549
#
# Velocity S-wave (km/s) = 3.36641 3.97832 3.68509
# Velocity P-wave (km/s) = 5.04959 6.52842 5.83603
#
# Compressibility (1/GPa) = 0.04123146
#
# Stress axis : x y z
#
# Youngs Moduli (GPa) = 51.67222 92.08174 67.35877
#
# Poissons Ratio (x) = -0.10250 0.01728
# Poissons Ratio (y) = -0.05752 0.18659
# Poissons Ratio (z) = 0.01326 0.25508
#
# Static dielectric constant tensor:
#      x y z
#    x 1.952280 0.012100 -0.076120 
#    y 0.012100 1.862240 -0.066230 
#    z -0.076120 -0.066230 1.961840 
# 
# From -- ./inp_files/329180.got.cif
#   From: 2010.05.17/outbox.cif.g08.bks.cpg/sg2_165_cif.got.tgz:329180.got - 2010.06.03 11:33:40.
