data_PCOD9099828
_publ_section_title
;
Structure prediction by ZEFSAII (Michael W. Deem and Ramdas Pophale) SiO2 
 PCOD9099828
Probable space group: P -1
;
_chemical_formula_sum "Si O2"
_cell_formula_units_Z 14
_cell_length_a 9.003316
_cell_length_b 10.633106
_cell_length_c 7.491618
_cell_angle_alpha 104.530567
_cell_angle_beta 94.966556
_cell_angle_gamma 56.188776
_cell_volume 575.584965
_symmetry_space_group_name_H-M "P -1"
_symmetry_group_IT_number 2
_symmetry_cell_setting 'triclinic'
loop_
_space_group_symop_operation_xyz
x,y,z
-x,-y,-z
loop_
_atom_site_type_symbol
_atom_site_label
_atom_site_fract_x
_atom_site_fract_y
_atom_site_fract_z
Si Si1 0.041917 0.329717 0.968053
Si Si2 0.014667 0.771796 0.419842
Si Si3 0.682327 0.452688 0.408588
Si Si4 0.874312 0.060267 0.742920
Si Si5 0.737939 0.146019 0.146942
Si Si6 0.646788 0.540011 0.070400
Si Si7 0.598256 0.816377 0.908947
O O1 0.192713 0.242741 0.104344
O O2 0.096886 0.242864 0.753103
O O3 0.000000 0.500000 0.000000
O O4 0.839994 0.380481 0.996885
O O5 0.151264 0.602488 0.462738
O O6 0.148488 0.817822 0.365691
O O7 0.892793 0.912808 0.593635
O O8 0.500000 0.500000 0.500000
O O9 0.740169 0.293769 0.255363
O O10 0.647009 0.572581 0.292112
O O11 0.748777 0.119806 0.924072
O O12 0.073884 0.998864 0.814969
O O13 0.557191 0.174203 0.224110
O O14 0.621686 0.682957 0.003200
O O15 0.500000 0.500000 0.000000
O O16 0.500000 0.000000 0.000000
#
# Coordination Sequence:
#
# PCOD9099828 Si02
#       7
#     2   2   2   2   2   2   2
#     4  10  23  42  69  95 141 185 222 279 354 424
#     4  10  20  37  61  95 137 169 223 282 348 387
#     4  11  23  35  67 104 130 166 235 299 325 390
#     4   9  20  37  65  99 128 171 225 296 329 402
#     4  10  20  39  66  95 131 174 230 271 352 399
#     4  11  22  44  71 101 129 183 241 280 331 419
#     4  11  24  41  68 101 139 179 223 279 353 421
#
# _framework density 24.323081999999999
#
# number of rings (size 3 to 8) (size 9 to 14) (size 15 to 20)
#    0.000    1.714    1.429    2.571    4.000    2.286 
#    0.000    3.571    6.286    0.000    0.000    0.000 
#    0.000    0.000    0.000    0.000    0.000    0.000 
#
# Total GULP energy -78024.910117 kJ/mol
# GULP energy per Si atom -5573.207865 kJ/mol
# Density = 2.426772 g / cm^3
# Si number density = 24.323082 Si / 1000 Ang^3
#
#
#
# Elastic Constant Matrix: (Units=GPa)
#
#
# Indices 1 2 3 4 5 6 
#
# 1 93.7603 25.4087 5.1795 0.7253 16.9626 -29.8294
# 2 25.4087 96.4382 2.4892 -0.6915 -6.9777 -5.8839
# 3 5.1795 2.4892 81.8598 11.7088 -9.4595 2.5247
# 4 0.7253 -0.6915 11.7088 27.1660 -0.2571 1.5593
# 5 16.9626 -6.9777 -9.4595 -0.2571 29.2609 1.7021
# 6 -29.8294 -5.8839 2.5247 1.5593 1.7021 52.9899
#
#
#
# Elastic Compliance Matrix: (Units=1/GPa)
#
#
# Indices 1 2 3 4 5 6 
#
# 1 0.017629 -0.004899 -0.002743 -0.000105 -0.012853 0.009926
# 2 -0.004899 0.011979 0.000647 0.000309 0.006005 -0.001660
# 3 -0.002743 0.000647 0.013993 -0.005757 0.006344 -0.002173
# 4 -0.000105 0.000309 -0.005757 0.039340 -0.001331 -0.000865
# 5 -0.012853 0.006005 0.006344 -0.001331 0.045580 -0.008295
# 6 0.009926 -0.001660 -0.002173 -0.000865 -0.008295 0.024670
#
#
# Mechanical properties :
#
#
# Convention : Reuss Voigt Hill
#
# Bulk Modulus (GPa) = 33.77178 37.57922 35.67550
# Shear Modulus (GPa) = 28.24047 37.81542 33.02795
#
# Velocity S-wave (km/s) = 3.41112 3.94726 3.68895
# Velocity P-wave (km/s) = 5.42487 6.02147 5.73094
#
# Compressibility (1/GPa) = 0.02961052
#
# Stress axis : x y z
#
# Youngs Moduli (GPa) = 56.72600 83.48115 71.46213
#
# Poissons Ratio (x) = 0.40897 0.19601
# Poissons Ratio (y) = 0.27790 -0.04621
# Poissons Ratio (z) = 0.15559 -0.05398
#
# Static dielectric constant tensor:
#      x y z
#    x 2.843810 -0.408420 -0.000950 
#    y -0.408420 2.221410 -0.088690 
#    z -0.000950 -0.088690 2.078330 
# 
# From -- ./inp_files/165618.got.cif
#   From: 2010.05.17/outbox.cif.g08.bks.cpg/sg2_83_cif.got.tgz:165618.got - 2010.06.03 11:33:40.
