data_PCOD9099546
_publ_section_title
;
Structure prediction by ZEFSAII (Michael W. Deem and Ramdas Pophale) SiO2 
 PCOD9099546
Probable space group: P -1
;
_chemical_formula_sum "Si O2"
_cell_formula_units_Z 14
_cell_length_a 22.740069
_cell_length_b 5.265741
_cell_length_c 14.157720
_cell_angle_alpha 78.095183
_cell_angle_beta 21.469784
_cell_angle_gamma 76.875824
_cell_volume 604.227685
_symmetry_space_group_name_H-M "P -1"
_symmetry_group_IT_number 2
_symmetry_cell_setting 'triclinic'
loop_
_space_group_symop_operation_xyz
x,y,z
-x,-y,-z
loop_
_atom_site_type_symbol
_atom_site_label
_atom_site_fract_x
_atom_site_fract_y
_atom_site_fract_z
Si Si1 0.127668 0.655284 0.151113
Si Si2 0.353183 0.633705 0.649391
Si Si3 0.543365 0.072873 0.709070
Si Si4 0.659854 0.408093 0.970080
Si Si5 0.952398 0.558133 0.957195
Si Si6 0.958872 0.138412 0.449475
Si Si7 0.903574 0.970754 0.246514
O O1 0.079922 0.359849 0.229903
O O2 0.234096 0.751593 0.899616
O O3 0.241568 0.632659 0.075783
O O4 0.981843 0.876223 0.373108
O O5 0.500000 0.500000 0.500000
O O6 0.419456 0.820720 0.458962
O O7 0.236511 0.454108 0.779175
O O8 0.423600 0.295948 0.922756
O O9 0.715609 0.037245 0.505834
O O10 0.472327 0.797826 0.824336
O O11 0.788121 0.310440 0.704688
O O12 0.023656 0.824918 0.810664
O O13 0.051288 0.326167 0.770727
O O14 0.000000 0.500000 0.000000
O O15 0.000000 0.000000 0.500000
O O16 0.000000 0.000000 0.000000
#
# Coordination Sequence:
#
# PCOD9099546 Si02
#       7
#     2   2   2   2   2   2   2
#     4  11  23  38  58  89 124 178 200 255 322 375
#     4  12  26  39  61 100 147 158 196 262 333 390
#     4  12  23  37  61  98 127 163 201 260 328 369
#     4  11  22  38  61  88 124 164 214 272 303 358
#     4  10  21  41  59  82 123 180 211 238 285 390
#     4  10  21  41  61  79 119 174 231 245 297 383
#     4  10  20  37  61  80 122 162 223 237 280 386
#
# _framework density 23.170074
#
# number of rings (size 3 to 8) (size 9 to 14) (size 15 to 20)
#    0.000    1.143    4.286    5.143    2.000    2.857 
#    0.000    0.000    0.000    0.000    0.000   20.000 
#    0.000    0.000    0.000    0.000    0.000    0.000 
#
# Total GULP energy -78208.156137 kJ/mol
# GULP energy per Si atom -5586.296867 kJ/mol
# Density = 2.311734 g / cm^3
# Si number density = 23.170074 Si / 1000 Ang^3
#
#
#
# Elastic Constant Matrix: (Units=GPa)
#
#
# Indices 1 2 3 4 5 6 
#
# 1 67.0371 22.8059 12.6859 3.8377 -32.8370 0.0108
# 2 22.8059 146.9372 12.6071 13.9484 -8.8416 18.8142
# 3 12.6859 12.6071 80.0580 21.8747 -15.6636 2.0470
# 4 3.8377 13.9484 21.8747 44.5389 3.8074 -5.1040
# 5 -32.8370 -8.8416 -15.6636 3.8074 46.4651 -0.4370
# 6 0.0108 18.8142 2.0470 -5.1040 -0.4370 37.8161
#
#
#
# Elastic Compliance Matrix: (Units=1/GPa)
#
#
# Indices 1 2 3 4 5 6 
#
# 1 0.024236 -0.002650 0.000701 -0.002942 0.017111 0.001074
# 2 -0.002650 0.008030 -0.000008 -0.002770 -0.000162 -0.004370
# 3 0.000701 -0.000008 0.016125 -0.008771 0.006630 -0.001976
# 4 -0.002942 -0.002770 -0.008771 0.029210 -0.007903 0.005705
# 5 0.017111 -0.000162 0.006630 -0.007903 0.036457 -0.000929
# 6 0.001074 -0.004370 -0.001976 0.005705 -0.000929 0.029484
#
#
# Mechanical properties :
#
#
# Convention : Reuss Voigt Hill
#
# Bulk Modulus (GPa) = 22.48326 43.35890 32.92108
# Shear Modulus (GPa) = 30.81056 42.15958 36.48507
#
# Velocity S-wave (km/s) = 3.65054 4.27027 3.97251
# Velocity P-wave (km/s) = 5.24340 6.56259 5.93973
#
# Compressibility (1/GPa) = 0.04447753
#
# Stress axis : x y z
#
# Youngs Moduli (GPa) = 41.26130 124.52742 62.01418
#
# Poissons Ratio (x) = 0.33005 -0.04349
# Poissons Ratio (y) = 0.10936 0.00048
# Poissons Ratio (z) = -0.02893 0.00097
#
# Static dielectric constant tensor:
#      x y z
#    x 1.895410 0.067440 0.005210 
#    y 0.067440 1.931050 0.035460 
#    z 0.005210 0.035460 1.887270 
# 
# From -- ./inp_files/542126.got.cif
#   From: 2010.05.17/outbox.cif.g08.bks.cpg/sg2_272_cif.got.tgz:542126.got - 2010.06.03 11:33:40.
