data_PCOD9099808
_publ_section_title
;
Structure prediction by ZEFSAII (Michael W. Deem and Ramdas Pophale) SiO2 
 PCOD9099808
Probable space group: P -1
;
_chemical_formula_sum "Si O2"
_cell_formula_units_Z 12
_cell_length_a 7.562975
_cell_length_b 9.658531
_cell_length_c 12.059227
_cell_angle_alpha 113.154414
_cell_angle_beta 94.526152
_cell_angle_gamma 133.180082
_cell_volume 504.831837
_symmetry_space_group_name_H-M "P -1"
_symmetry_group_IT_number 2
_symmetry_cell_setting 'triclinic'
loop_
_space_group_symop_operation_xyz
x,y,z
-x,-y,-z
loop_
_atom_site_type_symbol
_atom_site_label
_atom_site_fract_x
_atom_site_fract_y
_atom_site_fract_z
Si Si1 0.103605 0.111879 0.866424
Si Si2 0.749608 0.100615 0.159429
Si Si3 0.476720 0.439457 0.350628
Si Si4 0.726944 0.852478 0.362933
Si Si5 0.889801 0.278667 0.984872
Si Si6 0.037418 0.698281 0.534696
O O1 0.091207 0.272693 0.960266
O O2 0.274055 0.093466 0.934179
O O3 0.211109 0.171273 0.763860
O O4 0.776982 0.841317 0.771931
O O5 0.444149 0.959365 0.138031
O O6 0.957938 0.237096 0.317667
O O7 0.864772 0.267434 0.113263
O O8 0.500000 0.500000 0.500000
O O9 0.482454 0.592093 0.323768
O O10 0.780999 0.558949 0.393292
O O11 0.710458 0.024308 0.411153
O O12 0.000000 0.000000 0.500000
O O13 0.000000 0.500000 0.000000
O O14 0.000000 0.500000 0.500000
#
# Coordination Sequence:
#
# PCOD9099808 Si02
#       6
#     2   2   2   2   2   2
#     4  11  22  41  68  90 125 170 205 253 321 370
#     4  10  23  44  61  90 129 158 214 262 300 378
#     4  11  19  38  64  91 126 162 199 246 313 381
#     4   9  19  34  59  88 124 160 203 239 298 381
#     4  11  26  43  63  91 121 167 217 264 310 359
#     4  10  20  37  61  93 128 159 196 257 312 367
#
# _framework density 23.770292999999999
#
# number of rings (size 3 to 8) (size 9 to 14) (size 15 to 20)
#    0.000    1.667    5.000    1.500    0.000    8.667 
#    0.000    0.833    0.000    0.000    0.000    0.000 
#    0.000    0.000    0.000    0.000    0.000    0.000 
#
# Total GULP energy -66880.631431 kJ/mol
# GULP energy per Si atom -5573.385953 kJ/mol
# Density = 2.371619 g / cm^3
# Si number density = 23.770293 Si / 1000 Ang^3
#
#
#
# Elastic Constant Matrix: (Units=GPa)
#
#
# Indices 1 2 3 4 5 6 
#
# 1 78.1880 27.0871 4.3264 8.5376 -7.2708 -21.3184
# 2 27.0871 215.8395 22.8360 -3.8014 -16.8239 -25.1207
# 3 4.3264 22.8360 43.0454 -6.7914 5.5825 2.6917
# 4 8.5376 -3.8014 -6.7914 33.0006 -6.9867 -5.3456
# 5 -7.2708 -16.8239 5.5825 -6.9867 40.4262 8.7793
# 6 -21.3184 -25.1207 2.6917 -5.3456 8.7793 44.4206
#
#
#
# Elastic Compliance Matrix: (Units=1/GPa)
#
#
# Indices 1 2 3 4 5 6 
#
# 1 0.015424 -0.000975 -0.002050 -0.003338 0.000676 0.006440
# 2 -0.000975 0.005579 -0.003131 0.001137 0.002216 0.002576
# 3 -0.002050 -0.003131 0.026476 0.004291 -0.003920 -0.003067
# 4 -0.003338 0.001137 0.004291 0.033472 0.004655 0.001889
# 5 0.000676 0.002216 -0.003920 0.004655 0.027803 -0.003120
# 6 0.006440 0.002576 -0.003067 0.001889 -0.003120 0.028089
#
#
# Mechanical properties :
#
#
# Convention : Reuss Voigt Hill
#
# Bulk Modulus (GPa) = 28.43594 49.50800 38.97197
# Shear Modulus (GPa) = 31.07951 42.42436 36.75193
#
# Velocity S-wave (km/s) = 3.61985 4.22923 3.93635
# Velocity P-wave (km/s) = 5.42769 6.68741 6.09021
#
# Compressibility (1/GPa) = 0.03516676
#
# Stress axis : x y z
#
# Youngs Moduli (GPa) = 64.83312 179.23539 37.77071
#
# Poissons Ratio (x) = 0.17483 0.07742
# Poissons Ratio (y) = 0.06324 0.11825
# Poissons Ratio (z) = 0.13290 0.56116
#
# Static dielectric constant tensor:
#      x y z
#    x 2.143650 0.036390 -0.019920 
#    y 0.036390 1.993420 0.047360 
#    z -0.019920 0.047360 1.925720 
# 
# From -- ./inp_files/178308.got.cif
#   From: 2010.05.17/outbox.cif.g08.bks.cpg/sg2_90_cif.got.tgz:178308.got - 2010.06.03 11:33:40.
