data_PCOD9099405
_publ_section_title
;
Structure prediction by ZEFSAII (Michael W. Deem and Ramdas Pophale) SiO2 
 PCOD9099405
Probable space group: P -1
;
_chemical_formula_sum "Si O2"
_cell_formula_units_Z 16
_cell_length_a 15.357052
_cell_length_b 6.806145
_cell_length_c 15.083253
_cell_angle_alpha 65.938217
_cell_angle_beta 141.831994
_cell_angle_gamma 100.887413
_cell_volume 865.036411
_symmetry_space_group_name_H-M "P -1"
_symmetry_group_IT_number 2
_symmetry_cell_setting 'triclinic'
loop_
_space_group_symop_operation_xyz
x,y,z
-x,-y,-z
loop_
_atom_site_type_symbol
_atom_site_label
_atom_site_fract_x
_atom_site_fract_y
_atom_site_fract_z
Si Si1 0.599267 0.156093 0.085817
Si Si2 0.419466 0.186933 0.292821
Si Si3 0.864263 0.404340 0.515931
Si Si4 0.402296 0.723873 0.415548
Si Si5 0.550791 0.366448 0.198539
Si Si6 0.911059 0.859157 0.398629
Si Si7 0.092024 0.805310 0.216320
Si Si8 0.098765 0.281611 0.076950
O O1 0.582605 0.205220 0.168648
O O2 0.763333 0.028480 0.220125
O O3 0.541050 0.394836 0.950715
O O4 0.500000 0.000000 0.000000
O O5 0.542422 0.217020 0.454911
O O6 0.456643 0.281049 0.212862
O O7 0.264305 0.295470 0.192730
O O8 0.417118 0.930005 0.329492
O O9 0.705643 0.384987 0.359287
O O10 0.873603 0.658770 0.462808
O O11 0.893811 0.312080 0.655955
O O12 0.988055 0.257469 0.579424
O O13 0.500000 0.500000 0.500000
O O14 0.238058 0.707211 0.295991
O O15 0.000000 0.000000 0.500000
O O16 0.089075 0.067311 0.167801
O O17 0.960713 0.766493 0.058659
O O18 0.000000 0.500000 0.000000
#
# Coordination Sequence:
#
# PCOD9099405 Si02
#       8
#     2   2   2   2   2   2   2   2
#     4  11  24  42  63  91 127 167 204 260 316 372
#     4  10  22  37  60  91 120 156 206 246 302 363
#     4  11  23  41  66  94 124 164 211 263 309 372
#     4  10  20  37  60  88 120 157 198 252 297 359
#     4  11  23  41  65  92 129 163 210 262 312 369
#     4  11  24  42  64  93 127 162 211 259 317 373
#     4  10  22  39  62  88 124 158 204 248 306 361
#     4  10  22  41  59  89 129 162 195 254 305 364
#
# _framework density 18.496328999999999
#
# number of rings (size 3 to 8) (size 9 to 14) (size 15 to 20)
#    0.000    1.500    3.750    0.750    0.000    6.000 
#    0.000    0.000    0.000    0.000    0.000    0.000 
#    0.000    0.000    0.000    0.000    0.000    0.000 
#
# Total GULP energy -89343.919064 kJ/mol
# GULP energy per Si atom -5583.994941 kJ/mol
# Density = 1.845423 g / cm^3
# Si number density = 18.496329 Si / 1000 Ang^3
#
#
#
# Elastic Constant Matrix: (Units=GPa)
#
#
# Indices 1 2 3 4 5 6 
#
# 1 70.4601 49.1178 31.7905 -24.3255 -6.8018 13.9067
# 2 49.1178 84.8732 28.8479 -10.7605 -2.2889 -1.3909
# 3 31.7905 28.8479 97.0179 -5.2414 4.9103 7.3439
# 4 -24.3255 -10.7605 -5.2414 39.4102 -1.6384 10.9730
# 5 -6.8018 -2.2889 4.9103 -1.6384 46.1238 -9.7257
# 6 13.9067 -1.3909 7.3439 10.9730 -9.7257 23.4842
#
#
#
# Elastic Compliance Matrix: (Units=1/GPa)
#
#
# Indices 1 2 3 4 5 6 
#
# 1 0.073780 -0.035237 -0.005168 0.054922 -0.003386 -0.071226
# 2 -0.035237 0.030417 -0.001597 -0.023378 0.003113 0.035379
# 3 -0.005168 -0.001597 0.012601 -0.001718 -0.002498 -0.001206
# 4 0.054922 -0.023378 -0.001718 0.071631 -0.004851 -0.068849
# 5 -0.003386 0.003113 -0.002498 -0.004851 0.024690 0.015462
# 6 -0.071226 0.035379 -0.001206 -0.068849 0.015462 0.125805
#
#
# Mechanical properties :
#
#
# Convention : Reuss Voigt Hill
#
# Bulk Modulus (GPa) = 30.49346 52.42927 41.46136
# Shear Modulus (GPa) = 11.52451 31.30999 21.41725
#
# Velocity S-wave (km/s) = 2.49885 4.11879 3.40651
# Velocity P-wave (km/s) = 4.98474 7.14329 6.15931
#
# Compressibility (1/GPa) = 0.03279391
#
# Stress axis : x y z
#
# Youngs Moduli (GPa) = 13.55382 32.87648 79.36087
#
# Poissons Ratio (x) = 1.15845 0.41018
# Poissons Ratio (y) = 0.47759 0.12672
# Poissons Ratio (z) = 0.07005 0.05250
#
# Static dielectric constant tensor:
#      x y z
#    x 1.611210 0.007180 0.021360 
#    y 0.007180 1.623740 0.006600 
#    z 0.021360 0.006600 1.703750 
# 
# From -- ./inp_files/96918.got.cif
#   From: 2010.05.17/outbox.cif.g08.bks.cpg/sg2_49_cif.got.tgz:96918.got - 2010.06.03 11:33:40.
