data_PCOD9099767
_publ_section_title
;
Structure prediction by ZEFSAII (Michael W. Deem and Ramdas Pophale) SiO2 
 PCOD9099767
Probable space group: P -1
;
_chemical_formula_sum "Si O2"
_cell_formula_units_Z 14
_cell_length_a 18.443832
_cell_length_b 10.334741
_cell_length_c 7.912383
_cell_angle_alpha 136.921262
_cell_angle_beta 138.445076
_cell_angle_gamma 38.832147
_cell_volume 586.559291
_symmetry_space_group_name_H-M "P -1"
_symmetry_group_IT_number 2
_symmetry_cell_setting 'triclinic'
loop_
_space_group_symop_operation_xyz
x,y,z
-x,-y,-z
loop_
_atom_site_type_symbol
_atom_site_label
_atom_site_fract_x
_atom_site_fract_y
_atom_site_fract_z
Si Si1 0.829189 0.784480 0.801673
Si Si2 0.819245 0.042601 0.364031
Si Si3 0.936861 0.766194 0.638533
Si Si4 0.541937 0.223555 0.132431
Si Si5 0.617796 0.709292 0.770933
Si Si6 0.407259 0.263800 0.611456
Si Si7 0.098655 0.650081 0.091773
O O1 0.820817 0.867373 0.671121
O O2 0.734924 0.691890 0.565757
O O3 0.981978 0.625770 0.928307
O O4 0.800836 0.950751 0.066726
O O5 0.678882 0.197123 0.343848
O O6 0.881398 0.193529 0.597722
O O7 0.897461 0.864194 0.477559
O O8 0.000000 0.500000 0.500000
O O9 0.047190 0.779541 0.946921
O O10 0.455657 0.327811 0.244049
O O11 0.459138 0.333045 0.925170
O O12 0.575988 0.966686 0.944088
O O13 0.587062 0.648531 0.477538
O O14 0.769687 0.570198 0.920404
O O15 0.500000 0.000000 0.500000
#
# Coordination Sequence:
#
# PCOD9099767 Si02
#       7
#     2   2   2   2   2   2   2
#     4  10  24  38  66  90 127 157 211 249 313 364
#     4  12  22  44  62  90 130 169 194 254 317 367
#     4  10  25  39  64  94 120 159 211 255 300 362
#     4  10  23  37  68  86 123 161 213 255 303 363
#     4  10  21  40  60  92 120 162 207 263 298 355
#     4  10  20  37  61  92 115 156 210 256 298 350
#     4  10  25  41  61  92 131 161 205 250 315 378
#
# _framework density 23.868005
#
# number of rings (size 3 to 8) (size 9 to 14) (size 15 to 20)
#    0.857    0.857    2.857    1.714    8.000    2.857 
#    0.000    0.714    0.000    0.000    0.000    0.000 
#    0.000    0.000    0.000    0.000    0.000    0.000 
#
# Total GULP energy -78148.981347 kJ/mol
# GULP energy per Si atom -5582.070096 kJ/mol
# Density = 2.381368 g / cm^3
# Si number density = 23.868005 Si / 1000 Ang^3
#
#
#
# Elastic Constant Matrix: (Units=GPa)
#
#
# Indices 1 2 3 4 5 6 
#
# 1 103.5749 42.5797 22.1523 -17.6299 -18.7851 -26.2547
# 2 42.5797 84.4063 25.3214 -14.9680 -3.6653 -8.4317
# 3 22.1523 25.3214 81.8834 -15.7524 8.9702 -1.0198
# 4 -17.6299 -14.9680 -15.7524 31.6352 -1.0238 3.8906
# 5 -18.7851 -3.6653 8.9702 -1.0238 33.4388 -12.6763
# 6 -26.2547 -8.4317 -1.0198 3.8906 -12.6763 36.5085
#
#
#
# Elastic Compliance Matrix: (Units=1/GPa)
#
#
# Indices 1 2 3 4 5 6 
#
# 1 0.025169 -0.006341 -0.006117 0.005778 0.024495 0.024354
# 2 -0.006341 0.016071 -0.002513 0.002989 -0.001732 -0.001838
# 3 -0.006117 -0.002513 0.016635 0.004417 -0.011434 -0.008955
# 4 0.005778 0.002989 0.004417 0.038289 0.004489 0.002447
# 5 0.024495 -0.001732 -0.011434 0.004489 0.060924 0.037571
# 6 0.024354 -0.001838 -0.008955 0.002447 0.037571 0.057015
#
#
# Mechanical properties :
#
#
# Convention : Reuss Voigt Hill
#
# Bulk Modulus (GPa) = 35.79706 49.99681 42.89694
# Shear Modulus (GPa) = 19.73525 32.30390 26.01957
#
# Velocity S-wave (km/s) = 2.87862 3.68290 3.30532
# Velocity P-wave (km/s) = 5.10677 6.25122 5.70775
#
# Compressibility (1/GPa) = 0.02793525
#
# Stress axis : x y z
#
# Youngs Moduli (GPa) = 39.73105 62.22342 60.11434
#
# Poissons Ratio (x) = 0.39454 0.36771
# Poissons Ratio (y) = 0.25192 0.15104
# Poissons Ratio (z) = 0.24303 0.15634
#
# Static dielectric constant tensor:
#      x y z
#    x 1.913020 0.032180 -0.033790 
#    y 0.032180 1.932140 0.013580 
#    z -0.033790 0.013580 1.973860 
# 
# From -- ./inp_files/345743.got.cif
#   From: 2010.05.17/outbox.cif.g08.bks.cpg/sg2_173_cif.got.tgz:345743.got - 2010.06.03 11:33:40.
