data_PCOD9099220
_publ_section_title
;
Structure prediction by ZEFSAII (Michael W. Deem and Ramdas Pophale) SiO2 
 PCOD9099220
Probable space group: P -1
;
_chemical_formula_sum "Si O2"
_cell_formula_units_Z 14
_cell_length_a 8.243421
_cell_length_b 7.831757
_cell_length_c 10.524060
_cell_angle_alpha 75.690830
_cell_angle_beta 95.917331
_cell_angle_gamma 122.912199
_cell_volume 552.288917
_symmetry_space_group_name_H-M "P -1"
_symmetry_group_IT_number 2
_symmetry_cell_setting 'triclinic'
loop_
_space_group_symop_operation_xyz
x,y,z
-x,-y,-z
loop_
_atom_site_type_symbol
_atom_site_label
_atom_site_fract_x
_atom_site_fract_y
_atom_site_fract_z
Si Si1 0.566549 0.270260 0.860013
Si Si2 0.869161 0.696925 0.940260
Si Si3 0.803967 0.443211 0.428350
Si Si4 0.216537 0.975638 0.072411
Si Si5 0.462087 0.186300 0.594510
Si Si6 0.171254 0.238104 0.454911
Si Si7 0.878230 0.264071 0.258583
O O1 0.695523 0.465053 0.930416
O O2 0.532714 0.323689 0.704531
O O3 0.676722 0.147090 0.862086
O O4 0.361241 0.122526 0.942058
O O5 0.797426 0.855502 0.871153
O O6 0.056058 0.717659 0.881328
O O7 0.988518 0.802658 0.060258
O O8 0.650504 0.230596 0.528484
O O9 0.786187 0.631825 0.435949
O O10 0.817671 0.412365 0.287295
O O11 0.000000 0.500000 0.500000
O O12 0.365103 0.240429 0.461845
O O13 0.299291 0.962797 0.675876
O O14 0.077020 0.313331 0.332204
O O15 0.000000 0.000000 0.500000
#
# Coordination Sequence:
#
# PCOD9099220 Si02
#       7
#     2   2   2   2   2   2   2
#     4  11  22  43  68  96 127 167 214 265 326 381
#     4  11  22  45  67  93 129 170 211 268 323 378
#     4  10  20  37  59  90 123 169 208 253 314 378
#     4  10  24  44  67  95 127 162 222 269 324 375
#     4  11  21  40  60  91 130 165 208 260 316 381
#     4   9  20  38  60  87 129 164 207 258 305 378
#     4  10  21  41  59  92 129 166 212 258 315 383
#
# _framework density 25.349052
#
# number of rings (size 3 to 8) (size 9 to 14) (size 15 to 20)
#    0.000    1.714    1.429    3.429    0.000    0.000 
#   23.143    1.429    0.000    0.000    0.000    0.000 
#    0.000    0.000    0.000    0.000    0.000    0.000 
#
# Total GULP energy -77941.785983 kJ/mol
# GULP energy per Si atom -5567.270427 kJ/mol
# Density = 2.529136 g / cm^3
# Si number density = 25.349052 Si / 1000 Ang^3
#
#
#
# Elastic Constant Matrix: (Units=GPa)
#
#
# Indices 1 2 3 4 5 6 
#
# 1 86.3125 29.2412 11.3629 -0.0837 5.9979 23.9650
# 2 29.2412 146.3921 28.8627 9.4407 -1.4027 29.9606
# 3 11.3629 28.8627 47.0307 1.2068 -8.5247 -1.2253
# 4 -0.0837 9.4407 1.2068 28.5790 0.2498 -4.7648
# 5 5.9979 -1.4027 -8.5247 0.2498 33.5453 4.2705
# 6 23.9650 29.9606 -1.2253 -4.7648 4.2705 49.2504
#
#
#
# Elastic Compliance Matrix: (Units=1/GPa)
#
#
# Indices 1 2 3 4 5 6 
#
# 1 0.014291 -0.000838 -0.003576 -0.000566 -0.002686 -0.006355
# 2 -0.000838 0.009605 -0.005769 -0.003922 -0.000128 -0.005947
# 3 -0.003576 -0.005769 0.026954 0.001619 0.006534 0.005511
# 4 -0.000566 -0.003922 0.001619 0.037285 -0.000740 0.006373
# 5 -0.002686 -0.000128 0.006534 -0.000740 0.032118 -0.001309
# 6 -0.006355 -0.005947 0.005511 0.006373 -0.001309 0.027882
#
#
# Mechanical properties :
#
#
# Convention : Reuss Voigt Hill
#
# Bulk Modulus (GPa) = 32.80634 46.51876 39.66255
# Shear Modulus (GPa) = 27.98564 36.29284 32.13924
#
# Velocity S-wave (km/s) = 3.32627 3.78792 3.56458
# Velocity P-wave (km/s) = 5.26517 6.12554 5.71158
#
# Compressibility (1/GPa) = 0.03048191
#
# Stress axis : x y z
#
# Youngs Moduli (GPa) = 69.97337 104.11620 37.10031
#
# Poissons Ratio (x) = 0.08726 0.13268
# Poissons Ratio (y) = 0.05864 0.21405
# Poissons Ratio (z) = 0.25025 0.60069
#
# Static dielectric constant tensor:
#      x y z
#    x 2.088300 -0.110190 -0.048020 
#    y -0.110190 2.117650 0.046180 
#    z -0.048020 0.046180 2.124110 
# 
# From -- ./inp_files/382596.got.cif
#   From: 2010.05.17/outbox.cif.g08.bks.cpg/sg2_192_cif.got.tgz:382596.got - 2010.06.03 11:33:40.
