data_PCOD9099312
_publ_section_title
;
Structure prediction by ZEFSAII (Michael W. Deem and Ramdas Pophale) SiO2 
 PCOD9099312
Probable space group: P -1
;
_chemical_formula_sum "Si O2"
_cell_formula_units_Z 14
_cell_length_a 9.645041
_cell_length_b 12.849075
_cell_length_c 15.324114
_cell_angle_alpha 149.231737
_cell_angle_beta 55.264882
_cell_angle_gamma 103.823150
_cell_volume 640.962026
_symmetry_space_group_name_H-M "P -1"
_symmetry_group_IT_number 2
_symmetry_cell_setting 'triclinic'
loop_
_space_group_symop_operation_xyz
x,y,z
-x,-y,-z
loop_
_atom_site_type_symbol
_atom_site_label
_atom_site_fract_x
_atom_site_fract_y
_atom_site_fract_z
Si Si1 0.268091 0.250419 0.772566
Si Si2 0.143852 0.135807 0.443494
Si Si3 0.523230 0.466131 0.323897
Si Si4 0.259174 0.673054 0.188980
Si Si5 0.454374 0.136601 0.021670
Si Si6 0.235499 0.916392 0.873378
Si Si7 0.121478 0.521892 0.846303
O O1 0.177512 0.327125 0.763502
O O2 0.500000 0.000000 0.500000
O O3 0.241763 0.491970 0.999736
O O4 0.111782 0.230015 0.873704
O O5 0.142919 0.372184 0.644571
O O6 0.895030 0.255277 0.621020
O O7 0.214266 0.918318 0.333771
O O8 0.322129 0.002867 0.209429
O O9 0.375334 0.742739 0.617031
O O10 0.653565 0.269439 0.215787
O O11 0.705441 0.431874 0.176688
O O12 0.390045 0.407200 0.270515
O O13 0.500000 0.500000 0.000000
O O14 0.284460 0.120781 0.019947
O O15 0.500000 0.000000 0.000000
O O16 0.000000 0.000000 0.000000
#
# Coordination Sequence:
#
# PCOD9099312 Si02
#       7
#     2   2   2   2   2   2   2
#     4  10  21  35  56  88 122 156 202 249 301 371
#     4  10  20  39  61  85 125 163 203 257 308 370
#     4  10  21  39  63  86 119 161 205 248 313 368
#     4  10  21  37  59  90 122 161 202 255 312 363
#     4  10  21  40  65  91 123 167 208 254 314 374
#     4  10  22  41  61  89 123 157 204 262 307 367
#     4  10  20  37  60  84 118 164 200 248 310 362
#
# _framework density 21.842168000000001
#
# number of rings (size 3 to 8) (size 9 to 14) (size 15 to 20)
#    0.000    2.000    1.429    1.714    0.000    5.143 
#    5.143    4.286    0.000    0.000    0.000    0.000 
#    0.000    0.000    0.000    0.000    0.000    0.000 
#
# Total GULP energy -77977.881109 kJ/mol
# GULP energy per Si atom -5569.848651 kJ/mol
# Density = 2.179245 g / cm^3
# Si number density = 21.842168 Si / 1000 Ang^3
#
#
#
# Elastic Constant Matrix: (Units=GPa)
#
#
# Indices 1 2 3 4 5 6 
#
# 1 147.0334 16.8758 54.1183 -1.8526 -4.5752 32.8401
# 2 16.8758 41.0018 16.6124 -20.2144 -1.1215 22.3943
# 3 54.1183 16.6124 82.3428 -15.7214 -3.7735 11.3152
# 4 -1.8526 -20.2144 -15.7214 32.8852 5.3975 -0.6297
# 5 -4.5752 -1.1215 -3.7735 5.3975 45.6493 1.7689
# 6 32.8401 22.3943 11.3152 -0.6297 1.7689 30.4067
#
#
#
# Elastic Compliance Matrix: (Units=1/GPa)
#
#
# Indices 1 2 3 4 5 6 
#
# 1 0.012116 0.007033 -0.006936 0.001178 0.001284 -0.015735
# 2 0.007033 0.083372 -0.002916 0.049086 -0.000701 -0.066857
# 3 -0.006936 -0.002916 0.018119 0.006564 -0.000163 0.003041
# 4 0.001178 0.049086 0.006564 0.063740 -0.004186 -0.038303
# 5 0.001284 -0.000701 -0.000163 -0.004186 0.022585 -0.002211
# 6 -0.015735 -0.066857 0.003041 -0.038303 -0.002211 0.097325
#
#
# Mechanical properties :
#
#
# Convention : Reuss Voigt Hill
#
# Bulk Modulus (GPa) = 9.26183 49.51010 29.38596
# Shear Modulus (GPa) = 14.75435 33.97301 24.36368
#
# Velocity S-wave (km/s) = 2.60185 3.94812 3.34345
# Velocity P-wave (km/s) = 3.64359 6.59545 5.32802
#
# Compressibility (1/GPa) = 0.10797005
#
# Stress axis : x y z
#
# Youngs Moduli (GPa) = 82.53502 11.99444 55.19062
#
# Poissons Ratio (x) = -0.08436 0.38280
# Poissons Ratio (y) = -0.58050 0.16093
# Poissons Ratio (z) = 0.57247 0.03497
#
# Static dielectric constant tensor:
#      x y z
#    x 1.646100 -0.042320 -0.043850 
#    y -0.042320 1.782990 -0.026610 
#    z -0.043850 -0.026610 1.817030 
# 
# From -- ./inp_files/51712.got.cif
#   From: 2010.05.17/outbox.cif.g08.bks.cpg/sg2_26_cif.got.tgz:51712.got - 2010.06.03 11:33:40.
