data_PCOD9099920
_publ_section_title
;
Structure prediction by ZEFSAII (Michael W. Deem and Ramdas Pophale) SiO2 
 PCOD9099920
Probable space group: P -1
;
_chemical_formula_sum "Si O2"
_cell_formula_units_Z 14
_cell_length_a 9.673520
_cell_length_b 5.451707
_cell_length_c 10.981110
_cell_angle_alpha 105.749467
_cell_angle_beta 83.620833
_cell_angle_gamma 91.052561
_cell_volume 553.878659
_symmetry_space_group_name_H-M "P -1"
_symmetry_group_IT_number 2
_symmetry_cell_setting 'triclinic'
loop_
_space_group_symop_operation_xyz
x,y,z
-x,-y,-z
loop_
_atom_site_type_symbol
_atom_site_label
_atom_site_fract_x
_atom_site_fract_y
_atom_site_fract_z
Si Si1 0.186451 0.447832 0.128281
Si Si2 0.310464 0.567135 0.877642
Si Si3 0.935052 0.342131 0.611736
Si Si4 0.196856 0.019632 0.595915
Si Si5 0.059656 0.769245 0.781515
Si Si6 0.566936 0.737623 0.754894
Si Si7 0.516696 0.807264 0.325523
O O1 0.130759 0.681839 0.249758
O O2 0.305978 0.302267 0.171970
O O3 0.057499 0.250462 0.104601
O O4 0.245248 0.562343 0.015334
O O5 0.186081 0.595650 0.796660
O O6 0.426147 0.770636 0.854130
O O7 0.399484 0.310207 0.814936
O O8 0.827923 0.240622 0.511090
O O9 0.972050 0.639298 0.661903
O O10 0.085102 0.206983 0.569774
O O11 0.138920 0.993147 0.736555
O O12 0.357930 0.088014 0.590710
O O13 0.547093 0.457480 0.656262
O O14 0.576182 0.965402 0.688988
#
# Coordination Sequence:
#
# PCOD9099920 Si02
#       7
#     2   2   2   2   2   2   2
#     4  10  22  40  56  97 121 157 200 259 308 357
#     4  10  20  40  62  87 124 163 202 248 307 371
#     4   9  22  35  61  86 127 150 208 256 309 356
#     4  11  18  40  60  92 112 170 203 254 305 368
#     4  10  20  37  62  87 119 154 207 253 304 356
#     4  10  22  41  62  89 127 165 204 244 309 370
#     4  10  21  38  66  86 118 171 208 241 298 376
#
# _framework density 25.276295000000001
#
# number of rings (size 3 to 8) (size 9 to 14) (size 15 to 20)
#    1.714    0.286    2.857    1.286    0.000    1.714 
#    2.571    2.857    0.000    0.000    0.000    0.000 
#    0.000    0.000    0.000    0.000    0.000    0.000 
#
# Total GULP energy -77991.778845 kJ/mol
# GULP energy per Si atom -5570.841346 kJ/mol
# Density = 2.521876 g / cm^3
# Si number density = 25.276295 Si / 1000 Ang^3
#
#
#
# Elastic Constant Matrix: (Units=GPa)
#
#
# Indices 1 2 3 4 5 6 
#
# 1 92.3896 14.3113 -1.0415 -0.0214 -0.1725 -12.5461
# 2 14.3113 90.7558 10.1303 -20.0703 7.4548 -7.6928
# 3 -1.0415 10.1303 60.5586 -11.6569 -18.0901 -4.5967
# 4 -0.0214 -20.0703 -11.6569 19.8498 6.7081 7.7837
# 5 -0.1725 7.4548 -18.0901 6.7081 26.3212 -7.4061
# 6 -12.5461 -7.6928 -4.5967 7.7837 -7.4061 29.0412
#
#
#
# Elastic Compliance Matrix: (Units=1/GPa)
#
#
# Indices 1 2 3 4 5 6 
#
# 1 0.012723 -0.004074 0.002112 -0.008968 0.007528 0.009075
# 2 -0.004074 0.018337 -0.003938 0.025254 -0.016775 -0.008573
# 3 0.002112 -0.003938 0.023819 -0.000214 0.020032 0.008805
# 4 -0.008968 0.025254 -0.000214 0.105251 -0.044532 -0.036785
# 5 0.007528 -0.016775 0.020032 -0.044532 0.077377 0.033648
# 6 0.009075 -0.008573 0.008805 -0.036785 0.033648 0.055917
#
#
# Mechanical properties :
#
#
# Convention : Reuss Voigt Hill
#
# Bulk Modulus (GPa) = 23.21435 32.27825 27.74630
# Shear Modulus (GPa) = 15.64532 29.72938 22.68735
#
# Velocity S-wave (km/s) = 2.49061 3.43326 2.99920
# Velocity P-wave (km/s) = 4.18032 5.33988 4.79528
#
# Compressibility (1/GPa) = 0.04307681
#
# Stress axis : x y z
#
# Youngs Moduli (GPa) = 78.59803 54.53552 41.98328
#
# Poissons Ratio (x) = 0.22220 -0.08865
# Poissons Ratio (y) = 0.32024 0.16533
# Poissons Ratio (z) = -0.16596 0.21476
#
# Static dielectric constant tensor:
#      x y z
#    x 2.004970 0.072410 -0.061180 
#    y 0.072410 2.031330 0.063510 
#    z -0.061180 0.063510 2.100320 
# 
# From -- ./inp_files/408628.got.cif
#   From: 2010.05.17/outbox.cif.g08.bks.cpg/sg2_205_cif.got.tgz:408628.got - 2010.06.03 11:33:40.
