data_PCOD9099111
_publ_section_title
;
Structure prediction by ZEFSAII (Michael W. Deem and Ramdas Pophale) SiO2 
 PCOD9099111
Probable space group: P -1
;
_chemical_formula_sum "Si O2"
_cell_formula_units_Z 16
_cell_length_a 17.850984
_cell_length_b 10.562709
_cell_length_c 16.440552
_cell_angle_alpha 33.465607
_cell_angle_beta 156.811681
_cell_angle_gamma 146.507358
_cell_volume 640.114436
_symmetry_space_group_name_H-M "P -1"
_symmetry_group_IT_number 2
_symmetry_cell_setting 'triclinic'
loop_
_space_group_symop_operation_xyz
x,y,z
-x,-y,-z
loop_
_atom_site_type_symbol
_atom_site_label
_atom_site_fract_x
_atom_site_fract_y
_atom_site_fract_z
Si Si1 0.516646 0.971958 0.884600
Si Si2 0.288470 0.546156 0.243872
Si Si3 0.642181 0.581978 0.947707
Si Si4 0.052486 0.832884 0.285651
Si Si5 0.189702 0.109723 0.684369
Si Si6 0.120264 0.057320 0.406220
Si Si7 0.725027 0.355595 0.516929
Si Si8 0.099782 0.335726 0.995173
O O1 0.645151 0.162554 0.843533
O O2 0.310751 0.031589 0.658329
O O3 0.468289 0.682549 0.982408
O O4 0.650429 0.025787 0.070391
O O5 0.500000 0.500000 0.500000
O O6 0.139714 0.340462 0.262370
O O7 0.195877 0.465717 0.104827
O O8 0.504326 0.743039 0.691549
O O9 0.767713 0.544700 0.014014
O O10 0.813873 0.724050 0.105069
O O11 0.150764 0.651453 0.437704
O O12 0.134065 0.933737 0.400136
O O13 0.111181 0.065876 0.160972
O O14 0.283330 0.382203 0.606390
O O15 0.000000 0.000000 0.500000
O O16 0.085028 0.087826 0.679826
O O17 0.867494 0.304322 0.757402
#
# Coordination Sequence:
#
# PCOD9099111 Si02
#       8
#     2   2   2   2   2   2   2   2
#     4  10  22  38  58  86 116 151 197 237 286 347
#     4   9  20  38  59  84 116 157 198 238 288 347
#     4  10  21  35  58  87 118 155 190 243 292 332
#     4  10  22  39  59  87 118 154 199 236 288 352
#     4  11  24  39  59  89 117 151 198 238 288 354
#     4  10  22  41  62  83 118 157 188 243 296 336
#     4  10  21  36  58  88 117 152 196 241 287 343
#     4  10  20  37  59  85 118 155 198 240 286 344
#
# _framework density 24.995532999999998
#
# number of rings (size 3 to 8) (size 9 to 14) (size 15 to 20)
#    0.000    2.000    0.000    3.750    0.000   10.500 
#    0.000    8.750    0.000    0.000    0.000    0.000 
#    0.000    0.000    0.000    0.000    0.000    0.000 
#
# Total GULP energy -89215.244581 kJ/mol
# GULP energy per Si atom -5575.952786 kJ/mol
# Density = 2.493864 g / cm^3
# Si number density = 24.995533 Si / 1000 Ang^3
#
#
#
# Elastic Constant Matrix: (Units=GPa)
#
#
# Indices 1 2 3 4 5 6 
#
# 1 40.4351 11.0915 28.3763 4.5667 -5.3352 -4.6460
# 2 11.0915 97.7714 34.2503 8.4060 -7.3913 11.2135
# 3 28.3763 34.2503 178.1014 15.5103 -1.2539 -8.2511
# 4 4.5667 8.4060 15.5103 38.8669 8.3002 -2.2560
# 5 -5.3352 -7.3913 -1.2539 8.3002 23.6975 4.4850
# 6 -4.6460 11.2135 -8.2511 -2.2560 4.4850 26.9513
#
#
#
# Elastic Compliance Matrix: (Units=1/GPa)
#
#
# Indices 1 2 3 4 5 6 
#
# 1 0.029452 -0.001635 -0.003949 -0.002669 0.006224 0.003289
# 2 -0.001635 0.012825 -0.002214 -0.003457 0.006166 -0.007611
# 3 -0.003949 -0.002214 0.006897 -0.001417 -0.001178 0.002430
# 4 -0.002669 -0.003457 -0.001417 0.030540 -0.013462 0.005341
# 5 0.006224 0.006166 -0.001178 -0.013462 0.052390 -0.011698
# 6 0.003289 -0.007611 0.002430 0.005341 -0.011698 0.043975
#
#
# Mechanical properties :
#
#
# Convention : Reuss Voigt Hill
#
# Bulk Modulus (GPa) = 29.78153 51.52711 40.65432
# Shear Modulus (GPa) = 24.64640 34.07579 29.36110
#
# Velocity S-wave (km/s) = 3.14352 3.69626 3.43104
# Velocity P-wave (km/s) = 5.01161 6.23504 5.65650
#
# Compressibility (1/GPa) = 0.03357786
#
# Stress axis : x y z
#
# Youngs Moduli (GPa) = 33.95396 77.97066 144.98052
#
# Poissons Ratio (x) = 0.12746 0.57259
# Poissons Ratio (y) = 0.05551 0.32100
# Poissons Ratio (z) = 0.13410 0.17264
#
# Static dielectric constant tensor:
#      x y z
#    x 1.975310 0.047540 -0.011810 
#    y 0.047540 2.052790 0.103450 
#    z -0.011810 0.103450 2.145750 
# 
# From -- ./inp_files/345838.got.cif
#   From: 2010.05.17/outbox.cif.g08.bks.cpg/sg2_173_cif.got.tgz:345838.got - 2010.06.03 11:33:40.
