data_PCOD9099355
_publ_section_title
;
Structure prediction by ZEFSAII (Michael W. Deem and Ramdas Pophale) SiO2 
 PCOD9099355
Probable space group: P -1
;
_chemical_formula_sum "Si O2"
_cell_formula_units_Z 14
_cell_length_a 8.883393
_cell_length_b 8.062872
_cell_length_c 12.549851
_cell_angle_alpha 58.043807
_cell_angle_beta 123.413418
_cell_angle_gamma 109.018114
_cell_volume 635.860785
_symmetry_space_group_name_H-M "P -1"
_symmetry_group_IT_number 2
_symmetry_cell_setting 'triclinic'
loop_
_space_group_symop_operation_xyz
x,y,z
-x,-y,-z
loop_
_atom_site_type_symbol
_atom_site_label
_atom_site_fract_x
_atom_site_fract_y
_atom_site_fract_z
Si Si1 0.913974 0.291746 0.946410
Si Si2 0.215290 0.008997 0.180665
Si Si3 0.865875 0.429113 0.341573
Si Si4 0.877318 0.026468 0.610125
Si Si5 0.456615 0.175163 0.557869
Si Si6 0.723962 0.529082 0.462946
Si Si7 0.103463 0.674492 0.832475
O O1 0.817917 0.141427 0.878308
O O2 0.936140 0.514806 0.840672
O O3 0.829053 0.291788 0.031773
O O4 0.118756 0.211931 0.056217
O O5 0.425120 0.998471 0.293124
O O6 0.112797 0.934205 0.273539
O O7 0.754160 0.550965 0.340684
O O8 0.794177 0.410433 0.199941
O O9 0.077025 0.499111 0.401399
O O10 0.874797 0.218174 0.473691
O O11 0.690187 0.906591 0.554262
O O12 0.033068 0.880262 0.695153
O O13 0.591126 0.342180 0.501486
O O14 0.356678 0.284011 0.576811
#
# Coordination Sequence:
#
# PCOD9099355 Si02
#       7
#     2   2   2   2   2   2   2
#     4   9  21  38  58  88 110 176 206 242 270 353
#     4  10  20  37  60  86 120 152 211 245 280 360
#     4  11  21  39  57  98 122 157 186 256 308 366
#     4  11  22  34  63  99 122 147 190 258 322 345
#     4  11  21  39  57  98 122 157 186 256 308 366
#     4  10  23  34  59  89 128 155 190 228 332 350
#     4  10  20  37  60  86 120 152 211 245 280 360
#
# _framework density 22.017399000000001
#
# number of rings (size 3 to 8) (size 9 to 14) (size 15 to 20)
#    0.000    1.714    2.857    1.714    4.000    0.000 
#    0.000    0.000    0.000    5.143    0.000    0.000 
#    0.000    0.000    0.000    0.000    0.000    0.000 
#
# Total GULP energy -78123.857253 kJ/mol
# GULP energy per Si atom -5580.275518 kJ/mol
# Density = 2.196729 g / cm^3
# Si number density = 22.017399 Si / 1000 Ang^3
#
#
#
# Elastic Constant Matrix: (Units=GPa)
#
#
# Indices 1 2 3 4 5 6 
#
# 1 88.2829 23.1190 21.3803 23.4003 -22.3628 -22.6093
# 2 23.1190 81.5106 20.4532 14.6907 -18.0810 -8.2189
# 3 21.3803 20.4532 62.9785 19.2746 -29.3206 -14.7272
# 4 23.4003 14.6907 19.2746 42.0824 -19.0382 -16.2219
# 5 -22.3628 -18.0810 -29.3206 -19.0382 38.7543 11.7389
# 6 -22.6093 -8.2189 -14.7272 -16.2219 11.7389 38.5495
#
#
#
# Elastic Compliance Matrix: (Units=1/GPa)
#
#
# Indices 1 2 3 4 5 6 
#
# 1 0.015435 -0.002169 -0.000075 -0.003632 0.004322 0.005717
# 2 -0.002169 0.014356 -0.002049 -0.001640 0.003299 -0.000689
# 3 -0.000075 -0.002049 0.025626 -0.002339 0.016213 0.003388
# 4 -0.003632 -0.001640 -0.002339 0.035243 0.010148 0.008367
# 5 0.004322 0.003299 0.016213 0.010148 0.047301 -0.000701
# 6 0.005717 -0.000689 0.003388 0.008367 -0.000701 0.034175
#
#
# Mechanical properties :
#
#
# Convention : Reuss Voigt Hill
#
# Bulk Modulus (GPa) = 21.35393 40.29744 30.82569
# Shear Modulus (GPa) = 25.46709 35.06522 30.26615
#
# Velocity S-wave (km/s) = 3.40469 3.99509 3.71165
# Velocity P-wave (km/s) = 5.01753 6.29470 5.69205
#
# Compressibility (1/GPa) = 0.04682978
#
# Stress axis : x y z
#
# Youngs Moduli (GPa) = 64.78747 69.65910 39.02307
#
# Poissons Ratio (x) = 0.15111 0.00292
# Poissons Ratio (y) = 0.14054 0.07997
# Poissons Ratio (z) = 0.00485 0.14275
#
# Static dielectric constant tensor:
#      x y z
#    x 1.823990 -0.033640 -0.008980 
#    y -0.033640 1.845310 0.002440 
#    z -0.008980 0.002440 1.836940 
# 
# From -- ./inp_files/175494.got.cif
#   From: 2010.05.17/outbox.cif.g08.bks.cpg/sg2_88_cif.got.tgz:175494.got - 2010.06.03 11:33:40.
