data_PCOD9099019
_publ_section_title
;
Structure prediction by ZEFSAII (Michael W. Deem and Ramdas Pophale) SiO2 
 PCOD9099019
Probable space group: P -1
;
_chemical_formula_sum "Si O2"
_cell_formula_units_Z 16
_cell_length_a 8.281759
_cell_length_b 9.138375
_cell_length_c 21.257726
_cell_angle_alpha 38.476447
_cell_angle_beta 105.367228
_cell_angle_gamma 78.578566
_cell_volume 711.379851
_symmetry_space_group_name_H-M "P -1"
_symmetry_group_IT_number 2
_symmetry_cell_setting 'triclinic'
loop_
_space_group_symop_operation_xyz
x,y,z
-x,-y,-z
loop_
_atom_site_type_symbol
_atom_site_label
_atom_site_fract_x
_atom_site_fract_y
_atom_site_fract_z
Si Si1 0.752996 0.289264 0.687211
Si Si2 0.444276 0.214257 0.861252
Si Si3 0.861766 0.067942 0.399526
Si Si4 0.059821 0.197550 0.967985
Si Si5 0.780094 0.672792 0.461360
Si Si6 0.731878 0.072408 0.563991
Si Si7 0.282886 0.154272 0.225211
Si Si8 0.979985 0.452623 0.736597
O O1 0.773078 0.429549 0.578477
O O2 0.493137 0.561700 0.592069
O O3 0.904087 0.282492 0.755592
O O4 0.810407 0.966642 0.786988
O O5 0.358499 0.557244 0.754451
O O6 0.213097 0.321965 0.772466
O O7 0.500000 0.000000 0.000000
O O8 0.676936 0.022038 0.911291
O O9 0.798089 0.860135 0.452620
O O10 0.000000 0.000000 0.500000
O O11 0.043159 0.981720 0.395150
O O12 0.880779 0.468283 0.908605
O O13 0.039127 0.370252 0.843944
O O14 0.000000 0.000000 0.000000
O O15 0.000000 0.500000 0.500000
O O16 0.547612 0.943451 0.308197
O O17 0.700071 0.976099 0.659450
O O18 0.776189 0.835001 0.594334
#
# Coordination Sequence:
#
# PCOD9099019 Si02
#       8
#     2   2   2   2   2   2   2   2
#     4  11  20  35  54  80 114 149 184 229 286 344
#     4   9  19  36  56  78 110 150 188 224 275 342
#     4  11  21  34  57  91 115 139 187 247 287 320
#     4  10  20  37  59  79 103 143 194 238 275 333
#     4  11  21  34  53  82 117 148 182 232 289 342
#     4   9  18  34  54  79 113 150 180 218 281 352
#     4  10  21  36  55  78 109 154 193 223 280 354
#     4   9  19  34  56  81 106 143 187 229 277 333
#
# _framework density 22.491499999999998
#
# number of rings (size 3 to 8) (size 9 to 14) (size 15 to 20)
#    0.000    2.000    0.000    6.375    0.000    3.000 
#    0.000    2.500    0.000    3.000    0.000    0.000 
#    0.000    0.000    0.000    0.000    0.000    0.000 
#
# Total GULP energy -89285.907916 kJ/mol
# GULP energy per Si atom -5580.369245 kJ/mol
# Density = 2.244031 g / cm^3
# Si number density = 22.491500 Si / 1000 Ang^3
#
#
#
# Elastic Constant Matrix: (Units=GPa)
#
#
# Indices 1 2 3 4 5 6 
#
# 1 76.2916 28.2599 31.3422 -28.8909 25.3118 4.7999
# 2 28.2599 104.2642 42.4662 -28.8433 8.6175 26.7657
# 3 31.3422 42.4662 94.9778 -28.8323 14.7413 -1.8221
# 4 -28.8909 -28.8433 -28.8323 34.5485 -3.8861 -9.0275
# 5 25.3118 8.6175 14.7413 -3.8861 40.0439 -5.7027
# 6 4.7999 26.7657 -1.8221 -9.0275 -5.7027 43.4027
#
#
#
# Elastic Compliance Matrix: (Units=1/GPa)
#
#
# Indices 1 2 3 4 5 6 
#
# 1 0.025125 -0.000132 -0.000343 0.018879 -0.013983 -0.000622
# 2 -0.000132 0.015900 -0.004939 0.006463 -0.002166 -0.008938
# 3 -0.000343 -0.004939 0.016645 0.010602 -0.003023 0.005590
# 4 0.018879 0.006463 0.010602 0.059142 -0.010738 0.005262
# 5 -0.013983 -0.002166 -0.003023 -0.010738 0.035079 0.005131
# 6 -0.000622 -0.008938 0.005590 0.005262 0.005131 0.030624
#
#
# Mechanical properties :
#
#
# Convention : Reuss Voigt Hill
#
# Bulk Modulus (GPa) = 21.34834 53.29668 37.32251
# Shear Modulus (GPa) = 23.92836 35.16338 29.54587
#
# Velocity S-wave (km/s) = 3.26526 3.95828 3.62836
# Velocity P-wave (km/s) = 4.87117 6.68120 5.84666
#
# Compressibility (1/GPa) = 0.04684205
#
# Stress axis : x y z
#
# Youngs Moduli (GPa) = 39.80083 62.89384 60.07836
#
# Poissons Ratio (x) = 0.00833 0.02058
# Poissons Ratio (y) = 0.00527 0.29672
# Poissons Ratio (z) = 0.01363 0.31063
#
# Static dielectric constant tensor:
#      x y z
#    x 1.883310 -0.027770 -0.025920 
#    y -0.027770 1.859160 0.023500 
#    z -0.025920 0.023500 1.938210 
# 
# From -- ./inp_files/189243.got.cif
#   From: 2010.05.17/outbox.cif.g08.bks.cpg/sg2_95_cif.got.tgz:189243.got - 2010.06.03 11:33:40.
