data_PCOD9099913
_publ_section_title
;
Structure prediction by ZEFSAII (Michael W. Deem and Ramdas Pophale) SiO2 
 PCOD9099913
Probable space group: P -1
;
_chemical_formula_sum "Si O2"
_cell_formula_units_Z 14
_cell_length_a 13.715844
_cell_length_b 10.634746
_cell_length_c 6.835175
_cell_angle_alpha 74.306852
_cell_angle_beta 56.215924
_cell_angle_gamma 46.697507
_cell_volume 592.825309
_symmetry_space_group_name_H-M "P -1"
_symmetry_group_IT_number 2
_symmetry_cell_setting 'triclinic'
loop_
_space_group_symop_operation_xyz
x,y,z
-x,-y,-z
loop_
_atom_site_type_symbol
_atom_site_label
_atom_site_fract_x
_atom_site_fract_y
_atom_site_fract_z
Si Si1 0.529626 0.783265 0.730480
Si Si2 0.136993 0.251641 0.961934
Si Si3 0.121951 0.970350 0.136750
Si Si4 0.233613 0.725861 0.757783
Si Si5 0.227880 0.454034 0.751162
Si Si6 0.331066 0.814422 0.284327
Si Si7 0.678575 0.943037 0.513188
O O1 0.668780 0.606791 0.532234
O O2 0.597159 0.869999 0.701270
O O3 0.423333 0.913016 0.608447
O O4 0.457849 0.751526 0.000218
O O5 0.246508 0.292444 0.880641
O O6 0.161864 0.216680 0.714036
O O7 0.957041 0.408326 0.154089
O O8 0.176797 0.079237 0.066512
O O9 0.177149 0.870795 0.321096
O O10 0.224328 0.816248 0.926917
O O11 0.944993 0.115763 0.194034
O O12 0.254347 0.555231 0.822581
O O13 0.358689 0.690170 0.479053
O O14 0.298190 0.970390 0.379648
#
# Coordination Sequence:
#
# PCOD9099913 Si02
#       7
#     2   2   2   2   2   2   2
#     4  10  21  37  58  87 119 154 189 238 291 346
#     4   9  16  38  64  83 106 156 198 239 282 336
#     4  10  20  37  62  87 112 153 203 235 280 341
#     4  10  21  37  58  87 119 154 189 238 291 346
#     4   9  20  35  61  83 119 151 188 238 298 336
#     4  12  20  35  60  89 116 152 194 244 278 347
#     4  10  20  37  62  87 112 153 203 235 280 341
#
# _framework density 23.615725999999999
#
# number of rings (size 3 to 8) (size 9 to 14) (size 15 to 20)
#    0.000    2.000    2.857    0.857    0.000    0.571 
#    0.000    4.286    6.286    4.286    0.000    0.000 
#    0.000    0.000    0.000    0.000    0.000    0.000 
#
# Total GULP energy -78026.246100 kJ/mol
# GULP energy per Si atom -5573.303293 kJ/mol
# Density = 2.356198 g / cm^3
# Si number density = 23.615726 Si / 1000 Ang^3
#
#
#
# Elastic Constant Matrix: (Units=GPa)
#
#
# Indices 1 2 3 4 5 6 
#
# 1 76.7155 32.9999 38.5813 1.9407 19.9444 19.8367
# 2 32.9999 67.8661 47.6081 17.7943 6.1734 31.7663
# 3 38.5813 47.6081 121.7636 16.2816 -2.7153 5.9755
# 4 1.9407 17.7943 16.2816 28.8481 -5.0841 -6.5904
# 5 19.9444 6.1734 -2.7153 -5.0841 34.6047 6.0594
# 6 19.8367 31.7663 5.9755 -6.5904 6.0594 43.1683
#
#
#
# Elastic Compliance Matrix: (Units=1/GPa)
#
#
# Indices 1 2 3 4 5 6 
#
# 1 0.021479 -0.003366 -0.005588 0.000674 -0.011254 -0.004937
# 2 -0.003366 0.057789 -0.014377 -0.038640 -0.007499 -0.043835
# 3 -0.005588 -0.014377 0.014584 0.004530 0.005665 0.011026
# 4 0.000674 -0.038640 0.004530 0.065952 0.010223 0.036131
# 5 -0.011254 -0.007499 0.005665 0.010223 0.037584 0.006190
# 6 -0.004937 -0.043835 0.011026 0.036131 0.006190 0.060811
#
#
# Mechanical properties :
#
#
# Convention : Reuss Voigt Hill
#
# Bulk Modulus (GPa) = 21.19188 56.08041 38.63614
# Shear Modulus (GPa) = 15.59608 31.13462 23.36535
#
# Velocity S-wave (km/s) = 2.57263 3.63490 3.14888
# Velocity P-wave (km/s) = 4.22110 6.43547 5.44210
#
# Compressibility (1/GPa) = 0.04718789
#
# Stress axis : x y z
#
# Youngs Moduli (GPa) = 46.55750 17.30434 68.56729
#
# Poissons Ratio (x) = 0.05825 0.38318
# Poissons Ratio (y) = 0.15673 0.98582
# Poissons Ratio (z) = 0.26018 0.24879
#
# Static dielectric constant tensor:
#      x y z
#    x 1.920950 -0.013980 -0.080690 
#    y -0.013980 2.001130 0.014340 
#    z -0.080690 0.014340 1.910420 
# 
# From -- ./inp_files/93497.got.cif
#   From: 2010.05.17/outbox.cif.g08.bks.cpg/sg2_47_cif.got.tgz:93497.got - 2010.06.03 11:33:40.
