data_PCOD9099483
_publ_section_title
;
Structure prediction by ZEFSAII (Michael W. Deem and Ramdas Pophale) SiO2 
 PCOD9099483
Probable space group: P -1
;
_chemical_formula_sum "Si O2"
_cell_formula_units_Z 16
_cell_length_a 8.768453
_cell_length_b 9.144275
_cell_length_c 12.210732
_cell_angle_alpha 61.681476
_cell_angle_beta 107.886325
_cell_angle_gamma 101.576899
_cell_volume 818.472935
_symmetry_space_group_name_H-M "P -1"
_symmetry_group_IT_number 2
_symmetry_cell_setting 'triclinic'
loop_
_space_group_symop_operation_xyz
x,y,z
-x,-y,-z
loop_
_atom_site_type_symbol
_atom_site_label
_atom_site_fract_x
_atom_site_fract_y
_atom_site_fract_z
Si Si1 0.319287 0.253264 0.153448
Si Si2 0.685880 0.276695 0.142917
Si Si3 0.354895 0.935411 0.413971
Si Si4 0.266996 0.610605 0.121041
Si Si5 0.971515 0.490832 0.624057
Si Si6 0.105272 0.375906 0.891600
Si Si7 0.888606 0.152309 0.417433
Si Si8 0.607982 0.364782 0.626265
O O1 0.502200 0.270294 0.144198
O O2 0.290969 0.421327 0.155149
O O3 0.292951 0.093274 0.281071
O O4 0.196328 0.242896 0.027963
O O5 0.780366 0.456188 0.123250
O O6 0.779138 0.151815 0.284251
O O7 0.695802 0.267566 0.017146
O O8 0.222991 0.852324 0.497317
O O9 0.415499 0.807223 0.383581
O O10 0.500000 0.000000 0.500000
O O11 0.387025 0.651215 0.235026
O O12 0.077252 0.615450 0.107224
O O13 0.789702 0.430736 0.621579
O O14 0.000000 0.500000 0.500000
O O15 0.081610 0.367711 0.758789
O O16 0.006611 0.673242 0.618494
O O17 0.000000 0.000000 0.500000
O O18 0.500000 0.500000 0.500000
#
# Coordination Sequence:
#
# PCOD9099483 Si02
#       8
#     2   2   2   2   2   2   2   2
#     4  11  21  36  63  90 126 162 204 258 305 363
#     4  10  20  37  60  91 122 159 213 247 302 368
#     4  12  25  42  62  94 129 159 210 257 318 370
#     4  10  21  39  63  90 121 161 214 252 304 367
#     4  10  21  42  61  90 124 159 215 250 298 369
#     4   9  20  34  61  90 119 161 209 248 304 361
#     4  11  25  39  66  93 126 163 209 258 307 367
#     4  11  25  41  65  91 126 166 202 258 316 371
#
# _framework density 19.5486
#
# number of rings (size 3 to 8) (size 9 to 14) (size 15 to 20)
#    0.000    1.500    2.500    3.750    8.750    1.000 
#    0.000    4.375    0.000    0.000    0.000    0.000 
#    0.000    0.000    0.000    0.000    0.000    0.000 
#
# Total GULP energy -89256.457363 kJ/mol
# GULP energy per Si atom -5578.528585 kJ/mol
# Density = 1.950411 g / cm^3
# Si number density = 19.548600 Si / 1000 Ang^3
#
#
#
# Elastic Constant Matrix: (Units=GPa)
#
#
# Indices 1 2 3 4 5 6 
#
# 1 43.6991 3.9748 31.3187 6.7728 11.9307 6.5295
# 2 3.9748 64.2010 42.8160 5.6363 13.3399 -4.3507
# 3 31.3187 42.8160 218.2945 8.4530 19.6346 -12.8565
# 4 6.7728 5.6363 8.4530 34.2389 -0.3571 1.6446
# 5 11.9307 13.3399 19.6346 -0.3571 41.6196 -2.1757
# 6 6.5295 -4.3507 -12.8565 1.6446 -2.1757 25.2443
#
#
#
# Elastic Compliance Matrix: (Units=1/GPa)
#
#
# Indices 1 2 3 4 5 6 
#
# 1 0.030342 0.002548 -0.004543 -0.004898 -0.007941 -0.010088
# 2 0.002548 0.019128 -0.003503 -0.002870 -0.005202 0.000592
# 3 -0.004543 -0.003503 0.006174 -0.000230 -0.000296 0.003705
# 4 -0.004898 -0.002870 -0.000230 0.030786 0.002638 -0.001123
# 5 -0.007941 -0.005202 -0.000296 0.002638 0.028304 0.003274
# 6 -0.010088 0.000592 0.003705 -0.001123 0.003274 0.044566
#
#
# Mechanical properties :
#
#
# Convention : Reuss Voigt Hill
#
# Bulk Modulus (GPa) = 22.39833 53.60152 37.99993
# Shear Modulus (GPa) = 27.00074 36.75957 31.88015
#
# Velocity S-wave (km/s) = 3.72050 4.34108 4.04272
# Velocity P-wave (km/s) = 5.47163 7.25299 6.42435
#
# Compressibility (1/GPa) = 0.04464618
#
# Stress axis : x y z
#
# Youngs Moduli (GPa) = 32.95709 52.28012 161.98025
#
# Poissons Ratio (x) = -0.13319 0.73591
# Poissons Ratio (y) = -0.08396 0.56746
# Poissons Ratio (z) = 0.14973 0.18315
#
# Static dielectric constant tensor:
#      x y z
#    x 1.672430 0.002690 -0.026390 
#    y 0.002690 1.665630 0.018490 
#    z -0.026390 0.018490 1.773460 
# 
# From -- ./inp_files/256459.got.cif
#   From: 2010.05.17/outbox.cif.g08.bks.cpg/sg2_129_cif.got.tgz:256459.got - 2010.06.03 11:33:40.
