data_PCOD9099197
_publ_section_title
;
Structure prediction by ZEFSAII (Michael W. Deem and Ramdas Pophale) SiO2 
 PCOD9099197
Probable space group: P -1
;
_chemical_formula_sum "Si O2"
_cell_formula_units_Z 16
_cell_length_a 9.437349
_cell_length_b 8.519125
_cell_length_c 14.569962
_cell_angle_alpha 49.698321
_cell_angle_beta 129.046100
_cell_angle_gamma 122.949873
_cell_volume 675.159910
_symmetry_space_group_name_H-M "P -1"
_symmetry_group_IT_number 2
_symmetry_cell_setting 'triclinic'
loop_
_space_group_symop_operation_xyz
x,y,z
-x,-y,-z
loop_
_atom_site_type_symbol
_atom_site_label
_atom_site_fract_x
_atom_site_fract_y
_atom_site_fract_z
Si Si1 0.254512 0.900534 0.872695
Si Si2 0.817863 0.024114 0.477697
Si Si3 0.691827 0.264712 0.860606
Si Si4 0.364446 0.273315 0.629430
Si Si5 0.212581 0.072653 0.099068
Si Si6 0.911477 0.531846 0.118282
Si Si7 0.983407 0.515544 0.616716
Si Si8 0.094616 0.946131 0.292801
O O1 0.181908 0.709806 0.845622
O O2 0.315091 0.106093 0.756350
O O3 0.366079 0.803832 0.032997
O O4 0.082413 0.956114 0.837251
O O5 0.829311 0.963878 0.611473
O O6 0.844523 0.277820 0.397080
O O7 0.650637 0.869859 0.414089
O O8 0.000000 0.000000 0.500000
O O9 0.569474 0.392544 0.702057
O O10 0.906714 0.395347 0.899759
O O11 0.676366 0.047880 0.877746
O O12 0.210231 0.410672 0.504947
O O13 0.225300 0.002719 0.235941
O O14 0.238211 0.324219 0.010402
O O15 0.000000 0.000000 0.000000
O O16 0.999308 0.563376 0.243120
O O17 0.977136 0.308032 0.632436
#
# Coordination Sequence:
#
# PCOD9099197 Si02
#       8
#     2   2   2   2   2   2   2   2
#     4  12  21  39  67  92 116 159 210 255 293 362
#     4  10  20  37  59  89 120 158 201 250 290 364
#     4  11  23  41  62  90 128 161 195 255 308 363
#     4  11  24  41  59  91 132 158 196 251 315 354
#     4  10  20  39  60  89 119 157 202 252 297 355
#     4  11  21  39  67  91 115 159 213 247 298 354
#     4  11  20  37  64  90 121 161 205 248 298 364
#     4  12  20  37  67  91 114 156 219 250 289 349
#
# _framework density 23.698091000000002
#
# number of rings (size 3 to 8) (size 9 to 14) (size 15 to 20)
#    0.000    1.000    8.750    1.875    0.000    0.500 
#    0.000    2.500    0.000    0.000    0.000    0.000 
#    0.000    0.000    0.000    0.000    0.000    0.000 
#
# Total GULP energy -89317.669183 kJ/mol
# GULP energy per Si atom -5582.354324 kJ/mol
# Density = 2.364415 g / cm^3
# Si number density = 23.698091 Si / 1000 Ang^3
#
#
#
# Elastic Constant Matrix: (Units=GPa)
#
#
# Indices 1 2 3 4 5 6 
#
# 1 28.2830 0.4130 15.4233 12.0887 -11.1046 -13.7546
# 2 0.4130 63.3267 32.3879 5.8401 5.0160 -25.8321
# 3 15.4233 32.3879 135.7614 21.6155 -11.6046 -10.8231
# 4 12.0887 5.8401 21.6155 45.6938 -14.0508 -9.7058
# 5 -11.1046 5.0160 -11.6046 -14.0508 42.9545 1.2897
# 6 -13.7546 -25.8321 -10.8231 -9.7058 1.2897 23.1535
#
#
#
# Elastic Compliance Matrix: (Units=1/GPa)
#
#
# Indices 1 2 3 4 5 6 
#
# 1 0.097349 0.047410 -0.013026 0.000508 0.013151 0.104118
# 2 0.047410 0.057596 -0.012813 0.005332 0.001153 0.088605
# 3 -0.013026 -0.012813 0.011091 -0.003985 0.000378 -0.018541
# 4 0.000508 0.005332 -0.003985 0.028592 0.007305 0.015967
# 5 0.013151 0.001153 0.000378 0.007305 0.028715 0.010739
# 6 0.104118 0.088605 -0.018541 0.015967 0.010739 0.201326
#
#
# Mechanical properties :
#
#
# Convention : Reuss Voigt Hill
#
# Bulk Modulus (GPa) = 4.78062 35.97995 20.38028
# Shear Modulus (GPa) = 11.08026 34.30349 22.69188
#
# Velocity S-wave (km/s) = 2.16466 3.80876 3.09777
# Velocity P-wave (km/s) = 2.87565 5.87859 4.62748
#
# Compressibility (1/GPa) = 0.20917796
#
# Stress axis : x y z
#
# Youngs Moduli (GPa) = 10.27229 17.36247 90.16192
#
# Poissons Ratio (x) = -0.82316 1.17446
# Poissons Ratio (y) = -0.48701 1.15525
# Poissons Ratio (z) = 0.13381 0.22247
#
# Static dielectric constant tensor:
#      x y z
#    x 2.002640 0.067540 0.022850 
#    y 0.067540 1.927020 -0.005840 
#    z 0.022850 -0.005840 1.944760 
# 
# From -- ./inp_files/254476.got.cif
#   From: 2010.05.17/outbox.cif.g08.bks.cpg/sg2_128_cif.got.tgz:254476.got - 2010.06.03 11:33:40.
