data_PCOD9099809
_publ_section_title
;
Structure prediction by ZEFSAII (Michael W. Deem and Ramdas Pophale) SiO2 
 PCOD9099809
Probable space group: P -1
;
_chemical_formula_sum "Si O2"
_cell_formula_units_Z 16
_cell_length_a 10.333290
_cell_length_b 8.819910
_cell_length_c 12.010287
_cell_angle_alpha 67.675390
_cell_angle_beta 74.121774
_cell_angle_gamma 118.955723
_cell_volume 730.883223
_symmetry_space_group_name_H-M "P -1"
_symmetry_group_IT_number 2
_symmetry_cell_setting 'triclinic'
loop_
_space_group_symop_operation_xyz
x,y,z
-x,-y,-z
loop_
_atom_site_type_symbol
_atom_site_label
_atom_site_fract_x
_atom_site_fract_y
_atom_site_fract_z
Si Si1 0.919095 0.951942 0.261497
Si Si2 0.804709 0.904413 0.535765
Si Si3 0.668691 0.161940 0.494470
Si Si4 0.771857 0.278590 0.906009
Si Si5 0.341049 0.258123 0.153231
Si Si6 0.863191 0.618793 0.203536
Si Si7 0.585625 0.069692 0.793228
Si Si8 0.079579 0.389651 0.044741
O O1 0.795509 0.830997 0.432695
O O2 0.861745 0.786209 0.223300
O O3 0.135044 0.112314 0.195246
O O4 0.915650 0.136908 0.174081
O O5 0.672688 0.736583 0.710478
O O6 0.785105 0.087080 0.486422
O O7 0.000000 0.000000 0.500000
O O8 0.764006 0.396889 0.356117
O O9 0.610964 0.143892 0.640370
O O10 0.500000 0.000000 0.500000
O O11 0.720706 0.262526 0.794301
O O12 0.933750 0.282472 0.872011
O O13 0.817505 0.484743 0.900924
O O14 0.609089 0.065963 0.070414
O O15 0.383003 0.101277 0.163355
O O16 0.500000 0.500000 0.000000
O O17 0.808024 0.580631 0.096979
O O18 0.000000 0.500000 0.000000
#
# Coordination Sequence:
#
# PCOD9099809 Si02
#       8
#     2   2   2   2   2   2   2   2
#     4  11  21  41  61  98 129 168 226 278 331 409
#     4   9  21  42  66  95 132 177 225 271 333 410
#     4  11  24  44  69  96 137 179 225 279 341 408
#     4  10  20  39  63  93 127 171 226 271 331 397
#     4  10  20  37  61  93 133 172 215 278 337 390
#     4  11  23  41  65  98 131 175 225 283 340 402
#     4  10  21  39  61  97 133 168 224 278 332 396
#     4  10  21  37  63  89 121 171 219 266 331 395
#
# _framework density 21.891321000000001
#
# number of rings (size 3 to 8) (size 9 to 14) (size 15 to 20)
#    0.000    1.750    1.250    3.375    0.000    3.500 
#   11.250    0.625    0.000    0.000    0.000    0.000 
#    0.000    0.000    0.000    0.000    0.000    0.000 
#
# Total GULP energy -89350.588507 kJ/mol
# GULP energy per Si atom -5584.411782 kJ/mol
# Density = 2.184150 g / cm^3
# Si number density = 21.891321 Si / 1000 Ang^3
#
#
#
# Elastic Constant Matrix: (Units=GPa)
#
#
# Indices 1 2 3 4 5 6 
#
# 1 50.6375 26.9280 22.9949 -4.5063 2.7363 3.3717
# 2 26.9280 154.0054 69.8643 41.6234 12.6535 0.1293
# 3 22.9949 69.8643 149.7783 32.0349 10.5459 2.5338
# 4 -4.5063 41.6234 32.0349 41.0636 3.3119 7.2706
# 5 2.7363 12.6535 10.5459 3.3119 25.8656 2.2178
# 6 3.3717 0.1293 2.5338 7.2706 2.2178 19.4717
#
#
#
# Elastic Compliance Matrix: (Units=1/GPa)
#
#
# Indices 1 2 3 4 5 6 
#
# 1 0.027243 -0.007073 -0.003989 0.014923 0.001138 -0.009853
# 2 -0.007073 0.012239 -0.001781 -0.012664 -0.003448 0.006497
# 3 -0.003989 -0.001781 0.009572 -0.006300 -0.001977 0.002035
# 4 0.014923 -0.012664 -0.006300 0.046973 0.002847 -0.019544
# 5 0.001138 -0.003448 -0.001977 0.002847 0.041155 -0.005667
# 6 -0.009853 0.006497 0.002035 -0.019544 -0.005667 0.060698
#
#
# Mechanical properties :
#
#
# Convention : Reuss Voigt Hill
#
# Bulk Modulus (GPa) = 42.79263 65.99951 54.39607
# Shear Modulus (GPa) = 21.61178 32.92245 27.26711
#
# Velocity S-wave (km/s) = 3.14543 3.88223 3.53309
# Velocity P-wave (km/s) = 5.72554 7.09294 6.44560
#
# Compressibility (1/GPa) = 0.02336851
#
# Stress axis : x y z
#
# Youngs Moduli (GPa) = 36.70633 81.70822 104.46944
#
# Poissons Ratio (x) = 0.57789 0.41671
# Poissons Ratio (y) = 0.25961 0.18610
# Poissons Ratio (z) = 0.14641 0.14556
#
# Static dielectric constant tensor:
#      x y z
#    x 1.851050 0.026470 0.022730 
#    y 0.026470 1.821710 0.022200 
#    z 0.022730 0.022200 1.825610 
# 
# From -- ./inp_files/416858.got.cif
#   From: 2010.05.17/outbox.cif.g08.bks.cpg/sg2_209_cif.got.tgz:416858.got - 2010.06.03 11:33:40.
