data_PCOD9099678
_publ_section_title
;
Structure prediction by ZEFSAII (Michael W. Deem and Ramdas Pophale) SiO2 
 PCOD9099678
Probable space group: P -1
;
_chemical_formula_sum "Si O2"
_cell_formula_units_Z 16
_cell_length_a 6.349165
_cell_length_b 17.794888
_cell_length_c 16.490092
_cell_angle_alpha 147.228534
_cell_angle_beta 50.252387
_cell_angle_gamma 129.947758
_cell_volume 750.565695
_symmetry_space_group_name_H-M "P -1"
_symmetry_group_IT_number 2
_symmetry_cell_setting 'triclinic'
loop_
_space_group_symop_operation_xyz
x,y,z
-x,-y,-z
loop_
_atom_site_type_symbol
_atom_site_label
_atom_site_fract_x
_atom_site_fract_y
_atom_site_fract_z
Si Si1 0.471843 0.114580 0.359160
Si Si2 0.254781 0.582722 0.232644
Si Si3 0.347062 0.064501 0.715330
Si Si4 0.729938 0.395624 0.265494
Si Si5 0.827686 0.167104 0.913962
Si Si6 0.116454 0.853773 0.437827
Si Si7 0.124746 0.397295 0.932770
Si Si8 0.313163 0.595213 0.527530
O O1 0.618118 0.264047 0.417267
O O2 0.199775 0.140187 0.497790
O O3 0.657619 0.050938 0.318647
O O4 0.356853 0.990543 0.207461
O O5 0.133970 0.718206 0.364531
O O6 0.592375 0.628503 0.201201
O O7 0.057314 0.488081 0.262720
O O8 0.206116 0.484394 0.075349
O O9 0.669707 0.143332 0.686154
O O10 0.128821 0.159603 0.872325
O O11 0.232212 0.989356 0.590564
O O12 0.535808 0.497474 0.373743
O O13 0.661259 0.359108 0.342683
O O14 0.689948 0.258530 0.092484
O O15 0.907910 0.254704 0.889704
O O16 0.000000 0.500000 0.000000
O O17 0.000000 0.500000 0.500000
#
# Coordination Sequence:
#
# PCOD9099678 Si02
#       8
#     2   2   2   2   2   2   2   2
#     4  11  24  40  66  94 125 168 217 261 310 375
#     4  10  20  37  61  88 128 165 202 249 313 364
#     4  10  22  37  61  93 136 164 202 251 305 381
#     4  10  24  46  66  89 129 161 211 272 318 373
#     4  10  23  42  63  95 129 169 204 253 322 377
#     4  10  20  38  58  92 128 170 202 242 313 371
#     4  10  22  35  59  95 131 168 205 246 302 383
#     4  11  26  45  68  94 116 161 220 272 327 373
#
# _framework density 21.317254999999999
#
# number of rings (size 3 to 8) (size 9 to 14) (size 15 to 20)
#    0.000    1.750    2.500    0.375    3.500    5.500 
#    0.000    1.250    0.000    0.000    0.000    0.000 
#    0.000    0.000    0.000    0.000    0.000    0.000 
#
# Total GULP energy -89399.540356 kJ/mol
# GULP energy per Si atom -5587.471272 kJ/mol
# Density = 2.126874 g / cm^3
# Si number density = 21.317255 Si / 1000 Ang^3
#
#
#
# Elastic Constant Matrix: (Units=GPa)
#
#
# Indices 1 2 3 4 5 6 
#
# 1 79.3631 40.6322 44.2237 -1.0701 -15.0732 -17.2359
# 2 40.6322 100.5133 34.7260 12.2123 -8.6747 -4.3444
# 3 44.2237 34.7260 110.6280 -4.0300 -8.8109 7.3301
# 4 -1.0701 12.2123 -4.0300 30.4826 -0.3939 -4.8907
# 5 -15.0732 -8.6747 -8.8109 -0.3939 33.8399 12.3280
# 6 -17.2359 -4.3444 7.3301 -4.8907 12.3280 27.4304
#
#
#
# Elastic Compliance Matrix: (Units=1/GPa)
#
#
# Indices 1 2 3 4 5 6 
#
# 1 0.025067 -0.006929 -0.008757 0.005332 0.000758 0.017603
# 2 -0.006929 0.014051 -0.001547 -0.006619 0.001304 -0.003481
# 3 -0.008757 -0.001547 0.014031 0.000459 0.003338 -0.010915
# 4 0.005332 -0.006619 0.000459 0.037261 -0.002371 0.009888
# 5 0.000758 0.001304 0.003338 -0.002371 0.037421 -0.017450
# 6 0.017603 -0.003481 -0.010915 0.009888 -0.017450 0.059488
#
#
# Mechanical properties :
#
#
# Convention : Reuss Voigt Hill
#
# Bulk Modulus (GPa) = 53.52786 58.85200 56.18993
# Shear Modulus (GPa) = 21.92852 29.74544 25.83698
#
# Velocity S-wave (km/s) = 3.21078 3.73952 3.48519
# Velocity P-wave (km/s) = 6.23779 6.80536 6.52775
#
# Compressibility (1/GPa) = 0.01868186
#
# Stress axis : x y z
#
# Youngs Moduli (GPa) = 39.89382 71.17030 71.26860
#
# Poissons Ratio (x) = 0.49316 0.62410
# Poissons Ratio (y) = 0.27643 0.11026
# Poissons Ratio (z) = 0.34935 0.11011
#
# Static dielectric constant tensor:
#      x y z
#    x 1.779830 0.043130 0.008870 
#    y 0.043130 1.783210 0.002650 
#    z 0.008870 0.002650 1.780430 
# 
# From -- ./inp_files/83143.got.cif
#   From: 2010.05.17/outbox.cif.g08.bks.cpg/sg2_42_cif.got.tgz:83143.got - 2010.06.03 11:33:40.
