data_PCOD9099495
_publ_section_title
;
Structure prediction by ZEFSAII (Michael W. Deem and Ramdas Pophale) SiO2 
 PCOD9099495
Probable space group: P -1
;
_chemical_formula_sum "Si O2"
_cell_formula_units_Z 16
_cell_length_a 14.640736
_cell_length_b 14.329833
_cell_length_c 8.224270
_cell_angle_alpha 144.848592
_cell_angle_beta 116.007283
_cell_angle_gamma 46.952279
_cell_volume 696.000048
_symmetry_space_group_name_H-M "P -1"
_symmetry_group_IT_number 2
_symmetry_cell_setting 'triclinic'
loop_
_space_group_symop_operation_xyz
x,y,z
-x,-y,-z
loop_
_atom_site_type_symbol
_atom_site_label
_atom_site_fract_x
_atom_site_fract_y
_atom_site_fract_z
Si Si1 0.365880 0.020800 0.242705
Si Si2 0.638463 0.717884 0.095570
Si Si3 0.323439 0.681677 0.793955
Si Si4 0.859681 0.683703 0.089476
Si Si5 0.183721 0.920526 0.339038
Si Si6 0.420797 0.573802 0.215919
Si Si7 0.884075 0.729026 0.797033
Si Si8 0.071059 0.944445 0.800198
O O1 0.358491 0.150576 0.572658
O O2 0.253766 0.181443 0.260873
O O3 0.517341 0.875812 0.107112
O O4 0.342414 0.855452 0.030310
O O5 0.768627 0.622559 0.963923
O O6 0.614062 0.571681 0.957144
O O7 0.247581 0.746184 0.998973
O O8 0.219475 0.733892 0.649458
O O9 0.470403 0.467317 0.629406
O O10 0.808996 0.897780 0.440956
O O11 0.871404 0.721308 0.966680
O O12 0.000000 0.500000 0.000000
O O13 0.281083 0.797562 0.392629
O O14 0.029175 0.035232 0.378319
O O15 0.500000 0.500000 0.000000
O O16 0.916266 0.880396 0.987178
O O17 0.000000 0.500000 0.500000
O O18 0.000000 0.000000 0.000000
#
# Coordination Sequence:
#
# PCOD9099495 Si02
#       8
#     2   2   2   2   2   2   2   2
#     4   9  18  36  68  89 123 166 218 258 317 394
#     4  10  20  39  67  95 125 174 211 266 333 388
#     4   8  15  35  60  92 122 161 204 257 316 383
#     4  12  27  42  62  90 138 176 219 276 325 382
#     4  10  20  37  60  91 128 160 215 264 319 380
#     4   9  19  34  63 100 124 159 214 263 317 395
#     4  11  25  42  64  93 127 173 230 271 321 395
#     4   9  20  37  64  89 125 165 206 268 326 380
#
# _framework density 22.988503000000001
#
# number of rings (size 3 to 8) (size 9 to 14) (size 15 to 20)
#    0.000    2.250    1.250    0.750    8.750    1.000 
#    0.000    0.000    2.750    2.250    0.000    0.000 
#    0.000    0.000    0.000    0.000    0.000    0.000 
#
# Total GULP energy -89284.418956 kJ/mol
# GULP energy per Si atom -5580.276185 kJ/mol
# Density = 2.293618 g / cm^3
# Si number density = 22.988503 Si / 1000 Ang^3
#
#
#
# Elastic Constant Matrix: (Units=GPa)
#
#
# Indices 1 2 3 4 5 6 
#
# 1 149.3931 73.1880 31.4381 1.4528 7.9532 -14.8672
# 2 73.1880 241.6220 34.0088 19.1169 6.3864 -48.0755
# 3 31.4381 34.0088 61.6230 3.5865 12.0799 -5.8115
# 4 1.4528 19.1169 3.5865 23.2400 5.9451 -2.5883
# 5 7.9532 6.3864 12.0799 5.9451 23.5841 -5.8308
# 6 -14.8672 -48.0755 -5.8115 -2.5883 -5.8308 43.4289
#
#
#
# Elastic Compliance Matrix: (Units=1/GPa)
#
#
# Indices 1 2 3 4 5 6 
#
# 1 0.008481 -0.002310 -0.002931 0.002144 -0.001296 -0.000092
# 2 -0.002310 0.006773 -0.002234 -0.005123 0.002988 0.006504
# 3 -0.002931 -0.002234 0.020614 0.001110 -0.009729 -0.001958
# 4 0.002144 -0.005123 0.001110 0.049961 -0.013391 -0.003608
# 5 -0.001296 0.002988 -0.009729 -0.013391 0.052314 0.007788
# 6 -0.000092 0.006504 -0.001958 -0.003608 0.007788 0.030763
#
#
# Mechanical properties :
#
#
# Convention : Reuss Voigt Hill
#
# Bulk Modulus (GPa) = 47.80577 81.10087 64.45332
# Shear Modulus (GPa) = 26.20134 38.98414 32.59274
#
# Velocity S-wave (km/s) = 3.37969 4.12249 3.76943
# Velocity P-wave (km/s) = 6.00587 7.61678 6.85878
#
# Compressibility (1/GPa) = 0.02091798
#
# Stress axis : x y z
#
# Youngs Moduli (GPa) = 117.90580 147.63844 48.51092
#
# Poissons Ratio (x) = 0.34107 0.14220
# Poissons Ratio (y) = 0.27238 0.10836
# Poissons Ratio (z) = 0.34562 0.32979
#
# Static dielectric constant tensor:
#      x y z
#    x 1.852890 -0.032280 -0.039750 
#    y -0.032280 1.889030 -0.029730 
#    z -0.039750 -0.029730 1.843570 
# 
# From -- ./inp_files/314270.got.cif
#   From: 2010.05.17/outbox.cif.g08.bks.cpg/sg2_158_cif.got.tgz:314270.got - 2010.06.03 11:33:40.
