data_PCOD9099956
_publ_section_title
;
Structure prediction by ZEFSAII (Michael W. Deem and Ramdas Pophale) SiO2 
 PCOD9099956
Probable space group: P -1
;
_chemical_formula_sum "Si O2"
_cell_formula_units_Z 16
_cell_length_a 5.245528
_cell_length_b 22.553393
_cell_length_c 6.387725
_cell_angle_alpha 89.750847
_cell_angle_beta 72.935503
_cell_angle_gamma 68.493802
_cell_volume 667.587466
_symmetry_space_group_name_H-M "P -1"
_symmetry_group_IT_number 2
_symmetry_cell_setting 'triclinic'
loop_
_space_group_symop_operation_xyz
x,y,z
-x,-y,-z
loop_
_atom_site_type_symbol
_atom_site_label
_atom_site_fract_x
_atom_site_fract_y
_atom_site_fract_z
Si Si1 0.740527 0.051776 0.344642
Si Si2 0.647664 0.870374 0.927557
Si Si3 0.196467 0.654020 0.217626
Si Si4 0.827509 0.456235 0.476409
Si Si5 0.764134 0.755554 0.602838
Si Si6 0.838350 0.917107 0.251458
Si Si7 0.805885 0.651456 0.927874
Si Si8 0.303319 0.836025 0.384106
O O1 0.471863 0.060461 0.565070
O O2 0.847609 0.101876 0.430286
O O3 0.931725 0.977004 0.274755
O O4 0.595357 0.079605 0.158633
O O5 0.814535 0.907057 0.011948
O O6 0.515508 0.843573 0.152122
O O7 0.799548 0.811258 0.735168
O O8 0.177826 0.592017 0.337108
O O9 0.523474 0.644538 0.091358
O O10 0.051225 0.712901 0.410675
O O11 0.000905 0.666200 0.057028
O O12 0.500000 0.500000 0.500000
O O13 0.000000 0.500000 0.500000
O O14 0.992211 0.412207 0.242292
O O15 0.504103 0.783380 0.496945
O O16 0.701100 0.708216 0.781731
O O17 0.030716 0.847303 0.299502
#
# Coordination Sequence:
#
# PCOD9099956 Si02
#       8
#     2   2   2   2   2   2   2   2
#     4   9  20  37  58  88 126 159 209 278 360 447
#     4  10  21  40  57  90 122 165 224 283 359 426
#     4  11  25  48  72 106 147 197 246 287 347 416
#     4  11  24  43  76 118 156 189 236 292 344 409
#     4  10  24  47  62  95 136 181 242 299 348 416
#     4  10  20  37  62  88 121 165 213 281 361 439
#     4  11  25  48  73 104 146 199 240 291 351 408
#     4  10  21  40  58  92 121 166 224 284 356 430
#
# _framework density 23.966898
#
# number of rings (size 3 to 8) (size 9 to 14) (size 15 to 20)
#    0.000    1.750    0.000    3.000    0.000    8.500 
#   29.250    0.000    0.000    0.000    0.000    0.000 
#    0.000    0.000    0.000    0.000    0.000    0.000 
#
# Total GULP energy -89488.787607 kJ/mol
# GULP energy per Si atom -5593.049225 kJ/mol
# Density = 2.391235 g / cm^3
# Si number density = 23.966898 Si / 1000 Ang^3
#
#
#
# Elastic Constant Matrix: (Units=GPa)
#
#
# Indices 1 2 3 4 5 6 
#
# 1 98.1358 29.7320 34.7610 11.9465 3.1934 -15.4403
# 2 29.7320 140.3540 49.7115 -0.7824 4.3624 -19.4048
# 3 34.7610 49.7115 140.4617 4.9398 -0.2451 -19.7391
# 4 11.9465 -0.7824 4.9398 36.4284 -10.6777 11.6552
# 5 3.1934 4.3624 -0.2451 -10.6777 45.6440 -6.4087
# 6 -15.4403 -19.4048 -19.7391 11.6552 -6.4087 30.6581
#
#
#
# Elastic Compliance Matrix: (Units=1/GPa)
#
#
# Indices 1 2 3 4 5 6 
#
# 1 0.013111 -0.001233 -0.001574 -0.006795 -0.001401 0.007100
# 2 -0.001233 0.008677 -0.002270 -0.000307 -0.000342 0.003455
# 3 -0.001574 -0.002270 0.009010 -0.002024 0.000527 0.004451
# 4 -0.006795 -0.000307 -0.002024 0.037637 0.006798 -0.017807
# 5 -0.001401 -0.000342 0.000527 0.006798 0.023889 0.001827
# 6 0.007100 0.003455 0.004451 -0.017807 0.001827 0.048397
#
#
# Mechanical properties :
#
#
# Convention : Reuss Voigt Hill
#
# Bulk Modulus (GPa) = 48.44097 67.48451 57.96274
# Shear Modulus (GPa) = 31.69470 40.19591 35.94530
#
# Velocity S-wave (km/s) = 3.64048 4.09974 3.87691
# Velocity P-wave (km/s) = 6.15843 7.11540 6.65414
#
# Compressibility (1/GPa) = 0.02064368
#
# Stress axis : x y z
#
# Youngs Moduli (GPa) = 76.27347 115.25378 110.98862
#
# Poissons Ratio (x) = 0.14206 0.17471
# Poissons Ratio (y) = 0.09401 0.25195
# Poissons Ratio (z) = 0.12007 0.26163
#
# Static dielectric constant tensor:
#      x y z
#    x 2.010710 0.084820 -0.018560 
#    y 0.084820 1.921440 -0.019400 
#    z -0.018560 -0.019400 1.909980 
# 
# From -- ./inp_files/13261.got.cif
#   From: 2010.05.17/outbox.cif.g08.bks.cpg/sg2_7_cif.got.tgz:13261.got - 2010.06.03 11:33:40.
