data_PCOD9099436
_publ_section_title
;
Structure prediction by ZEFSAII (Michael W. Deem and Ramdas Pophale) SiO2 
 PCOD9099436
Probable space group: P -1
;
_chemical_formula_sum "Si O2"
_cell_formula_units_Z 10
_cell_length_a 9.402305
_cell_length_b 14.925965
_cell_length_c 13.915733
_cell_angle_alpha 149.330626
_cell_angle_beta 150.506493
_cell_angle_gamma 28.881388
_cell_volume 423.138518
_symmetry_space_group_name_H-M "P -1"
_symmetry_group_IT_number 2
_symmetry_cell_setting 'triclinic'
loop_
_space_group_symop_operation_xyz
x,y,z
-x,-y,-z
loop_
_atom_site_type_symbol
_atom_site_label
_atom_site_fract_x
_atom_site_fract_y
_atom_site_fract_z
Si Si1 0.058097 0.378297 0.215266
Si Si2 0.266461 0.957411 0.751486
Si Si3 0.161350 0.591913 0.109536
Si Si4 0.709409 0.226200 0.014837
Si Si5 0.209867 0.174763 0.553998
O O1 0.452340 0.220848 0.313350
O O2 0.951093 0.607306 0.391280
O O3 0.961987 0.391718 0.058571
O O4 0.843848 0.300159 0.073541
O O5 0.067259 0.876938 0.623064
O O6 0.994796 0.169439 0.738270
O O7 0.500000 0.000000 0.000000
O O8 0.552858 0.416557 0.172130
O O9 0.000000 0.500000 0.000000
O O10 0.403062 0.193613 0.776719
O O11 0.000000 0.000000 0.000000
O O12 0.500000 0.000000 0.500000
#
# Coordination Sequence:
#
# PCOD9099436 Si02
#       5
#     2   2   2   2   2
#     4  10  21  40  63  90 123 160 201 253 306 361
#     4  10  20  37  60  89 120 157 198 248 301 356
#     4  10  20  37  62  90 121 159 201 250 303 358
#     4  11  23  42  63  91 125 162 203 252 303 362
#     4  11  21  38  64  92 121 162 205 249 303 363
#
# _framework density 23.632923000000002
#
# number of rings (size 3 to 8) (size 9 to 14) (size 15 to 20)
#    0.000    1.600    0.000    7.800    0.000    1.600 
#    0.000   17.000    0.000    0.000    0.000    0.000 
#    0.000    0.000    0.000    0.000    0.000    0.000 
#
# Total GULP energy -55862.984140 kJ/mol
# GULP energy per Si atom -5586.298414 kJ/mol
# Density = 2.357913 g / cm^3
# Si number density = 23.632923 Si / 1000 Ang^3
#
#
#
# Elastic Constant Matrix: (Units=GPa)
#
#
# Indices 1 2 3 4 5 6 
#
# 1 127.2126 39.0206 31.1177 9.3712 42.8005 -2.4135
# 2 39.0206 227.4559 49.5637 41.6569 3.4051 -26.2046
# 3 31.1177 49.5637 107.6278 -4.1874 37.2101 5.2190
# 4 9.3712 41.6569 -4.1874 49.2599 3.8783 1.0483
# 5 42.8005 3.4051 37.2101 3.8783 42.9734 6.4503
# 6 -2.4135 -26.2046 5.2190 1.0483 6.4503 52.0327
#
#
#
# Elastic Compliance Matrix: (Units=1/GPa)
#
#
# Indices 1 2 3 4 5 6 
#
# 1 0.013214 -0.002819 0.002922 0.001338 -0.015711 0.000821
# 2 -0.002819 0.007732 -0.005698 -0.007133 0.007235 0.003582
# 3 0.002922 -0.005698 0.017727 0.007246 -0.018100 -0.002415
# 4 0.001338 -0.007133 0.007246 0.027479 -0.008966 -0.003699
# 5 -0.015711 0.007235 -0.018100 -0.008966 0.055115 -0.001921
# 6 0.000821 0.003582 -0.002415 -0.003699 -0.001921 0.021616
#
#
# Mechanical properties :
#
#
# Convention : Reuss Voigt Hill
#
# Bulk Modulus (GPa) = 36.38674 77.96667 57.17670
# Shear Modulus (GPa) = 30.63082 51.69282 41.16182
#
# Velocity S-wave (km/s) = 3.60406 4.68196 4.17791
# Velocity P-wave (km/s) = 5.72267 7.89240 6.89344
#
# Compressibility (1/GPa) = 0.02748254
#
# Stress axis : x y z
#
# Youngs Moduli (GPa) = 75.67876 129.32570 56.40981
#
# Poissons Ratio (x) = 0.36453 -0.16481
# Poissons Ratio (y) = 0.21331 0.32145
# Poissons Ratio (z) = -0.22110 0.73696
#
# Static dielectric constant tensor:
#      x y z
#    x 1.871660 -0.045960 -0.122010 
#    y -0.045960 2.012040 0.046080 
#    z -0.122010 0.046080 1.962460 
# 
# From -- ./inp_files/144026.got.cif
#   From: 2010.05.17/outbox.cif.g08.bks.cpg/sg2_73_cif.got.tgz:144026.got - 2010.06.03 11:33:40.
