data_PCOD9099830
_publ_section_title
;
Structure prediction by ZEFSAII (Michael W. Deem and Ramdas Pophale) SiO2 
 PCOD9099830
Probable space group: P -1
;
_chemical_formula_sum "Si O2"
_cell_formula_units_Z 16
_cell_length_a 8.969061
_cell_length_b 15.565150
_cell_length_c 11.003125
_cell_angle_alpha 133.286561
_cell_angle_beta 122.251351
_cell_angle_gamma 93.829581
_cell_volume 672.706202
_symmetry_space_group_name_H-M "P -1"
_symmetry_group_IT_number 2
_symmetry_cell_setting 'triclinic'
loop_
_space_group_symop_operation_xyz
x,y,z
-x,-y,-z
loop_
_atom_site_type_symbol
_atom_site_label
_atom_site_fract_x
_atom_site_fract_y
_atom_site_fract_z
Si Si1 0.888804 0.520559 0.357885
Si Si2 0.505689 0.332678 0.666545
Si Si3 0.370010 0.061885 0.049544
Si Si4 0.028764 0.197239 0.206513
Si Si5 0.637042 0.661975 0.010802
Si Si6 0.822588 0.421292 0.682563
Si Si7 0.884347 0.926876 0.559981
Si Si8 0.088870 0.264167 0.015156
O O1 0.946126 0.680960 0.574500
O O2 0.000000 0.500000 0.500000
O O3 0.967522 0.540308 0.271605
O O4 0.597858 0.369014 0.095620
O O5 0.271899 0.236034 0.379064
O O6 0.723306 0.362741 0.721825
O O7 0.361065 0.215873 0.605814
O O8 0.602285 0.512848 0.901729
O O9 0.582773 0.260530 0.347001
O O10 0.237336 0.977465 0.040373
O O11 0.136316 0.999804 0.808084
O O12 0.500000 0.000000 0.000000
O O13 0.057490 0.243729 0.124936
O O14 0.857541 0.833654 0.339290
O O15 0.665163 0.662064 0.878090
O O16 0.905522 0.596304 0.880330
O O17 0.899508 0.075725 0.701131
#
# Coordination Sequence:
#
# PCOD9099830 Si02
#       8
#     2   2   2   2   2   2   2   2
#     4  11  22  37  64  93 128 162 201 262 309 366
#     4   9  21  38  66  89 120 162 208 263 298 366
#     4  11  23  38  66  96 123 158 205 266 312 360
#     4  10  20  37  61  96 120 156 209 256 315 353
#     4  10  24  41  65  91 123 171 211 246 312 374
#     4  11  22  39  62  98 124 160 210 258 317 355
#     4  11  23  43  64  91 127 166 211 251 308 381
#     4  11  23  39  65  94 123 165 210 259 302 369
#
# _framework density 23.784527000000001
#
# number of rings (size 3 to 8) (size 9 to 14) (size 15 to 20)
#    0.000    1.500    2.500    2.250    3.500    5.000 
#    0.000    1.250    8.250    0.000    0.000    0.000 
#    0.000    0.000    0.000    0.000    0.000    0.000 
#
# Total GULP energy -89209.443876 kJ/mol
# GULP energy per Si atom -5575.590242 kJ/mol
# Density = 2.373039 g / cm^3
# Si number density = 23.784527 Si / 1000 Ang^3
#
#
#
# Elastic Constant Matrix: (Units=GPa)
#
#
# Indices 1 2 3 4 5 6 
#
# 1 156.8048 44.8613 34.5936 1.5196 -12.4554 29.8071
# 2 44.8613 80.7730 39.0942 18.0618 -3.8718 19.4005
# 3 34.5936 39.0942 81.5221 31.2942 -10.4729 -6.6152
# 4 1.5196 18.0618 31.2942 35.2703 -4.3232 -1.6686
# 5 -12.4554 -3.8718 -10.4729 -4.3232 46.7186 3.9375
# 6 29.8071 19.4005 -6.6152 -1.6686 3.9375 37.8313
#
#
#
# Elastic Compliance Matrix: (Units=1/GPa)
#
#
# Indices 1 2 3 4 5 6 
#
# 1 0.009780 -0.001979 -0.005644 0.005523 0.002336 -0.007677
# 2 -0.001979 0.021200 -0.008945 -0.003375 -0.000160 -0.011009
# 3 -0.005644 -0.008945 0.027293 -0.018653 0.001061 0.012873
# 4 0.005523 -0.003375 -0.018653 0.046405 0.001643 -0.004007
# 5 0.002336 -0.000160 0.001061 0.001643 0.022730 -0.003866
# 6 -0.007677 -0.011009 0.012873 -0.004007 -0.003866 0.040604
#
#
# Mechanical properties :
#
#
# Convention : Reuss Voigt Hill
#
# Bulk Modulus (GPa) = 39.78330 61.79978 50.79154
# Shear Modulus (GPa) = 23.86319 37.33409 30.59864
#
# Velocity S-wave (km/s) = 3.17094 3.96622 3.59066
# Velocity P-wave (km/s) = 5.49266 6.85668 6.21222
#
# Compressibility (1/GPa) = 0.02513617
#
# Stress axis : x y z
#
# Youngs Moduli (GPa) = 102.24705 47.16934 36.63997
#
# Poissons Ratio (x) = 0.09336 0.20680
# Poissons Ratio (y) = 0.20238 0.32775
# Poissons Ratio (z) = 0.57709 0.42193
#
# Static dielectric constant tensor:
#      x y z
#    x 1.999630 0.009160 -0.001480 
#    y 0.009160 1.950610 0.018900 
#    z -0.001480 0.018900 1.969890 
# 
# From -- ./inp_files/402382.got.cif
#   From: 2010.05.17/outbox.cif.g08.bks.cpg/sg2_202_cif.got.tgz:402382.got - 2010.06.03 11:33:40.
