data_PCOD9099841
_publ_section_title
;
Structure prediction by ZEFSAII (Michael W. Deem and Ramdas Pophale) SiO2 
 PCOD9099841
Probable space group: P -1
;
_chemical_formula_sum "Si O2"
_cell_formula_units_Z 14
_cell_length_a 12.927357
_cell_length_b 19.640008
_cell_length_c 22.064235
_cell_angle_alpha 162.202668
_cell_angle_beta 158.427800
_cell_angle_gamma 28.273457
_cell_volume 628.983606
_symmetry_space_group_name_H-M "P -1"
_symmetry_group_IT_number 2
_symmetry_cell_setting 'triclinic'
loop_
_space_group_symop_operation_xyz
x,y,z
-x,-y,-z
loop_
_atom_site_type_symbol
_atom_site_label
_atom_site_fract_x
_atom_site_fract_y
_atom_site_fract_z
Si Si1 0.836648 0.377661 0.399829
Si Si2 0.382756 0.456891 0.702297
Si Si3 0.569634 0.024953 0.128844
Si Si4 0.977502 0.612303 0.168227
Si Si5 0.670984 0.029933 0.852633
Si Si6 0.547639 0.650210 0.560526
Si Si7 0.124682 0.955913 0.436837
O O1 0.716835 0.536483 0.416182
O O2 0.558576 0.871707 0.711720
O O3 0.804706 0.506611 0.555633
O O4 0.150810 0.326618 0.506480
O O5 0.715299 0.435086 0.873953
O O6 0.353881 0.713818 0.925789
O O7 0.899147 0.987259 0.288040
O O8 0.487496 0.257331 0.312881
O O9 0.368732 0.837928 0.893065
O O10 0.500000 0.000000 0.000000
O O11 0.264891 0.519464 0.271827
O O12 0.020939 0.738247 0.234489
O O13 0.922088 0.821926 0.359624
O O14 0.466330 0.968393 0.631714
O O15 0.000000 0.000000 0.000000
#
# Coordination Sequence:
#
# PCOD9099841 Si02
#       7
#     2   2   2   2   2   2   2
#     4  11  21  32  53  85 111 137 179 220 269 334
#     4  10  18  31  51  85 119 134 164 220 291 331
#     4  11  22  39  56  72 108 154 191 222 252 305
#     4   8  14  30  53  76 112 134 162 225 282 324
#     4  10  16  31  57  86 113 140 161 222 293 330
#     4  10  20  34  55  83 105 141 180 221 275 323
#     4   8  15  30  52  78 107 139 182 212 264 327
#
# _framework density 22.258132
#
# number of rings (size 3 to 8) (size 9 to 14) (size 15 to 20)
#    0.000    2.286    4.286    1.714    0.000    1.143 
#    0.000    0.000    0.000    8.571    0.000    0.000 
#    0.000    0.000    0.000    0.000    0.000    0.000 
#
# Total GULP energy -78172.984747 kJ/mol
# GULP energy per Si atom -5583.784625 kJ/mol
# Density = 2.220747 g / cm^3
# Si number density = 22.258132 Si / 1000 Ang^3
#
#
#
# Elastic Constant Matrix: (Units=GPa)
#
#
# Indices 1 2 3 4 5 6 
#
# 1 73.5191 33.9577 60.4405 -25.1538 -5.9168 -27.5170
# 2 33.9577 51.3833 38.9973 -10.2284 -0.6775 -15.7241
# 3 60.4405 38.9973 155.0687 -26.4643 -3.2170 -14.2827
# 4 -25.1538 -10.2284 -26.4643 43.4812 -6.7267 7.5073
# 5 -5.9168 -0.6775 -3.2170 -6.7267 48.6603 -0.5329
# 6 -27.5170 -15.7241 -14.2827 7.5073 -0.5329 26.1101
#
#
#
# Elastic Compliance Matrix: (Units=1/GPa)
#
#
# Indices 1 2 3 4 5 6 
#
# 1 0.040122 -0.008615 -0.008642 0.011853 0.006144 0.029086
# 2 -0.008615 0.029937 -0.003804 -0.001683 -0.001035 0.007331
# 3 -0.008642 -0.003804 0.010459 0.001484 -0.000274 -0.006110
# 4 0.011853 -0.001683 0.001484 0.030637 0.005790 0.003599
# 5 0.006144 -0.001035 -0.000274 0.005790 0.022115 0.004489
# 6 0.029086 0.007331 -0.006110 0.003599 0.004489 0.069082
#
#
# Mechanical properties :
#
#
# Convention : Reuss Voigt Hill
#
# Bulk Modulus (GPa) = 26.04562 60.75136 43.39849
# Shear Modulus (GPa) = 19.43457 33.42204 26.42830
#
# Velocity S-wave (km/s) = 2.95811 3.87921 3.44954
# Velocity P-wave (km/s) = 4.83676 6.88604 5.95029
#
# Compressibility (1/GPa) = 0.03839417
#
# Stress axis : x y z
#
# Youngs Moduli (GPa) = 24.92376 33.40331 95.61410
#
# Poissons Ratio (x) = 0.28778 0.82634
# Poissons Ratio (y) = 0.21473 0.36373
# Poissons Ratio (z) = 0.21540 0.12707
#
# Static dielectric constant tensor:
#      x y z
#    x 1.856950 -0.079620 0.009610 
#    y -0.079620 1.958660 0.021190 
#    z 0.009610 0.021190 1.881130 
# 
# From -- ./inp_files/612417.got.cif
#   From: 2010.05.17/outbox.cif.g08.bks.cpg/sg2_307_cif.got.tgz:612417.got - 2010.06.03 11:33:40.
