data_PCOD9099295
_publ_section_title
;
Structure prediction by ZEFSAII (Michael W. Deem and Ramdas Pophale) SiO2 
 PCOD9099295
Probable space group: P -1
;
_chemical_formula_sum "Si O2"
_cell_formula_units_Z 12
_cell_length_a 28.331671
_cell_length_b 14.338243
_cell_length_c 10.027622
_cell_angle_alpha 31.615436
_cell_angle_beta 153.471892
_cell_angle_gamma 164.394165
_cell_volume 487.694468
_symmetry_space_group_name_H-M "P -1"
_symmetry_group_IT_number 2
_symmetry_cell_setting 'triclinic'
loop_
_space_group_symop_operation_xyz
x,y,z
-x,-y,-z
loop_
_atom_site_type_symbol
_atom_site_label
_atom_site_fract_x
_atom_site_fract_y
_atom_site_fract_z
Si Si1 0.455778 0.236940 0.605408
Si Si2 0.184989 0.390698 0.326465
Si Si3 0.085418 0.825063 0.325547
Si Si4 0.808009 0.493421 0.252762
Si Si5 0.424116 0.231134 0.229340
Si Si6 0.013257 0.278529 0.289573
O O1 0.454019 0.321263 0.351508
O O2 0.321859 0.147699 0.485429
O O3 0.322434 0.862355 0.697981
O O4 0.676808 0.480471 0.910457
O O5 0.420874 0.706509 0.490148
O O6 0.140614 0.457460 0.256277
O O7 0.103383 0.081778 0.547167
O O8 0.045718 0.254404 0.017376
O O9 0.000000 0.500000 0.500000
O O10 0.024221 0.807963 0.336950
O O11 0.846093 0.517585 0.473563
O O12 0.500000 0.500000 0.000000
O O13 0.179428 0.864410 0.029822
#
# Coordination Sequence:
#
# PCOD9099295 Si02
#       6
#     2   2   2   2   2   2
#     4  10  20  39  61  81 119 155 189 236 291 338
#     4  10  20  39  61  81 119 155 189 236 291 338
#     4  10  20  37  60  83 115 157 188 230 291 342
#     4  10  22  38  60  87 115 151 196 239 282 339
#     4  10  20  37  60  83 115 157 188 230 291 342
#     4  10  22  38  60  87 115 151 196 239 282 339
#
# _framework density 24.605568999999999
#
# number of rings (size 3 to 8) (size 9 to 14) (size 15 to 20)
#    0.000    2.000    3.333    0.000    0.000    2.667 
#    0.000    1.667    0.000    0.000    0.000    0.000 
#    0.000    0.000    0.000    0.000    0.000    0.000 
#
# Total GULP energy -67172.920142 kJ/mol
# GULP energy per Si atom -5597.743345 kJ/mol
# Density = 2.454957 g / cm^3
# Si number density = 24.605569 Si / 1000 Ang^3
#
#
#
# Elastic Constant Matrix: (Units=GPa)
#
#
# Indices 1 2 3 4 5 6 
#
# 1 101.2835 19.1458 21.8188 9.1950 11.4928 33.2570
# 2 19.1458 82.2315 28.1637 16.1762 12.5084 27.1317
# 3 21.8188 28.1637 114.0673 13.7649 2.1953 19.1522
# 4 9.1950 16.1762 13.7649 45.7787 11.7664 2.3304
# 5 11.4928 12.5084 2.1953 11.7664 44.7797 0.7337
# 6 33.2570 27.1317 19.1522 2.3304 0.7337 39.8912
#
#
#
# Elastic Compliance Matrix: (Units=1/GPa)
#
#
# Indices 1 2 3 4 5 6 
#
# 1 0.014464 0.002070 -0.000824 -0.001817 -0.003561 -0.012899
# 2 0.002070 0.018089 -0.002115 -0.004473 -0.004097 -0.012676
# 3 -0.000824 -0.002115 0.010141 -0.002243 0.000938 -0.002629
# 4 -0.001817 -0.004473 -0.002243 0.025521 -0.004950 0.004234
# 5 -0.003561 -0.004097 0.000938 -0.004950 0.025561 0.005124
# 6 -0.012899 -0.012676 -0.002629 0.004234 0.005124 0.045364
#
#
# Mechanical properties :
#
#
# Convention : Reuss Voigt Hill
#
# Bulk Modulus (GPa) = 24.41737 48.42655 36.42196
# Shear Modulus (GPa) = 32.35611 41.32019 36.83815
#
# Velocity S-wave (km/s) = 3.63022 4.10238 3.87350
# Velocity P-wave (km/s) = 5.24560 6.49332 5.90252
#
# Compressibility (1/GPa) = 0.04095446
#
# Stress axis : x y z
#
# Youngs Moduli (GPa) = 69.13703 55.28234 98.61205
#
# Poissons Ratio (x) = -0.11441 0.08127
# Poissons Ratio (y) = -0.14308 0.20857
# Poissons Ratio (z) = 0.05698 0.11693
#
# Static dielectric constant tensor:
#      x y z
#    x 1.823050 -0.035190 -0.022700 
#    y -0.035190 2.047580 -0.015660 
#    z -0.022700 -0.015660 1.821860 
# 
# From -- ./inp_files/146024.got.cif
#   From: 2010.05.17/outbox.cif.g08.bks.cpg/sg2_74_cif.got.tgz:146024.got - 2010.06.03 11:33:40.
