data_PCOD9099706
_publ_section_title
;
Structure prediction by ZEFSAII (Michael W. Deem and Ramdas Pophale) SiO2 
 PCOD9099706
Probable space group: P -1
;
_chemical_formula_sum "Si O2"
_cell_formula_units_Z 14
_cell_length_a 7.699587
_cell_length_b 14.243690
_cell_length_c 10.314765
_cell_angle_alpha 52.631932
_cell_angle_beta 136.233167
_cell_angle_gamma 141.198484
_cell_volume 487.783246
_symmetry_space_group_name_H-M "P -1"
_symmetry_group_IT_number 2
_symmetry_cell_setting 'triclinic'
loop_
_space_group_symop_operation_xyz
x,y,z
-x,-y,-z
loop_
_atom_site_type_symbol
_atom_site_label
_atom_site_fract_x
_atom_site_fract_y
_atom_site_fract_z
Si Si1 0.207608 0.798455 0.991208
Si Si2 0.665089 0.480582 0.987907
Si Si3 0.164144 0.167477 0.900936
Si Si4 0.117162 0.023885 0.734857
Si Si5 0.441848 0.590247 0.557562
Si Si6 0.801675 0.276641 0.505260
Si Si7 0.124373 0.828692 0.621509
O O1 0.035918 0.624356 0.073965
O O2 0.242786 0.823536 0.832160
O O3 0.006932 0.861450 0.859145
O O4 0.514341 0.896920 0.166188
O O5 0.492818 0.305591 0.028571
O O6 0.565754 0.518422 0.771943
O O7 0.500000 0.500000 0.000000
O O8 0.200952 0.141320 0.794138
O O9 0.941838 0.218985 0.728133
O O10 0.000000 0.000000 0.000000
O O11 0.874819 0.028182 0.513990
O O12 0.082975 0.443180 0.455991
O O13 0.736607 0.692526 0.532632
O O14 0.399120 0.691110 0.543376
O O15 0.701191 0.174603 0.407543
#
# Coordination Sequence:
#
# PCOD9099706 Si02
#       7
#     2   2   2   2   2   2   2
#     4  10  22  39  61  89 122 165 211 254 313 374
#     4  10  21  37  59  89 124 164 210 260 310 372
#     4  10  21  38  60  89 127 165 208 260 314 374
#     4  10  22  39  61  88 124 168 205 256 319 370
#     4   9  19  35  58  87 124 164 203 253 314 368
#     4   9  19  35  58  89 121 163 206 251 313 371
#     4  10  20  37  61  89 123 160 208 258 307 373
#
# _framework density 28.701273
#
# number of rings (size 3 to 8) (size 9 to 14) (size 15 to 20)
#    0.000    2.286    0.000    1.714    0.000    8.571 
#    0.000    0.000    0.000   10.286    0.000    0.000 
#    0.000    0.000    0.000    0.000    0.000    0.000 
#
# Total GULP energy -78226.452289 kJ/mol
# GULP energy per Si atom -5587.603735 kJ/mol
# Density = 2.863595 g / cm^3
# Si number density = 28.701273 Si / 1000 Ang^3
#
#
#
# Elastic Constant Matrix: (Units=GPa)
#
#
# Indices 1 2 3 4 5 6 
#
# 1 118.7977 39.3472 11.0508 -10.7005 -8.1563 -27.4247
# 2 39.3472 212.0221 49.1942 -16.9230 -2.4316 -5.0736
# 3 11.0508 49.1942 146.1921 -29.0668 7.7946 13.3416
# 4 -10.7005 -16.9230 -29.0668 52.8782 -2.0191 -3.3712
# 5 -8.1563 -2.4316 7.7946 -2.0191 44.1996 -9.9426
# 6 -27.4247 -5.0736 13.3416 -3.3712 -9.9426 46.3156
#
#
#
# Elastic Compliance Matrix: (Units=1/GPa)
#
#
# Indices 1 2 3 4 5 6 
#
# 1 0.011228 -0.001494 -0.000874 0.001958 0.003973 0.007732
# 2 -0.001494 0.005435 -0.001655 0.000563 0.000412 0.000317
# 3 -0.000874 -0.001655 0.008646 0.003737 -0.002377 -0.003428
# 4 0.001958 0.000563 0.003737 0.021713 0.001170 0.001976
# 5 0.003973 0.000412 -0.002377 0.001170 0.025812 0.008708
# 6 0.007732 0.000317 -0.003428 0.001976 0.008708 0.029205
#
#
# Mechanical properties :
#
#
# Convention : Reuss Voigt Hill
#
# Bulk Modulus (GPa) = 57.92824 75.13290 66.53057
# Shear Modulus (GPa) = 43.16380 53.84000 48.50190
#
# Velocity S-wave (km/s) = 3.88222 4.33584 4.11528
# Velocity P-wave (km/s) = 6.35000 7.16243 6.76841
#
# Compressibility (1/GPa) = 0.01726274
#
# Stress axis : x y z
#
# Youngs Moduli (GPa) = 89.06464 183.99307 115.66334
#
# Poissons Ratio (x) = 0.27488 0.10110
# Poissons Ratio (y) = 0.13306 0.19141
# Poissons Ratio (z) = 0.07785 0.30448
#
# Static dielectric constant tensor:
#      x y z
#    x 2.291740 0.066290 0.061470 
#    y 0.066290 2.371140 -0.012500 
#    z 0.061470 -0.012500 2.331830 
# 
# From -- ./inp_files/398663.got.cif
#   From: 2010.05.17/outbox.cif.g08.bks.cpg/sg2_200_cif.got.tgz:398663.got - 2010.06.03 11:33:40.
