data_PCOD9099296
_publ_section_title
;
Structure prediction by ZEFSAII (Michael W. Deem and Ramdas Pophale) SiO2 
 PCOD9099296
Probable space group: P -1
;
_chemical_formula_sum "Si O2"
_cell_formula_units_Z 16
_cell_length_a 9.253463
_cell_length_b 9.658331
_cell_length_c 16.688544
_cell_angle_alpha 112.245857
_cell_angle_beta 133.644152
_cell_angle_gamma 42.542909
_cell_volume 703.571747
_symmetry_space_group_name_H-M "P -1"
_symmetry_group_IT_number 2
_symmetry_cell_setting 'triclinic'
loop_
_space_group_symop_operation_xyz
x,y,z
-x,-y,-z
loop_
_atom_site_type_symbol
_atom_site_label
_atom_site_fract_x
_atom_site_fract_y
_atom_site_fract_z
Si Si1 0.653538 0.457139 0.677329
Si Si2 0.661069 0.537522 0.994889
Si Si3 0.986581 0.974576 0.702458
Si Si4 0.862135 0.360627 0.200283
Si Si5 0.514524 0.068277 0.932369
Si Si6 0.044550 0.356552 0.680951
Si Si7 0.995272 0.845077 0.510610
Si Si8 0.336383 0.312628 0.131720
O O1 0.318362 0.617686 0.593622
O O2 0.739459 0.542182 0.791240
O O3 0.742689 0.464812 0.624488
O O4 0.812550 0.217777 0.703408
O O5 0.471405 0.501160 0.884094
O O6 0.779406 0.560549 0.968691
O O7 0.867275 0.380251 0.110664
O O8 0.440239 0.779854 0.000914
O O9 0.978243 0.862304 0.747475
O O10 0.879093 0.944871 0.575539
O O11 0.315911 0.846594 0.781555
O O12 0.947029 0.472622 0.295846
O O13 0.241499 0.222111 0.804349
O O14 0.701924 0.845366 0.910222
O O15 0.500000 0.000000 0.000000
O O16 0.144511 0.202247 0.611522
O O17 0.000000 0.000000 0.500000
#
# Coordination Sequence:
#
# PCOD9099296 Si02
#       8
#     2   2   2   2   2   2   2   2
#     4  11  21  36  62  88 117 146 195 243 287 336
#     4   8  16  33  60  81 114 160 193 232 285 346
#     4  10  20  37  60  83 117 155 186 239 288 341
#     4   9  19  35  58  82 119 157 190 233 291 343
#     4   9  16  32  58  86 112 146 193 235 283 331
#     4  11  20  35  59  88 118 152 190 240 286 344
#     4  11  22  38  63  89 112 149 197 239 293 336
#     4   9  17  33  59  88 114 150 196 237 287 333
#
# _framework density 22.741105999999998
#
# number of rings (size 3 to 8) (size 9 to 14) (size 15 to 20)
#    0.000    2.250    2.500    1.125    0.000    0.500 
#    0.000    6.875   27.500    0.000    0.000    0.000 
#    0.000    0.000    0.000    0.000    0.000    0.000 
#
# Total GULP energy -89261.348737 kJ/mol
# GULP energy per Si atom -5578.834296 kJ/mol
# Density = 2.268935 g / cm^3
# Si number density = 22.741106 Si / 1000 Ang^3
#
#
#
# Elastic Constant Matrix: (Units=GPa)
#
#
# Indices 1 2 3 4 5 6 
#
# 1 65.0412 47.9921 10.3372 5.8896 -16.9579 23.7584
# 2 47.9921 177.5911 35.6367 11.1863 -8.0363 17.5425
# 3 10.3372 35.6367 91.1070 20.3298 -17.5657 6.9433
# 4 5.8896 11.1863 20.3298 36.7607 1.5061 1.4323
# 5 -16.9579 -8.0363 -17.5657 1.5061 30.3004 3.2143
# 6 23.7584 17.5425 6.9433 1.4323 3.2143 37.4473
#
#
#
# Elastic Compliance Matrix: (Units=1/GPa)
#
#
# Indices 1 2 3 4 5 6 
#
# 1 0.034027 -0.006894 0.006624 -0.007155 0.023675 -0.021345
# 2 -0.006894 0.007772 -0.003282 0.000650 -0.003907 0.001652
# 3 0.006624 -0.003282 0.016825 -0.009674 0.013771 -0.006597
# 4 -0.007155 0.000650 -0.009674 0.033758 -0.011728 0.005744
# 5 0.023675 -0.003907 0.013771 -0.011728 0.055914 -0.020094
# 6 -0.021345 0.001652 -0.006597 0.005744 -0.020094 0.042201
#
#
# Mechanical properties :
#
#
# Convention : Reuss Voigt Hill
#
# Bulk Modulus (GPa) = 19.41050 57.96347 38.68698
# Shear Modulus (GPa) = 23.28033 36.88657 30.08345
#
# Velocity S-wave (km/s) = 3.20302 4.03180 3.64107
# Velocity P-wave (km/s) = 4.71520 6.87151 5.89282
#
# Compressibility (1/GPa) = 0.05151851
#
# Stress axis : x y z
#
# Youngs Moduli (GPa) = 29.38881 128.67453 59.43563
#
# Poissons Ratio (x) = 0.88708 -0.39369
# Poissons Ratio (y) = 0.20261 0.19507
# Poissons Ratio (z) = -0.19467 0.42232
#
# Static dielectric constant tensor:
#      x y z
#    x 1.893530 -0.038900 0.061190 
#    y -0.038900 1.846710 -0.021310 
#    z 0.061190 -0.021310 1.954070 
# 
# From -- ./inp_files/557394.got.cif
#   From: 2010.05.17/outbox.cif.g08.bks.cpg/sg2_279_cif.got.tgz:557394.got - 2010.06.03 11:33:40.
