data_PCOD9099651
_publ_section_title
;
Structure prediction by ZEFSAII (Michael W. Deem and Ramdas Pophale) SiO2 
 PCOD9099651
Probable space group: P -1
;
_chemical_formula_sum "Si O2"
_cell_formula_units_Z 12
_cell_length_a 17.243369
_cell_length_b 14.341198
_cell_length_c 5.162804
_cell_angle_alpha 94.606256
_cell_angle_beta 75.934664
_cell_angle_gamma 155.327732
_cell_volume 484.821800
_symmetry_space_group_name_H-M "P -1"
_symmetry_group_IT_number 2
_symmetry_cell_setting 'triclinic'
loop_
_space_group_symop_operation_xyz
x,y,z
-x,-y,-z
loop_
_atom_site_type_symbol
_atom_site_label
_atom_site_fract_x
_atom_site_fract_y
_atom_site_fract_z
Si Si1 0.861812 0.873027 0.334969
Si Si2 0.540121 0.909619 0.680332
Si Si3 0.780824 0.308343 0.199682
Si Si4 0.044531 0.656775 0.442572
Si Si5 0.022685 0.231525 0.208031
Si Si6 0.719049 0.530068 0.442542
O O1 0.685267 0.605621 0.442829
O O2 0.796970 0.596705 0.688840
O O3 0.842283 0.964164 0.360892
O O4 0.098391 0.295705 0.870902
O O5 0.360386 0.784467 0.900779
O O6 0.458657 0.727680 0.576959
O O7 0.648579 0.089188 0.409250
O O8 0.720369 0.087068 0.780208
O O9 0.856705 0.473232 0.365894
O O10 0.000000 0.500000 0.000000
O O11 0.037323 0.726084 0.686292
O O12 0.000000 0.500000 0.500000
O O13 0.000000 0.000000 0.500000
O O14 0.000000 0.000000 0.000000
#
# Coordination Sequence:
#
# PCOD9099651 Si02
#       6
#     2   2   2   2   2   2
#     4   8  16  32  57  87 116 159 205 252 314 370
#     4  10  22  37  58  93 120 162 220 253 315 375
#     4  10  22  40  58  83 130 168 210 260 315 371
#     4  10  22  37  55  90 124 163 209 253 310 377
#     4  10  20  37  61  87 126 166 202 260 319 367
#     4  10  20  37  62  90 122 160 213 260 309 376
#
# _framework density 24.751362
#
# number of rings (size 3 to 8) (size 9 to 14) (size 15 to 20)
#    0.000    2.333    1.667    0.000    4.667    2.000 
#    0.000    0.833    0.000    0.000    0.000   15.167 
#    0.000    0.000    0.000    0.000    0.000    0.000 
#
# Total GULP energy -66857.876058 kJ/mol
# GULP energy per Si atom -5571.489672 kJ/mol
# Density = 2.469503 g / cm^3
# Si number density = 24.751362 Si / 1000 Ang^3
#
#
#
# Elastic Constant Matrix: (Units=GPa)
#
#
# Indices 1 2 3 4 5 6 
#
# 1 87.5127 45.6170 17.9224 -15.9047 9.5425 -34.9235
# 2 45.6170 144.8831 13.0163 -31.2136 7.2934 -28.0637
# 3 17.9224 13.0163 65.5616 1.3801 6.1943 0.8544
# 4 -15.9047 -31.2136 1.3801 53.7748 2.1289 11.8367
# 5 9.5425 7.2934 6.1943 2.1289 33.2441 2.7283
# 6 -34.9235 -28.0637 0.8544 11.8367 2.7283 51.3331
#
#
#
# Elastic Compliance Matrix: (Units=1/GPa)
#
#
# Indices 1 2 3 4 5 6 
#
# 1 0.019279 -0.002780 -0.004420 0.001872 -0.005165 0.011513
# 2 -0.002780 0.009293 -0.001061 0.004145 -0.001500 0.002331
# 3 -0.004420 -0.001061 0.016868 -0.001548 -0.001260 -0.003444
# 4 0.001872 0.004145 -0.001548 0.021996 -0.002454 -0.001376
# 5 -0.005165 -0.001500 -0.001260 -0.002454 0.032734 -0.005487
# 6 0.011513 0.002331 -0.003444 -0.001376 -0.005487 0.029254
#
#
# Mechanical properties :
#
#
# Convention : Reuss Voigt Hill
#
# Bulk Modulus (GPa) = 34.57932 50.11875 42.34904
# Shear Modulus (GPa) = 32.13702 42.43051 37.28376
#
# Velocity S-wave (km/s) = 3.60723 4.14487 3.88536
# Velocity P-wave (km/s) = 5.59915 6.57262 6.10532
#
# Compressibility (1/GPa) = 0.02891902
#
# Stress axis : x y z
#
# Youngs Moduli (GPa) = 51.87026 107.61203 59.28309
#
# Poissons Ratio (x) = 0.29911 0.26202
# Poissons Ratio (y) = 0.14417 0.06290
# Poissons Ratio (z) = 0.22926 0.11418
#
# Static dielectric constant tensor:
#      x y z
#    x 2.093720 0.066590 0.068440 
#    y 0.066590 2.114110 0.103120 
#    z 0.068440 0.103120 2.144690 
# 
# From -- ./inp_files/230177.got.cif
#   From: 2010.05.17/outbox.cif.g08.bks.cpg/sg2_116_cif.got.tgz:230177.got - 2010.06.03 11:33:40.
