data_PCOD9099777
_publ_section_title
;
Structure prediction by ZEFSAII (Michael W. Deem and Ramdas Pophale) SiO2 
 PCOD9099777
Probable space group: P -1
;
_chemical_formula_sum "Si O2"
_cell_formula_units_Z 16
_cell_length_a 17.917515
_cell_length_b 5.012366
_cell_length_c 9.054986
_cell_angle_alpha 51.809932
_cell_angle_beta 98.774763
_cell_angle_gamma 108.684251
_cell_volume 604.344851
_symmetry_space_group_name_H-M "P -1"
_symmetry_group_IT_number 2
_symmetry_cell_setting 'triclinic'
loop_
_space_group_symop_operation_xyz
x,y,z
-x,-y,-z
loop_
_atom_site_type_symbol
_atom_site_label
_atom_site_fract_x
_atom_site_fract_y
_atom_site_fract_z
Si Si1 0.924316 0.721092 0.487050
Si Si2 0.229030 0.212004 0.998988
Si Si3 0.154627 0.840956 0.811914
Si Si4 0.009435 0.351321 0.794596
Si Si5 0.628604 0.953029 0.020027
Si Si6 0.456561 0.985655 0.290216
Si Si7 0.611428 0.866442 0.391425
Si Si8 0.311785 0.219096 0.297756
O O1 0.945444 0.644976 0.350294
O O2 0.925995 0.392159 0.702754
O O3 0.844619 0.834855 0.409945
O O4 0.000000 0.000000 0.500000
O O5 0.200219 0.558585 0.886139
O O6 0.177092 0.974317 0.937310
O O7 0.318285 0.289450 0.936703
O O8 0.241576 0.064330 0.215149
O O9 0.062589 0.638139 0.825365
O O10 0.000000 0.000000 0.000000
O O11 0.621259 0.913717 0.204513
O O12 0.548892 0.896937 0.921784
O O13 0.676415 0.359199 0.850767
O O14 0.545978 0.066148 0.344654
O O15 0.423866 0.558131 0.442527
O O16 0.394114 0.155397 0.288522
O O17 0.690588 0.953503 0.483117
#
# Coordination Sequence:
#
# PCOD9099777 Si02
#       8
#     2   2   2   2   2   2   2   2
#     4   9  20  38  68  96 133 166 200 261 314 369
#     4  11  22  41  67  88 125 183 219 258 323 378
#     4  11  21  41  72  90 131 180 213 257 321 381
#     4  10  21  40  72 104 135 164 210 263 322 375
#     4  10  21  37  63  89 124 167 218 270 321 386
#     4   9  20  36  58  91 131 160 208 272 342 391
#     4  10  20  37  61  92 124 164 216 270 335 388
#     4  10  21  37  62  85 126 168 212 275 320 385
#
# _framework density 26.474948999999999
#
# number of rings (size 3 to 8) (size 9 to 14) (size 15 to 20)
#    0.000    2.000    2.500    0.750    0.000    4.500 
#    0.000    0.000   22.000    0.000    0.000    0.000 
#    0.000    0.000    0.000    0.000    0.000    0.000 
#
# Total GULP energy -89390.615074 kJ/mol
# GULP energy per Si atom -5586.913442 kJ/mol
# Density = 2.641469 g / cm^3
# Si number density = 26.474949 Si / 1000 Ang^3
#
#
#
# Elastic Constant Matrix: (Units=GPa)
#
#
# Indices 1 2 3 4 5 6 
#
# 1 96.2007 42.5209 72.9504 4.7700 49.5198 -8.7722
# 2 42.5209 132.9982 63.2333 15.1794 34.3857 -5.8697
# 3 72.9504 63.2333 248.2572 30.5079 70.6025 1.1981
# 4 4.7700 15.1794 30.5079 36.5950 3.7523 21.3790
# 5 49.5198 34.3857 70.6025 3.7523 55.1944 -4.1221
# 6 -8.7722 -5.8697 1.1981 21.3790 -4.1221 51.6181
#
#
#
# Elastic Compliance Matrix: (Units=1/GPa)
#
#
# Indices 1 2 3 4 5 6 
#
# 1 0.020150 -0.001769 -0.000963 -0.000887 -0.015507 0.002375
# 2 -0.001769 0.009818 -0.000451 -0.004527 -0.003463 0.002425
# 3 -0.000963 -0.000451 0.007337 -0.005837 -0.007738 0.001414
# 4 -0.000887 -0.004527 -0.005837 0.044185 0.006712 -0.018294
# 5 -0.015507 -0.003463 -0.007738 0.006712 0.043468 -0.002158
# 6 0.002375 0.002425 0.001414 -0.018294 -0.002158 0.027424
#
#
# Mechanical properties :
#
#
# Convention : Reuss Voigt Hill
#
# Bulk Modulus (GPa) = 32.32248 92.76281 62.54265
# Shear Modulus (GPa) = 29.57508 48.59826 39.08667
#
# Velocity S-wave (km/s) = 3.34593 4.28908 3.84652
# Velocity P-wave (km/s) = 5.21173 7.72284 6.58804
#
# Compressibility (1/GPa) = 0.03093822
#
# Stress axis : x y z
#
# Youngs Moduli (GPa) = 49.62851 101.85170 136.29648
#
# Poissons Ratio (x) = 0.18018 0.13123
# Poissons Ratio (y) = 0.08780 0.06153
# Poissons Ratio (z) = 0.04778 0.04598
#
# Static dielectric constant tensor:
#      x y z
#    x 2.133730 0.029920 -0.074900 
#    y 0.029920 2.374330 -0.249100 
#    z -0.074900 -0.249100 2.378460 
# 
# From -- ./inp_files/340044.got.cif
#   From: 2010.05.17/outbox.cif.g08.bks.cpg/sg2_171_cif.got.tgz:340044.got - 2010.06.03 11:33:40.
