data_PCOD9099780
_publ_section_title
;
Structure prediction by ZEFSAII (Michael W. Deem and Ramdas Pophale) SiO2 
 PCOD9099780
Probable space group: P -1
;
_chemical_formula_sum "Si O2"
_cell_formula_units_Z 14
_cell_length_a 7.595365
_cell_length_b 9.645278
_cell_length_c 15.455418
_cell_angle_alpha 54.251967
_cell_angle_beta 72.837749
_cell_angle_gamma 114.468673
_cell_volume 574.275286
_symmetry_space_group_name_H-M "P -1"
_symmetry_group_IT_number 2
_symmetry_cell_setting 'triclinic'
loop_
_space_group_symop_operation_xyz
x,y,z
-x,-y,-z
loop_
_atom_site_type_symbol
_atom_site_label
_atom_site_fract_x
_atom_site_fract_y
_atom_site_fract_z
Si Si1 0.314280 0.895809 0.309219
Si Si2 0.667131 0.081677 0.356101
Si Si3 0.718618 0.896665 0.055729
Si Si4 0.115815 0.684996 0.016167
Si Si5 0.910307 0.812953 0.655102
Si Si6 0.345649 0.398425 0.967787
Si Si7 0.173455 0.470971 0.377696
O O1 0.194712 0.677392 0.336185
O O2 0.026865 0.771423 0.437808
O O3 0.446357 0.904581 0.374390
O O4 0.598152 0.176309 0.124366
O O5 0.887346 0.385588 0.186377
O O6 0.867254 0.057427 0.348897
O O7 0.500000 0.000000 0.500000
O O8 0.666225 0.800114 0.000415
O O9 0.501809 0.665336 0.242221
O O10 0.768600 0.128478 0.986162
O O11 0.000000 0.000000 0.000000
O O12 0.940016 0.696810 0.975830
O O13 0.598687 0.654266 0.781214
O O14 0.918660 0.634506 0.668776
O O15 0.000000 0.000000 0.500000
O O16 0.500000 0.500000 0.000000
#
# Coordination Sequence:
#
# PCOD9099780 Si02
#       7
#     2   2   2   2   2   2   2
#     4  10  20  38  64  91 129 158 203 257 309 372
#     4  12  23  39  61  92 126 161 210 259 315 366
#     4   8  17  36  62  90 128 165 206 250 308 372
#     4  10  21  39  63  92 122 169 208 253 310 367
#     4  11  23  42  61  86 122 165 208 254 314 373
#     4  10  20  37  61  92 125 157 206 256 304 365
#     4   9  19  38  63  90 124 165 201 254 311 365
#
# _framework density 24.378553
#
# number of rings (size 3 to 8) (size 9 to 14) (size 15 to 20)
#    0.000    2.000    1.429    2.143    0.000    0.000 
#    0.000   10.000    0.000    0.000    0.000    0.000 
#    0.000    0.000    0.000    0.000    0.000    0.000 
#
# Total GULP energy -77946.369922 kJ/mol
# GULP energy per Si atom -5567.597852 kJ/mol
# Density = 2.432307 g / cm^3
# Si number density = 24.378553 Si / 1000 Ang^3
#
#
#
# Elastic Constant Matrix: (Units=GPa)
#
#
# Indices 1 2 3 4 5 6 
#
# 1 90.0262 21.6445 41.1816 1.1509 -11.9871 12.3764
# 2 21.6445 140.5203 29.1556 4.3044 9.2840 -0.4567
# 3 41.1816 29.1556 149.2046 -6.7963 -37.4936 -5.3244
# 4 1.1509 4.3044 -6.7963 37.3280 -1.2829 -5.7253
# 5 -11.9871 9.2840 -37.4936 -1.2829 46.4457 2.0367
# 6 12.3764 -0.4567 -5.3244 -5.7253 2.0367 27.6999
#
#
#
# Elastic Compliance Matrix: (Units=1/GPa)
#
#
# Indices 1 2 3 4 5 6 
#
# 1 0.014438 -0.001494 -0.003741 -0.002094 0.001286 -0.007722
# 2 -0.001494 0.008093 -0.002175 -0.001356 -0.003813 0.000383
# 3 -0.003741 -0.002175 0.010387 0.003092 0.007778 0.003699
# 4 -0.002094 -0.001356 0.003092 0.028779 0.002703 0.007257
# 5 0.001286 -0.003813 0.007778 0.002703 0.029009 -0.000717
# 6 -0.007722 0.000383 0.003699 0.007257 -0.000717 0.041822
#
#
# Mechanical properties :
#
#
# Convention : Reuss Voigt Hill
#
# Bulk Modulus (GPa) = 55.25642 62.63493 58.94568
# Shear Modulus (GPa) = 32.59874 41.47936 37.03905
#
# Velocity S-wave (km/s) = 3.66073 4.12936 3.90209
# Velocity P-wave (km/s) = 6.37049 6.96304 6.67334
#
# Compressibility (1/GPa) = 0.01809744
#
# Stress axis : x y z
#
# Youngs Moduli (GPa) = 69.26281 123.57019 96.27277
#
# Poissons Ratio (x) = 0.18456 0.36015
# Poissons Ratio (y) = 0.10345 0.20944
# Poissons Ratio (z) = 0.25911 0.26883
#
# Static dielectric constant tensor:
#      x y z
#    x 1.975070 -0.069020 0.001120 
#    y -0.069020 2.187830 0.003420 
#    z 0.001120 0.003420 2.029740 
# 
# From -- ./inp_files/298992.got.cif
#   From: 2010.05.17/outbox.cif.g08.bks.cpg/sg2_150_cif.got.tgz:298992.got - 2010.06.03 11:33:40.
