data_PCOD9099755
_publ_section_title
;
Structure prediction by ZEFSAII (Michael W. Deem and Ramdas Pophale) SiO2 
 PCOD9099755
Probable space group: P -1
;
_chemical_formula_sum "Si O2"
_cell_formula_units_Z 16
_cell_length_a 15.319788
_cell_length_b 8.764720
_cell_length_c 7.423103
_cell_angle_alpha 84.164693
_cell_angle_beta 141.276380
_cell_angle_gamma 94.001698
_cell_volume 620.213255
_symmetry_space_group_name_H-M "P -1"
_symmetry_group_IT_number 2
_symmetry_cell_setting 'triclinic'
loop_
_space_group_symop_operation_xyz
x,y,z
-x,-y,-z
loop_
_atom_site_type_symbol
_atom_site_label
_atom_site_fract_x
_atom_site_fract_y
_atom_site_fract_z
Si Si1 0.379233 0.376731 0.828155
Si Si2 0.958902 0.882312 0.676592
Si Si3 0.591393 0.153801 0.288445
Si Si4 0.053656 0.669369 0.531226
Si Si5 0.745050 0.954405 0.833682
Si Si6 0.166004 0.601511 0.367750
Si Si7 0.181265 0.320725 0.216410
Si Si8 0.282952 0.889407 0.869468
O O1 0.239306 0.474135 0.634590
O O2 0.333958 0.323836 0.563485
O O3 0.500000 0.500000 0.000000
O O4 0.442743 0.239544 0.065028
O O5 0.907946 0.779546 0.772043
O O6 0.974941 0.783630 0.530695
O O7 0.843362 0.012023 0.436461
O O8 0.105494 0.959793 0.948233
O O9 0.716668 0.276682 0.506065
O O10 0.602241 0.122844 0.096656
O O11 0.643143 0.012374 0.505603
O O12 0.050307 0.678267 0.303282
O O13 0.213166 0.725315 0.818432
O O14 0.000000 0.500000 0.500000
O O15 0.781721 0.774927 0.891290
O O16 0.680458 0.021996 0.903180
O O17 0.136800 0.500745 0.154108
#
# Coordination Sequence:
#
# PCOD9099755 Si02
#       8
#     2   2   2   2   2   2   2   2
#     4   8  17  36  63  81 114 151 193 244 288 337
#     4  11  21  39  56  84 126 156 184 237 294 345
#     4  10  19  38  64  82 114 153 192 240 293 328
#     4  10  16  31  57  80 110 146 195 233 271 339
#     4  11  22  36  58  88 123 148 193 237 283 354
#     4   8  18  34  57  86 107 152 193 232 288 341
#     4  10  19  35  62  85 111 160 195 227 296 347
#     4  10  23  38  56  85 119 159 188 232 297 342
#
# _framework density 25.797574999999998
#
# number of rings (size 3 to 8) (size 9 to 14) (size 15 to 20)
#    0.750    1.500    2.500    1.875    0.000    0.500 
#    0.000    6.250    0.000   18.750    0.000    0.000 
#    0.000    0.000    0.000    0.000    0.000    0.000 
#
# Total GULP energy -89322.785546 kJ/mol
# GULP energy per Si atom -5582.674097 kJ/mol
# Density = 2.573886 g / cm^3
# Si number density = 25.797575 Si / 1000 Ang^3
#
#
#
# Elastic Constant Matrix: (Units=GPa)
#
#
# Indices 1 2 3 4 5 6 
#
# 1 76.9335 42.1083 30.7875 23.8481 -10.2759 -9.7416
# 2 42.1083 128.9511 30.3465 24.4684 -5.2010 -33.6046
# 3 30.7875 30.3465 64.3727 2.7632 -10.1290 -11.5625
# 4 23.8481 24.4684 2.7632 63.3006 -15.3012 0.2834
# 5 -10.2759 -5.2010 -10.1290 -15.3012 33.8695 13.1383
# 6 -9.7416 -33.6046 -11.5625 0.2834 13.1383 50.8614
#
#
#
# Elastic Compliance Matrix: (Units=1/GPa)
#
#
# Indices 1 2 3 4 5 6 
#
# 1 0.019771 -0.003823 -0.007378 -0.005400 0.001017 -0.000649
# 2 -0.003823 0.012603 -0.003293 -0.004663 -0.005537 0.008303
# 3 -0.007378 -0.003293 0.021281 0.004518 0.005764 -0.000265
# 4 -0.005400 -0.004663 0.004518 0.022228 0.011430 -0.006164
# 5 0.001017 -0.005537 0.005764 0.011430 0.040821 -0.012761
# 6 -0.000649 0.008303 -0.000265 -0.006164 -0.012761 0.028293
#
#
# Mechanical properties :
#
#
# Convention : Reuss Voigt Hill
#
# Bulk Modulus (GPa) = 40.54005 52.97132 46.75569
# Shear Modulus (GPa) = 27.44113 40.74063 34.09088
#
# Velocity S-wave (km/s) = 3.26499 3.97828 3.63915
# Velocity P-wave (km/s) = 5.47379 6.45603 5.98509
#
# Compressibility (1/GPa) = 0.02466697
#
# Stress axis : x y z
#
# Youngs Moduli (GPa) = 50.57894 79.34380 46.99032
#
# Poissons Ratio (x) = 0.30336 0.34671
# Poissons Ratio (y) = 0.19338 0.15472
# Poissons Ratio (z) = 0.37319 0.26125
#
# Static dielectric constant tensor:
#      x y z
#    x 2.020180 -0.040530 -0.027720 
#    y -0.040530 2.093580 0.102530 
#    z -0.027720 0.102530 2.369800 
# 
# From -- ./inp_files/326230.got.cif
#   From: 2010.05.17/outbox.cif.g08.bks.cpg/sg2_164_cif.got.tgz:326230.got - 2010.06.03 11:33:40.
