data_PCOD9099164
_publ_section_title
;
Structure prediction by ZEFSAII (Michael W. Deem and Ramdas Pophale) SiO2 
 PCOD9099164
Probable space group: P -1
;
_chemical_formula_sum "Si O2"
_cell_formula_units_Z 12
_cell_length_a 7.456229
_cell_length_b 10.072590
_cell_length_c 19.912833
_cell_angle_alpha 152.658106
_cell_angle_beta 138.507505
_cell_angle_gamma 42.058365
_cell_volume 440.231083
_symmetry_space_group_name_H-M "P -1"
_symmetry_group_IT_number 2
_symmetry_cell_setting 'triclinic'
loop_
_space_group_symop_operation_xyz
x,y,z
-x,-y,-z
loop_
_atom_site_type_symbol
_atom_site_label
_atom_site_fract_x
_atom_site_fract_y
_atom_site_fract_z
Si Si1 0.463806 0.252610 0.503201
Si Si2 0.232185 0.703803 0.910833
Si Si3 0.765988 0.242710 0.709592
Si Si4 0.086958 0.242956 0.286275
Si Si5 0.297680 0.056446 0.694221
Si Si6 0.271896 0.181627 0.964813
O O1 0.391456 0.962548 0.385692
O O2 0.201474 0.412966 0.455165
O O3 0.700364 0.130015 0.458414
O O4 0.573005 0.402095 0.663984
O O5 0.255218 0.408908 0.827760
O O6 0.532494 0.778777 0.024165
O O7 0.134636 0.619614 0.771047
O O8 0.000000 0.000000 0.000000
O O9 0.840743 0.492359 0.888540
O O10 0.044658 0.042873 0.664560
O O11 0.377832 0.083518 0.258450
O O12 0.961242 0.000148 0.180668
O O13 0.500000 0.000000 0.000000
#
# Coordination Sequence:
#
# PCOD9099164 Si02
#       6
#     2   2   2   2   2   2
#     4   9  22  40  62  92 121 162 206 247 302 369
#     4  11  22  38  59  92 127 158 202 257 308 357
#     4  11  20  39  67  88 122 169 196 250 316 352
#     4   9  22  40  60  93 123 156 211 246 302 367
#     4  10  21  39  65  87 125 161 201 251 299 367
#     4  10  20  37  59  87 125 155 201 251 299 358
#
# _framework density 27.258412
#
# number of rings (size 3 to 8) (size 9 to 14) (size 15 to 20)
#    1.000    1.000    1.667    2.500    0.000    6.667 
#    0.000    4.167    0.000    0.000    0.000    0.000 
#    0.000    0.000    0.000    0.000    0.000    0.000 
#
# Total GULP energy -67168.740803 kJ/mol
# GULP energy per Si atom -5597.395067 kJ/mol
# Density = 2.719637 g / cm^3
# Si number density = 27.258412 Si / 1000 Ang^3
#
#
#
# Elastic Constant Matrix: (Units=GPa)
#
#
# Indices 1 2 3 4 5 6 
#
# 1 140.1116 17.1205 28.3938 3.4354 -7.1422 -32.8893
# 2 17.1205 76.2685 25.4055 0.8217 -0.7080 5.7368
# 3 28.3938 25.4055 101.8783 -25.7549 -9.0399 -6.5985
# 4 3.4354 0.8217 -25.7549 54.4491 -1.3752 -0.8284
# 5 -7.1422 -0.7080 -9.0399 -1.3752 37.2838 -5.4065
# 6 -32.8893 5.7368 -6.5985 -0.8284 -5.4065 22.2948
#
#
#
# Elastic Compliance Matrix: (Units=1/GPa)
#
#
# Indices 1 2 3 4 5 6 
#
# 1 0.013179 -0.004200 -0.000955 -0.000759 0.005303 0.021498
# 2 -0.004200 0.016599 -0.004757 -0.002522 -0.003598 -0.012841
# 3 -0.000955 -0.004757 0.013668 0.006776 0.004029 0.005090
# 4 -0.000759 -0.002522 0.006776 0.021770 0.002687 0.002996
# 5 0.005303 -0.003598 0.004029 0.002687 0.031405 0.017657
# 6 0.021498 -0.012841 0.005090 0.002996 0.017657 0.085771
#
#
# Mechanical properties :
#
#
# Convention : Reuss Voigt Hill
#
# Bulk Modulus (GPa) = 42.33265 51.12201 46.72733
# Shear Modulus (GPa) = 23.79927 39.29479 31.54703
#
# Velocity S-wave (km/s) = 2.95803 3.80091 3.40565
# Velocity P-wave (km/s) = 5.21828 6.16911 5.71351
#
# Compressibility (1/GPa) = 0.02362243
#
# Stress axis : x y z
#
# Youngs Moduli (GPa) = 75.87795 60.24568 73.16236
#
# Poissons Ratio (x) = 0.25304 0.06984
# Poissons Ratio (y) = 0.31869 0.34805
# Poissons Ratio (z) = 0.07243 0.28660
#
# Static dielectric constant tensor:
#      x y z
#    x 2.136000 0.019700 -0.027290 
#    y 0.019700 2.142280 -0.075030 
#    z -0.027290 -0.075030 2.138520 
# 
# From -- ./inp_files/150731.got.cif
#   From: 2010.05.17/outbox.cif.g08.bks.cpg/sg2_76_cif.got.tgz:150731.got - 2010.06.03 11:33:40.
