data_PCOD9099351
_publ_section_title
;
Structure prediction by ZEFSAII (Michael W. Deem and Ramdas Pophale) SiO2 
 PCOD9099351
Probable space group: P -1
;
_chemical_formula_sum "Si O2"
_cell_formula_units_Z 14
_cell_length_a 13.911208
_cell_length_b 8.899667
_cell_length_c 8.757373
_cell_angle_alpha 79.758524
_cell_angle_beta 135.097610
_cell_angle_gamma 116.002345
_cell_volume 672.650428
_symmetry_space_group_name_H-M "P -1"
_symmetry_group_IT_number 2
_symmetry_cell_setting 'triclinic'
loop_
_space_group_symop_operation_xyz
x,y,z
-x,-y,-z
loop_
_atom_site_type_symbol
_atom_site_label
_atom_site_fract_x
_atom_site_fract_y
_atom_site_fract_z
Si Si1 0.002365 0.153301 0.739421
Si Si2 0.564119 0.129660 0.409717
Si Si3 0.898114 0.408445 0.758101
Si Si4 0.667606 0.880566 0.436293
Si Si5 0.325567 0.242038 0.191231
Si Si6 0.885795 0.568528 0.421112
Si Si7 0.567035 0.434655 0.949730
O O1 0.963545 0.286966 0.772207
O O2 0.062565 0.246560 0.627614
O O3 0.847216 0.980547 0.585619
O O4 0.145262 0.137896 0.976386
O O5 0.720481 0.286863 0.611653
O O6 0.431337 0.183229 0.219235
O O7 0.500000 0.000000 0.500000
O O8 0.609727 0.026909 0.355316
O O9 0.894918 0.551061 0.614420
O O10 0.000000 0.500000 0.000000
O O11 0.647995 0.788183 0.596695
O O12 0.563394 0.741963 0.223888
O O13 0.376537 0.434208 0.154484
O O14 0.000000 0.500000 0.500000
O O15 0.719797 0.441303 0.192772
O O16 0.500000 0.500000 0.000000
#
# Coordination Sequence:
#
# PCOD9099351 Si02
#       7
#     2   2   2   2   2   2   2
#     4   9  20  38  59  86 118 154 196 244 294 341
#     4   9  20  37  58  90 119 148 196 244 289 341
#     4  10  20  37  60  86 117 155 195 238 292 357
#     4  10  21  40  61  86 120 159 197 241 292 345
#     4  10  20  38  62  88 119 154 199 244 287 349
#     4   9  20  39  57  81 118 154 192 234 290 355
#     4  11  23  39  59  87 120 158 197 241 294 350
#
# _framework density 20.813186000000002
#
# number of rings (size 3 to 8) (size 9 to 14) (size 15 to 20)
#    0.000    2.286    0.000    1.714    0.000    9.143 
#    0.000   21.429    0.000    0.000    0.000    0.000 
#    0.000    0.000    0.000    0.000    0.000    0.000 
#
# Total GULP energy -78130.988229 kJ/mol
# GULP energy per Si atom -5580.784873 kJ/mol
# Density = 2.076581 g / cm^3
# Si number density = 20.813186 Si / 1000 Ang^3
#
#
#
# Elastic Constant Matrix: (Units=GPa)
#
#
# Indices 1 2 3 4 5 6 
#
# 1 75.6448 29.9536 81.4127 19.5040 24.4496 10.6732
# 2 29.9536 52.9205 69.0490 16.8731 -8.1177 9.9922
# 3 81.4127 69.0490 178.7891 17.3206 14.6877 -4.3907
# 4 19.5040 16.8731 17.3206 41.7145 4.7212 4.3910
# 5 24.4496 -8.1177 14.6877 4.7212 44.3805 -12.3567
# 6 10.6732 9.9922 -4.3907 4.3910 -12.3567 29.2982
#
#
#
# Elastic Compliance Matrix: (Units=1/GPa)
#
#
# Indices 1 2 3 4 5 6 
#
# 1 0.056208 0.008969 -0.026420 -0.011488 -0.030065 -0.038453
# 2 0.008969 0.059840 -0.027026 -0.016234 0.010915 -0.020690
# 3 -0.026420 -0.027026 0.027291 0.008661 0.006438 0.024349
# 4 -0.011488 -0.016234 0.008661 0.031863 -0.001312 0.005691
# 5 -0.030065 0.010915 0.006438 -0.001312 0.046951 0.028194
# 6 -0.038453 -0.020690 0.024349 0.005691 0.028194 0.069883
#
#
# Mechanical properties :
#
#
# Convention : Reuss Voigt Hill
#
# Bulk Modulus (GPa) = 18.38774 74.24278 46.31526
# Shear Modulus (GPa) = 12.52760 31.54125 22.03443
#
# Velocity S-wave (km/s) = 2.45604 3.89710 3.25726
# Velocity P-wave (km/s) = 4.11056 7.48320 6.03717
#
# Compressibility (1/GPa) = 0.05438405
#
# Stress axis : x y z
#
# Youngs Moduli (GPa) = 17.79116 16.71136 36.64164
#
# Poissons Ratio (x) = -0.14988 0.96807
# Poissons Ratio (y) = -0.15957 0.99029
# Poissons Ratio (z) = 0.47004 0.45165
#
# Static dielectric constant tensor:
#      x y z
#    x 1.783000 0.012140 0.005490 
#    y 0.012140 1.816920 -0.027260 
#    z 0.005490 -0.027260 1.706280 
# 
# From -- ./inp_files/157454.got.cif
#   From: 2010.05.17/outbox.cif.g08.bks.cpg/sg2_79_cif.got.tgz:157454.got - 2010.06.03 11:33:40.
