data_PCOD9099838
_publ_section_title
;
Structure prediction by ZEFSAII (Michael W. Deem and Ramdas Pophale) SiO2 
 PCOD9099838
Probable space group: P -1
;
_chemical_formula_sum "Si O2"
_cell_formula_units_Z 16
_cell_length_a 8.492078
_cell_length_b 10.453424
_cell_length_c 15.051586
_cell_angle_alpha 131.099165
_cell_angle_beta 45.375935
_cell_angle_gamma 130.419323
_cell_volume 671.856671
_symmetry_space_group_name_H-M "P -1"
_symmetry_group_IT_number 2
_symmetry_cell_setting 'triclinic'
loop_
_space_group_symop_operation_xyz
x,y,z
-x,-y,-z
loop_
_atom_site_type_symbol
_atom_site_label
_atom_site_fract_x
_atom_site_fract_y
_atom_site_fract_z
Si Si1 0.928921 0.499758 0.178486
Si Si2 0.329326 0.589034 0.940520
Si Si3 0.336098 0.121932 0.632375
Si Si4 0.794800 0.045265 0.856707
Si Si5 0.828300 0.799656 0.447475
Si Si6 0.185760 0.173947 0.094016
Si Si7 0.317262 0.059759 0.805264
Si Si8 0.502192 0.194793 0.282018
O O1 0.975510 0.677171 0.300094
O O2 0.761348 0.333073 0.224418
O O3 0.165350 0.481057 0.036636
O O4 0.772998 0.506431 0.155182
O O5 0.260337 0.772333 0.052001
O O6 0.607985 0.648336 0.871557
O O7 0.392880 0.178057 0.740102
O O8 0.049920 0.054378 0.724280
O O9 0.500000 0.000000 0.500000
O O10 0.348413 0.209965 0.570057
O O11 0.774991 0.992314 0.943540
O O12 0.615102 0.881143 0.799354
O O13 0.663418 0.719570 0.560621
O O14 0.000000 0.000000 0.500000
O O15 0.912448 0.123938 0.204087
O O16 0.234390 0.155681 0.963144
O O17 0.501980 0.978229 0.736731
#
# Coordination Sequence:
#
# PCOD9099838 Si02
#       8
#     2   2   2   2   2   2   2   2
#     4  11  25  37  63 103 127 163 215 270 318 367
#     4  11  20  39  64  93 134 166 212 263 313 379
#     4  11  22  39  64  98 125 163 219 267 307 377
#     4  11  20  38  71  94 122 173 220 260 308 380
#     4  12  24  44  69  91 121 169 226 266 312 374
#     4  10  20  37  61  97 129 165 211 259 315 369
#     4  10  22  35  64  98 128 167 208 261 319 378
#     4  12  21  40  66  95 132 162 217 261 315 379
#
# _framework density 23.814603000000002
#
# number of rings (size 3 to 8) (size 9 to 14) (size 15 to 20)
#    0.000    1.000    6.250    1.500    0.000    0.000 
#    0.000    0.625    2.750    2.250    0.000    0.000 
#    0.000    0.000    0.000    0.000    0.000    0.000 
#
# Total GULP energy -89246.199756 kJ/mol
# GULP energy per Si atom -5577.887485 kJ/mol
# Density = 2.376040 g / cm^3
# Si number density = 23.814603 Si / 1000 Ang^3
#
#
#
# Elastic Constant Matrix: (Units=GPa)
#
#
# Indices 1 2 3 4 5 6 
#
# 1 67.5106 15.5157 13.7548 1.4801 11.1778 -2.2229
# 2 15.5157 86.0021 26.7453 -2.2829 8.9374 13.1589
# 3 13.7548 26.7453 116.8796 -3.1348 14.8597 -6.2264
# 4 1.4801 -2.2829 -3.1348 34.4754 2.1256 6.4560
# 5 11.1778 8.9374 14.8597 2.1256 45.5133 -13.9973
# 6 -2.2229 13.1589 -6.2264 6.4560 -13.9973 37.0002
#
#
#
# Elastic Compliance Matrix: (Units=1/GPa)
#
#
# Indices 1 2 3 4 5 6 
#
# 1 0.016091 -0.002443 -0.000952 -0.000899 -0.002892 0.000738
# 2 -0.002443 0.014617 -0.002917 0.002486 -0.003805 -0.007709
# 3 -0.000952 -0.002917 0.009677 0.000495 -0.001811 0.001837
# 4 -0.000899 0.002486 0.000495 0.030998 -0.004304 -0.007891
# 5 -0.002892 -0.003805 -0.001811 -0.004304 0.027976 0.012209
# 6 0.000738 -0.007709 0.001837 -0.007891 0.012209 0.036118
#
#
# Mechanical properties :
#
#
# Convention : Reuss Voigt Hill
#
# Bulk Modulus (GPa) = 36.02366 42.49156 39.25761
# Shear Modulus (GPa) = 31.77565 37.68953 34.73259
#
# Velocity S-wave (km/s) = 3.65676 3.98254 3.82312
# Velocity P-wave (km/s) = 5.74358 6.24731 6.00073
#
# Compressibility (1/GPa) = 0.02775953
#
# Stress axis : x y z
#
# Youngs Moduli (GPa) = 62.14728 68.41545 103.34012
#
# Poissons Ratio (x) = 0.16716 0.09834
# Poissons Ratio (y) = 0.15184 0.30149
# Poissons Ratio (z) = 0.05914 0.19960
#
# Static dielectric constant tensor:
#      x y z
#    x 1.959930 -0.019820 -0.009640 
#    y -0.019820 1.966110 -0.016970 
#    z -0.009640 -0.016970 1.932800 
# 
# From -- ./inp_files/493131.got.cif
#   From: 2010.05.17/outbox.cif.g08.bks.cpg/sg2_247_cif.got.tgz:493131.got - 2010.06.03 11:33:40.
