data_PCOD9099931
_publ_section_title
;
Structure prediction by ZEFSAII (Michael W. Deem and Ramdas Pophale) SiO2 
 PCOD9099931
Probable space group: P -1
;
_chemical_formula_sum "Si O2"
_cell_formula_units_Z 16
_cell_length_a 22.483841
_cell_length_b 19.065390
_cell_length_c 9.633271
_cell_angle_alpha 145.034955
_cell_angle_beta 142.793758
_cell_angle_gamma 18.786018
_cell_volume 757.316988
_symmetry_space_group_name_H-M "P -1"
_symmetry_group_IT_number 2
_symmetry_cell_setting 'triclinic'
loop_
_space_group_symop_operation_xyz
x,y,z
-x,-y,-z
loop_
_atom_site_type_symbol
_atom_site_label
_atom_site_fract_x
_atom_site_fract_y
_atom_site_fract_z
Si Si1 0.778067 0.321053 0.164079
Si Si2 0.861523 0.368710 0.654163
Si Si3 0.139023 0.046043 0.296786
Si Si4 0.580889 0.153802 0.712449
Si Si5 0.611474 0.839166 0.811510
Si Si6 0.788602 0.268478 0.577039
Si Si7 0.513750 0.338911 0.169049
Si Si8 0.745611 0.961899 0.209840
O O1 0.856911 0.256546 0.361174
O O2 0.569090 0.588651 0.204963
O O3 0.916274 0.264394 0.242801
O O4 0.792452 0.165547 0.898290
O O5 0.753284 0.588347 0.727408
O O6 0.775984 0.409817 0.701770
O O7 0.067824 0.197289 0.780806
O O8 0.216469 0.041182 0.564106
O O9 0.222938 0.013922 0.260690
O O10 0.517457 0.092548 0.429442
O O11 0.552103 0.197824 0.894025
O O12 0.707546 0.858497 0.962521
O O13 0.500000 0.000000 0.000000
O O14 0.644928 0.315583 0.335512
O O15 0.698593 0.392070 0.762589
O O16 0.000000 0.000000 0.500000
O O17 0.589166 0.205869 0.238615
#
# Coordination Sequence:
#
# PCOD9099931 Si02
#       8
#     2   2   2   2   2   2   2   2
#     4   9  21  34  59  93 121 155 209 266 319 371
#     4  10  21  40  65  94 122 168 214 272 312 374
#     4  10  20  37  62  87 125 160 210 265 317 374
#     4  11  23  39  60  91 126 167 205 271 312 369
#     4  11  22  41  67  89 123 171 225 267 308 367
#     4  11  23  42  64  95 136 171 203 252 325 395
#     4  11  26  38  65  99 132 168 208 255 329 390
#     4  11  22  41  64  96 123 171 222 258 314 383
#
# _framework density 21.127217000000002
#
# number of rings (size 3 to 8) (size 9 to 14) (size 15 to 20)
#    0.000    1.500    2.500    2.250    5.250    2.500 
#    0.000    0.000    0.000    1.500    0.000    0.000 
#    0.000    0.000    0.000    0.000    0.000    0.000 
#
# Total GULP energy -89283.067771 kJ/mol
# GULP energy per Si atom -5580.191736 kJ/mol
# Density = 2.107913 g / cm^3
# Si number density = 21.127217 Si / 1000 Ang^3
#
#
#
# Elastic Constant Matrix: (Units=GPa)
#
#
# Indices 1 2 3 4 5 6 
#
# 1 98.8086 36.3309 28.3801 -0.6389 10.6039 -28.6818
# 2 36.3309 66.4584 10.1951 1.2937 0.8711 -24.9611
# 3 28.3801 10.1951 106.5123 9.2297 1.5368 -12.0519
# 4 -0.6389 1.2937 9.2297 19.1175 0.5300 -0.3877
# 5 10.6039 0.8711 1.5368 0.5300 30.9095 10.0403
# 6 -28.6818 -24.9611 -12.0519 -0.3877 10.0403 39.4284
#
#
#
# Elastic Compliance Matrix: (Units=1/GPa)
#
#
# Indices 1 2 3 4 5 6 
#
# 1 0.016740 -0.004633 -0.002919 0.002747 -0.008978 0.010665
# 2 -0.004633 0.021790 0.000604 -0.001618 -0.002690 0.011278
# 3 -0.002919 0.000604 0.010733 -0.005292 0.000063 0.001472
# 4 0.002747 -0.001618 -0.005292 0.055117 -0.001685 0.000328
# 5 -0.008978 -0.002690 0.000063 -0.001685 0.041653 -0.018838
# 6 0.010665 0.011278 0.001472 0.000328 -0.018838 0.045510
#
#
# Mechanical properties :
#
#
# Convention : Reuss Voigt Hill
#
# Bulk Modulus (GPa) = 28.27570 46.84349 37.55960
# Shear Modulus (GPa) = 23.01726 31.01597 27.01661
#
# Velocity S-wave (km/s) = 3.30428 3.83568 3.57985
# Velocity P-wave (km/s) = 5.28869 6.46814 5.90792
#
# Compressibility (1/GPa) = 0.03536605
#
# Stress axis : x y z
#
# Youngs Moduli (GPa) = 59.73847 45.89279 93.17416
#
# Poissons Ratio (x) = 0.21264 0.27193
# Poissons Ratio (y) = 0.27680 -0.05627
# Poissons Ratio (z) = 0.17435 -0.02772
#
# Static dielectric constant tensor:
#      x y z
#    x 1.815720 0.019480 -0.030230 
#    y 0.019480 1.838070 0.029740 
#    z -0.030230 0.029740 1.803900 
# 
# From -- ./inp_files/348954.got.cif
#   From: 2010.05.17/outbox.cif.g08.bks.cpg/sg2_175_cif.got.tgz:348954.got - 2010.06.03 11:33:40.
