data_PCOD9099222
_publ_section_title
;
Structure prediction by ZEFSAII (Michael W. Deem and Ramdas Pophale) SiO2 
 PCOD9099222
Probable space group: P -1
;
_chemical_formula_sum "Si O2"
_cell_formula_units_Z 14
_cell_length_a 11.968784
_cell_length_b 12.179316
_cell_length_c 14.549715
_cell_angle_alpha 35.346732
_cell_angle_beta 28.901585
_cell_angle_gamma 38.941567
_cell_volume 577.421438
_symmetry_space_group_name_H-M "P -1"
_symmetry_group_IT_number 2
_symmetry_cell_setting 'triclinic'
loop_
_space_group_symop_operation_xyz
x,y,z
-x,-y,-z
loop_
_atom_site_type_symbol
_atom_site_label
_atom_site_fract_x
_atom_site_fract_y
_atom_site_fract_z
Si Si1 0.507847 0.946185 0.769699
Si Si2 0.754309 0.976028 0.282432
Si Si3 0.501060 0.502739 0.125022
Si Si4 0.693689 0.387632 0.622043
Si Si5 0.968840 0.022013 0.283965
Si Si6 0.618000 0.830761 0.102662
Si Si7 0.913988 0.406633 0.772325
O O1 0.539648 0.721667 0.931872
O O2 0.744969 0.996481 0.522429
O O3 0.316867 0.971045 0.808498
O O4 0.432626 0.086573 0.814745
O O5 0.902232 0.046975 0.208740
O O6 0.921440 0.762729 0.288146
O O7 0.500000 0.000000 0.500000
O O8 0.729390 0.363962 0.010126
O O9 0.456999 0.484857 0.275746
O O10 0.272220 0.476656 0.249086
O O11 0.514901 0.340068 0.707650
O O12 0.906160 0.488977 0.375438
O O13 0.838479 0.183927 0.701716
O O14 0.101888 0.190793 0.101555
O O15 0.500000 0.000000 0.000000
#
# Coordination Sequence:
#
# PCOD9099222 Si02
#       7
#     2   2   2   2   2   2   2
#     4  11  21  39  62  93 120 158 206 253 301 359
#     4  10  23  40  65  90 123 165 199 248 317 364
#     4  11  22  35  63  93 118 160 202 252 311 352
#     4  11  21  38  60  89 127 156 203 256 300 352
#     4  10  20  37  59  90 124 155 201 253 297 358
#     4  10  21  36  60  92 121 160 207 247 300 356
#     4  11  23  39  60  90 126 159 199 256 307 362
#
# _framework density 24.245725
#
# number of rings (size 3 to 8) (size 9 to 14) (size 15 to 20)
#    0.000    1.429    5.714    0.429    0.000    6.857 
#    0.000    2.143    0.000    4.286    0.000    0.000 
#    0.000    0.000    0.000    0.000    0.000    0.000 
#
# Total GULP energy -78210.441539 kJ/mol
# GULP energy per Si atom -5586.460110 kJ/mol
# Density = 2.419054 g / cm^3
# Si number density = 24.245725 Si / 1000 Ang^3
#
#
#
# Elastic Constant Matrix: (Units=GPa)
#
#
# Indices 1 2 3 4 5 6 
#
# 1 101.9880 10.7868 55.4453 -8.9759 -22.3184 20.8628
# 2 10.7868 35.9461 32.0274 17.5528 -5.8030 6.9551
# 3 55.4453 32.0274 147.3136 12.9469 -33.0090 17.8578
# 4 -8.9759 17.5528 12.9469 26.3158 16.2387 -3.9960
# 5 -22.3184 -5.8030 -33.0090 16.2387 54.8343 -6.4376
# 6 20.8628 6.9551 17.8578 -3.9960 -6.4376 35.6225
#
#
#
# Elastic Compliance Matrix: (Units=1/GPa)
#
#
# Indices 1 2 3 4 5 6 
#
# 1 0.014636 -0.004283 -0.005315 0.010663 -0.001337 -0.004116
# 2 -0.004283 0.063948 -0.001302 -0.057582 0.019861 -0.012195
# 3 -0.005315 -0.001302 0.012491 -0.012884 0.008709 -0.002766
# 4 0.010663 -0.057582 -0.012884 0.114512 -0.041447 0.016812
# 5 -0.001337 0.019861 0.008709 -0.041447 0.036667 -0.005484
# 6 -0.004116 -0.012195 -0.002766 0.016812 -0.005484 0.035146
#
#
# Mechanical properties :
#
#
# Convention : Reuss Voigt Hill
#
# Bulk Modulus (GPa) = 14.43517 53.52964 33.98240
# Shear Modulus (GPa) = 15.51402 35.82041 25.66721
#
# Velocity S-wave (km/s) = 2.53230 3.84785 3.25719
# Velocity P-wave (km/s) = 3.81008 6.47049 5.30961
#
# Compressibility (1/GPa) = 0.06927525
#
# Stress axis : x y z
#
# Youngs Moduli (GPa) = 68.32699 15.63776 80.05916
#
# Poissons Ratio (x) = 0.06697 0.42553
# Poissons Ratio (y) = 0.29262 0.10421
# Poissons Ratio (z) = 0.36317 0.02035
#
# Static dielectric constant tensor:
#      x y z
#    x 1.875910 -0.056840 -0.004250 
#    y -0.056840 2.070380 -0.076200 
#    z -0.004250 -0.076200 2.014150 
# 
# From -- ./inp_files/517642.got.cif
#   From: 2010.05.17/outbox.cif.g08.bks.cpg/sg2_259_cif.got.tgz:517642.got - 2010.06.03 11:33:40.
