data_PCOD9099894
_publ_section_title
;
Structure prediction by ZEFSAII (Michael W. Deem and Ramdas Pophale) SiO2 
 PCOD9099894
Probable space group: P -1
;
_chemical_formula_sum "Si O2"
_cell_formula_units_Z 12
_cell_length_a 11.809160
_cell_length_b 14.347191
_cell_length_c 7.620785
_cell_angle_alpha 114.643319
_cell_angle_beta 118.439522
_cell_angle_gamma 28.900550
_cell_volume 548.707885
_symmetry_space_group_name_H-M "P -1"
_symmetry_group_IT_number 2
_symmetry_cell_setting 'triclinic'
loop_
_space_group_symop_operation_xyz
x,y,z
-x,-y,-z
loop_
_atom_site_type_symbol
_atom_site_label
_atom_site_fract_x
_atom_site_fract_y
_atom_site_fract_z
Si Si1 0.741154 0.675096 0.344435
Si Si2 0.659801 0.512840 0.266697
Si Si3 0.436098 0.134195 0.284508
Si Si4 0.126999 0.820355 0.051273
Si Si5 0.918297 0.444738 0.727312
Si Si6 0.842720 0.855176 0.087146
O O1 0.675327 0.600753 0.216065
O O2 0.559976 0.844909 0.488440
O O3 0.000000 0.500000 0.500000
O O4 0.818005 0.690111 0.246628
O O5 0.375531 0.686749 0.224526
O O6 0.803347 0.450454 0.496612
O O7 0.783925 0.329189 0.133035
O O8 0.255521 0.340128 0.227061
O O9 0.683169 0.981864 0.242196
O O10 0.315882 0.105484 0.133195
O O11 0.942007 0.889904 0.100365
O O12 0.000000 0.000000 0.000000
O O13 0.944834 0.362431 0.858012
#
# Coordination Sequence:
#
# PCOD9099894 Si02
#       6
#     2   2   2   2   2   2
#     4   8  16  36  60  82 111 145 180 223 278 333
#     4   9  21  40  60  81 107 151 193 224 275 335
#     4   9  20  36  57  88 117 143 179 227 284 338
#     4  11  24  40  57  78 112 155 193 228 271 332
#     4  10  20  37  62  86 113 143 182 237 281 328
#     4  11  22  35  57  89 116 144 184 231 283 328
#
# _framework density 21.86956
#
# number of rings (size 3 to 8) (size 9 to 14) (size 15 to 20)
#    0.000    2.667    0.000    3.500    0.000    9.333 
#    0.000    5.833    0.000    1.000    0.000    0.000 
#    0.000    0.000    0.000    0.000    0.000    0.000 
#
# Total GULP energy -67034.127183 kJ/mol
# GULP energy per Si atom -5586.177265 kJ/mol
# Density = 2.181978 g / cm^3
# Si number density = 21.869560 Si / 1000 Ang^3
#
#
#
# Elastic Constant Matrix: (Units=GPa)
#
#
# Indices 1 2 3 4 5 6 
#
# 1 168.7944 55.5948 20.7068 2.0168 11.0417 13.9095
# 2 55.5948 91.6365 20.7965 8.0006 2.9084 7.7855
# 3 20.7068 20.7965 66.1304 5.2314 11.2828 3.9565
# 4 2.0168 8.0006 5.2314 28.5705 -2.9755 -3.2572
# 5 11.0417 2.9084 11.2828 -2.9755 32.6242 -3.1148
# 6 13.9095 7.7855 3.9565 -3.2572 -3.1148 32.4187
#
#
#
# Elastic Compliance Matrix: (Units=1/GPa)
#
#
# Indices 1 2 3 4 5 6 
#
# 1 0.007762 -0.004328 -0.000561 0.000257 -0.002254 -0.002413
# 2 -0.004328 0.014621 -0.003015 -0.003335 0.000752 -0.001550
# 3 -0.000561 -0.003015 0.017677 -0.003234 -0.006151 -0.002109
# 4 0.000257 -0.003335 -0.003234 0.037672 0.005278 0.005378
# 5 -0.002254 0.000752 -0.006151 0.005278 0.034470 0.005380
# 6 -0.002413 -0.001550 -0.002109 0.005378 0.005380 0.033569
#
#
# Mechanical properties :
#
#
# Convention : Reuss Voigt Hill
#
# Bulk Modulus (GPa) = 41.23071 57.86193 49.54632
# Shear Modulus (GPa) = 29.47050 34.02024 31.74537
#
# Velocity S-wave (km/s) = 3.67489 3.94839 3.81409
# Velocity P-wave (km/s) = 6.07457 6.87761 6.48852
#
# Compressibility (1/GPa) = 0.02425377
#
# Stress axis : x y z
#
# Youngs Moduli (GPa) = 128.83681 68.39328 56.57153
#
# Poissons Ratio (x) = 0.29597 0.03172
# Poissons Ratio (y) = 0.55755 0.17055
# Poissons Ratio (z) = 0.07225 0.20619
#
# Static dielectric constant tensor:
#      x y z
#    x 1.813560 0.003540 -0.032700 
#    y 0.003540 1.867980 0.006650 
#    z -0.032700 0.006650 1.823930 
# 
# From -- ./inp_files/161785.got.cif
#   From: 2010.05.17/outbox.cif.g08.bks.cpg/sg2_81_cif.got.tgz:161785.got - 2010.06.03 11:33:40.
