data_PCOD9099011
_publ_section_title
;
Structure prediction by ZEFSAII (Michael W. Deem and Ramdas Pophale) SiO2 
 PCOD9099011
Probable space group: P -1
;
_chemical_formula_sum "Si O2"
_cell_formula_units_Z 16
_cell_length_a 10.560265
_cell_length_b 13.248104
_cell_length_c 7.505647
_cell_angle_alpha 49.252347
_cell_angle_beta 84.221065
_cell_angle_gamma 112.497128
_cell_volume 636.221323
_symmetry_space_group_name_H-M "P -1"
_symmetry_group_IT_number 2
_symmetry_cell_setting 'triclinic'
loop_
_space_group_symop_operation_xyz
x,y,z
-x,-y,-z
loop_
_atom_site_type_symbol
_atom_site_label
_atom_site_fract_x
_atom_site_fract_y
_atom_site_fract_z
Si Si1 0.705356 0.242607 0.779935
Si Si2 0.975750 0.594359 0.655043
Si Si3 0.651223 0.503697 0.432684
Si Si4 0.486213 0.352402 0.277414
Si Si5 0.856155 0.803102 0.511412
Si Si6 0.167574 0.764833 0.798637
Si Si7 0.474659 0.916764 0.390704
Si Si8 0.070707 0.163923 0.122285
O O1 0.888387 0.331754 0.599193
O O2 0.669030 0.374815 0.677874
O O3 0.609679 0.158805 0.703710
O O4 0.630531 0.095290 0.104090
O O5 0.875220 0.666673 0.593351
O O6 0.869500 0.395343 0.906426
O O7 0.073080 0.672584 0.735050
O O8 0.500000 0.500000 0.500000
O O9 0.620382 0.444996 0.300014
O O10 0.809024 0.687166 0.194381
O O11 0.304491 0.239386 0.497962
O O12 0.506395 0.215154 0.364426
O O13 0.500000 0.500000 0.000000
O O14 0.848943 0.805922 0.727924
O O15 0.009793 0.989685 0.245371
O O16 0.342941 0.907231 0.539885
O O17 0.078534 0.833631 0.820499
#
# Coordination Sequence:
#
# PCOD9099011 Si02
#       8
#     2   2   2   2   2   2   2   2
#     4   9  18  35  56  87 120 159 211 251 305 377
#     4   9  16  30  57  84 112 161 210 250 295 372
#     4  11  23  39  65  90 127 167 205 258 325 377
#     4  11  21  40  63  94 128 163 210 260 314 378
#     4  10  21  34  62  91 123 157 208 263 307 361
#     4   9  16  30  57  84 113 156 215 253 294 363
#     4   9  19  32  58  88 119 159 207 261 302 365
#     4  10  20  37  58  93 123 157 206 265 306 365
#
# _framework density 25.148482000000001
#
# number of rings (size 3 to 8) (size 9 to 14) (size 15 to 20)
#    0.000    2.250    2.500    0.750    3.500    6.000 
#    0.000    3.125    2.750    1.500    0.000    0.000 
#    0.000    0.000    0.000    0.000    0.000    0.000 
#
# Total GULP energy -89484.709314 kJ/mol
# GULP energy per Si atom -5592.794332 kJ/mol
# Density = 2.509124 g / cm^3
# Si number density = 25.148482 Si / 1000 Ang^3
#
#
#
# Elastic Constant Matrix: (Units=GPa)
#
#
# Indices 1 2 3 4 5 6 
#
# 1 50.0734 -21.0519 -3.7287 7.0142 -13.1345 -9.5069
# 2 -21.0519 71.0343 27.3861 -7.8426 5.0999 0.3422
# 3 -3.7287 27.3861 113.7924 -3.9184 -7.9339 1.7460
# 4 7.0142 -7.8426 -3.9184 42.3591 9.8449 1.5774
# 5 -13.1345 5.0999 -7.9339 9.8449 48.2614 0.1437
# 6 -9.5069 0.3422 1.7460 1.5774 0.1437 40.0293
#
#
#
# Elastic Compliance Matrix: (Units=1/GPa)
#
#
# Indices 1 2 3 4 5 6 
#
# 1 0.026808 0.007022 -0.000567 -0.005176 0.007497 0.006509
# 2 0.007022 0.018047 -0.004145 0.001987 -0.001088 0.001620
# 3 -0.000567 -0.004145 0.009905 -0.000191 0.001953 -0.000531
# 4 -0.005176 0.001987 -0.000191 0.026539 -0.007057 -0.002258
# 5 0.007497 -0.001088 0.001953 -0.007057 0.024631 0.001894
# 6 0.006509 0.001620 -0.000531 -0.002258 0.001894 0.026619
#
#
# Mechanical properties :
#
#
# Convention : Reuss Voigt Hill
#
# Bulk Modulus (GPa) = 16.84074 26.67900 21.75987
# Shear Modulus (GPa) = 33.84733 41.61627 37.73180
#
# Velocity S-wave (km/s) = 3.67263 4.07236 3.87765
# Velocity P-wave (km/s) = 4.96944 5.72222 5.35907
#
# Compressibility (1/GPa) = 0.05937981
#
# Stress axis : x y z
#
# Youngs Moduli (GPa) = 37.30197 55.41149 100.96201
#
# Poissons Ratio (x) = -0.38912 0.05725
# Poissons Ratio (y) = -0.26195 0.41853
# Poissons Ratio (z) = 0.02115 0.22970
#
# Static dielectric constant tensor:
#      x y z
#    x 1.965830 0.079120 0.026590 
#    y 0.079120 2.104580 0.026850 
#    z 0.026590 0.026850 2.006240 
# 
# From -- ./inp_files/271546.got.cif
#   From: 2010.05.17/outbox.cif.g08.bks.cpg/sg2_136_cif.got.tgz:271546.got - 2010.06.03 11:33:40.
