data_PCOD9099839
_publ_section_title
;
Structure prediction by ZEFSAII (Michael W. Deem and Ramdas Pophale) SiO2 
 PCOD9099839
Probable space group: P -1
;
_chemical_formula_sum "Si O2"
_cell_formula_units_Z 16
_cell_length_a 14.563176
_cell_length_b 13.529785
_cell_length_c 5.407621
_cell_angle_alpha 97.657956
_cell_angle_beta 96.654717
_cell_angle_gamma 39.044718
_cell_volume 665.069467
_symmetry_space_group_name_H-M "P -1"
_symmetry_group_IT_number 2
_symmetry_cell_setting 'triclinic'
loop_
_space_group_symop_operation_xyz
x,y,z
-x,-y,-z
loop_
_atom_site_type_symbol
_atom_site_label
_atom_site_fract_x
_atom_site_fract_y
_atom_site_fract_z
Si Si1 0.907196 0.342385 0.299861
Si Si2 0.915356 0.967226 0.944968
Si Si3 0.469830 0.287349 0.130612
Si Si4 0.235286 0.970051 0.606948
Si Si5 0.076040 0.308387 0.716236
Si Si6 0.453818 0.626640 0.210223
Si Si7 0.713414 0.391645 0.603558
Si Si8 0.212287 0.399778 0.945951
O O1 0.859798 0.305087 0.488171
O O2 0.780501 0.522496 0.240844
O O3 0.965566 0.221387 0.066039
O O4 0.024871 0.324405 0.427563
O O5 0.833221 0.001969 0.673330
O O6 0.822277 0.049491 0.193309
O O7 0.000000 0.000000 0.000000
O O8 0.341254 0.475551 0.192187
O O9 0.589660 0.181482 0.350872
O O10 0.549990 0.267739 0.909031
O O11 0.373423 0.268374 0.069208
O O12 0.178305 0.126790 0.729966
O O13 0.167212 0.331532 0.798677
O O14 0.923925 0.452253 0.870088
O O15 0.586801 0.508113 0.399818
O O16 0.308763 0.699002 0.316068
O O17 0.500000 0.500000 0.000000
#
# Coordination Sequence:
#
# PCOD9099839 Si02
#       8
#     2   2   2   2   2   2   2   2
#     4  11  21  41  71  98 139 175 246 298 344 420
#     4  11  26  48  73 101 141 201 239 283 352 431
#     4  11  23  40  65  98 143 180 230 293 358 425
#     4  11  26  48  69 104 150 187 233 295 355 430
#     4  10  23  43  68  99 134 183 243 297 352 422
#     4   9  20  36  55  88 130 178 220 280 337 418
#     4  10  20  37  61  97 129 179 232 287 352 401
#     4  11  21  41  73  99 131 181 243 299 359 410
#
# _framework density 24.057639999999999
#
# number of rings (size 3 to 8) (size 9 to 14) (size 15 to 20)
#    0.000    1.500    3.750    0.750    1.750    3.500 
#    4.500    0.000    0.000    3.000    0.000    0.000 
#    0.000    0.000    0.000    0.000    0.000    0.000 
#
# Total GULP energy -89206.460670 kJ/mol
# GULP energy per Si atom -5575.403792 kJ/mol
# Density = 2.400288 g / cm^3
# Si number density = 24.057640 Si / 1000 Ang^3
#
#
#
# Elastic Constant Matrix: (Units=GPa)
#
#
# Indices 1 2 3 4 5 6 
#
# 1 140.3401 29.2779 52.6061 -4.1459 29.3023 -4.6192
# 2 29.2779 88.8205 16.5815 2.1196 10.0437 -2.1954
# 3 52.6061 16.5815 92.2132 0.0069 13.3228 -0.1907
# 4 -4.1459 2.1196 0.0069 39.6928 -5.4551 4.8761
# 5 29.3023 10.0437 13.3228 -5.4551 42.1676 7.3485
# 6 -4.6192 -2.1954 -0.1907 4.8761 7.3485 29.8371
#
#
#
# Elastic Compliance Matrix: (Units=1/GPa)
#
#
# Indices 1 2 3 4 5 6 
#
# 1 0.010690 -0.001865 -0.004898 0.000038 -0.005945 0.002944
# 2 -0.001865 0.012296 -0.000895 -0.001241 -0.001726 0.001238
# 3 -0.004898 -0.000895 0.013909 -0.000514 -0.000764 -0.000463
# 4 0.000038 -0.001241 -0.000514 0.026624 0.004858 -0.005636
# 5 -0.005945 -0.001726 -0.000764 0.004858 0.030769 -0.009424
# 6 0.002944 0.001238 -0.000463 -0.005636 -0.009424 0.037301
#
#
# Mechanical properties :
#
#
# Convention : Reuss Voigt Hill
#
# Bulk Modulus (GPa) = 46.34241 57.58945 51.96593
# Shear Modulus (GPa) = 32.44678 37.20006 34.82342
#
# Velocity S-wave (km/s) = 3.67646 3.93655 3.80873
# Velocity P-wave (km/s) = 6.10956 6.68222 6.40229
#
# Compressibility (1/GPa) = 0.02157851
#
# Stress axis : x y z
#
# Youngs Moduli (GPa) = 93.54540 81.32754 71.89577
#
# Poissons Ratio (x) = 0.15170 0.35215
# Poissons Ratio (y) = 0.17449 0.06434
# Poissons Ratio (z) = 0.45819 0.07278
#
# Static dielectric constant tensor:
#      x y z
#    x 1.975740 -0.029560 -0.001140 
#    y -0.029560 2.024370 0.121710 
#    z -0.001140 0.121710 2.311860 
# 
# From -- ./inp_files/98326.got.cif
#   From: 2010.05.17/outbox.cif.g08.bks.cpg/sg2_50_cif.got.tgz:98326.got - 2010.06.03 11:33:40.
