data_PCOD9099071
_publ_section_title
;
Structure prediction by ZEFSAII (Michael W. Deem and Ramdas Pophale) SiO2 
 PCOD9099071
Probable space group: P -1
;
_chemical_formula_sum "Si O2"
_cell_formula_units_Z 16
_cell_length_a 16.386493
_cell_length_b 8.011323
_cell_length_c 6.342875
_cell_angle_alpha 76.294824
_cell_angle_beta 97.808220
_cell_angle_gamma 111.001103
_cell_volume 754.039178
_symmetry_space_group_name_H-M "P -1"
_symmetry_group_IT_number 2
_symmetry_cell_setting 'triclinic'
loop_
_space_group_symop_operation_xyz
x,y,z
-x,-y,-z
loop_
_atom_site_type_symbol
_atom_site_label
_atom_site_fract_x
_atom_site_fract_y
_atom_site_fract_z
Si Si1 0.294984 0.320981 0.795912
Si Si2 0.536700 0.759928 0.120882
Si Si3 0.612997 0.368100 0.603899
Si Si4 0.742154 0.394576 0.018487
Si Si5 0.917878 0.316275 0.019086
Si Si6 0.034582 0.907895 0.231688
Si Si7 0.413172 0.870923 0.719368
Si Si8 0.120985 0.053273 0.621126
O O1 0.377942 0.274103 0.924691
O O2 0.341639 0.467186 0.586977
O O3 0.254518 0.414869 0.932540
O O4 0.216828 0.157303 0.713824
O O5 0.465508 0.611883 0.285745
O O6 0.570868 0.929851 0.242774
O O7 0.480443 0.800527 0.898958
O O8 0.581000 0.184105 0.504286
O O9 0.685241 0.357822 0.797839
O O10 0.833480 0.372108 0.011159
O O11 0.685157 0.245612 0.209092
O O12 0.912440 0.153178 0.232619
O O13 0.926096 0.232186 0.819134
O O14 0.000000 0.500000 0.000000
O O15 0.946206 0.843653 0.359771
O O16 0.108897 0.037622 0.370634
O O17 0.000000 0.000000 0.000000
#
# Coordination Sequence:
#
# PCOD9099071 Si02
#       8
#     2   2   2   2   2   2   2   2
#     4  11  23  37  58  85 118 152 192 238 290 346
#     4  10  20  37  59  84 114 152 195 241 288 343
#     4  10  22  37  57  84 116 153 194 240 289 346
#     4  10  23  39  56  86 120 152 194 240 286 343
#     4  11  23  39  62  88 117 153 194 239 291 348
#     4   9  21  41  64  89 118 150 192 237 288 350
#     4   9  20  39  60  82 114 153 195 241 291 343
#     4  10  22  41  63  88 117 153 193 240 293 346
#
# _framework density 21.219055000000001
#
# number of rings (size 3 to 8) (size 9 to 14) (size 15 to 20)
#    0.000    2.000    0.000    2.250    0.000   14.000 
#    0.000    0.000    0.000    0.000    0.000    0.000 
#    0.000    0.000    0.000    0.000    0.000    0.000 
#
# Total GULP energy -89270.189330 kJ/mol
# GULP energy per Si atom -5579.386833 kJ/mol
# Density = 2.117076 g / cm^3
# Si number density = 21.219055 Si / 1000 Ang^3
#
#
#
# Elastic Constant Matrix: (Units=GPa)
#
#
# Indices 1 2 3 4 5 6 
#
# 1 190.3344 53.3278 24.2110 18.4520 0.0820 -12.0679
# 2 53.3278 80.8900 40.4558 17.9418 -5.5670 5.1420
# 3 24.2110 40.4558 65.7989 30.6443 1.7342 -6.0676
# 4 18.4520 17.9418 30.6443 31.5546 -3.2401 -0.9389
# 5 0.0820 -5.5670 1.7342 -3.2401 20.6398 8.8353
# 6 -12.0679 5.1420 -6.0676 -0.9389 8.8353 30.7150
#
#
#
# Elastic Compliance Matrix: (Units=1/GPa)
#
#
# Indices 1 2 3 4 5 6 
#
# 1 0.007589 -0.007098 0.005011 -0.005699 -0.006152 0.006755
# 2 -0.007098 0.027615 -0.021187 0.010376 0.017921 -0.016435
# 3 0.005011 -0.021187 0.046675 -0.038110 -0.024460 0.020607
# 4 -0.005699 0.010376 -0.038110 0.068080 0.023658 -0.016229
# 5 -0.006152 0.017921 -0.024460 0.023658 0.072024 -0.030244
# 6 0.006755 -0.016435 0.020607 -0.016229 -0.030244 0.050237
#
#
# Mechanical properties :
#
#
# Convention : Reuss Voigt Hill
#
# Bulk Modulus (GPa) = 28.30507 63.66808 45.98658
# Shear Modulus (GPa) = 15.12653 31.18378 23.15516
#
# Velocity S-wave (km/s) = 2.67287 3.83771 3.30698
# Velocity P-wave (km/s) = 4.78477 7.05037 6.02502
#
# Compressibility (1/GPa) = 0.03532935
#
# Stress axis : x y z
#
# Youngs Moduli (GPa) = 131.77719 36.21231 21.42496
#
# Poissons Ratio (x) = 0.25702 -0.10736
# Poissons Ratio (y) = 0.93532 0.45394
# Poissons Ratio (z) = -0.66031 0.76725
#
# Static dielectric constant tensor:
#      x y z
#    x 1.754580 -0.007980 -0.022320 
#    y -0.007980 1.821400 -0.021380 
#    z -0.022320 -0.021380 1.797080 
# 
# From -- ./inp_files/90169.got.cif
#   From: 2010.05.17/outbox.cif.g08.bks.cpg/sg2_46_cif.got.tgz:90169.got - 2010.06.03 11:33:40.
