data_PCOD9099162
_publ_section_title
;
Structure prediction by ZEFSAII (Michael W. Deem and Ramdas Pophale) SiO2 
 PCOD9099162
Probable space group: P -1
;
_chemical_formula_sum "Si O2"
_cell_formula_units_Z 16
_cell_length_a 10.175826
_cell_length_b 14.454428
_cell_length_c 8.925289
_cell_angle_alpha 52.077599
_cell_angle_beta 105.556935
_cell_angle_gamma 129.008880
_cell_volume 789.476129
_symmetry_space_group_name_H-M "P -1"
_symmetry_group_IT_number 2
_symmetry_cell_setting 'triclinic'
loop_
_space_group_symop_operation_xyz
x,y,z
-x,-y,-z
loop_
_atom_site_type_symbol
_atom_site_label
_atom_site_fract_x
_atom_site_fract_y
_atom_site_fract_z
Si Si1 0.464935 0.360454 0.440694
Si Si2 0.602244 0.303575 0.063088
Si Si3 0.709949 0.682892 0.121293
Si Si4 0.501712 0.149168 0.496060
Si Si5 0.455889 0.042807 0.096301
Si Si6 0.792322 0.899583 0.150853
Si Si7 0.205109 0.367386 0.133093
Si Si8 0.897978 0.052738 0.342458
O O1 0.612631 0.533629 0.339418
O O2 0.550547 0.293109 0.455857
O O3 0.359834 0.251426 0.655513
O O4 0.329788 0.351233 0.291953
O O5 0.564125 0.203597 0.294397
O O6 0.606537 0.213812 0.017922
O O7 0.434982 0.298340 0.990161
O O8 0.751104 0.475897 0.968525
O O9 0.847465 0.829383 0.116671
O O10 0.759683 0.646514 0.016590
O O11 0.570426 0.069142 0.674919
O O12 0.294038 0.036782 0.563697
O O13 0.289592 0.035223 0.027823
O O14 0.500000 0.000000 0.000000
O O15 0.892854 0.011037 0.208418
O O16 0.008845 0.226049 0.236762
O O17 0.000000 0.000000 0.500000
#
# Coordination Sequence:
#
# PCOD9099162 Si02
#       8
#     2   2   2   2   2   2   2   2
#     4  10  16  31  54  78 111 137 177 221 277 308
#     4  10  20  35  57  84 103 145 187 223 268 313
#     4  10  18  31  54  83 113 135 178 232 270 314
#     4  11  19  36  57  80 107 144 185 224 260 319
#     4  11  21  36  57  83 106 143 187 235 258 304
#     4  10  21  33  53  83 109 144 180 223 270 318
#     4  11  19  34  55  83 115 141 173 222 275 333
#     4  11  20  34  55  81 115 145 174 215 278 334
#
# _framework density 20.266604000000001
#
# number of rings (size 3 to 8) (size 9 to 14) (size 15 to 20)
#    0.000    1.500    7.500    1.500    0.000    0.500 
#    0.000    0.625    0.000    0.750    0.000    0.000 
#    0.000    0.000    0.000    0.000    0.000    0.000 
#
# Total GULP energy -89220.842055 kJ/mol
# GULP energy per Si atom -5576.302628 kJ/mol
# Density = 2.022048 g / cm^3
# Si number density = 20.266604 Si / 1000 Ang^3
#
#
#
# Elastic Constant Matrix: (Units=GPa)
#
#
# Indices 1 2 3 4 5 6 
#
# 1 28.4768 25.9749 27.3692 -0.5283 6.1393 -9.6114
# 2 25.9749 174.5645 35.4508 -19.7012 10.5945 -23.0429
# 3 27.3692 35.4508 115.4778 -12.6547 24.2696 -1.3868
# 4 -0.5283 -19.7012 -12.6547 21.3951 0.5455 3.0274
# 5 6.1393 10.5945 24.2696 0.5455 25.5592 0.4228
# 6 -9.6114 -23.0429 -1.3868 3.0274 0.4228 31.1098
#
#
#
# Elastic Compliance Matrix: (Units=1/GPa)
#
#
# Indices 1 2 3 4 5 6 
#
# 1 0.057497 -0.005545 -0.013561 -0.013777 0.001421 0.014373
# 2 -0.005545 0.007889 0.000160 0.006784 -0.002293 0.003508
# 3 -0.013561 0.000160 0.015237 0.009708 -0.011416 -0.004181
# 4 -0.013777 0.006784 0.009708 0.059268 -0.009912 -0.004432
# 5 0.001421 -0.002293 -0.011416 -0.009912 0.050810 -0.001494
# 6 0.014373 0.003508 -0.004181 -0.004432 -0.001494 0.039449
#
#
# Mechanical properties :
#
#
# Convention : Reuss Voigt Hill
#
# Bulk Modulus (GPa) = 23.40212 55.12321 39.26267
# Shear Modulus (GPa) = 17.71250 30.92776 24.32013
#
# Velocity S-wave (km/s) = 2.95951 3.91070 3.46787
# Velocity P-wave (km/s) = 4.82188 6.90286 5.95399
#
# Compressibility (1/GPa) = 0.04273116
#
# Stress axis : x y z
#
# Youngs Moduli (GPa) = 17.39220 126.75663 65.62804
#
# Poissons Ratio (x) = 0.70292 0.88996
# Poissons Ratio (y) = 0.09645 -0.01049
# Poissons Ratio (z) = 0.23585 -0.02026
#
# Static dielectric constant tensor:
#      x y z
#    x 1.730680 -0.011630 -0.041020 
#    y -0.011630 1.790250 0.009830 
#    z -0.041020 0.009830 1.747630 
# 
# From -- ./inp_files/261976.got.cif
#   From: 2010.05.17/outbox.cif.g08.bks.cpg/sg2_131_cif.got.tgz:261976.got - 2010.06.03 11:33:40.
