data_PCOD9099951
_publ_section_title
;
Structure prediction by ZEFSAII (Michael W. Deem and Ramdas Pophale) SiO2 
 PCOD9099951
Probable space group: P -1
;
_chemical_formula_sum "Si O2"
_cell_formula_units_Z 15
_cell_length_a 13.487375
_cell_length_b 8.496219
_cell_length_c 18.709561
_cell_angle_alpha 90.420556
_cell_angle_beta 162.858815
_cell_angle_gamma 83.258246
_cell_volume 585.876678
_symmetry_space_group_name_H-M "P -1"
_symmetry_group_IT_number 2
_symmetry_cell_setting 'triclinic'
loop_
_space_group_symop_operation_xyz
x,y,z
-x,-y,-z
loop_
_atom_site_type_symbol
_atom_site_label
_atom_site_fract_x
_atom_site_fract_y
_atom_site_fract_z
Si Si1 0.584371 0.974860 0.877300
Si Si2 0.999795 0.756254 0.723951
Si Si3 0.966618 0.648900 0.082039
Si Si4 0.462272 0.323082 0.717573
Si Si5 0.500000 0.000000 0.500000
Si Si6 0.845233 0.090354 0.301260
Si Si7 0.566274 0.442887 0.185840
Si Si8 0.261280 0.306647 0.232173
O O1 0.572813 0.154925 0.842998
O O2 0.233387 0.960326 0.595436
O O3 0.953597 0.833138 0.099697
O O4 0.473764 0.954898 0.882261
O O5 0.745493 0.698138 0.495648
O O6 0.769249 0.839528 0.635212
O O7 0.122547 0.881262 0.759708
O O8 0.360649 0.598285 0.992783
O O9 0.757042 0.602686 0.001941
O O10 0.723251 0.689713 0.842509
O O11 0.301738 0.475699 0.293078
O O12 0.268467 0.487806 0.633801
O O13 0.840831 0.332434 0.954838
O O14 0.523161 0.869634 0.582905
O O15 0.802978 0.273497 0.307402
#
# Coordination Sequence:
#
# PCOD9099951 Si02
#       8
#     2   2   2   2   1   2   2   2
#     4   9  18  33  58  91 113 160 203 246 297 370
#     4  11  22  37  60  93 118 163 201 249 301 361
#     4   9  18  36  61  83 123 163 197 239 315 357
#     4  10  21  38  63  92 119 160 209 247 305 355
#     4  12  22  38  62  92 122 154 208 248 296 364
#     4   9  19  36  62  86 123 161 200 245 310 356
#     4  10  20  41  62  89 123 157 203 255 300 359
#     4  10  20  37  62  88 119 167 199 250 299 364
#
# _framework density 25.602658000000002
#
# number of rings (size 3 to 8) (size 9 to 14) (size 15 to 20)
#    0.000    2.133    2.667    2.000    0.000    4.267 
#    0.000    1.333   17.600    0.000    0.000    0.000 
#    0.000    0.000    0.000    0.000    0.000    0.000 
#
# Total GULP energy -83579.639126 kJ/mol
# GULP energy per Si atom -5571.975942 kJ/mol
# Density = 2.554439 g / cm^3
# Si number density = 25.602658 Si / 1000 Ang^3
#
#
#
# Elastic Constant Matrix: (Units=GPa)
#
#
# Indices 1 2 3 4 5 6 
#
# 1 127.4675 13.7991 14.1760 3.6952 4.9250 15.5915
# 2 13.7991 67.7053 46.7066 -4.0770 -1.6069 -10.9662
# 3 14.1760 46.7066 82.0969 -5.5117 -10.9093 -15.6287
# 4 3.6952 -4.0770 -5.5117 39.8946 -6.4582 -15.6900
# 5 4.9250 -1.6069 -10.9093 -6.4582 42.0777 -19.0206
# 6 15.5915 -10.9662 -15.6287 -15.6900 -19.0206 49.4008
#
#
#
# Elastic Compliance Matrix: (Units=1/GPa)
#
#
# Indices 1 2 3 4 5 6 
#
# 1 0.010307 -0.001201 -0.004679 -0.007191 -0.008307 -0.010482
# 2 -0.001201 0.024765 -0.013903 0.000788 -0.001957 0.000975
# 3 -0.004679 -0.013903 0.027299 0.012386 0.016890 0.017464
# 4 -0.007191 0.000788 0.012386 0.042846 0.023836 0.029149
# 5 -0.008307 -0.001957 0.016890 0.023836 0.047856 0.033527
# 6 -0.010482 0.000975 0.017464 0.029149 0.033527 0.051459
#
#
# Mechanical properties :
#
#
# Convention : Reuss Voigt Hill
#
# Bulk Modulus (GPa) = 43.85083 47.40369 45.62726
# Shear Modulus (GPa) = 19.86494 39.78052 29.82273
#
# Velocity S-wave (km/s) = 2.78851 3.94606 3.41666
# Velocity P-wave (km/s) = 5.24713 6.27034 5.78142
#
# Compressibility (1/GPa) = 0.02280458
#
# Stress axis : x y z
#
# Youngs Moduli (GPa) = 97.02026 40.37980 36.63133
#
# Poissons Ratio (x) = 0.04850 0.17138
# Poissons Ratio (y) = 0.11654 0.50930
# Poissons Ratio (z) = 0.45392 0.56142
#
# Static dielectric constant tensor:
#      x y z
#    x 1.930570 0.082780 -0.024730 
#    y 0.082780 1.973920 0.138140 
#    z -0.024730 0.138140 1.970820 
# 
# From -- ./inp_files/597175.got.cif
#   From: 2010.05.17/outbox.cif.g08.bks.cpg/sg2_299_cif.got.tgz:597175.got - 2010.06.03 11:33:40.
