data_PCOD9099306
_publ_section_title
;
Structure prediction by ZEFSAII (Michael W. Deem and Ramdas Pophale) SiO2 
 PCOD9099306
Probable space group: P -1
;
_chemical_formula_sum "Si O2"
_cell_formula_units_Z 14
_cell_length_a 7.945072
_cell_length_b 10.574408
_cell_length_c 8.005247
_cell_angle_alpha 107.862212
_cell_angle_beta 73.110661
_cell_angle_gamma 90.548306
_cell_volume 610.185758
_symmetry_space_group_name_H-M "P -1"
_symmetry_group_IT_number 2
_symmetry_cell_setting 'triclinic'
loop_
_space_group_symop_operation_xyz
x,y,z
-x,-y,-z
loop_
_atom_site_type_symbol
_atom_site_label
_atom_site_fract_x
_atom_site_fract_y
_atom_site_fract_z
Si Si1 0.565918 0.942723 0.210377
Si Si2 0.937290 0.413762 0.135168
Si Si3 0.945173 0.920847 0.722526
Si Si4 0.796819 0.150847 0.085212
Si Si5 0.666874 0.584943 0.503703
Si Si6 0.737827 0.873195 0.471188
Si Si7 0.706720 0.725060 0.878399
O O1 0.713830 0.902140 0.293495
O O2 0.385941 0.001955 0.368201
O O3 0.369076 0.933505 0.864204
O O4 0.554867 0.802667 0.062610
O O5 0.797274 0.304277 0.095625
O O6 0.842729 0.504543 0.345506
O O7 0.121592 0.332896 0.095996
O O8 0.000000 0.500000 0.000000
O O9 0.924765 0.884722 0.517296
O O10 0.779486 0.845341 0.803231
O O11 0.107574 0.856175 0.760947
O O12 0.906142 0.066391 0.875669
O O13 0.500000 0.500000 0.500000
O O14 0.662815 0.730417 0.473170
O O15 0.667827 0.615958 0.712205
#
# Coordination Sequence:
#
# PCOD9099306 Si02
#       7
#     2   2   2   2   2   2   2
#     4  10  20  37  60  84 117 148 194 251 292 342
#     4  11  22  39  61  86 122 159 194 236 287 354
#     4   8  17  33  56  81 109 141 189 242 286 337
#     4   9  18  35  57  84 110 148 193 234 286 342
#     4  11  23  39  61  87 120 159 198 235 286 360
#     4  10  21  36  56  88 118 151 190 243 303 338
#     4   9  20  39  60  82 113 156 196 240 295 342
#
# _framework density 22.943833000000001
#
# number of rings (size 3 to 8) (size 9 to 14) (size 15 to 20)
#    0.000    2.286    0.000    3.000    0.000    6.857 
#    0.000   10.000    0.000    2.571    0.000    0.000 
#    0.000    0.000    0.000    0.000    0.000    0.000 
#
# Total GULP energy -77975.543635 kJ/mol
# GULP energy per Si atom -5569.681688 kJ/mol
# Density = 2.289161 g / cm^3
# Si number density = 22.943833 Si / 1000 Ang^3
#
#
#
# Elastic Constant Matrix: (Units=GPa)
#
#
# Indices 1 2 3 4 5 6 
#
# 1 66.3059 24.2607 26.8869 2.2717 14.6539 5.5678
# 2 24.2607 110.9236 40.0481 3.9381 9.1946 9.7256
# 3 26.8869 40.0481 116.5411 28.1500 5.1182 -0.2350
# 4 2.2717 3.9381 28.1500 38.2402 -7.5509 3.1841
# 5 14.6539 9.1946 5.1182 -7.5509 34.3051 0.8837
# 6 5.5678 9.7256 -0.2350 3.1841 0.8837 33.7358
#
#
#
# Elastic Compliance Matrix: (Units=1/GPa)
#
#
# Indices 1 2 3 4 5 6 
#
# 1 0.018965 -0.002137 -0.003465 0.000493 -0.006841 -0.002406
# 2 -0.002137 0.011111 -0.003710 0.001758 -0.001047 -0.003015
# 3 -0.003465 -0.003710 0.013042 -0.009560 -0.001645 0.002678
# 4 0.000493 0.001758 -0.009560 0.035016 0.008560 -0.004184
# 5 -0.006841 -0.001047 -0.001645 0.008560 0.034490 -0.000292
# 6 -0.002406 -0.003015 0.002678 -0.004184 -0.000292 0.031329
#
#
# Mechanical properties :
#
#
# Convention : Reuss Voigt Hill
#
# Bulk Modulus (GPa) = 40.82420 52.90692 46.86556
# Shear Modulus (GPa) = 29.28404 34.76121 32.02262
#
# Velocity S-wave (km/s) = 3.57646 3.89660 3.73995
# Velocity P-wave (km/s) = 5.90648 6.58437 6.25462
#
# Compressibility (1/GPa) = 0.02449528
#
# Stress axis : x y z
#
# Youngs Moduli (GPa) = 52.72762 90.00374 76.67676
#
# Poissons Ratio (x) = 0.19230 0.26567
# Poissons Ratio (y) = 0.11266 0.28446
# Poissons Ratio (z) = 0.18269 0.33390
#
# Static dielectric constant tensor:
#      x y z
#    x 1.964400 -0.022500 0.045180 
#    y -0.022500 1.910050 -0.086940 
#    z 0.045180 -0.086940 2.022570 
# 
# From -- ./inp_files/172740.got.cif
#   From: 2010.05.17/outbox.cif.g08.bks.cpg/sg2_87_cif.got.tgz:172740.got - 2010.06.03 11:33:40.
