data_PCOD9099521
_publ_section_title
;
Structure prediction by ZEFSAII (Michael W. Deem and Ramdas Pophale) SiO2 
 PCOD9099521
Probable space group: P -1
;
_chemical_formula_sum "Si O2"
_cell_formula_units_Z 16
_cell_length_a 19.557555
_cell_length_b 9.038629
_cell_length_c 13.235808
_cell_angle_alpha 109.617047
_cell_angle_beta 143.675877
_cell_angle_gamma 42.944544
_cell_volume 733.684868
_symmetry_space_group_name_H-M "P -1"
_symmetry_group_IT_number 2
_symmetry_cell_setting 'triclinic'
loop_
_space_group_symop_operation_xyz
x,y,z
-x,-y,-z
loop_
_atom_site_type_symbol
_atom_site_label
_atom_site_fract_x
_atom_site_fract_y
_atom_site_fract_z
Si Si1 0.372089 0.854396 0.032774
Si Si2 0.638057 0.712151 0.471867
Si Si3 0.267149 0.375401 0.213175
Si Si4 0.004298 0.506789 0.784820
Si Si5 0.198354 0.756113 0.906474
Si Si6 0.431397 0.484691 0.314961
Si Si7 0.522387 0.162710 0.064832
Si Si8 0.828090 0.961212 0.533779
O O1 0.543786 0.681901 0.284454
O O2 0.255664 0.823933 0.909316
O O3 0.475005 0.766515 0.027390
O O4 0.201080 0.182519 0.915782
O O5 0.733127 0.560968 0.658565
O O6 0.807665 0.618409 0.591080
O O7 0.446423 0.043484 0.342276
O O8 0.328357 0.442095 0.223719
O O9 0.058459 0.531625 0.960886
O O10 0.960917 0.686098 0.690975
O O11 0.967010 0.955588 0.674915
O O12 0.269927 0.735233 0.098294
O O13 0.338837 0.447712 0.975252
O O14 0.500000 0.500000 0.500000
O O15 0.638010 0.219740 0.438180
O O16 0.731162 0.985349 0.326804
O O17 0.500000 0.000000 0.000000
#
# Coordination Sequence:
#
# PCOD9099521 Si02
#       8
#     2   2   2   2   2   2   2   2
#     4  11  25  41  65  97 129 169 210 266 325 380
#     4  10  21  38  63  91 130 164 214 265 319 373
#     4  10  20  37  60  93 125 170 212 264 317 374
#     4  11  21  39  66  94 130 165 219 263 315 386
#     4  11  25  45  64  96 135 166 217 265 320 390
#     4  11  23  41  65  92 134 176 215 259 324 381
#     4  11  25  44  71  95 125 170 219 267 324 380
#     4  11  24  43  67  95 128 172 217 268 316 382
#
# _framework density 21.807728000000001
#
# number of rings (size 3 to 8) (size 9 to 14) (size 15 to 20)
#    0.000    1.250    2.500    3.000    3.500    7.000 
#    2.250    0.000    0.000    0.000    0.000    0.000 
#    0.000    0.000    0.000    0.000    0.000    0.000 
#
# Total GULP energy -89484.613414 kJ/mol
# GULP energy per Si atom -5592.788338 kJ/mol
# Density = 2.175809 g / cm^3
# Si number density = 21.807728 Si / 1000 Ang^3
#
#
#
# Elastic Constant Matrix: (Units=GPa)
#
#
# Indices 1 2 3 4 5 6 
#
# 1 112.0602 10.3906 21.5132 23.5650 9.1278 12.9525
# 2 10.3906 39.8677 27.1368 13.7329 0.4505 -5.7505
# 3 21.5132 27.1368 94.3371 24.4493 8.0008 0.3122
# 4 23.5650 13.7329 24.4493 25.1018 5.3733 -7.0039
# 5 9.1278 0.4505 8.0008 5.3733 39.9150 13.2657
# 6 12.9525 -5.7505 0.3122 -7.0039 13.2657 19.3968
#
#
#
# Elastic Compliance Matrix: (Units=1/GPa)
#
#
# Indices 1 2 3 4 5 6 
#
# 1 0.016584 -0.000912 0.002905 -0.027127 0.008190 -0.026788
# 2 -0.000912 0.034518 -0.007565 -0.008345 -0.000238 0.008113
# 3 0.002905 -0.007565 0.016981 -0.019666 0.003243 -0.013775
# 4 -0.027127 -0.008345 -0.019666 0.118682 -0.032720 0.081189
# 5 0.008190 -0.000238 0.003243 -0.032720 0.042348 -0.046369
# 6 -0.026788 0.008113 -0.013775 0.081189 -0.046369 0.133099
#
#
# Mechanical properties :
#
#
# Convention : Reuss Voigt Hill
#
# Bulk Modulus (GPa) = 17.56267 40.48290 29.02279
# Shear Modulus (GPa) = 12.74416 29.36435 21.05426
#
# Velocity S-wave (km/s) = 2.42003 3.67346 3.11054
# Velocity P-wave (km/s) = 3.98493 6.04949 5.12230
#
# Compressibility (1/GPa) = 0.05693895
#
# Stress axis : x y z
#
# Youngs Moduli (GPa) = 60.29762 28.97080 58.88809
#
# Poissons Ratio (x) = 0.02642 -0.17106
# Poissons Ratio (y) = 0.05498 0.44550
# Poissons Ratio (z) = -0.17516 0.21917
#
# Static dielectric constant tensor:
#      x y z
#    x 1.757780 -0.003840 -0.030790 
#    y -0.003840 1.807170 0.027380 
#    z -0.030790 0.027380 1.810550 
# 
# From -- ./inp_files/46257.got.cif
#   From: 2010.05.17/outbox.cif.g08.bks.cpg/sg2_24_cif.got.tgz:46257.got - 2010.06.03 11:33:40.
