data_PCOD9099209
_publ_section_title
;
Structure prediction by ZEFSAII (Michael W. Deem and Ramdas Pophale) SiO2 
 PCOD9099209
Probable space group: P -1
;
_chemical_formula_sum "Si O2"
_cell_formula_units_Z 16
_cell_length_a 14.837698
_cell_length_b 11.854820
_cell_length_c 12.485139
_cell_angle_alpha 115.118353
_cell_angle_beta 49.596472
_cell_angle_gamma 149.242843
_cell_volume 804.203253
_symmetry_space_group_name_H-M "P -1"
_symmetry_group_IT_number 2
_symmetry_cell_setting 'triclinic'
loop_
_space_group_symop_operation_xyz
x,y,z
-x,-y,-z
loop_
_atom_site_type_symbol
_atom_site_label
_atom_site_fract_x
_atom_site_fract_y
_atom_site_fract_z
Si Si1 0.978917 0.163152 0.051017
Si Si2 0.177929 0.714813 0.869392
Si Si3 0.189459 0.994769 0.637182
Si Si4 0.995205 0.376277 0.530042
Si Si5 0.382423 0.765785 0.537220
Si Si6 0.829027 0.843575 0.857379
Si Si7 0.596895 0.130065 0.863859
Si Si8 0.399866 0.571098 0.003729
O O1 0.910436 0.231361 0.079031
O O2 0.889405 0.086806 0.210815
O O3 0.246716 0.393404 0.949952
O O4 0.870103 0.959062 0.980689
O O5 0.219062 0.664837 0.715853
O O6 0.411455 0.939642 0.840205
O O7 0.000000 0.500000 0.000000
O O8 0.083210 0.804293 0.558122
O O9 0.076055 0.024491 0.701966
O O10 0.444519 0.179391 0.525823
O O11 0.814015 0.246964 0.708690
O O12 0.000000 0.500000 0.500000
O O13 0.237223 0.578833 0.478153
O O14 0.500000 0.000000 0.500000
O O15 0.661614 0.771196 0.881587
O O16 0.698507 0.599249 0.890730
O O17 0.639021 0.316396 0.907697
O O18 0.500000 0.000000 0.000000
#
# Coordination Sequence:
#
# PCOD9099209 Si02
#       8
#     2   2   2   2   2   2   2   2
#     4  11  21  38  60  94 127 162 209 261 307 369
#     4  12  23  40  63  95 126 163 208 258 315 383
#     4  11  22  35  59  89 124 159 206 252 312 363
#     4  12  22  37  59  91 127 161 204 259 317 368
#     4  12  22  38  59  90 127 162 200 260 322 362
#     4  10  22  37  60  92 126 167 212 258 304 363
#     4  12  24  41  64  95 128 164 205 261 321 377
#     4  10  20  37  59  89 126 159 211 254 310 358
#
# _framework density 19.895468000000001
#
# number of rings (size 3 to 8) (size 9 to 14) (size 15 to 20)
#    0.000    0.750    5.000    5.250    0.000    4.000 
#    0.000    0.000    0.000    1.500    3.250    0.000 
#    0.000    0.000    0.000    0.000    0.000    0.000 
#
# Total GULP energy -89294.725217 kJ/mol
# GULP energy per Si atom -5580.920326 kJ/mol
# Density = 1.985019 g / cm^3
# Si number density = 19.895468 Si / 1000 Ang^3
#
#
#
# Elastic Constant Matrix: (Units=GPa)
#
#
# Indices 1 2 3 4 5 6 
#
# 1 78.0483 33.9345 30.1967 11.4018 -23.0901 30.9807
# 2 33.9345 91.0650 29.9712 16.4926 -6.6376 32.1892
# 3 30.1967 29.9712 102.2223 6.1103 -8.4383 -4.3815
# 4 11.4018 16.4926 6.1103 27.1513 2.4516 0.4768
# 5 -23.0901 -6.6376 -8.4383 2.4516 34.2550 -1.6620
# 6 30.9807 32.1892 -4.3815 0.4768 -1.6620 45.7434
#
#
#
# Elastic Compliance Matrix: (Units=1/GPa)
#
#
# Indices 1 2 3 4 5 6 
#
# 1 0.033146 0.004022 -0.009408 -0.015670 0.020700 -0.025265
# 2 0.004022 0.020630 -0.006802 -0.012842 0.005100 -0.017574
# 3 -0.009408 -0.006802 0.014471 0.004956 -0.003850 0.012353
# 4 -0.015670 -0.012842 0.004956 0.051076 -0.014561 0.019063
# 5 0.020700 0.005100 -0.003850 -0.014561 0.043440 -0.016247
# 6 -0.025265 -0.017574 0.012353 0.019063 -0.016247 0.051733
#
#
# Mechanical properties :
#
#
# Convention : Reuss Voigt Hill
#
# Bulk Modulus (GPa) = 22.79336 51.06004 36.92670
# Shear Modulus (GPa) = 19.72427 33.24548 26.48488
#
# Velocity S-wave (km/s) = 3.15206 4.09223 3.65252
# Velocity P-wave (km/s) = 4.97280 6.93169 6.03229
#
# Compressibility (1/GPa) = 0.04387243
#
# Stress axis : x y z
#
# Youngs Moduli (GPa) = 30.16995 48.47260 69.10207
#
# Poissons Ratio (x) = -0.19497 0.65012
# Poissons Ratio (y) = -0.12135 0.47000
# Poissons Ratio (z) = 0.28384 0.32969
#
# Static dielectric constant tensor:
#      x y z
#    x 1.747080 0.039880 -0.084250 
#    y 0.039880 1.736410 -0.026650 
#    z -0.084250 -0.026650 1.788490 
# 
# From -- ./inp_files/451620.got.cif
#   From: 2010.05.17/outbox.cif.g08.bks.cpg/sg2_226_cif.got.tgz:451620.got - 2010.06.03 11:33:40.
