data_PCOD9099128
_publ_section_title
;
Structure prediction by ZEFSAII (Michael W. Deem and Ramdas Pophale) SiO2 
 PCOD9099128
Probable space group: P -1
;
_chemical_formula_sum "Si O2"
_cell_formula_units_Z 16
_cell_length_a 26.412753
_cell_length_b 20.747067
_cell_length_c 9.222406
_cell_angle_alpha 33.591086
_cell_angle_beta 32.716629
_cell_angle_gamma 18.962713
_cell_volume 867.338971
_symmetry_space_group_name_H-M "P -1"
_symmetry_group_IT_number 2
_symmetry_cell_setting 'triclinic'
loop_
_space_group_symop_operation_xyz
x,y,z
-x,-y,-z
loop_
_atom_site_type_symbol
_atom_site_label
_atom_site_fract_x
_atom_site_fract_y
_atom_site_fract_z
Si Si1 0.744446 0.049006 0.936562
Si Si2 0.988279 0.878563 0.431721
Si Si3 0.505954 0.081223 0.468126
Si Si4 0.704557 0.604828 0.384817
Si Si5 0.006423 0.318606 0.749292
Si Si6 0.909681 0.963121 0.124688
Si Si7 0.749753 0.723590 0.782145
Si Si8 0.577158 0.300691 0.140434
O O1 0.611757 0.084930 0.156106
O O2 0.656358 0.226035 0.929002
O O3 0.831292 0.014823 0.653590
O O4 0.888903 0.842205 0.069595
O O5 0.128001 0.639008 0.566640
O O6 0.939026 0.926520 0.292592
O O7 0.056636 0.938151 0.189173
O O8 0.335728 0.296178 0.547287
O O9 0.500000 0.000000 0.500000
O O10 0.603564 0.926561 0.659837
O O11 0.557710 0.662676 0.605207
O O12 0.703114 0.701627 0.079640
O O13 0.980736 0.242208 0.839609
O O14 0.121656 0.304583 0.437332
O O15 0.845212 0.539440 0.788986
O O16 0.725418 0.119916 0.229247
O O17 0.500000 0.500000 0.000000
#
# Coordination Sequence:
#
# PCOD9099128 Si02
#       8
#     2   2   2   2   2   2   2   2
#     4   9  20  38  59  84 114 151 194 240 282 347
#     4  11  22  39  60  90 118 149 200 246 293 337
#     4  10  23  38  57  85 126 153 187 242 298 347
#     4  11  22  38  63  87 116 157 197 240 288 355
#     4   9  19  37  59  84 113 152 192 240 281 345
#     4  10  23  38  60  85 123 152 192 246 295 340
#     4  10  20  37  59  86 115 151 199 234 287 344
#     4  10  20  39  60  83 116 156 194 233 290 350
#
# _framework density 18.447229
#
# number of rings (size 3 to 8) (size 9 to 14) (size 15 to 20)
#    0.000    2.000    2.500    1.125    1.750    5.000 
#    0.000    1.875    0.000    0.000    0.000    0.000 
#    0.000    0.000    0.000    0.000    0.000    0.000 
#
# Total GULP energy -89284.809830 kJ/mol
# GULP energy per Si atom -5580.300614 kJ/mol
# Density = 1.840524 g / cm^3
# Si number density = 18.447229 Si / 1000 Ang^3
#
#
#
# Elastic Constant Matrix: (Units=GPa)
#
#
# Indices 1 2 3 4 5 6 
#
# 1 86.9954 25.7299 27.6660 7.2770 -10.4947 25.3787
# 2 25.7299 86.2148 24.3825 5.3785 -3.6809 28.9563
# 3 27.6660 24.3825 89.0701 14.0957 13.0030 18.9846
# 4 7.2770 5.3785 14.0957 24.4163 5.9484 -2.9667
# 5 -10.4947 -3.6809 13.0030 5.9484 13.8197 -8.3982
# 6 25.3787 28.9563 18.9846 -2.9667 -8.3982 29.4910
#
#
#
# Elastic Compliance Matrix: (Units=1/GPa)
#
#
# Indices 1 2 3 4 5 6 
#
# 1 0.018238 0.000010 -0.005160 -0.007592 0.016913 -0.008331
# 2 0.000010 0.018574 0.001603 -0.005895 -0.007367 -0.021969
# 3 -0.005160 0.001603 0.024111 -0.006386 -0.038104 -0.024149
# 4 -0.007592 -0.005895 -0.006386 0.053679 -0.013501 0.017987
# 5 0.016913 -0.007367 -0.038104 -0.013501 0.162691 0.062180
# 6 -0.008331 -0.021969 -0.024149 0.017987 0.062180 0.097710
#
#
# Mechanical properties :
#
#
# Convention : Reuss Voigt Hill
#
# Bulk Modulus (GPa) = 18.57683 46.42632 32.50157
# Shear Modulus (GPa) = 12.49872 25.84554 19.17213
#
# Velocity S-wave (km/s) = 2.60578 3.74712 3.22731
# Velocity P-wave (km/s) = 4.37557 6.62895 5.61643
#
# Compressibility (1/GPa) = 0.05383050
#
# Stress axis : x y z
#
# Youngs Moduli (GPa) = 54.82935 53.83770 41.47447
#
# Poissons Ratio (x) = -0.00053 0.21399
# Poissons Ratio (y) = -0.00054 -0.06649
# Poissons Ratio (z) = 0.28290 -0.08631
#
# Static dielectric constant tensor:
#      x y z
#    x 1.623940 0.013880 -0.011970 
#    y 0.013880 1.657250 -0.008720 
#    z -0.011970 -0.008720 1.617710 
# 
# From -- ./inp_files/178216.got.cif
#   From: 2010.05.17/outbox.cif.g08.bks.cpg/sg2_90_cif.got.tgz:178216.got - 2010.06.03 11:33:40.
