data_PCOD9099441
_publ_section_title
;
Structure prediction by ZEFSAII (Michael W. Deem and Ramdas Pophale) SiO2 
 PCOD9099441
Probable space group: P -1
;
_chemical_formula_sum "Si O2"
_cell_formula_units_Z 16
_cell_length_a 12.217134
_cell_length_b 13.939171
_cell_length_c 8.551349
_cell_angle_alpha 145.933294
_cell_angle_beta 55.797421
_cell_angle_gamma 110.234625
_cell_volume 651.718959
_symmetry_space_group_name_H-M "P -1"
_symmetry_group_IT_number 2
_symmetry_cell_setting 'triclinic'
loop_
_space_group_symop_operation_xyz
x,y,z
-x,-y,-z
loop_
_atom_site_type_symbol
_atom_site_label
_atom_site_fract_x
_atom_site_fract_y
_atom_site_fract_z
Si Si1 0.277298 0.909512 0.888954
Si Si2 0.078641 0.222363 0.284855
Si Si3 0.477077 0.590934 0.889344
Si Si4 0.788827 0.381988 0.667725
Si Si5 0.452424 0.135448 0.578735
Si Si6 0.331270 0.723638 0.890378
Si Si7 0.147298 0.249511 0.921270
Si Si8 0.928610 0.419999 0.090689
O O1 0.242378 0.736490 0.607534
O O2 0.427725 0.905134 0.698944
O O3 0.278715 0.892537 0.050404
O O4 0.169882 0.075721 0.124560
O O5 0.098541 0.180595 0.028512
O O6 0.121737 0.404824 0.525150
O O7 0.916852 0.258821 0.493472
O O8 0.417757 0.729677 0.984589
O O9 0.569463 0.420710 0.498630
O O10 0.344489 0.556043 0.033823
O O11 0.552123 0.677590 0.077531
O O12 0.844121 0.546610 0.792672
O O13 0.500000 0.000000 0.500000
O O14 0.305320 0.144656 0.637864
O O15 0.201555 0.650325 0.940386
O O16 0.040299 0.270079 0.893219
O O17 0.000000 0.500000 0.000000
#
# Coordination Sequence:
#
# PCOD9099441 Si02
#       8
#     2   2   2   2   2   2   2   2
#     4  11  22  36  60  95 124 163 200 265 314 359
#     4  11  21  37  59  92 127 161 204 258 309 365
#     4  10  23  41  66  88 122 170 211 257 305 368
#     4  10  20  37  60  89 121 161 215 250 302 369
#     4  11  22  41  63  92 128 158 213 262 307 361
#     4  11  22  42  65  91 126 165 211 250 311 379
#     4  11  21  39  66  91 120 169 208 254 305 365
#     4  11  24  42  65  92 124 165 208 252 307 377
#
# _framework density 24.550459
#
# number of rings (size 3 to 8) (size 9 to 14) (size 15 to 20)
#    0.000    1.250    1.250    7.125    0.000    3.000 
#    2.250    1.875    0.000    0.000    0.000    0.000 
#    0.000    0.000    0.000    0.000    0.000    0.000 
#
# Total GULP energy -89610.435079 kJ/mol
# GULP energy per Si atom -5600.652192 kJ/mol
# Density = 2.449458 g / cm^3
# Si number density = 24.550459 Si / 1000 Ang^3
#
#
#
# Elastic Constant Matrix: (Units=GPa)
#
#
# Indices 1 2 3 4 5 6 
#
# 1 119.7321 29.8249 49.5269 -11.0427 -24.8580 -27.4044
# 2 29.8249 112.5786 35.1337 -9.6587 -11.6163 -33.6412
# 3 49.5269 35.1337 70.6611 -0.6531 -20.0023 -4.0861
# 4 -11.0427 -9.6587 -0.6531 37.2931 -6.7250 -12.2776
# 5 -24.8580 -11.6163 -20.0023 -6.7250 34.4203 3.9312
# 6 -27.4044 -33.6412 -4.0861 -12.2776 3.9312 50.3030
#
#
#
# Elastic Compliance Matrix: (Units=1/GPa)
#
#
# Indices 1 2 3 4 5 6 
#
# 1 0.018791 0.005663 -0.012360 0.013613 0.009174 0.015626
# 2 0.005663 0.016796 -0.010027 0.011941 0.004429 0.016072
# 3 -0.012360 -0.010027 0.027936 -0.009663 0.003613 -0.013811
# 4 0.013613 0.011941 -0.009663 0.044327 0.014127 0.024332
# 5 0.009174 0.004429 0.003613 0.014127 0.041063 0.008492
# 6 0.015626 0.016072 -0.013811 0.024332 0.008492 0.043294
#
#
# Mechanical properties :
#
#
# Convention : Reuss Voigt Hill
#
# Bulk Modulus (GPa) = 33.25099 59.10475 46.17787
# Shear Modulus (GPa) = 21.21544 36.96905 29.09225
#
# Velocity S-wave (km/s) = 2.94284 3.88472 3.44611
# Velocity P-wave (km/s) = 5.01203 6.65196 5.88935
#
# Compressibility (1/GPa) = 0.03007429
#
# Stress axis : x y z
#
# Youngs Moduli (GPa) = 53.21820 59.53931 35.79660
#
# Poissons Ratio (x) = -0.33718 0.44244
# Poissons Ratio (y) = -0.30138 0.35893
# Poissons Ratio (z) = 0.65777 0.59700
#
# Static dielectric constant tensor:
#      x y z
#    x 1.931510 -0.031500 0.009350 
#    y -0.031500 1.958120 0.032900 
#    z 0.009350 0.032900 1.997600 
# 
# From -- ./inp_files/271180.got.cif
#   From: 2010.05.17/outbox.cif.g08.bks.cpg/sg2_136_cif.got.tgz:271180.got - 2010.06.03 11:33:40.
