data_PCOD9099129
_publ_section_title
;
Structure prediction by ZEFSAII (Michael W. Deem and Ramdas Pophale) SiO2 
 PCOD9099129
Probable space group: P -1
;
_chemical_formula_sum "Si O2"
_cell_formula_units_Z 16
_cell_length_a 10.328236
_cell_length_b 28.344898
_cell_length_c 28.344900
_cell_angle_alpha 15.110387
_cell_angle_beta 27.042112
_cell_angle_gamma 27.042101
_cell_volume 949.678781
_symmetry_space_group_name_H-M "P -1"
_symmetry_group_IT_number 2
_symmetry_cell_setting 'triclinic'
loop_
_space_group_symop_operation_xyz
x,y,z
-x,-y,-z
loop_
_atom_site_type_symbol
_atom_site_label
_atom_site_fract_x
_atom_site_fract_y
_atom_site_fract_z
Si Si1 0.553378 0.570863 0.466284
Si Si2 0.553377 0.966284 0.070863
Si Si3 0.634127 0.419675 0.919675
Si Si4 0.254435 0.403277 0.903276
Si Si5 0.874083 0.782839 0.704923
Si Si6 0.772118 0.648846 0.148847
Si Si7 0.874085 0.204923 0.282838
Si Si8 0.873023 0.326345 0.826346
O O1 0.500000 0.500000 0.500000
O O2 0.403553 0.478823 0.643583
O O3 0.904155 0.546491 0.381793
O O4 0.421531 0.793814 0.293814
O O5 0.403552 0.143583 0.978823
O O6 0.904155 0.881793 0.046491
O O7 0.500000 0.000000 0.000000
O O8 0.428951 0.632242 0.780926
O O9 0.765273 0.371379 0.871379
O O10 0.900870 0.394152 0.894150
O O11 0.428954 0.280924 0.132243
O O12 0.224975 0.379904 0.879903
O O13 0.592801 0.355789 0.855789
O O14 0.095404 0.616090 0.765325
O O15 0.095405 0.265324 0.116090
O O16 0.999998 0.778086 0.721915
O O17 0.845300 0.992489 0.492489
#
# Coordination Sequence:
#
# PCOD9099129 Si02
#       8
#     2   2   2   2   2   2   2   2
#     4  10  20  37  59  86 116 150 208 235 273 350
#     4  10  20  37  59  86 116 150 208 235 273 350
#     4  11  19  38  63  90 114 156 198 240 295 345
#     4  11  23  42  59  86 130 150 190 251 305 338
#     4  10  21  39  64  93 113 151 203 243 288 370
#     4  12  24  39  60  88 124 163 185 251 300 331
#     4  10  21  39  64  93 113 151 203 243 288 370
#     4  10  20  39  62  86 120 157 196 247 282 347
#
# _framework density 16.847802000000001
#
# number of rings (size 3 to 8) (size 9 to 14) (size 15 to 20)
#    0.750    0.750    6.250    0.750    0.000    5.000 
#    4.500    1.250    0.000    0.000    0.000    0.000 
#    0.000    0.000    0.000    0.000    0.000    0.000 
#
# Total GULP energy -89174.302321 kJ/mol
# GULP energy per Si atom -5573.393895 kJ/mol
# Density = 1.680946 g / cm^3
# Si number density = 16.847802 Si / 1000 Ang^3
#
#
#
# Elastic Constant Matrix: (Units=GPa)
#
#
# Indices 1 2 3 4 5 6 
#
# 1 151.1548 81.8890 65.7222 6.9405 -1.2416 -3.3532
# 2 81.8890 122.0153 86.6777 -0.5953 -1.8884 -10.8884
# 3 65.7222 86.6777 160.3350 -15.8492 -1.0308 3.0056
# 4 6.9405 -0.5953 -15.8492 24.9113 -4.1830 -4.5510
# 5 -1.2416 -1.8884 -1.0308 -4.1830 16.1816 9.1098
# 6 -3.3532 -10.8884 3.0056 -4.5510 9.1098 37.4058
#
#
#
# Elastic Compliance Matrix: (Units=1/GPa)
#
#
# Indices 1 2 3 4 5 6 
#
# 1 0.010887 -0.006463 -0.001380 -0.004363 -0.000450 -0.001216
# 2 -0.006463 0.018421 -0.007632 -0.001995 -0.002607 0.005788
# 3 -0.001380 -0.007632 0.011773 0.007701 0.003557 -0.003221
# 4 -0.004363 -0.001995 0.007701 0.048429 0.011613 0.001473
# 5 -0.000450 -0.002607 0.003557 0.011613 0.074753 -0.017877
# 6 -0.001216 0.005788 -0.003221 0.001473 -0.017877 0.033102
#
#
# Mechanical properties :
#
#
# Convention : Reuss Voigt Hill
#
# Bulk Modulus (GPa) = 98.70440 100.23142 99.46791
# Shear Modulus (GPa) = 21.58039 28.98080 25.28059
#
# Velocity S-wave (km/s) = 3.58285 4.15197 3.87787
# Velocity P-wave (km/s) = 8.70798 9.08882 8.90043
#
# Compressibility (1/GPa) = 0.01013126
#
# Stress axis : x y z
#
# Youngs Moduli (GPa) = 91.85445 54.28545 84.93996
#
# Poissons Ratio (x) = 0.35084 0.11723
# Poissons Ratio (y) = 0.59364 0.64825
# Poissons Ratio (z) = 0.12677 0.41430
#
# Static dielectric constant tensor:
#      x y z
#    x 1.540890 -0.014300 -0.005300 
#    y -0.014300 1.561240 -0.002260 
#    z -0.005300 -0.002260 1.566520 
# 
# From -- ./inp_files/608771.got.cif
#   From: 2010.05.17/outbox.cif.g08.bks.cpg/sg2_305_cif.got.tgz:608771.got - 2010.06.03 11:33:40.
