data_PCOD9099723
_publ_section_title
;
Structure prediction by ZEFSAII (Michael W. Deem and Ramdas Pophale) SiO2 
 PCOD9099723
Probable space group: P -1
;
_chemical_formula_sum "Si O2"
_cell_formula_units_Z 16
_cell_length_a 13.510035
_cell_length_b 14.032978
_cell_length_c 9.265824
_cell_angle_alpha 120.664525
_cell_angle_beta 95.755350
_cell_angle_gamma 36.528888
_cell_volume 716.420705
_symmetry_space_group_name_H-M "P -1"
_symmetry_group_IT_number 2
_symmetry_cell_setting 'triclinic'
loop_
_space_group_symop_operation_xyz
x,y,z
-x,-y,-z
loop_
_atom_site_type_symbol
_atom_site_label
_atom_site_fract_x
_atom_site_fract_y
_atom_site_fract_z
Si Si1 0.567456 0.829622 0.476634
Si Si2 0.645820 0.997566 0.133319
Si Si3 0.994613 0.493791 0.321223
Si Si4 0.914402 0.197597 0.067835
Si Si5 0.896526 0.944278 0.305069
Si Si6 0.197455 0.084871 0.470617
Si Si7 0.495957 0.526107 0.349167
Si Si8 0.680340 0.112605 0.978454
O O1 0.815701 0.580875 0.314351
O O2 0.500000 0.000000 0.500000
O O3 0.512164 0.895394 0.688489
O O4 0.417093 0.884391 0.432012
O O5 0.779196 0.958411 0.213696
O O6 0.791654 0.757970 0.909107
O O7 0.561259 0.145152 0.094036
O O8 0.918513 0.685252 0.393985
O O9 0.000000 0.500000 0.500000
O O10 0.677031 0.437354 0.268878
O O11 0.086071 0.111584 0.091845
O O12 0.000000 0.000000 0.000000
O O13 0.936083 0.178095 0.882533
O O14 0.729837 0.204913 0.508787
O O15 0.949014 0.846357 0.394932
O O16 0.271571 0.968389 0.238340
O O17 0.500000 0.500000 0.500000
O O18 0.565070 0.343502 0.145582
#
# Coordination Sequence:
#
# PCOD9099723 Si02
#       8
#     2   2   2   2   2   2   2   2
#     4   9  22  40  63  86 124 161 196 249 312 352
#     4  10  20  38  65  87 118 159 209 242 295 363
#     4  11  22  41  66  89 120 162 205 250 295 358
#     4   9  18  35  63  87 112 158 207 238 293 364
#     4  10  21  37  61  86 122 157 196 252 301 352
#     4  10  22  41  59  92 128 154 197 259 305 353
#     4  11  19  37  65  86 118 160 203 245 298 353
#     4  10  20  37  61  90 120 154 205 251 290 364
#
# _framework density 22.333245000000002
#
# number of rings (size 3 to 8) (size 9 to 14) (size 15 to 20)
#    0.000    2.000    5.000    0.000    0.000    9.500 
#    0.000    3.750    8.250    0.000    0.000    0.000 
#    0.000    0.000    0.000    0.000    0.000    0.000 
#
# Total GULP energy -89277.102526 kJ/mol
# GULP energy per Si atom -5579.818908 kJ/mol
# Density = 2.228241 g / cm^3
# Si number density = 22.333245 Si / 1000 Ang^3
#
#
#
# Elastic Constant Matrix: (Units=GPa)
#
#
# Indices 1 2 3 4 5 6 
#
# 1 43.7266 27.9484 37.2157 -9.0919 -15.9167 19.7323
# 2 27.9484 85.9546 38.2634 -13.1296 -4.2847 27.7297
# 3 37.2157 38.2634 136.3967 -22.2533 -6.0061 17.3940
# 4 -9.0919 -13.1296 -22.2533 45.2090 15.1710 -6.8419
# 5 -15.9167 -4.2847 -6.0061 15.1710 46.8974 -3.5955
# 6 19.7323 27.7297 17.3940 -6.8419 -3.5955 32.8403
#
#
#
# Elastic Compliance Matrix: (Units=1/GPa)
#
#
# Indices 1 2 3 4 5 6 
#
# 1 0.046043 -0.005157 -0.008869 -0.003992 0.013938 -0.017919
# 2 -0.005157 0.017884 -0.001968 0.002206 -0.001903 -0.010708
# 3 -0.008869 -0.001968 0.010607 0.004174 -0.003035 0.001910
# 4 -0.003992 0.002206 0.004174 0.027599 -0.009313 0.003056
# 5 0.013938 -0.001903 -0.003035 -0.009313 0.028196 -0.004013
# 6 -0.017919 -0.010708 0.001910 0.003056 -0.004013 0.049445
#
#
# Mechanical properties :
#
#
# Convention : Reuss Voigt Hill
#
# Bulk Modulus (GPa) = 23.50395 52.54811 38.02603
# Shear Modulus (GPa) = 22.12935 35.83269 28.98102
#
# Velocity S-wave (km/s) = 3.15122 4.00991 3.60622
# Velocity P-wave (km/s) = 4.87723 6.70965 5.86544
#
# Compressibility (1/GPa) = 0.04254604
#
# Stress axis : x y z
#
# Youngs Moduli (GPa) = 21.71872 55.91664 94.27565
#
# Poissons Ratio (x) = 0.28839 0.83609
# Poissons Ratio (y) = 0.11201 0.18554
# Poissons Ratio (z) = 0.19261 0.11005
#
# Static dielectric constant tensor:
#      x y z
#    x 1.957260 0.008190 -0.025500 
#    y 0.008190 1.846210 -0.001420 
#    z -0.025500 -0.001420 1.806640 
# 
# From -- ./inp_files/313898.got.cif
#   From: 2010.05.17/outbox.cif.g08.bks.cpg/sg2_157_cif.got.tgz:313898.got - 2010.06.03 11:33:40.
