data_PCOD9099918
_publ_section_title
;
Structure prediction by ZEFSAII (Michael W. Deem and Ramdas Pophale) SiO2 
 PCOD9099918
Probable space group: P -1
;
_chemical_formula_sum "Si O2"
_cell_formula_units_Z 14
_cell_length_a 9.014595
_cell_length_b 8.779787
_cell_length_c 15.089958
_cell_angle_alpha 79.919237
_cell_angle_beta 50.687938
_cell_angle_gamma 119.430657
_cell_volume 557.069064
_symmetry_space_group_name_H-M "P -1"
_symmetry_group_IT_number 2
_symmetry_cell_setting 'triclinic'
loop_
_space_group_symop_operation_xyz
x,y,z
-x,-y,-z
loop_
_atom_site_type_symbol
_atom_site_label
_atom_site_fract_x
_atom_site_fract_y
_atom_site_fract_z
Si Si1 0.190921 0.129756 0.688338
Si Si2 0.328318 0.212858 0.930531
Si Si3 0.552680 0.178221 0.683976
Si Si4 0.028422 0.822533 0.399965
Si Si5 0.537383 0.644410 0.734994
Si Si6 0.799906 0.598757 0.839631
Si Si7 0.145311 0.632990 0.837142
O O1 0.074371 0.899973 0.703319
O O2 0.135838 0.229214 0.625436
O O3 0.928373 0.993306 0.878372
O O4 0.500511 0.275118 0.614215
O O5 0.348889 0.120502 0.846749
O O6 0.301854 0.376834 0.898421
O O7 0.680651 0.442644 0.812610
O O8 0.834946 0.262530 0.619972
O O9 0.376492 0.922912 0.731656
O O10 0.796444 0.711422 0.580166
O O11 0.304512 0.128299 0.282861
O O12 0.349698 0.617292 0.734069
O O13 0.886110 0.515668 0.879412
O O14 0.500000 0.500000 0.000000
O O15 0.000000 0.500000 0.000000
#
# Coordination Sequence:
#
# PCOD9099918 Si02
#       7
#     2   2   2   2   2   2   2
#     4  10  20  39  63  86 120 156 200 245 292 355
#     4  11  21  38  61  89 122 152 195 253 303 342
#     4  10  23  38  59  91 122 156 194 250 304 344
#     4  10  22  41  61  86 120 161 202 242 288 364
#     4  10  21  40  62  85 119 158 201 242 295 353
#     4   9  18  33  57  88 112 151 193 239 292 350
#     4  10  20  37  62  87 116 154 200 247 290 352
#
# _framework density 25.131536000000001
#
# number of rings (size 3 to 8) (size 9 to 14) (size 15 to 20)
#    0.000    2.000    1.429    3.000    6.000    1.143 
#    5.143    3.571    0.000    0.000    0.000    0.000 
#    0.000    0.000    0.000    0.000    0.000    0.000 
#
# Total GULP energy -78075.941611 kJ/mol
# GULP energy per Si atom -5576.852972 kJ/mol
# Density = 2.507434 g / cm^3
# Si number density = 25.131536 Si / 1000 Ang^3
#
#
#
# Elastic Constant Matrix: (Units=GPa)
#
#
# Indices 1 2 3 4 5 6 
#
# 1 277.2297 56.0112 57.4189 -8.6309 14.7578 -4.4053
# 2 56.0112 52.8883 20.3402 2.8831 9.5967 -10.5853
# 3 57.4189 20.3402 58.2534 -4.9132 14.4495 -17.9535
# 4 -8.6309 2.8831 -4.9132 20.9809 -6.6003 7.0580
# 5 14.7578 9.5967 14.4495 -6.6003 37.2918 -4.7277
# 6 -4.4053 -10.5853 -17.9535 7.0580 -4.7277 44.8894
#
#
#
# Elastic Compliance Matrix: (Units=1/GPa)
#
#
# Indices 1 2 3 4 5 6 
#
# 1 0.005591 -0.005098 -0.004622 0.003237 0.001096 -0.002896
# 2 -0.005098 0.027985 -0.002389 -0.010250 -0.005287 0.006198
# 3 -0.004622 -0.002389 0.027064 -0.000508 -0.006972 0.009153
# 4 0.003237 -0.010250 -0.000508 0.056959 0.010346 -0.010169
# 5 0.001096 -0.005287 -0.006972 0.010346 0.031998 -0.002184
# 6 -0.002896 0.006198 0.009153 -0.010169 -0.002184 0.028484
#
#
# Mechanical properties :
#
#
# Convention : Reuss Voigt Hill
#
# Bulk Modulus (GPa) = 27.45690 72.87913 50.16801
# Shear Modulus (GPa) = 23.31672 37.60584 30.46128
#
# Velocity S-wave (km/s) = 3.04926 3.87248 3.48526
# Velocity P-wave (km/s) = 4.83181 7.00406 6.01677
#
# Compressibility (1/GPa) = 0.03642071
#
# Stress axis : x y z
#
# Youngs Moduli (GPa) = 178.86274 35.73399 36.95000
#
# Poissons Ratio (x) = 0.18219 0.17078
# Poissons Ratio (y) = 0.91191 0.08827
# Poissons Ratio (z) = 0.82669 0.08536
#
# Static dielectric constant tensor:
#      x y z
#    x 2.133560 0.037350 -0.049640 
#    y 0.037350 2.012910 -0.054120 
#    z -0.049640 -0.054120 1.999000 
# 
# From -- ./inp_files/245355.got.cif
#   From: 2010.05.17/outbox.cif.g08.bks.cpg/sg2_123_cif.got.tgz:245355.got - 2010.06.03 11:33:40.
