data_PCOD9099374
_publ_section_title
;
Structure prediction by ZEFSAII (Michael W. Deem and Ramdas Pophale) SiO2 
 PCOD9099374
Probable space group: P -1
;
_chemical_formula_sum "Si O2"
_cell_formula_units_Z 16
_cell_length_a 15.864576
_cell_length_b 11.412695
_cell_length_c 8.443620
_cell_angle_alpha 71.124000
_cell_angle_beta 47.761730
_cell_angle_gamma 41.776142
_cell_volume 703.370984
_symmetry_space_group_name_H-M "P -1"
_symmetry_group_IT_number 2
_symmetry_cell_setting 'triclinic'
loop_
_space_group_symop_operation_xyz
x,y,z
-x,-y,-z
loop_
_atom_site_type_symbol
_atom_site_label
_atom_site_fract_x
_atom_site_fract_y
_atom_site_fract_z
Si Si1 0.308505 0.055210 0.660838
Si Si2 0.276705 0.539511 0.463349
Si Si3 0.744768 0.725988 0.803254
Si Si4 0.081436 0.049798 0.787194
Si Si5 0.456366 0.162203 0.270079
Si Si6 0.423451 0.645881 0.389516
Si Si7 0.028558 0.684029 0.448177
Si Si8 0.642595 0.660233 0.235770
O O1 0.363120 0.008649 0.794765
O O2 0.473762 0.856235 0.449590
O O3 0.145854 0.105756 0.799103
O O4 0.315522 0.189051 0.527960
O O5 0.406673 0.343568 0.288908
O O6 0.366076 0.599422 0.345677
O O7 0.100515 0.676195 0.526598
O O8 0.260365 0.494542 0.680727
O O9 0.566208 0.859977 0.871394
O O10 0.858804 0.527084 0.655476
O O11 0.835349 0.784923 0.648936
O O12 0.742158 0.683488 0.005570
O O13 0.962475 0.214823 0.736537
O O14 0.250156 0.857190 0.570805
O O15 0.000000 0.000000 0.000000
O O16 0.500000 0.500000 0.500000
O O17 0.571778 0.627583 0.200474
#
# Coordination Sequence:
#
# PCOD9099374 Si02
#       8
#     2   2   2   2   2   2   2   2
#     4   9  18  37  59  84 116 150 196 249 289 338
#     4   9  19  37  58  82 118 157 192 241 293 346
#     4  10  20  37  60  87 118 155 195 244 294 352
#     4  11  23  39  62  87 121 160 195 236 297 357
#     4   9  17  35  59  83 116 148 196 250 288 331
#     4   9  20  40  61  82 117 156 197 246 280 347
#     4  10  22  38  56  85 126 153 190 244 297 350
#     4   9  19  35  62  85 109 156 201 239 294 344
#
# _framework density 22.747598
#
# number of rings (size 3 to 8) (size 9 to 14) (size 15 to 20)
#    0.000    2.500    1.250    0.750    3.500    1.500 
#    2.250    5.000    0.000    0.000    0.000    0.000 
#    0.000    0.000    0.000    0.000    0.000    0.000 
#
# Total GULP energy -89304.882841 kJ/mol
# GULP energy per Si atom -5581.555178 kJ/mol
# Density = 2.269582 g / cm^3
# Si number density = 22.747598 Si / 1000 Ang^3
#
#
#
# Elastic Constant Matrix: (Units=GPa)
#
#
# Indices 1 2 3 4 5 6 
#
# 1 191.0013 43.0240 35.6891 -13.2486 4.2816 4.4467
# 2 43.0240 67.1676 6.8149 -15.0529 3.1464 2.7949
# 3 35.6891 6.8149 52.0048 -22.4119 -1.9135 -4.9668
# 4 -13.2486 -15.0529 -22.4119 33.1029 4.0785 6.7184
# 5 4.2816 3.1464 -1.9135 4.0785 21.3033 -12.3961
# 6 4.4467 2.7949 -4.9668 6.7184 -12.3961 42.0862
#
#
#
# Elastic Compliance Matrix: (Units=1/GPa)
#
#
# Indices 1 2 3 4 5 6 
#
# 1 0.007173 -0.004481 -0.005594 -0.002541 -0.001463 -0.001146
# 2 -0.004481 0.020579 0.005240 0.012789 -0.006595 -0.004259
# 3 -0.005594 0.005240 0.031711 0.021647 -0.000769 0.000303
# 4 -0.002541 0.012789 0.021647 0.054027 -0.016470 -0.011502
# 5 -0.001463 -0.006595 -0.000769 -0.016470 0.064101 0.022011
# 6 -0.001146 -0.004259 0.000303 -0.011502 0.022011 0.032520
#
#
# Mechanical properties :
#
#
# Convention : Reuss Voigt Hill
#
# Bulk Modulus (GPa) = 20.08246 53.46997 36.77621
# Shear Modulus (GPa) = 21.15265 34.27485 27.71375
#
# Velocity S-wave (km/s) = 3.05271 3.88589 3.49422
# Velocity P-wave (km/s) = 4.61226 6.60987 5.69927
#
# Compressibility (1/GPa) = 0.04979470
#
# Stress axis : x y z
#
# Youngs Moduli (GPa) = 139.40624 48.59360 31.53508
#
# Poissons Ratio (x) = 0.21773 0.17641
# Poissons Ratio (y) = 0.62462 -0.16526
# Poissons Ratio (z) = 0.77984 -0.25465
#
# Static dielectric constant tensor:
#      x y z
#    x 1.895950 -0.036550 0.034680 
#    y -0.036550 1.959920 -0.035540 
#    z 0.034680 -0.035540 1.916000 
# 
# From -- ./inp_files/304923.got.cif
#   From: 2010.05.17/outbox.cif.g08.bks.cpg/sg2_153_cif.got.tgz:304923.got - 2010.06.03 11:33:40.
