data_PCOD9099563
_publ_section_title
;
Structure prediction by ZEFSAII (Michael W. Deem and Ramdas Pophale) SiO2 
 PCOD9099563
Probable space group: P -1
;
_chemical_formula_sum "Si O2"
_cell_formula_units_Z 16
_cell_length_a 5.934836
_cell_length_b 17.006542
_cell_length_c 15.405294
_cell_angle_alpha 25.706567
_cell_angle_beta 96.605943
_cell_angle_gamma 104.244073
_cell_volume 632.323538
_symmetry_space_group_name_H-M "P -1"
_symmetry_group_IT_number 2
_symmetry_cell_setting 'triclinic'
loop_
_space_group_symop_operation_xyz
x,y,z
-x,-y,-z
loop_
_atom_site_type_symbol
_atom_site_label
_atom_site_fract_x
_atom_site_fract_y
_atom_site_fract_z
Si Si1 0.669427 0.655417 0.458077
Si Si2 0.566014 0.227730 0.814138
Si Si3 0.828817 0.063552 0.803290
Si Si4 0.286192 0.613380 0.800910
Si Si5 0.910728 0.195471 0.002984
Si Si6 0.155110 0.455295 0.258412
Si Si7 0.511279 0.076231 0.625173
Si Si8 0.465277 0.279666 0.113733
O O1 0.578232 0.430911 0.655699
O O2 0.475693 0.734906 0.325515
O O3 0.744117 0.669932 0.547571
O O4 0.929464 0.778896 0.307544
O O5 0.340512 0.055241 0.010497
O O6 0.786846 0.189700 0.909082
O O7 0.699516 0.151246 0.637375
O O8 0.887218 0.896538 0.916290
O O9 0.489731 0.749792 0.610118
O O10 0.362566 0.683138 0.831727
O O11 0.040758 0.636933 0.731876
O O12 0.276391 0.390744 0.015655
O O13 0.726127 0.058916 0.200793
O O14 0.966143 0.412166 0.822767
O O15 0.383271 0.603463 0.075781
O O16 0.602456 0.938826 0.701659
#
# Coordination Sequence:
#
# PCOD9099563 Si02
#       8
#     2   2   2   2   2   2   2   2
#     4  10  20  37  61  83 115 155 196 237 291 352
#     4   9  21  40  55  84 122 152 190 248 286 339
#     4  11  20  38  60  85 117 157 192 240 292 346
#     4  11  21  37  61  85 110 156 195 232 304 355
#     4   9  21  37  57  84 116 152 193 238 292 344
#     4  10  20  39  56  80 116 148 191 244 286 350
#     4  10  21  38  58  86 120 151 193 245 288 349
#     4  10  23  38  57  85 118 148 192 248 290 348
#
# _framework density 25.303502999999999
#
# number of rings (size 3 to 8) (size 9 to 14) (size 15 to 20)
#    0.000    2.000    1.250    2.625    1.750    0.500 
#    0.000    6.875    0.000    8.250    0.000    0.000 
#    0.000    0.000    0.000    0.000    0.000    0.000 
#
# Total GULP energy -89422.258223 kJ/mol
# GULP energy per Si atom -5588.891139 kJ/mol
# Density = 2.524591 g / cm^3
# Si number density = 25.303503 Si / 1000 Ang^3
#
#
#
# Elastic Constant Matrix: (Units=GPa)
#
#
# Indices 1 2 3 4 5 6 
#
# 1 15.4943 12.0484 9.7017 7.2412 8.6087 5.3151
# 2 12.0484 100.1212 30.2496 0.2246 12.1532 5.3604
# 3 9.7017 30.2496 108.6649 -9.4496 17.4598 -2.9085
# 4 7.2412 0.2246 -9.4496 48.2145 2.6558 9.0048
# 5 8.6087 12.1532 17.4598 2.6558 24.1905 -2.0193
# 6 5.3151 5.3604 -2.9085 9.0048 -2.0193 38.8274
#
#
#
# Elastic Compliance Matrix: (Units=1/GPa)
#
#
# Indices 1 2 3 4 5 6 
#
# 1 0.096884 -0.006497 -0.003603 -0.011532 -0.028302 -0.011433
# 2 -0.006497 0.011793 -0.002323 0.000809 -0.002125 -0.001211
# 3 -0.003603 -0.002323 0.011425 0.003003 -0.006072 0.000658
# 4 -0.011532 0.000809 0.003003 0.023867 -0.001417 -0.003917
# 5 -0.028302 -0.002125 -0.006072 -0.001417 0.057603 0.007037
# 6 -0.011433 -0.001211 0.000658 -0.003917 0.007037 0.028811
#
#
# Mechanical properties :
#
#
# Convention : Reuss Voigt Hill
#
# Bulk Modulus (GPa) = 10.49803 36.47554 23.48678
# Shear Modulus (GPa) = 17.42272 33.73186 25.57729
#
# Velocity S-wave (km/s) = 2.62687 3.65511 3.18279
# Velocity P-wave (km/s) = 3.65492 5.67976 4.77588
#
# Compressibility (1/GPa) = 0.09525599
#
# Stress axis : x y z
#
# Youngs Moduli (GPa) = 10.32161 84.79840 87.52487
#
# Poissons Ratio (x) = 0.55093 0.31534
# Poissons Ratio (y) = 0.06706 0.20335
# Poissons Ratio (z) = 0.03719 0.19701
#
# Static dielectric constant tensor:
#      x y z
#    x 2.045930 -0.046130 -0.003630 
#    y -0.046130 1.997330 -0.008770 
#    z -0.003630 -0.008770 1.950230 
# 
# From -- ./inp_files/341624.got.cif
#   From: 2010.05.17/outbox.cif.g08.bks.cpg/sg2_171_cif.got.tgz:341624.got - 2010.06.03 11:33:40.
