data_PCOD9099620
_publ_section_title
;
Structure prediction by ZEFSAII (Michael W. Deem and Ramdas Pophale) SiO2 
 PCOD9099620
Probable space group: P -1
;
_chemical_formula_sum "Si O2"
_cell_formula_units_Z 16
_cell_length_a 11.658194
_cell_length_b 13.271951
_cell_length_c 11.182075
_cell_angle_alpha 44.445699
_cell_angle_beta 96.793001
_cell_angle_gamma 62.055162
_cell_volume 729.108153
_symmetry_space_group_name_H-M "P -1"
_symmetry_group_IT_number 2
_symmetry_cell_setting 'triclinic'
loop_
_space_group_symop_operation_xyz
x,y,z
-x,-y,-z
loop_
_atom_site_type_symbol
_atom_site_label
_atom_site_fract_x
_atom_site_fract_y
_atom_site_fract_z
Si Si1 0.611027 0.315975 0.063210
Si Si2 0.037853 0.967872 0.788731
Si Si3 0.636525 0.328990 0.484929
Si Si4 0.282120 0.572810 0.352418
Si Si5 0.139766 0.497963 0.020344
Si Si6 0.916373 0.393352 0.333796
Si Si7 0.810402 0.604564 0.625748
Si Si8 0.475310 0.140468 0.195660
O O1 0.813469 0.187782 0.170137
O O2 0.609896 0.146144 0.225008
O O3 0.500000 0.500000 0.000000
O O4 0.483888 0.470904 0.799501
O O5 0.982719 0.192232 0.588706
O O6 0.150196 0.808538 0.056114
O O7 0.837418 0.083041 0.661861
O O8 0.490451 0.358369 0.496514
O O9 0.687361 0.384313 0.553424
O O10 0.193285 0.502991 0.392192
O O11 0.149914 0.527133 0.135969
O O12 0.349018 0.245565 0.211015
O O13 0.000000 0.500000 0.000000
O O14 0.069479 0.662691 0.759703
O O15 0.039029 0.415343 0.351292
O O16 0.692825 0.655482 0.092802
O O17 0.607622 0.880849 0.390206
#
# Coordination Sequence:
#
# PCOD9099620 Si02
#       8
#     2   2   2   2   2   2   2   2
#     4  11  24  40  65  99 124 168 214 257 325 387
#     4  11  21  43  68  87 130 171 208 266 321 373
#     4  10  22  47  63  91 133 164 218 272 314 369
#     4  10  25  40  69  94 124 173 220 263 315 380
#     4   8  18  34  53  84 124 165 194 252 314 368
#     4   9  20  36  62  89 124 165 205 259 322 370
#     4  11  20  40  59  93 127 167 216 251 319 391
#     4  10  20  37  61  86 135 161 202 266 326 362
#
# _framework density 21.944617999999998
#
# number of rings (size 3 to 8) (size 9 to 14) (size 15 to 20)
#    0.750    1.250    2.500    0.750    3.500    1.500 
#    2.250    1.250    0.000    0.000    0.000    0.000 
#    0.000    0.000    0.000    0.000    0.000    0.000 
#
# Total GULP energy -89219.235885 kJ/mol
# GULP energy per Si atom -5576.202243 kJ/mol
# Density = 2.189467 g / cm^3
# Si number density = 21.944618 Si / 1000 Ang^3
#
#
#
# Elastic Constant Matrix: (Units=GPa)
#
#
# Indices 1 2 3 4 5 6 
#
# 1 83.8431 22.7050 32.6797 -9.4115 7.3736 -3.9498
# 2 22.7050 26.0367 14.7876 -9.6067 -5.1787 0.3481
# 3 32.6797 14.7876 73.0455 -13.4303 1.4185 2.9400
# 4 -9.4115 -9.6067 -13.4303 26.0799 -8.1951 14.9679
# 5 7.3736 -5.1787 1.4185 -8.1951 31.1968 -10.4512
# 6 -3.9498 0.3481 2.9400 14.9679 -10.4512 41.8585
#
#
#
# Elastic Compliance Matrix: (Units=1/GPa)
#
#
# Indices 1 2 3 4 5 6 
#
# 1 0.019101 -0.017217 -0.006270 -0.006796 -0.007922 0.002838
# 2 -0.017217 0.069145 -0.000948 0.029641 0.020856 -0.007525
# 3 -0.006270 -0.000948 0.018822 0.010602 0.001468 -0.005330
# 4 -0.006796 0.029641 0.010602 0.070603 0.017010 -0.022632
# 5 -0.007922 0.020856 0.001468 0.017010 0.043007 0.003632
# 6 0.002838 -0.007525 -0.005330 -0.022632 0.003632 0.033594
#
#
# Mechanical properties :
#
#
# Convention : Reuss Voigt Hill
#
# Bulk Modulus (GPa) = 17.18234 35.91888 26.55061
# Shear Modulus (GPa) = 15.50190 27.34392 21.42291
#
# Velocity S-wave (km/s) = 2.66072 3.53376 3.12785
# Velocity P-wave (km/s) = 4.15766 5.74921 5.01695
#
# Compressibility (1/GPa) = 0.05819929
#
# Stress axis : x y z
#
# Youngs Moduli (GPa) = 52.35381 14.46240 53.12849
#
# Poissons Ratio (x) = 0.24900 0.33311
# Poissons Ratio (y) = 0.90136 0.05034
# Poissons Ratio (z) = 0.32826 0.01370
#
# Static dielectric constant tensor:
#      x y z
#    x 1.809450 -0.032030 0.005100 
#    y -0.032030 1.834620 -0.004680 
#    z 0.005100 -0.004680 1.836330 
# 
# From -- ./inp_files/431095.got.cif
#   From: 2010.05.17/outbox.cif.g08.bks.cpg/sg2_216_cif.got.tgz:431095.got - 2010.06.03 11:33:40.
