data_PCOD9099410
_publ_section_title
;
Structure prediction by ZEFSAII (Michael W. Deem and Ramdas Pophale) SiO2 
 PCOD9099410
Probable space group: P -1
;
_chemical_formula_sum "Si O2"
_cell_formula_units_Z 16
_cell_length_a 8.930317
_cell_length_b 13.762810
_cell_length_c 9.290931
_cell_angle_alpha 102.394665
_cell_angle_beta 99.276720
_cell_angle_gamma 134.494215
_cell_volume 711.540296
_symmetry_space_group_name_H-M "P -1"
_symmetry_group_IT_number 2
_symmetry_cell_setting 'triclinic'
loop_
_space_group_symop_operation_xyz
x,y,z
-x,-y,-z
loop_
_atom_site_type_symbol
_atom_site_label
_atom_site_fract_x
_atom_site_fract_y
_atom_site_fract_z
Si Si1 0.642353 0.295657 0.193185
Si Si2 0.571801 0.350228 0.722979
Si Si3 0.827735 0.925589 0.586866
Si Si4 0.151354 0.342944 0.997392
Si Si5 0.465164 0.902294 0.619361
Si Si6 0.671554 0.131392 0.951012
Si Si7 0.052942 0.631068 0.288667
Si Si8 0.265676 0.180864 0.897809
O O1 0.605643 0.210108 0.299832
O O2 0.836790 0.478141 0.298022
O O3 0.724459 0.266907 0.062586
O O4 0.394248 0.211868 0.071763
O O5 0.384881 0.256671 0.533938
O O6 0.781520 0.379024 0.731677
O O7 0.431620 0.239939 0.805839
O O8 0.673518 0.507942 0.828859
O O9 0.684396 0.957820 0.592187
O O10 0.000000 0.000000 0.500000
O O11 0.008088 0.008080 0.773303
O O12 0.251592 0.293098 0.932006
O O13 0.917483 0.198049 0.002599
O O14 0.060643 0.371551 0.866923
O O15 0.232056 0.791876 0.452874
O O16 0.545666 0.044911 0.752569
O O17 0.500000 0.000000 0.000000
#
# Coordination Sequence:
#
# PCOD9099410 Si02
#       8
#     2   2   2   2   2   2   2   2
#     4  11  22  40  65  88 125 163 205 251 309 370
#     4  10  20  37  60  88 121 158 207 251 305 354
#     4   9  20  39  59  88 122 158 199 250 308 357
#     4  12  21  38  63  91 127 158 208 254 305 366
#     4  10  22  42  62  90 120 162 211 252 305 360
#     4  10  22  41  61  91 123 162 206 251 304 361
#     4  11  22  38  64  92 119 161 207 260 303 357
#     4  11  22  38  60  92 124 161 202 248 312 370
#
# _framework density 22.486428
#
# number of rings (size 3 to 8) (size 9 to 14) (size 15 to 20)
#    0.000    1.500    3.750    1.875    0.000    1.000 
#    6.750    0.000    0.000    3.000    0.000    0.000 
#    0.000    0.000    0.000    0.000    0.000    0.000 
#
# Total GULP energy -89374.072418 kJ/mol
# GULP energy per Si atom -5585.879526 kJ/mol
# Density = 2.243525 g / cm^3
# Si number density = 22.486428 Si / 1000 Ang^3
#
#
#
# Elastic Constant Matrix: (Units=GPa)
#
#
# Indices 1 2 3 4 5 6 
#
# 1 70.0718 16.5868 31.2116 6.8806 -4.1886 9.5946
# 2 16.5868 74.1210 42.2118 6.8194 7.0328 10.8795
# 3 31.2116 42.2118 119.3316 38.8420 5.7795 1.9886
# 4 6.8806 6.8194 38.8420 37.9211 -0.2428 -2.0656
# 5 -4.1886 7.0328 5.7795 -0.2428 34.4962 3.1069
# 6 9.5946 10.8795 1.9886 -2.0656 3.1069 11.5573
#
#
#
# Elastic Compliance Matrix: (Units=1/GPa)
#
#
# Indices 1 2 3 4 5 6 
#
# 1 0.019001 0.000838 -0.005634 0.001298 0.004584 -0.016594
# 2 0.000838 0.020344 -0.008282 0.003714 -0.001058 -0.017473
# 3 -0.005634 -0.008282 0.017776 -0.015310 -0.002750 0.007418
# 4 0.001298 0.003714 -0.015310 0.041431 0.001809 0.004979
# 5 0.004584 -0.001058 -0.002750 0.001809 0.031170 -0.010392
# 6 -0.016594 -0.017473 0.007418 0.004979 -0.010392 0.119156
#
#
# Mechanical properties :
#
#
# Convention : Reuss Voigt Hill
#
# Bulk Modulus (GPa) = 32.29528 49.28278 40.78903
# Shear Modulus (GPa) = 17.52195 28.36254 22.94224
#
# Velocity S-wave (km/s) = 2.79449 3.55536 3.19763
# Velocity P-wave (km/s) = 4.98051 6.23044 5.64021
#
# Compressibility (1/GPa) = 0.03096428
#
# Stress axis : x y z
#
# Youngs Moduli (GPa) = 52.62895 49.15472 56.25541
#
# Poissons Ratio (x) = -0.04118 0.31695
# Poissons Ratio (y) = -0.04410 0.46591
# Poissons Ratio (z) = 0.29652 0.40710
#
# Static dielectric constant tensor:
#      x y z
#    x 1.822180 0.020550 -0.025550 
#    y 0.020550 1.830080 0.014080 
#    z -0.025550 0.014080 1.871440 
# 
# From -- ./inp_files/207927.got.cif
#   From: 2010.05.17/outbox.cif.g08.bks.cpg/sg2_104_cif.got.tgz:207927.got - 2010.06.03 11:33:40.
