data_PCOD9099512
_publ_section_title
;
Structure prediction by ZEFSAII (Michael W. Deem and Ramdas Pophale) SiO2 
 PCOD9099512
Probable space group: P -1
;
_chemical_formula_sum "Si O2"
_cell_formula_units_Z 12
_cell_length_a 6.662387
_cell_length_b 15.204633
_cell_length_c 13.015869
_cell_angle_alpha 27.040481
_cell_angle_beta 57.017140
_cell_angle_gamma 46.368580
_cell_volume 423.864412
_symmetry_space_group_name_H-M "P -1"
_symmetry_group_IT_number 2
_symmetry_cell_setting 'triclinic'
loop_
_space_group_symop_operation_xyz
x,y,z
-x,-y,-z
loop_
_atom_site_type_symbol
_atom_site_label
_atom_site_fract_x
_atom_site_fract_y
_atom_site_fract_z
Si Si1 0.577367 0.147478 0.550475
Si Si2 0.149349 0.932194 0.798771
Si Si3 0.678714 0.215177 0.877376
Si Si4 0.509758 0.276550 0.648410
Si Si5 0.225180 0.512374 0.112055
Si Si6 0.904017 0.792988 0.657199
O O1 0.468453 0.156427 0.686510
O O2 0.313401 0.326696 0.370205
O O3 0.782895 0.247619 0.389877
O O4 0.765096 0.913684 0.678094
O O5 0.356431 0.815016 0.959824
O O6 0.071916 0.755931 0.957687
O O7 0.255554 0.006430 0.594283
O O8 0.471051 0.235554 0.820780
O O9 0.653142 0.457691 0.613857
O O10 0.000000 0.000000 0.000000
O O11 0.851782 0.160580 0.674194
O O12 0.500000 0.500000 0.000000
O O13 0.097967 0.425949 0.151898
#
# Coordination Sequence:
#
# PCOD9099512 Si02
#       6
#     2   2   2   2   2   2
#     4  10  20  39  60  90 132 165 204 265 309 365
#     4  10  20  37  60  92 127 167 210 257 316 369
#     4   9  17  33  63  92 118 167 206 258 320 370
#     4   9  18  34  59  92 126 159 211 262 307 375
#     4  12  23  38  62  95 129 172 211 253 320 375
#     4  10  23  40  59  94 132 163 214 262 305 381
#
# _framework density 28.310941
#
# number of rings (size 3 to 8) (size 9 to 14) (size 15 to 20)
#    0.000    2.000    3.333    0.500    0.000    0.667 
#    0.000    0.000    0.000   17.000    0.000    0.000 
#    0.000    0.000    0.000    0.000    0.000    0.000 
#
# Total GULP energy -67139.473755 kJ/mol
# GULP energy per Si atom -5594.956146 kJ/mol
# Density = 2.824650 g / cm^3
# Si number density = 28.310941 Si / 1000 Ang^3
#
#
#
# Elastic Constant Matrix: (Units=GPa)
#
#
# Indices 1 2 3 4 5 6 
#
# 1 153.1405 50.7886 36.1081 11.2749 0.6282 35.7373
# 2 50.7886 132.2331 57.4640 -19.9941 -3.4875 43.5371
# 3 36.1081 57.4640 202.0271 15.2290 45.0035 24.8587
# 4 11.2749 -19.9941 15.2290 60.5741 22.6387 12.2250
# 5 0.6282 -3.4875 45.0035 22.6387 52.3778 16.2240
# 6 35.7373 43.5371 24.8587 12.2250 16.2240 53.9522
#
#
#
# Elastic Compliance Matrix: (Units=1/GPa)
#
#
# Indices 1 2 3 4 5 6 
#
# 1 0.008432 -0.001688 -0.000989 -0.002098 0.002826 -0.004142
# 2 -0.001688 0.015447 -0.004326 0.006925 0.005686 -0.012632
# 3 -0.000989 -0.004326 0.007707 -0.001033 -0.007397 0.003053
# 4 -0.002098 0.006925 -0.001033 0.023301 -0.006516 -0.007043
# 5 0.002826 0.005686 -0.007397 -0.006516 0.032085 -0.011223
# 6 -0.004142 -0.012632 0.003053 -0.007043 -0.011223 0.035036
#
#
# Mechanical properties :
#
#
# Convention : Reuss Voigt Hill
#
# Bulk Modulus (GPa) = 56.88057 86.23581 71.55819
# Shear Modulus (GPa) = 35.24213 56.25014 45.74614
#
# Velocity S-wave (km/s) = 3.53203 4.46227 4.02412
# Velocity P-wave (km/s) = 6.06372 7.55483 6.84997
#
# Compressibility (1/GPa) = 0.01758070
#
# Stress axis : x y z
#
# Youngs Moduli (GPa) = 118.58991 64.73752 129.75130
#
# Poissons Ratio (x) = 0.10929 0.12827
# Poissons Ratio (y) = 0.20020 0.56132
# Poissons Ratio (z) = 0.11724 0.28006
#
# Static dielectric constant tensor:
#      x y z
#    x 2.269240 0.040220 0.050670 
#    y 0.040220 2.285180 0.099780 
#    z 0.050670 0.099780 2.237430 
# 
# From -- ./inp_files/429649.got.cif
#   From: 2010.05.17/outbox.cif.g08.bks.cpg/sg2_215_cif.got.tgz:429649.got - 2010.06.03 11:33:40.
