data_PCOD9099748
_publ_section_title
;
Structure prediction by ZEFSAII (Michael W. Deem and Ramdas Pophale) SiO2 
 PCOD9099748
Probable space group: P -1
;
_chemical_formula_sum "Si O2"
_cell_formula_units_Z 14
_cell_length_a 10.019977
_cell_length_b 9.272093
_cell_length_c 14.014724
_cell_angle_alpha 140.121072
_cell_angle_beta 140.666405
_cell_angle_gamma 47.468557
_cell_volume 518.146805
_symmetry_space_group_name_H-M "P -1"
_symmetry_group_IT_number 2
_symmetry_cell_setting 'triclinic'
loop_
_space_group_symop_operation_xyz
x,y,z
-x,-y,-z
loop_
_atom_site_type_symbol
_atom_site_label
_atom_site_fract_x
_atom_site_fract_y
_atom_site_fract_z
Si Si1 0.751658 0.730562 0.577809
Si Si2 0.024352 0.844376 0.300896
Si Si3 0.237676 0.228594 0.714145
Si Si4 0.520510 0.578540 0.203931
Si Si5 0.676434 0.273246 0.292934
Si Si6 0.073692 0.824188 0.111909
Si Si7 0.615084 0.848537 0.776123
O O1 0.582813 0.749575 0.407109
O O2 0.835744 0.454343 0.481805
O O3 0.648650 0.781655 0.650355
O O4 0.902284 0.909705 0.735189
O O5 0.809469 0.019098 0.236583
O O6 0.167475 0.015203 0.510123
O O7 0.947295 0.705478 0.274835
O O8 0.108076 0.724007 0.188077
O O9 0.306233 0.416454 0.779553
O O10 0.464985 0.102110 0.820999
O O11 0.549009 0.347575 0.163576
O O12 0.277515 0.685242 0.095806
O O13 0.519335 0.298987 0.309596
O O14 0.846714 0.823682 0.939454
#
# Coordination Sequence:
#
# PCOD9099748 Si02
#       7
#     2   2   2   2   2   2   2
#     4  10  20  37  61  91 115 159 199 254 279 363
#     4  10  21  40  63  90 118 161 203 249 295 363
#     4  10  20  37  63  85 119 158 208 240 288 362
#     4  10  21  38  65  89 117 159 206 250 288 359
#     4   9  23  38  63  85 129 153 203 244 311 343
#     4  12  22  36  67  92 121 155 206 245 304 353
#     4  11  22  38  61  93 123 156 199 254 297 356
#
# _framework density 27.019369000000001
#
# number of rings (size 3 to 8) (size 9 to 14) (size 15 to 20)
#    0.857    0.857    2.857    2.143    0.000    5.143 
#    0.000    0.000    3.143    2.571    0.000    0.000 
#    0.000    0.000    0.000    0.000    0.000    0.000 
#
# Total GULP energy -78383.672185 kJ/mol
# GULP energy per Si atom -5598.833727 kJ/mol
# Density = 2.695787 g / cm^3
# Si number density = 27.019369 Si / 1000 Ang^3
#
#
#
# Elastic Constant Matrix: (Units=GPa)
#
#
# Indices 1 2 3 4 5 6 
#
# 1 159.5406 16.9288 40.6642 0.6200 -1.9278 48.2070
# 2 16.9288 63.6710 23.4697 -9.6591 4.1858 28.5738
# 3 40.6642 23.4697 120.5445 0.6386 7.8294 4.3383
# 4 0.6200 -9.6591 0.6386 26.2439 -8.2893 4.8538
# 5 -1.9278 4.1858 7.8294 -8.2893 42.0105 0.3075
# 6 48.2070 28.5738 4.3383 4.8538 0.3075 43.9579
#
#
#
# Elastic Compliance Matrix: (Units=1/GPa)
#
#
# Indices 1 2 3 4 5 6 
#
# 1 0.012698 0.008397 -0.005401 0.007298 0.002337 -0.019672
# 2 0.008397 0.034064 -0.008565 0.019430 0.002660 -0.032670
# 3 -0.005401 -0.008565 0.011607 -0.006259 -0.002874 0.011056
# 4 0.007298 0.019430 -0.006259 0.053282 0.010269 -0.025971
# 5 0.002337 0.002660 -0.002874 0.010269 0.026246 -0.005326
# 6 -0.019672 -0.032670 0.011056 -0.025971 -0.005326 0.067373
#
#
# Mechanical properties :
#
#
# Convention : Reuss Voigt Hill
#
# Bulk Modulus (GPa) = 21.17233 56.20906 38.69070
# Shear Modulus (GPa) = 21.53766 39.95534 30.74650
#
# Velocity S-wave (km/s) = 2.82639 3.84965 3.37700
# Velocity P-wave (km/s) = 4.30167 6.37245 5.43656
#
# Compressibility (1/GPa) = 0.04723145
#
# Stress axis : x y z
#
# Youngs Moduli (GPa) = 78.75495 29.35630 86.15524
#
# Poissons Ratio (x) = -0.24649 0.46529
# Poissons Ratio (y) = -0.66127 0.73789
# Poissons Ratio (z) = 0.42532 0.25143
#
# Static dielectric constant tensor:
#      x y z
#    x 2.104940 0.021290 -0.060450 
#    y 0.021290 2.126750 -0.007930 
#    z -0.060450 -0.007930 2.126590 
# 
# From -- ./inp_files/461620.got.cif
#   From: 2010.05.17/outbox.cif.g08.bks.cpg/sg2_231_cif.got.tgz:461620.got - 2010.06.03 11:33:40.
