data_PCOD9099333
_publ_section_title
;
Structure prediction by ZEFSAII (Michael W. Deem and Ramdas Pophale) SiO2 
 PCOD9099333
Probable space group: P -1
;
_chemical_formula_sum "Si O2"
_cell_formula_units_Z 16
_cell_length_a 14.011213
_cell_length_b 14.741487
_cell_length_c 22.312468
_cell_angle_alpha 160.204622
_cell_angle_beta 29.237413
_cell_angle_gamma 148.309533
_cell_volume 749.789836
_symmetry_space_group_name_H-M "P -1"
_symmetry_group_IT_number 2
_symmetry_cell_setting 'triclinic'
loop_
_space_group_symop_operation_xyz
x,y,z
-x,-y,-z
loop_
_atom_site_type_symbol
_atom_site_label
_atom_site_fract_x
_atom_site_fract_y
_atom_site_fract_z
Si Si1 0.292761 0.971209 0.366898
Si Si2 0.326458 0.947665 0.147231
Si Si3 0.401421 0.333927 0.247036
Si Si4 0.352919 0.910082 0.580393
Si Si5 0.010330 0.669237 0.230741
Si Si6 0.064324 0.963006 0.121636
Si Si7 0.579724 0.356723 0.810934
Si Si8 0.363782 0.094155 0.941749
O O1 0.153581 0.764924 0.269103
O O2 0.281574 0.831899 0.351809
O O3 0.520654 0.015276 0.245369
O O4 0.200304 0.243385 0.586820
O O5 0.112488 0.848392 0.230731
O O6 0.477566 0.924252 0.104049
O O7 0.362539 0.243102 0.280492
O O8 0.389718 0.744483 0.936555
O O9 0.393168 0.637026 0.419944
O O10 0.232560 0.131575 0.176538
O O11 0.500000 0.000000 0.500000
O O12 0.401983 0.158501 0.753836
O O13 0.124055 0.890775 0.677823
O O14 0.995693 0.354818 0.028041
O O15 0.155755 0.963264 0.004224
O O16 0.500000 0.500000 0.000000
O O17 0.658177 0.597824 0.871712
#
# Coordination Sequence:
#
# PCOD9099333 Si02
#       8
#     2   2   2   2   2   2   2   2
#     4   9  20  38  60  86 113 155 205 241 293 361
#     4   9  19  38  57  81 120 154 192 245 297 346
#     4  10  22  37  58  87 117 154 198 242 293 359
#     4  12  24  40  63  88 121 160 200 246 297 356
#     4  10  20  37  60  85 118 156 194 246 300 350
#     4  11  22  37  58  85 119 156 197 246 303 350
#     4  10  21  41  64  86 118 159 201 245 298 357
#     4   9  19  38  59  82 119 154 191 251 299 343
#
# _framework density 21.339313000000001
#
# number of rings (size 3 to 8) (size 9 to 14) (size 15 to 20)
#    0.000    2.000    0.000    4.875    0.000    6.000 
#    0.000   11.875    0.000    0.000    0.000    0.000 
#    0.000    0.000    0.000    0.000    0.000    0.000 
#
# Total GULP energy -89241.007388 kJ/mol
# GULP energy per Si atom -5577.562962 kJ/mol
# Density = 2.129074 g / cm^3
# Si number density = 21.339313 Si / 1000 Ang^3
#
#
#
# Elastic Constant Matrix: (Units=GPa)
#
#
# Indices 1 2 3 4 5 6 
#
# 1 60.1995 23.5812 8.8856 4.1328 -11.9611 -19.1980
# 2 23.5812 92.1372 21.9359 -10.1936 -15.1184 -26.9616
# 3 8.8856 21.9359 59.9744 -0.2373 -18.2794 -6.4995
# 4 4.1328 -10.1936 -0.2373 35.8204 3.6433 -12.0544
# 5 -11.9611 -15.1184 -18.2794 3.6433 34.3193 10.7324
# 6 -19.1980 -26.9616 -6.4995 -12.0544 10.7324 31.5824
#
#
#
# Elastic Compliance Matrix: (Units=1/GPa)
#
#
# Indices 1 2 3 4 5 6 
#
# 1 0.021280 -0.001788 -0.000416 0.000184 0.003160 0.010319
# 2 -0.001788 0.019504 -0.005419 0.012786 -0.002595 0.020210
# 3 -0.000416 -0.005419 0.021483 -0.004522 0.011271 -0.006014
# 4 0.000184 0.012786 -0.004522 0.042679 -0.010623 0.029997
# 5 0.003160 -0.002595 0.011271 -0.010623 0.041245 -0.016045
# 6 0.010319 0.020210 -0.006014 0.029997 -0.016045 0.070853
#
#
# Mechanical properties :
#
#
# Convention : Reuss Voigt Hill
#
# Bulk Modulus (GPa) = 21.26787 35.67960 28.47374
# Shear Modulus (GPa) = 20.16418 30.87164 25.51791
#
# Velocity S-wave (km/s) = 3.07731 3.80768 3.46181
# Velocity P-wave (km/s) = 4.75548 6.00730 5.41767
#
# Compressibility (1/GPa) = 0.04701928
#
# Stress axis : x y z
#
# Youngs Moduli (GPa) = 46.99340 51.27184 46.54829
#
# Poissons Ratio (x) = 0.09170 0.01938
# Poissons Ratio (y) = 0.08405 0.25224
# Poissons Ratio (z) = 0.01957 0.27783
#
# Static dielectric constant tensor:
#      x y z
#    x 1.884820 -0.074700 -0.073830 
#    y -0.074700 1.820410 0.027000 
#    z -0.073830 0.027000 1.886960 
# 
# From -- ./inp_files/612147.got.cif
#   From: 2010.05.17/outbox.cif.g08.bks.cpg/sg2_307_cif.got.tgz:612147.got - 2010.06.03 11:33:40.
