data_PCOD9099670
_publ_section_title
;
Structure prediction by ZEFSAII (Michael W. Deem and Ramdas Pophale) SiO2 
 PCOD9099670
Probable space group: P -1
;
_chemical_formula_sum "Si O2"
_cell_formula_units_Z 16
_cell_length_a 12.629708
_cell_length_b 12.151552
_cell_length_c 8.869548
_cell_angle_alpha 92.730398
_cell_angle_beta 44.560584
_cell_angle_gamma 118.260074
_cell_volume 743.108913
_symmetry_space_group_name_H-M "P -1"
_symmetry_group_IT_number 2
_symmetry_cell_setting 'triclinic'
loop_
_space_group_symop_operation_xyz
x,y,z
-x,-y,-z
loop_
_atom_site_type_symbol
_atom_site_label
_atom_site_fract_x
_atom_site_fract_y
_atom_site_fract_z
Si Si1 0.289232 0.194811 0.044020
Si Si2 0.321045 0.548291 0.483038
Si Si3 0.487822 0.073666 0.375156
Si Si4 0.623694 0.623686 0.758340
Si Si5 0.677604 0.040753 0.928734
Si Si6 0.008428 0.554847 0.663616
Si Si7 0.085235 0.847992 0.593687
Si Si8 0.362046 0.621079 0.776047
O O1 0.293746 0.240221 0.215960
O O2 0.080573 0.140276 0.196122
O O3 0.337068 0.088084 0.996343
O O4 0.457312 0.330315 0.785322
O O5 0.245162 0.407134 0.458871
O O6 0.200591 0.597126 0.550260
O O7 0.307421 0.530810 0.674460
O O8 0.523967 0.217798 0.381680
O O9 0.500000 0.000000 0.500000
O O10 0.280131 0.959553 0.498206
O O11 0.659072 0.115568 0.090121
O O12 0.493180 0.613062 0.757825
O O13 0.500000 0.500000 0.000000
O O14 0.857059 0.119115 0.638898
O O15 0.500000 0.000000 0.000000
O O16 0.010822 0.688618 0.675135
O O17 0.000000 0.500000 0.500000
O O18 0.826957 0.434748 0.939801
#
# Coordination Sequence:
#
# PCOD9099670 Si02
#       8
#     2   2   2   2   2   2   2   2
#     4  11  21  40  63  93 129 168 217 273 327 387
#     4  11  23  40  63  94 131 171 212 268 330 391
#     4  11  24  44  66  94 132 173 215 265 327 394
#     4  10  21  38  61  90 126 166 210 262 323 385
#     4  10  20  37  61  88 121 166 213 264 316 374
#     4  12  23  41  67  96 126 170 224 272 323 389
#     4  11  23  40  64  94 126 167 216 271 322 384
#     4  12  24  42  65  95 132 173 215 269 329 390
#
# _framework density 21.531164
#
# number of rings (size 3 to 8) (size 9 to 14) (size 15 to 20)
#    0.000    1.000    0.000   10.125    0.000    0.000 
#    0.000    3.750    0.000    0.000    0.000    0.000 
#    0.000    0.000    0.000    0.000    0.000    0.000 
#
# Total GULP energy -89408.161269 kJ/mol
# GULP energy per Si atom -5588.010079 kJ/mol
# Density = 2.148216 g / cm^3
# Si number density = 21.531164 Si / 1000 Ang^3
#
#
#
# Elastic Constant Matrix: (Units=GPa)
#
#
# Indices 1 2 3 4 5 6 
#
# 1 83.8030 2.3461 31.7877 6.5834 1.3173 -0.9563
# 2 2.3461 77.5201 -5.9804 6.0657 1.8802 -8.6840
# 3 31.7877 -5.9804 82.1237 2.7424 0.8669 0.0496
# 4 6.5834 6.0657 2.7424 32.5055 2.8450 3.0129
# 5 1.3173 1.8802 0.8669 2.8450 37.3090 10.9111
# 6 -0.9563 -8.6840 0.0496 3.0129 10.9111 32.7916
#
#
#
# Elastic Compliance Matrix: (Units=1/GPa)
#
#
# Indices 1 2 3 4 5 6 
#
# 1 0.014218 -0.000595 -0.005466 -0.002333 -0.000341 0.000593
# 2 -0.000595 0.013790 0.001345 -0.002825 -0.001804 0.004492
# 3 -0.005466 0.001345 0.014405 -0.000363 -0.000269 0.000298
# 4 -0.002333 -0.002825 -0.000363 0.032214 -0.001240 -0.003363
# 5 -0.000341 -0.001804 -0.000269 -0.001240 0.030039 -0.010368
# 6 0.000593 0.004492 0.000298 -0.003363 -0.010368 0.035461
#
#
# Mechanical properties :
#
#
# Convention : Reuss Voigt Hill
#
# Bulk Modulus (GPa) = 30.31941 33.30596 31.81268
# Shear Modulus (GPa) = 31.14260 34.87410 33.00835
#
# Velocity S-wave (km/s) = 3.80728 4.02892 3.91967
# Velocity P-wave (km/s) = 5.78268 6.09469 5.94073
#
# Compressibility (1/GPa) = 0.03298218
#
# Stress axis : x y z
#
# Youngs Moduli (GPa) = 70.33373 72.51827 69.42011
#
# Poissons Ratio (x) = 0.04313 0.37942
# Poissons Ratio (y) = 0.04183 -0.09337
# Poissons Ratio (z) = 0.38441 -0.09754
#
# Static dielectric constant tensor:
#      x y z
#    x 1.810960 -0.084600 -0.000720 
#    y -0.084600 1.952030 -0.038310 
#    z -0.000720 -0.038310 1.812830 
# 
# From -- ./inp_files/184073.got.cif
#   From: 2010.05.17/outbox.cif.g08.bks.cpg/sg2_93_cif.got.tgz:184073.got - 2010.06.03 11:33:40.
