data_PCOD9099624
_publ_section_title
;
Structure prediction by ZEFSAII (Michael W. Deem and Ramdas Pophale) SiO2 
 PCOD9099624
Probable space group: P -1
;
_chemical_formula_sum "Si O2"
_cell_formula_units_Z 12
_cell_length_a 15.482057
_cell_length_b 9.194898
_cell_length_c 9.473221
_cell_angle_alpha 134.389481
_cell_angle_beta 142.707913
_cell_angle_gamma 39.716960
_cell_volume 508.568846
_symmetry_space_group_name_H-M "P -1"
_symmetry_group_IT_number 2
_symmetry_cell_setting 'triclinic'
loop_
_space_group_symop_operation_xyz
x,y,z
-x,-y,-z
loop_
_atom_site_type_symbol
_atom_site_label
_atom_site_fract_x
_atom_site_fract_y
_atom_site_fract_z
Si Si1 0.482693 0.559531 0.185275
Si Si2 0.120054 0.314746 0.857801
Si Si3 0.757301 0.687401 0.679770
Si Si4 0.624412 0.101341 0.249414
Si Si5 0.208633 0.136338 0.442493
Si Si6 0.839413 0.403453 0.139659
O O1 0.592430 0.677043 0.441501
O O2 0.557083 0.333486 0.230786
O O3 0.500000 0.500000 0.000000
O O4 0.292215 0.674790 0.053782
O O5 0.158578 0.497481 0.946892
O O6 0.924661 0.438918 0.703237
O O7 0.200458 0.083420 0.712866
O O8 0.212159 0.248965 0.081709
O O9 0.756966 0.852522 0.668193
O O10 0.662368 0.088196 0.455735
O O11 0.500000 0.000000 0.000000
O O12 0.205101 0.370178 0.664521
O O13 0.022219 0.198216 0.264209
#
# Coordination Sequence:
#
# PCOD9099624 Si02
#       6
#     2   2   2   2   2   2
#     4  12  22  35  58  91 113 141 195 246 273 320
#     4   9  20  38  61  82 114 159 181 225 288 351
#     4  10  20  37  61  87 115 143 193 233 285 328
#     4  11  20  37  59  84 112 150 196 226 280 336
#     4   9  17  35  59  77 108 158 186 220 275 353
#     4   9  17  34  57  78 112 150 188 215 287 335
#
# _framework density 23.595627
#
# number of rings (size 3 to 8) (size 9 to 14) (size 15 to 20)
#    0.000    2.000    5.000    1.000    0.000    1.333 
#    0.000    3.333    0.000    3.000    0.000    0.000 
#    0.000    0.000    0.000    0.000    0.000    0.000 
#
# Total GULP energy -67123.241439 kJ/mol
# GULP energy per Si atom -5593.603453 kJ/mol
# Density = 2.354192 g / cm^3
# Si number density = 23.595627 Si / 1000 Ang^3
#
#
#
# Elastic Constant Matrix: (Units=GPa)
#
#
# Indices 1 2 3 4 5 6 
#
# 1 128.8843 28.1786 79.5487 -20.0049 8.5442 14.2816
# 2 28.1786 73.0177 39.9533 -19.3512 3.1892 23.2947
# 3 79.5487 39.9533 140.4160 -36.5746 2.8699 13.5653
# 4 -20.0049 -19.3512 -36.5746 35.4145 10.2168 -14.3357
# 5 8.5442 3.1892 2.8699 10.2168 60.7744 -17.6182
# 6 14.2816 23.2947 13.5653 -14.3357 -17.6182 25.4748
#
#
#
# Elastic Compliance Matrix: (Units=1/GPa)
#
#
# Indices 1 2 3 4 5 6 
#
# 1 0.012768 0.001196 -0.007196 -0.001716 -0.003491 -0.007799
# 2 0.001196 0.025103 -0.004683 0.001400 -0.009252 -0.026742
# 3 -0.007196 -0.004683 0.014768 0.011401 0.000794 0.007417
# 4 -0.001716 0.001400 0.011401 0.048235 -0.003080 0.018624
# 5 -0.003491 -0.009252 0.000794 -0.003080 0.025398 0.025826
# 6 -0.007799 -0.026742 0.007417 0.018624 0.025826 0.092472
#
#
# Mechanical properties :
#
#
# Convention : Reuss Voigt Hill
#
# Bulk Modulus (GPa) = 31.97650 70.85325 51.41488
# Shear Modulus (GPa) = 19.95745 37.30859 28.63302
#
# Velocity S-wave (km/s) = 2.91144 3.98070 3.48730
# Velocity P-wave (km/s) = 4.98831 7.15691 6.16865
#
# Compressibility (1/GPa) = 0.03127297
#
# Stress axis : x y z
#
# Youngs Moduli (GPa) = 78.32061 39.83637 67.71559
#
# Poissons Ratio (x) = -0.04764 0.48726
# Poissons Ratio (y) = -0.09366 0.31710
# Poissons Ratio (z) = 0.56357 0.18655
#
# Static dielectric constant tensor:
#      x y z
#    x 1.911220 -0.027980 -0.035350 
#    y -0.027980 1.940680 0.012320 
#    z -0.035350 0.012320 1.904570 
# 
# From -- ./inp_files/144379.got.cif
#   From: 2010.05.17/outbox.cif.g08.bks.cpg/sg2_73_cif.got.tgz:144379.got - 2010.06.03 11:33:40.
