data_PCOD9099083
_publ_section_title
;
Structure prediction by ZEFSAII (Michael W. Deem and Ramdas Pophale) SiO2 
 PCOD9099083
Probable space group: P -1
;
_chemical_formula_sum "Si O2"
_cell_formula_units_Z 16
_cell_length_a 13.164817
_cell_length_b 11.588464
_cell_length_c 11.088991
_cell_angle_alpha 102.736872
_cell_angle_beta 134.648721
_cell_angle_gamma 43.178919
_cell_volume 658.974872
_symmetry_space_group_name_H-M "P -1"
_symmetry_group_IT_number 2
_symmetry_cell_setting 'triclinic'
loop_
_space_group_symop_operation_xyz
x,y,z
-x,-y,-z
loop_
_atom_site_type_symbol
_atom_site_label
_atom_site_fract_x
_atom_site_fract_y
_atom_site_fract_z
Si Si1 0.694497 0.006133 0.656419
Si Si2 0.252789 0.782138 0.585867
Si Si3 0.019182 0.976530 0.813999
Si Si4 0.130616 0.356223 0.198378
Si Si5 0.294271 0.130927 0.620299
Si Si6 0.398578 0.244498 0.060659
Si Si7 0.801408 0.350272 0.296451
Si Si8 0.493936 0.784874 0.116192
O O1 0.785926 0.840654 0.787205
O O2 0.743207 0.902337 0.547423
O O3 0.864252 0.008116 0.790756
O O4 0.391031 0.237201 0.439528
O O5 0.466585 0.734789 0.761720
O O6 0.328614 0.615455 0.686049
O O7 0.000000 0.000000 0.500000
O O8 0.173862 0.824129 0.391697
O O9 0.141205 0.790721 0.785622
O O10 0.245208 0.914305 0.010312
O O11 0.000000 0.500000 0.000000
O O12 0.900823 0.528305 0.141754
O O13 0.328261 0.246795 0.671853
O O14 0.060635 0.237867 0.525279
O O15 0.540493 0.906578 0.837076
O O16 0.536112 0.136365 0.022026
O O17 0.636553 0.566285 0.152761
#
# Coordination Sequence:
#
# PCOD9099083 Si02
#       8
#     2   2   2   2   2   2   2   2
#     4  10  22  41  64  90 117 155 200 257 297 334
#     4  10  16  31  54  76 120 152 191 247 285 338
#     4  10  18  36  55  84 116 153 198 246 291 353
#     4  11  22  39  66  92 110 152 215 260 282 336
#     4  11  21  38  53  85 131 160 186 240 304 369
#     4  12  20  35  59  91 117 158 200 245 296 353
#     4  10  19  32  50  78 121 158 191 235 288 349
#     4  12  23  31  56  93 126 157 189 234 309 375
#
# _framework density 24.280135999999999
#
# number of rings (size 3 to 8) (size 9 to 14) (size 15 to 20)
#    0.000    1.250    7.500    2.625    1.750    0.000 
#    0.000    0.000    0.000    3.750    3.250    0.000 
#    0.000    0.000    0.000    0.000    0.000    0.000 
#
# Total GULP energy -89335.653127 kJ/mol
# GULP energy per Si atom -5583.478320 kJ/mol
# Density = 2.422487 g / cm^3
# Si number density = 24.280136 Si / 1000 Ang^3
#
#
#
# Elastic Constant Matrix: (Units=GPa)
#
#
# Indices 1 2 3 4 5 6 
#
# 1 136.6055 27.6973 35.8013 -5.8655 2.4587 25.3580
# 2 27.6973 41.7792 33.1931 5.1271 6.2975 20.4832
# 3 35.8013 33.1931 82.2210 -16.5636 16.8201 12.9614
# 4 -5.8655 5.1271 -16.5636 30.8338 11.4166 3.5202
# 5 2.4587 6.2975 16.8201 11.4166 55.8743 -0.5458
# 6 25.3580 20.4832 12.9614 3.5202 -0.5458 27.5818
#
#
#
# Elastic Compliance Matrix: (Units=1/GPa)
#
#
# Indices 1 2 3 4 5 6 
#
# 1 0.009526 -0.001450 -0.002122 0.001715 -0.000035 -0.006904
# 2 -0.001450 0.061057 -0.024883 -0.022269 0.004936 -0.029377
# 3 -0.002122 -0.024883 0.029413 0.023080 -0.010639 0.003451
# 4 0.001715 -0.022269 0.023080 0.055077 -0.015798 -0.003226
# 5 -0.000035 0.004936 -0.010639 -0.015798 0.023811 0.003853
# 6 -0.006904 -0.029377 0.003451 -0.003226 0.003853 0.063286
#
#
# Mechanical properties :
#
#
# Convention : Reuss Voigt Hill
#
# Bulk Modulus (GPa) = 23.20842 50.44325 36.82584
# Shear Modulus (GPa) = 15.95192 33.78557 24.86875
#
# Velocity S-wave (km/s) = 2.56597 3.73432 3.20385
# Velocity P-wave (km/s) = 4.28466 6.27807 5.37459
#
# Compressibility (1/GPa) = 0.04308780
#
# Stress axis : x y z
#
# Youngs Moduli (GPa) = 104.97364 16.37806 33.99834
#
# Poissons Ratio (x) = 0.02375 0.07213
# Poissons Ratio (y) = 0.15223 0.84597
# Poissons Ratio (z) = 0.22272 0.40753
#
# Static dielectric constant tensor:
#      x y z
#    x 2.024030 -0.025660 -0.013440 
#    y -0.025660 1.964000 -0.020230 
#    z -0.013440 -0.020230 1.986920 
# 
# From -- ./inp_files/530595.got.cif
#   From: 2010.05.17/outbox.cif.g08.bks.cpg/sg2_266_cif.got.tgz:530595.got - 2010.06.03 11:33:40.
