data_PCOD9099880
_publ_section_title
;
Structure prediction by ZEFSAII (Michael W. Deem and Ramdas Pophale) SiO2 
 PCOD9099880
Probable space group: P -1
;
_chemical_formula_sum "Si O2"
_cell_formula_units_Z 12
_cell_length_a 7.996998
_cell_length_b 12.352096
_cell_length_c 9.244645
_cell_angle_alpha 83.724852
_cell_angle_beta 113.974445
_cell_angle_gamma 141.929970
_cell_volume 477.223475
_symmetry_space_group_name_H-M "P -1"
_symmetry_group_IT_number 2
_symmetry_cell_setting 'triclinic'
loop_
_space_group_symop_operation_xyz
x,y,z
-x,-y,-z
loop_
_atom_site_type_symbol
_atom_site_label
_atom_site_fract_x
_atom_site_fract_y
_atom_site_fract_z
Si Si1 0.991531 0.368923 0.481372
Si Si2 0.870540 0.707504 0.097635
Si Si3 0.564163 0.132489 0.799847
Si Si4 0.382434 0.284690 0.229889
Si Si5 0.372683 0.794629 0.872189
Si Si6 0.303627 0.048930 0.419185
O O1 0.321965 0.494639 0.650410
O O2 0.000000 0.500000 0.500000
O O3 0.974130 0.357335 0.302914
O O4 0.647841 0.170685 0.459545
O O5 0.079306 0.699921 0.163374
O O6 0.025903 0.853994 0.259772
O O7 0.500000 0.500000 0.000000
O O8 0.883855 0.779326 0.938847
O O9 0.502002 0.977469 0.849243
O O10 0.327128 0.048491 0.599949
O O11 0.580018 0.205122 0.943446
O O12 0.481003 0.236086 0.159117
O O13 0.280986 0.164770 0.349988
#
# Coordination Sequence:
#
# PCOD9099880 Si02
#       6
#     2   2   2   2   2   2
#     4   8  16  35  60  85 105 154 198 233 274 352
#     4  12  24  36  60  94 121 152 197 248 294 345
#     4  11  21  37  63  89 116 157 198 245 291 347
#     4  10  21  39  64  89 117 153 200 246 294 343
#     4   9  20  37  64  85 119 154 201 238 297 346
#     4  10  20  37  62  84 115 160 203 231 283 364
#
# _framework density 25.145453
#
# number of rings (size 3 to 8) (size 9 to 14) (size 15 to 20)
#    0.000    2.333    3.333    2.000    2.333    0.000 
#    0.000   15.000    0.000    0.000    0.000    0.000 
#    0.000    0.000    0.000    0.000    0.000    0.000 
#
# Total GULP energy -66912.661270 kJ/mol
# GULP energy per Si atom -5576.055106 kJ/mol
# Density = 2.508822 g / cm^3
# Si number density = 25.145453 Si / 1000 Ang^3
#
#
#
# Elastic Constant Matrix: (Units=GPa)
#
#
# Indices 1 2 3 4 5 6 
#
# 1 17.2175 4.2294 40.1001 4.6322 -1.6061 5.3950
# 2 4.2294 99.5321 55.0266 14.7564 5.8654 8.3382
# 3 40.1001 55.0266 294.3445 3.0833 5.0589 11.9147
# 4 4.6322 14.7564 3.0833 50.3270 0.2671 7.6736
# 5 -1.6061 5.8654 5.0589 0.2671 38.3424 -4.7268
# 6 5.3950 8.3382 11.9147 7.6736 -4.7268 13.8094
#
#
#
# Elastic Compliance Matrix: (Units=1/GPa)
#
#
# Indices 1 2 3 4 5 6 
#
# 1 0.097799 0.006255 -0.013385 -0.005978 0.001676 -0.026541
# 2 0.006255 0.012479 -0.002854 -0.003055 -0.002053 -0.006522
# 3 -0.013385 -0.002854 0.005716 0.001590 -0.000782 0.000869
# 4 -0.005978 -0.003055 0.001590 0.022805 -0.001428 -0.010353
# 5 0.001676 -0.002053 -0.000782 -0.001428 0.028013 0.011642
# 6 -0.026541 -0.006522 0.000869 -0.010353 0.011642 0.095710
#
#
# Mechanical properties :
#
#
# Convention : Reuss Voigt Hill
#
# Bulk Modulus (GPa) = 10.41378 67.75626 39.08502
# Shear Modulus (GPa) = 15.89836 41.27828 28.58832
#
# Velocity S-wave (km/s) = 2.51720 4.05604 3.37548
# Velocity P-wave (km/s) = 3.54948 6.99568 5.54699
#
# Compressibility (1/GPa) = 0.09602663
#
# Stress axis : x y z
#
# Youngs Moduli (GPa) = 10.22509 80.13357 174.94849
#
# Poissons Ratio (x) = -0.50124 2.34165
# Poissons Ratio (y) = -0.06396 0.49927
# Poissons Ratio (z) = 0.13686 0.22869
#
# Static dielectric constant tensor:
#      x y z
#    x 2.019500 0.077560 0.000430 
#    y 0.077560 2.229240 -0.059930 
#    z 0.000430 -0.059930 2.074580 
# 
# From -- ./inp_files/187006.got.cif
#   From: 2010.05.17/outbox.cif.g08.bks.cpg/sg2_94_cif.got.tgz:187006.got - 2010.06.03 11:33:40.
