data_PCOD9099622
_publ_section_title
;
Structure prediction by ZEFSAII (Michael W. Deem and Ramdas Pophale) SiO2 
 PCOD9099622
Probable space group: P -1
;
_chemical_formula_sum "Si O2"
_cell_formula_units_Z 16
_cell_length_a 10.619477
_cell_length_b 14.243211
_cell_length_c 9.854261
_cell_angle_alpha 84.626963
_cell_angle_beta 153.481768
_cell_angle_gamma 98.444027
_cell_volume 655.863319
_symmetry_space_group_name_H-M "P -1"
_symmetry_group_IT_number 2
_symmetry_cell_setting 'triclinic'
loop_
_space_group_symop_operation_xyz
x,y,z
-x,-y,-z
loop_
_atom_site_type_symbol
_atom_site_label
_atom_site_fract_x
_atom_site_fract_y
_atom_site_fract_z
Si Si1 0.246422 0.779892 0.649606
Si Si2 0.688048 0.727430 0.266409
Si Si3 0.121729 0.987420 0.468179
Si Si4 0.316929 0.907541 0.124648
Si Si5 0.364222 0.596300 0.337292
Si Si6 0.663669 0.462654 0.975377
Si Si7 0.807155 0.406682 0.546606
Si Si8 0.277148 0.212599 0.399426
O O1 0.177105 0.879767 0.517457
O O2 0.219477 0.697859 0.523987
O O3 0.021277 0.740797 0.555489
O O4 0.551284 0.788273 0.013780
O O5 0.643284 0.762435 0.369641
O O6 0.525788 0.619932 0.112447
O O7 0.430096 0.052542 0.743300
O O8 0.000000 0.000000 0.500000
O O9 0.902316 0.017825 0.139373
O O10 0.543437 0.872969 0.458014
O O11 0.061314 0.818936 0.915552
O O12 0.500000 0.500000 0.500000
O O13 0.138367 0.597461 0.239026
O O14 0.598554 0.689927 0.567725
O O15 0.255313 0.588917 0.078803
O O16 0.950775 0.519608 0.300272
O O17 0.475185 0.545271 0.750635
#
# Coordination Sequence:
#
# PCOD9099622 Si02
#       8
#     2   2   2   2   2   2   2   2
#     4  12  24  37  58  85 119 156 190 238 293 350
#     4  11  22  36  55  85 120 155 194 229 284 346
#     4  11  21  37  57  82 116 153 195 241 289 344
#     4  10  21  35  57  84 112 145 190 243 294 337
#     4   9  21  40  64  90 117 150 196 241 282 332
#     4  10  22  39  60  84 117 157 195 238 278 337
#     4  11  23  39  58  85 118 156 195 234 289 344
#     4  10  20  37  61  87 114 148 193 244 285 335
#
# _framework density 24.395326000000001
#
# number of rings (size 3 to 8) (size 9 to 14) (size 15 to 20)
#    0.000    1.500    0.000    6.000    0.000   10.000 
#    0.000    0.000    0.000    4.500    0.000    0.000 
#    0.000    0.000    0.000    0.000    0.000    0.000 
#
# Total GULP energy -89208.781451 kJ/mol
# GULP energy per Si atom -5575.548841 kJ/mol
# Density = 2.433980 g / cm^3
# Si number density = 24.395326 Si / 1000 Ang^3
#
#
#
# Elastic Constant Matrix: (Units=GPa)
#
#
# Indices 1 2 3 4 5 6 
#
# 1 29.9005 30.9709 16.0838 1.2530 7.7632 14.8303
# 2 30.9709 93.6519 10.9165 -10.3766 18.3677 20.2029
# 3 16.0838 10.9165 101.6319 3.6968 23.7009 8.2470
# 4 1.2530 -10.3766 3.6968 39.6611 14.8017 11.4192
# 5 7.7632 18.3677 23.7009 14.8017 23.8844 11.9380
# 6 14.8303 20.2029 8.2470 11.4192 11.9380 36.0496
#
#
#
# Elastic Compliance Matrix: (Units=1/GPa)
#
#
# Indices 1 2 3 4 5 6 
#
# 1 0.065035 -0.022099 -0.011193 -0.010166 0.021039 -0.015556
# 2 -0.022099 0.025770 0.007294 0.018844 -0.030029 -0.003044
# 3 -0.011193 0.007294 0.016108 0.009434 -0.024836 0.002068
# 4 -0.010166 0.018844 0.009434 0.049612 -0.046942 -0.008706
# 5 0.021039 -0.030029 -0.024836 -0.046942 0.116842 -0.009968
# 6 -0.015556 -0.003044 0.002068 -0.008706 -0.009968 0.041430
#
#
# Mechanical properties :
#
#
# Convention : Reuss Voigt Hill
#
# Bulk Modulus (GPa) = 18.20948 37.90298 28.05623
# Shear Modulus (GPa) = 12.98370 31.06655 22.02513
#
# Velocity S-wave (km/s) = 2.30949 3.57243 3.00799
# Velocity P-wave (km/s) = 3.81998 5.70851 4.85692
#
# Compressibility (1/GPa) = 0.05491644
#
# Stress axis : x y z
#
# Youngs Moduli (GPa) = 15.37645 38.80458 62.08068
#
# Poissons Ratio (x) = 0.85756 0.69484
# Poissons Ratio (y) = 0.33981 -0.45281
# Poissons Ratio (z) = 0.17210 -0.28304
#
# Static dielectric constant tensor:
#      x y z
#    x 1.997660 -0.001060 -0.029090 
#    y -0.001060 2.000990 -0.039910 
#    z -0.029090 -0.039910 1.913110 
# 
# From -- ./inp_files/434088.got.cif
#   From: 2010.05.17/outbox.cif.g08.bks.cpg/sg2_218_cif.got.tgz:434088.got - 2010.06.03 11:33:40.
