data_PCOD9099365
_publ_section_title
;
Structure prediction by ZEFSAII (Michael W. Deem and Ramdas Pophale) SiO2 
 PCOD9099365
Probable space group: P -1
;
_chemical_formula_sum "Si O2"
_cell_formula_units_Z 16
_cell_length_a 8.599624
_cell_length_b 18.447598
_cell_length_c 9.722558
_cell_angle_alpha 57.506620
_cell_angle_beta 58.330714
_cell_angle_gamma 33.321103
_cell_volume 704.940290
_symmetry_space_group_name_H-M "P -1"
_symmetry_group_IT_number 2
_symmetry_cell_setting 'triclinic'
loop_
_space_group_symop_operation_xyz
x,y,z
-x,-y,-z
loop_
_atom_site_type_symbol
_atom_site_label
_atom_site_fract_x
_atom_site_fract_y
_atom_site_fract_z
Si Si1 0.629165 0.433968 0.858299
Si Si2 0.149377 0.478467 0.314450
Si Si3 0.307773 0.376404 0.051842
Si Si4 0.825177 0.917102 0.432806
Si Si5 0.809887 0.888227 0.771339
Si Si6 0.882433 0.851532 0.183121
Si Si7 0.681638 0.747212 0.069410
Si Si8 0.059888 0.016536 0.173704
O O1 0.633643 0.530329 0.710042
O O2 0.951369 0.282599 0.837262
O O3 0.500000 0.500000 0.000000
O O4 0.458926 0.412151 0.911160
O O5 0.905269 0.612357 0.195045
O O6 0.000000 0.500000 0.500000
O O7 0.299793 0.368938 0.230620
O O8 0.414698 0.260238 0.024381
O O9 0.000000 0.500000 0.000000
O O10 0.932577 0.853731 0.597368
O O11 0.966690 0.819890 0.335775
O O12 0.861137 0.006143 0.300001
O O13 0.500000 0.000000 0.500000
O O14 0.960183 0.904486 0.778899
O O15 0.537415 0.968433 0.210460
O O16 0.825867 0.785332 0.921714
O O17 0.969971 0.912614 0.019193
O O18 0.388954 0.865395 0.169182
#
# Coordination Sequence:
#
# PCOD9099365 Si02
#       8
#     2   2   2   2   2   2   2   2
#     4  10  20  37  60  87 115 152 197 239 288 346
#     4  10  21  39  61  87 115 148 196 249 294 341
#     4   9  20  38  59  81 112 153 194 238 288 346
#     4  10  22  36  53  87 125 156 195 238 286 345
#     4  10  21  37  59  88 120 156 191 238 293 350
#     4  10  20  37  61  87 118 155 194 241 291 345
#     4  10  20  39  60  85 116 153 196 238 292 354
#     4  11  20  37  61  86 119 159 193 233 292 351
#
# _framework density 22.696956
#
# number of rings (size 3 to 8) (size 9 to 14) (size 15 to 20)
#    0.000    2.000    0.000    4.500    0.000    3.000 
#    0.000   18.750    0.000    0.000    0.000    0.000 
#    0.000    0.000    0.000    0.000    0.000    0.000 
#
# Total GULP energy -89163.220985 kJ/mol
# GULP energy per Si atom -5572.701312 kJ/mol
# Density = 2.264530 g / cm^3
# Si number density = 22.696956 Si / 1000 Ang^3
#
#
#
# Elastic Constant Matrix: (Units=GPa)
#
#
# Indices 1 2 3 4 5 6 
#
# 1 109.9999 33.4633 62.6212 11.6874 -6.4593 42.0159
# 2 33.4633 65.3923 22.5379 8.4441 22.4626 19.0151
# 3 62.6212 22.5379 149.7840 22.7493 2.9268 24.7014
# 4 11.6874 8.4441 22.7493 12.9900 8.4201 4.8257
# 5 -6.4593 22.4626 2.9268 8.4201 40.5947 -3.4417
# 6 42.0159 19.0151 24.7014 4.8257 -3.4417 42.6841
#
#
#
# Elastic Compliance Matrix: (Units=1/GPa)
#
#
# Indices 1 2 3 4 5 6 
#
# 1 0.019250 -0.006471 -0.004339 -0.005487 0.007046 -0.012366
# 2 -0.006471 0.025935 -0.000122 0.002307 -0.016418 -0.006698
# 3 -0.004339 -0.000122 0.010984 -0.016566 0.002022 0.000005
# 4 -0.005487 0.002307 -0.016566 0.128532 -0.027854 -0.002817
# 5 0.007046 -0.016418 0.002022 -0.027854 0.040952 0.005659
# 6 -0.012366 -0.006698 0.000005 -0.002817 0.005659 0.039356
#
#
# Mechanical properties :
#
#
# Convention : Reuss Voigt Hill
#
# Bulk Modulus (GPa) = 29.15031 62.49122 45.82077
# Shear Modulus (GPa) = 16.76107 33.02403 24.89255
#
# Velocity S-wave (km/s) = 2.72043 3.81858 3.31529
# Velocity P-wave (km/s) = 4.76852 6.85819 5.90650
#
# Compressibility (1/GPa) = 0.03430495
#
# Stress axis : x y z
#
# Youngs Moduli (GPa) = 51.94801 38.55725 91.03760
#
# Poissons Ratio (x) = 0.24952 0.39503
# Poissons Ratio (y) = 0.33617 0.01111
# Poissons Ratio (z) = 0.22541 0.00471
#
# Static dielectric constant tensor:
#      x y z
#    x 1.919460 0.127850 -0.191010 
#    y 0.127850 1.897950 0.323100 
#    z -0.191010 0.323100 1.459250 
# 
# From -- ./inp_files/216948.got.cif
#   From: 2010.05.17/outbox.cif.g08.bks.cpg/sg2_109_cif.got.tgz:216948.got - 2010.06.03 11:33:40.
