data_PCOD9099957
_publ_section_title
;
Structure prediction by ZEFSAII (Michael W. Deem and Ramdas Pophale) SiO2 
 PCOD9099957
Probable space group: P -1
;
_chemical_formula_sum "Si O2"
_cell_formula_units_Z 15
_cell_length_a 5.244639
_cell_length_b 6.265383
_cell_length_c 18.898730
_cell_angle_alpha 79.201824
_cell_angle_beta 84.651616
_cell_angle_gamma 73.573483
_cell_volume 584.577744
_symmetry_space_group_name_H-M "P -1"
_symmetry_group_IT_number 2
_symmetry_cell_setting 'triclinic'
loop_
_space_group_symop_operation_xyz
x,y,z
-x,-y,-z
loop_
_atom_site_type_symbol
_atom_site_label
_atom_site_fract_x
_atom_site_fract_y
_atom_site_fract_z
Si Si1 0.186766 0.737859 0.592664
Si Si2 0.597504 0.360959 0.898397
Si Si3 0.999097 0.341446 0.104123
Si Si4 0.195475 0.943181 0.223234
Si Si5 0.658220 0.147968 0.560488
Si Si6 0.097625 0.595330 0.352030
Si Si7 0.000000 0.000000 0.000000
Si Si8 0.493527 0.850302 0.687757
O O1 0.386900 0.772560 0.523724
O O2 0.253783 0.754417 0.672930
O O3 0.131338 0.495704 0.601481
O O4 0.920725 0.933431 0.570914
O O5 0.283949 0.473260 0.902417
O O6 0.665578 0.233033 0.829771
O O7 0.721625 0.173912 0.965460
O O8 0.764085 0.546063 0.891249
O O9 0.038559 0.200782 0.039742
O O10 0.999373 0.154163 0.175836
O O11 0.047672 0.806756 0.287006
O O12 0.416185 0.034141 0.253854
O O13 0.733828 0.336675 0.594049
O O14 0.459998 0.042788 0.615894
O O15 0.268505 0.376459 0.318640
#
# Coordination Sequence:
#
# PCOD9099957 Si02
#       8
#     2   2   2   2   2   2   1   2
#     4  10  20  37  62  88 121 166 224 293 363 437
#     4  11  25  48  74 111 150 196 239 291 349 419
#     4  11  25  48  73 113 151 196 239 290 349 419
#     4  10  24  46  62  96 142 189 241 291 351 422
#     4   9  20  37  58  88 125 161 216 293 373 437
#     4  10  21  40  56  90 123 171 230 288 360 430
#     4  10  24  44  84 118 154 188 238 294 348 410
#     4  10  21  40  57  92 122 173 229 290 357 432
#
# _framework density 25.659548999999998
#
# number of rings (size 3 to 8) (size 9 to 14) (size 15 to 20)
#    0.000    1.867    0.000    2.400    0.000    8.000 
#   31.200    0.000    0.000    0.000    0.000    0.000 
#    0.000    0.000    0.000    0.000    0.000    0.000 
#
# Total GULP energy -83633.133783 kJ/mol
# GULP energy per Si atom -5575.542252 kJ/mol
# Density = 2.560115 g / cm^3
# Si number density = 25.659549 Si / 1000 Ang^3
#
#
#
# Elastic Constant Matrix: (Units=GPa)
#
#
# Indices 1 2 3 4 5 6 
#
# 1 73.2007 16.7859 31.7874 -11.0903 14.2149 11.2540
# 2 16.7859 91.3205 54.0541 9.2301 19.3904 2.3235
# 3 31.7874 54.0541 109.9829 13.6985 29.0062 15.3243
# 4 -11.0903 9.2301 13.6985 61.2825 11.0266 25.5070
# 5 14.2149 19.3904 29.0062 11.0266 28.3663 9.0239
# 6 11.2540 2.3235 15.3243 25.5070 9.0239 47.1966
#
#
#
# Elastic Compliance Matrix: (Units=1/GPa)
#
#
# Indices 1 2 3 4 5 6 
#
# 1 0.018837 -0.000659 -0.003519 0.008164 -0.006501 -0.006486
# 2 -0.000659 0.016097 -0.006916 -0.001634 -0.004003 0.003259
# 3 -0.003519 -0.006916 0.016322 -0.000770 -0.009287 -0.001928
# 4 0.008164 -0.001634 -0.000770 0.025356 -0.007634 -0.013860
# 5 -0.006501 -0.004003 -0.009287 -0.007634 0.054179 -0.001471
# 6 -0.006486 0.003259 -0.001928 -0.013860 -0.001471 0.030972
#
#
# Mechanical properties :
#
#
# Convention : Reuss Voigt Hill
#
# Bulk Modulus (GPa) = 34.40165 53.30654 43.85409
# Shear Modulus (GPa) = 25.82109 38.82752 32.32431
#
# Velocity S-wave (km/s) = 3.17566 3.89418 3.55313
# Velocity P-wave (km/s) = 5.18483 6.40618 5.82759
#
# Compressibility (1/GPa) = 0.02906837
#
# Stress axis : x y z
#
# Youngs Moduli (GPa) = 53.08772 62.12175 61.26674
#
# Poissons Ratio (x) = 0.04096 0.21559
# Poissons Ratio (y) = 0.03501 0.42370
# Poissons Ratio (z) = 0.18681 0.42962
#
# Static dielectric constant tensor:
#      x y z
#    x 2.079840 -0.011810 -0.110210 
#    y -0.011810 2.017970 -0.004250 
#    z -0.110210 -0.004250 2.041330 
# 
# From -- ./inp_files/581088.got.cif
#   From: 2010.05.17/outbox.cif.g08.bks.cpg/sg2_291_cif.got.tgz:581088.got - 2010.06.03 11:33:40.
