data_PCOD9099425
_publ_section_title
;
Structure prediction by ZEFSAII (Michael W. Deem and Ramdas Pophale) SiO2 
 PCOD9099425
Probable space group: P -1
;
_chemical_formula_sum "Si O2"
_cell_formula_units_Z 12
_cell_length_a 7.198907
_cell_length_b 16.623558
_cell_length_c 5.091354
_cell_angle_alpha 70.325354
_cell_angle_beta 118.719697
_cell_angle_gamma 106.922068
_cell_volume 496.935937
_symmetry_space_group_name_H-M "P -1"
_symmetry_group_IT_number 2
_symmetry_cell_setting 'triclinic'
loop_
_space_group_symop_operation_xyz
x,y,z
-x,-y,-z
loop_
_atom_site_type_symbol
_atom_site_label
_atom_site_fract_x
_atom_site_fract_y
_atom_site_fract_z
Si Si1 0.244604 0.971420 0.323632
Si Si2 0.760512 0.138713 0.070074
Si Si3 0.309242 0.157731 0.003675
Si Si4 0.012250 0.279803 0.394303
Si Si5 0.565696 0.305928 0.303539
Si Si6 0.572734 0.601096 0.402060
O O1 0.168356 0.929011 0.595265
O O2 0.500000 0.000000 0.500000
O O3 0.230278 0.900387 0.164987
O O4 0.183938 0.063307 0.093980
O O5 0.913162 0.229352 0.123489
O O6 0.516893 0.147670 0.977369
O O7 0.156036 0.215570 0.696783
O O8 0.413294 0.213699 0.260814
O O9 0.804719 0.294281 0.401129
O O10 0.177684 0.368210 0.388145
O O11 0.549896 0.345976 0.532978
O O12 0.480059 0.368016 0.959094
O O13 0.500000 0.500000 0.500000
#
# Coordination Sequence:
#
# PCOD9099425 Si02
#       6
#     2   2   2   2   2   2
#     4  10  20  37  60  88 127 170 217 267 305 359
#     4  10  22  38  59  90 126 170 219 264 311 364
#     4   9  20  38  61  88 128 171 211 261 316 368
#     4  10  24  42  66  96 132 170 212 265 322 383
#     4  10  24  43  66  98 130 165 211 261 320 385
#     4  11  25  46  71  97 127 165 209 263 326 389
#
# _framework density 24.14798
#
# number of rings (size 3 to 8) (size 9 to 14) (size 15 to 20)
#    0.000    2.000    0.000    2.500    0.000   22.667 
#    0.000    0.000    0.000    0.000    0.000    0.000 
#    0.000    0.000    0.000    0.000    0.000    0.000 
#
# Total GULP energy -67257.098372 kJ/mol
# GULP energy per Si atom -5604.758198 kJ/mol
# Density = 2.409302 g / cm^3
# Si number density = 24.147980 Si / 1000 Ang^3
#
#
#
# Elastic Constant Matrix: (Units=GPa)
#
#
# Indices 1 2 3 4 5 6 
#
# 1 94.9553 38.4599 18.5508 18.9315 25.7162 6.7754
# 2 38.4599 142.3434 23.0185 16.1885 5.2050 35.7136
# 3 18.5508 23.0185 76.8939 4.7774 -9.6735 7.1841
# 4 18.9315 16.1885 4.7774 35.3313 4.2868 0.9186
# 5 25.7162 5.2050 -9.6735 4.2868 42.8113 1.4569
# 6 6.7754 35.7136 7.1841 0.9186 1.4569 47.9302
#
#
#
# Elastic Compliance Matrix: (Units=1/GPa)
#
#
# Indices 1 2 3 4 5 6 
#
# 1 0.016207 -0.002970 -0.003983 -0.005626 -0.009742 0.000923
# 2 -0.002970 0.010050 -0.001389 -0.002740 0.000755 -0.006831
# 3 -0.003983 -0.001389 0.015221 0.000003 0.006030 -0.000867
# 4 -0.005626 -0.002740 0.000003 0.032469 0.000387 0.002202
# 5 -0.009742 0.000755 0.006030 0.000387 0.030477 -0.001023
# 6 0.000923 -0.006831 -0.000867 0.002202 -0.001023 0.025942
#
#
# Mechanical properties :
#
#
# Convention : Reuss Voigt Hill
#
# Bulk Modulus (GPa) = 40.33210 52.69455 46.51333
# Shear Modulus (GPa) = 32.19285 40.82546 36.50916
#
# Velocity S-wave (km/s) = 3.65519 4.11620 3.89252
# Velocity P-wave (km/s) = 5.87811 6.66781 6.28537
#
# Compressibility (1/GPa) = 0.02479415
#
# Stress axis : x y z
#
# Youngs Moduli (GPa) = 61.70266 99.50059 65.69919
#
# Poissons Ratio (x) = 0.29555 0.26168
# Poissons Ratio (y) = 0.18328 0.09122
# Poissons Ratio (z) = 0.24576 0.13816
#
# Static dielectric constant tensor:
#      x y z
#    x 1.947300 0.029200 0.046040 
#    y 0.029200 1.914590 -0.042660 
#    z 0.046040 -0.042660 2.017500 
# 
# From -- ./inp_files/29875.got.cif
#   From: 2010.05.17/outbox.cif.g08.bks.cpg/sg2_15_cif.got.tgz:29875.got - 2010.06.03 11:33:40.
