data_PCOD9099151
_publ_section_title
;
Structure prediction by ZEFSAII (Michael W. Deem and Ramdas Pophale) SiO2 
 PCOD9099151
Probable space group: P -1
;
_chemical_formula_sum "Si O2"
_cell_formula_units_Z 16
_cell_length_a 15.395354
_cell_length_b 11.430443
_cell_length_c 9.284238
_cell_angle_alpha 120.219760
_cell_angle_beta 40.175652
_cell_angle_gamma 99.997442
_cell_volume 843.039891
_symmetry_space_group_name_H-M "P -1"
_symmetry_group_IT_number 2
_symmetry_cell_setting 'triclinic'
loop_
_space_group_symop_operation_xyz
x,y,z
-x,-y,-z
loop_
_atom_site_type_symbol
_atom_site_label
_atom_site_fract_x
_atom_site_fract_y
_atom_site_fract_z
Si Si1 0.581345 0.327004 0.756466
Si Si2 0.688218 0.386747 0.148617
Si Si3 0.134136 0.900559 0.870017
Si Si4 0.550019 0.201593 0.020880
Si Si5 0.018058 0.852777 0.296939
Si Si6 0.486202 0.327124 0.570084
Si Si7 0.380508 0.991300 0.758218
Si Si8 0.295628 0.124410 0.252146
O O1 0.751823 0.248592 0.442293
O O2 0.572022 0.232922 0.846450
O O3 0.488988 0.312629 0.727895
O O4 0.500000 0.500000 0.000000
O O5 0.613028 0.383441 0.395129
O O6 0.655564 0.549535 0.237360
O O7 0.603901 0.312179 0.106873
O O8 0.852260 0.280288 0.878997
O O9 0.244197 0.978350 0.835062
O O10 0.063696 0.869600 0.086363
O O11 0.000000 0.000000 0.000000
O O12 0.641363 0.035095 0.849062
O O13 0.383167 0.219320 0.259922
O O14 0.873365 0.820436 0.469200
O O15 0.000000 0.000000 0.500000
O O16 0.537962 0.161144 0.352546
O O17 0.500000 0.000000 0.500000
O O18 0.324658 0.104495 0.030487
#
# Coordination Sequence:
#
# PCOD9099151 Si02
#       8
#     2   2   2   2   2   2   2   2
#     4  11  21  37  60  88 121 158 202 253 295 357
#     4  11  20  37  64  84 118 156 207 248 286 363
#     4  11  23  38  59  94 121 155 205 253 306 354
#     4  11  21  36  60  91 117 157 202 249 291 357
#     4  12  20  38  60  87 124 158 197 249 304 363
#     4  10  20  37  59  87 113 158 204 245 295 353
#     4  11  21  40  62  88 124 154 198 252 304 359
#     4  11  22  36  60  92 120 155 197 244 310 358
#
# _framework density 18.978936999999998
#
# number of rings (size 3 to 8) (size 9 to 14) (size 15 to 20)
#    0.000    1.000    7.500    2.250    0.000    1.000 
#    0.000    0.000    2.750    5.250    0.000    0.000 
#    0.000    0.000    0.000    0.000    0.000    0.000 
#
# Total GULP energy -89167.888607 kJ/mol
# GULP energy per Si atom -5572.993038 kJ/mol
# Density = 1.893574 g / cm^3
# Si number density = 18.978937 Si / 1000 Ang^3
#
#
#
# Elastic Constant Matrix: (Units=GPa)
#
#
# Indices 1 2 3 4 5 6 
#
# 1 109.5953 41.6782 57.8960 -7.5639 -20.7019 -5.6027
# 2 41.6782 61.2846 44.9357 -9.1729 -10.5403 -18.8823
# 3 57.8960 44.9357 127.3150 -7.4866 -25.9692 -7.5327
# 4 -7.5639 -9.1729 -7.4866 41.4007 -6.6576 -3.7571
# 5 -20.7019 -10.5403 -25.9692 -6.6576 40.9836 -4.2894
# 6 -5.6027 -18.8823 -7.5327 -3.7571 -4.2894 33.8299
#
#
#
# Elastic Compliance Matrix: (Units=1/GPa)
#
#
# Indices 1 2 3 4 5 6 
#
# 1 0.014137 -0.007085 -0.003362 0.000734 0.003110 -0.001886
# 2 -0.007085 0.032464 -0.006049 0.006950 0.003831 0.016857
# 3 -0.003362 -0.006049 0.012538 0.001050 0.004819 -0.000413
# 4 0.000734 0.006950 0.001050 0.028111 0.008270 0.008405
# 5 0.003110 0.003831 0.004819 0.008270 0.032267 0.008736
# 6 -0.001886 0.016857 -0.000413 0.008405 0.008736 0.040605
#
#
# Mechanical properties :
#
#
# Convention : Reuss Voigt Hill
#
# Bulk Modulus (GPa) = 38.24485 65.24609 51.74547
# Shear Modulus (GPa) = 24.77332 33.48851 29.13092
#
# Velocity S-wave (km/s) = 3.61682 4.20516 3.92204
# Velocity P-wave (km/s) = 6.13489 7.61779 6.91619
#
# Compressibility (1/GPa) = 0.02614731
#
# Stress axis : x y z
#
# Youngs Moduli (GPa) = 70.73793 30.80334 79.75541
#
# Poissons Ratio (x) = 0.21825 0.26813
# Poissons Ratio (y) = 0.50121 0.48241
# Poissons Ratio (z) = 0.23781 0.18632
#
# Static dielectric constant tensor:
#      x y z
#    x 1.710140 -0.008770 0.052790 
#    y -0.008770 1.690660 0.006890 
#    z 0.052790 0.006890 1.741670 
# 
# From -- ./inp_files/252233.got.cif
#   From: 2010.05.17/outbox.cif.g08.bks.cpg/sg2_127_cif.got.tgz:252233.got - 2010.06.03 11:33:40.
