data_PCOD9099734
_publ_section_title
;
Structure prediction by ZEFSAII (Michael W. Deem and Ramdas Pophale) SiO2 
 PCOD9099734
Probable space group: P -1
;
_chemical_formula_sum "Si O2"
_cell_formula_units_Z 14
_cell_length_a 14.105847
_cell_length_b 9.915252
_cell_length_c 6.605138
_cell_angle_alpha 113.012640
_cell_angle_beta 44.893375
_cell_angle_gamma 124.208441
_cell_volume 539.175396
_symmetry_space_group_name_H-M "P -1"
_symmetry_group_IT_number 2
_symmetry_cell_setting 'triclinic'
loop_
_space_group_symop_operation_xyz
x,y,z
-x,-y,-z
loop_
_atom_site_type_symbol
_atom_site_label
_atom_site_fract_x
_atom_site_fract_y
_atom_site_fract_z
Si Si1 0.420065 0.353620 0.687019
Si Si2 0.160188 0.117651 0.654800
Si Si3 0.171547 0.573178 0.839925
Si Si4 0.580091 0.136303 0.253128
Si Si5 0.298543 0.862973 0.359129
Si Si6 0.787949 0.657283 0.666479
Si Si7 0.976010 0.699619 0.798465
O O1 0.500000 0.500000 0.500000
O O2 0.276690 0.231959 0.709803
O O3 0.518127 0.257171 0.505373
O O4 0.359883 0.388305 0.005713
O O5 0.179383 0.192157 0.445135
O O6 0.220160 0.978572 0.471433
O O7 0.020477 0.148478 0.978154
O O8 0.250490 0.768461 0.862434
O O9 0.235822 0.491768 0.530174
O O10 0.150995 0.469992 0.019031
O O11 0.000000 0.500000 0.000000
O O12 0.434706 0.958990 0.369601
O O13 0.615567 0.166161 0.976771
O O14 0.142732 0.709782 0.561662
O O15 0.922806 0.705641 0.653015
#
# Coordination Sequence:
#
# PCOD9099734 Si02
#       7
#     2   2   2   2   2   2   2
#     4  10  20  37  61  90 124 162 207 255 306 364
#     4   9  20  37  60  91 121 160 210 250 303 370
#     4  11  24  42  65  94 122 158 210 257 310 374
#     4  10  22  40  60  89 125 162 203 249 312 370
#     4  10  21  40  63  88 129 169 200 254 311 363
#     4  10  21  38  64  92 123 161 205 260 306 357
#     4  10  21  40  67  93 120 161 209 257 307 362
#
# _framework density 25.965575999999999
#
# number of rings (size 3 to 8) (size 9 to 14) (size 15 to 20)
#    0.000    2.000    0.000    3.857    0.000    6.286 
#    0.000   11.429    0.000    0.000    0.000    0.000 
#    0.000    0.000    0.000    0.000    0.000    0.000 
#
# Total GULP energy -78077.377396 kJ/mol
# GULP energy per Si atom -5576.955528 kJ/mol
# Density = 2.590648 g / cm^3
# Si number density = 25.965576 Si / 1000 Ang^3
#
#
#
# Elastic Constant Matrix: (Units=GPa)
#
#
# Indices 1 2 3 4 5 6 
#
# 1 105.6637 23.9887 14.4768 -0.7111 13.1204 14.8119
# 2 23.9887 95.8126 39.5488 1.4177 6.5333 21.5791
# 3 14.4768 39.5488 139.8998 -9.9826 -7.5107 19.2651
# 4 -0.7111 1.4177 -9.9826 20.5344 6.4413 -0.4943
# 5 13.1204 6.5333 -7.5107 6.4413 39.7705 -2.6940
# 6 14.8119 21.5791 19.2651 -0.4943 -2.6940 49.4204
#
#
#
# Elastic Compliance Matrix: (Units=1/GPa)
#
#
# Indices 1 2 3 4 5 6 
#
# 1 0.010732 -0.001736 -0.000374 0.001418 -0.003725 -0.002502
# 2 -0.001736 0.013343 -0.003278 -0.001985 -0.002199 -0.004168
# 3 -0.000374 -0.003278 0.008715 0.003920 0.001556 -0.001730
# 4 0.001418 -0.001985 0.003920 0.053308 -0.008103 -0.000995
# 5 -0.003725 -0.002199 0.001556 -0.008103 0.028540 0.002945
# 6 -0.002502 -0.004168 -0.001730 -0.000995 0.002945 0.023629
#
#
# Mechanical properties :
#
#
# Convention : Reuss Voigt Hill
#
# Bulk Modulus (GPa) = 45.42758 55.26720 50.34739
# Shear Modulus (GPa) = 31.97310 39.50252 35.73781
#
# Velocity S-wave (km/s) = 3.51289 3.90467 3.71395
# Velocity P-wave (km/s) = 5.82985 6.45442 6.15007
#
# Compressibility (1/GPa) = 0.02201306
#
# Stress axis : x y z
#
# Youngs Moduli (GPa) = 93.17784 74.94690 114.74697
#
# Poissons Ratio (x) = 0.13012 0.04293
# Poissons Ratio (y) = 0.16177 0.37615
# Poissons Ratio (z) = 0.03486 0.24568
#
# Static dielectric constant tensor:
#      x y z
#    x 2.389940 -0.042410 -0.179400 
#    y -0.042410 2.175290 -0.129330 
#    z -0.179400 -0.129330 2.208450 
# 
# From -- ./inp_files/83393.got.cif
#   From: 2010.05.17/outbox.cif.g08.bks.cpg/sg2_42_cif.got.tgz:83393.got - 2010.06.03 11:33:40.
