data_PCOD9099298
_publ_section_title
;
Structure prediction by ZEFSAII (Michael W. Deem and Ramdas Pophale) SiO2 
 PCOD9099298
Probable space group: P -1
;
_chemical_formula_sum "Si O2"
_cell_formula_units_Z 16
_cell_length_a 10.934693
_cell_length_b 11.846487
_cell_length_c 16.992593
_cell_angle_alpha 33.007476
_cell_angle_beta 43.621288
_cell_angle_gamma 65.094646
_cell_volume 718.874710
_symmetry_space_group_name_H-M "P -1"
_symmetry_group_IT_number 2
_symmetry_cell_setting 'triclinic'
loop_
_space_group_symop_operation_xyz
x,y,z
-x,-y,-z
loop_
_atom_site_type_symbol
_atom_site_label
_atom_site_fract_x
_atom_site_fract_y
_atom_site_fract_z
Si Si1 0.143501 0.945685 0.540075
Si Si2 0.541042 0.877188 0.128415
Si Si3 0.232512 0.714606 0.770877
Si Si4 0.100791 0.561353 0.536675
Si Si5 0.870836 0.590868 0.763775
Si Si6 0.638314 0.897750 0.395346
Si Si7 0.535778 0.066216 0.193195
Si Si8 0.960675 0.133642 0.740527
O O1 0.224912 0.913743 0.602757
O O2 0.943047 0.697120 0.755215
O O3 0.124546 0.179293 0.411530
O O4 0.306003 0.981473 0.376108
O O5 0.550218 0.009198 0.129026
O O6 0.334821 0.628045 0.379381
O O7 0.754788 0.891118 0.000501
O O8 0.500000 0.000000 0.000000
O O9 0.423214 0.702524 0.649369
O O10 0.304005 0.843206 0.745995
O O11 0.000000 0.500000 0.000000
O O12 0.966188 0.321191 0.692350
O O13 0.031133 0.542462 0.669481
O O14 0.068541 0.762511 0.388945
O O15 0.663238 0.347467 0.989255
O O16 0.831120 0.868979 0.344549
O O17 0.611391 0.927036 0.298001
#
# Coordination Sequence:
#
# PCOD9099298 Si02
#       8
#     2   2   2   2   2   2   2   2
#     4  10  22  36  60  91 122 152 209 248 297 369
#     4  10  21  38  59  85 121 159 202 252 301 353
#     4  10  21  42  63  88 124 161 195 253 305 361
#     4  10  20  37  60  83 120 156 206 257 304 348
#     4  11  20  36  59  90 118 162 197 253 307 353
#     4  10  23  39  63  91 122 159 208 244 301 375
#     4  11  21  39  60  88 125 161 197 253 307 357
#     4  10  21  39  59  87 116 161 205 253 303 358
#
# _framework density 22.257009
#
# number of rings (size 3 to 8) (size 9 to 14) (size 15 to 20)
#    0.000    1.750    2.500    1.875    0.000    1.500 
#    0.000    5.625    0.000    0.000    0.000    0.000 
#    0.000    0.000    0.000    0.000    0.000    0.000 
#
# Total GULP energy -89209.562510 kJ/mol
# GULP energy per Si atom -5575.597657 kJ/mol
# Density = 2.220635 g / cm^3
# Si number density = 22.257009 Si / 1000 Ang^3
#
#
#
# Elastic Constant Matrix: (Units=GPa)
#
#
# Indices 1 2 3 4 5 6 
#
# 1 80.4522 27.1995 21.2292 14.5985 -12.8487 5.9546
# 2 27.1995 48.7681 16.2331 12.4104 4.7792 15.3170
# 3 21.2292 16.2331 92.9582 0.3261 -27.2090 0.5518
# 4 14.5985 12.4104 0.3261 28.1566 1.0847 -10.0508
# 5 -12.8487 4.7792 -27.2090 1.0847 26.8399 6.0688
# 6 5.9546 15.3170 0.5518 -10.0508 6.0688 40.8289
#
#
#
# Elastic Compliance Matrix: (Units=1/GPa)
#
#
# Indices 1 2 3 4 5 6 
#
# 1 0.018880 -0.009417 0.001122 -0.007181 0.012800 -0.002906
# 2 -0.009417 0.039854 -0.009739 -0.017301 -0.017359 -0.015125
# 3 0.001122 -0.009739 0.018128 0.003070 0.020302 0.000983
# 4 -0.007181 -0.017301 0.003070 0.054710 -0.004342 0.021609
# 5 0.012800 -0.017359 0.020302 -0.004342 0.068799 -0.006924
# 6 -0.002906 -0.015125 0.000983 0.021609 -0.006924 0.036926
#
#
# Mechanical properties :
#
#
# Convention : Reuss Voigt Hill
#
# Bulk Modulus (GPa) = 24.51502 39.05578 31.78540
# Shear Modulus (GPa) = 17.42381 29.66618 23.54500
#
# Velocity S-wave (km/s) = 2.80097 3.65484 3.25602
# Velocity P-wave (km/s) = 4.63671 5.94947 5.33363
#
# Compressibility (1/GPa) = 0.04079131
#
# Stress axis : x y z
#
# Youngs Moduli (GPa) = 52.96613 25.09182 55.16333
#
# Poissons Ratio (x) = 0.23630 -0.06188
# Poissons Ratio (y) = 0.49881 0.53726
# Poissons Ratio (z) = -0.05942 0.24438
#
# Static dielectric constant tensor:
#      x y z
#    x 1.833620 0.008720 -0.020400 
#    y 0.008720 1.807260 0.023710 
#    z -0.020400 0.023710 1.853290 
# 
# From -- ./inp_files/569126.got.cif
#   From: 2010.05.17/outbox.cif.g08.bks.cpg/sg2_285_cif.got.tgz:569126.got - 2010.06.03 11:33:40.
