data_PCOD9099008
_publ_section_title
;
Structure prediction by ZEFSAII (Michael W. Deem and Ramdas Pophale) SiO2 
 PCOD9099008
Probable space group: P -1
;
_chemical_formula_sum "Si O2"
_cell_formula_units_Z 16
_cell_length_a 24.790686
_cell_length_b 12.482525
_cell_length_c 18.672768
_cell_angle_alpha 161.996401
_cell_angle_beta 154.080679
_cell_angle_gamma 25.515538
_cell_volume 731.672900
_symmetry_space_group_name_H-M "P -1"
_symmetry_group_IT_number 2
_symmetry_cell_setting 'triclinic'
loop_
_space_group_symop_operation_xyz
x,y,z
-x,-y,-z
loop_
_atom_site_type_symbol
_atom_site_label
_atom_site_fract_x
_atom_site_fract_y
_atom_site_fract_z
Si Si1 0.846082 0.705571 0.973004
Si Si2 0.343031 0.716046 0.457139
Si Si3 0.357706 0.017449 0.818118
Si Si4 0.963465 0.413819 0.321917
Si Si5 0.992202 0.168286 0.493499
Si Si6 0.762406 0.188519 0.763727
Si Si7 0.201732 0.074259 0.213159
Si Si8 0.756778 0.540006 0.620480
O O1 0.760457 0.498023 0.781467
O O2 0.774382 0.792761 0.866910
O O3 0.000000 0.500000 0.000000
O O4 0.866078 0.038522 0.251439
O O5 0.500000 0.500000 0.500000
O O6 0.300172 0.857733 0.415686
O O7 0.335261 0.988019 0.687746
O O8 0.346526 0.645068 0.599132
O O9 0.260610 0.385386 0.974587
O O10 0.500000 0.000000 0.000000
O O11 0.000000 0.500000 0.500000
O O12 0.957985 0.741152 0.467558
O O13 0.086301 0.063772 0.220627
O O14 0.843064 0.263730 0.079790
O O15 0.932685 0.565588 0.711583
O O16 0.107703 0.828976 0.452209
O O17 0.721413 0.032667 0.688400
O O18 0.277426 0.213570 0.332916
#
# Coordination Sequence:
#
# PCOD9099008 Si02
#       8
#     2   2   2   2   2   2   2   2
#     4   9  21  37  64  97 130 169 224 282 341 393
#     4  11  24  43  72 103 132 179 237 284 337 409
#     4  11  23  44  70  94 128 176 239 282 333 403
#     4  11  24  38  62  96 139 178 218 276 350 411
#     4  10  20  37  58  92 129 172 216 269 340 408
#     4  11  25  41  66  94 136 176 226 279 343 401
#     4  11  23  38  58  97 134 170 220 272 348 406
#     4  10  21  36  63  91 128 171 222 275 334 401
#
# _framework density 21.867694
#
# number of rings (size 3 to 8) (size 9 to 14) (size 15 to 20)
#    0.000    1.500    1.250    4.125   12.250    0.000 
#    0.000    0.625    0.000    3.750    0.000    0.000 
#    0.000    0.000    0.000    0.000    0.000    0.000 
#
# Total GULP energy -89197.585620 kJ/mol
# GULP energy per Si atom -5574.849101 kJ/mol
# Density = 2.181792 g / cm^3
# Si number density = 21.867694 Si / 1000 Ang^3
#
#
#
# Elastic Constant Matrix: (Units=GPa)
#
#
# Indices 1 2 3 4 5 6 
#
# 1 115.9380 46.9326 47.6812 -10.0091 -0.9048 40.3979
# 2 46.9326 73.7253 44.4195 -6.4035 12.7434 16.3444
# 3 47.6812 44.4195 137.6353 -14.4967 -0.6018 10.6630
# 4 -10.0091 -6.4035 -14.4967 29.7024 -2.9338 -6.3011
# 5 -0.9048 12.7434 -0.6018 -2.9338 28.6149 0.1589
# 6 40.3979 16.3444 10.6630 -6.3011 0.1589 55.9523
#
#
#
# Elastic Compliance Matrix: (Units=1/GPa)
#
#
# Indices 1 2 3 4 5 6 
#
# 1 0.015614 -0.007223 -0.002273 0.001146 0.003828 -0.008612
# 2 -0.007223 0.023128 -0.005076 -0.001129 -0.010747 -0.000671
# 3 -0.002273 -0.005076 0.009959 0.003617 0.002760 0.001626
# 4 0.001146 -0.001129 0.003617 0.036626 0.004354 0.002925
# 5 0.003828 -0.010747 0.002760 0.004354 0.040357 0.000225
# 6 -0.008612 -0.000671 0.001626 0.002925 0.000225 0.024305
#
#
# Mechanical properties :
#
#
# Convention : Reuss Voigt Hill
#
# Bulk Modulus (GPa) = 51.13477 67.26280 59.19878
# Shear Modulus (GPa) = 26.93214 35.40493 31.16853
#
# Velocity S-wave (km/s) = 3.51322 4.02811 3.77944
# Velocity P-wave (km/s) = 6.31596 7.24293 6.79527
#
# Compressibility (1/GPa) = 0.01955617
#
# Stress axis : x y z
#
# Youngs Moduli (GPa) = 64.04675 43.23723 100.41653
#
# Poissons Ratio (x) = 0.31228 0.22829
# Poissons Ratio (y) = 0.46258 0.50972
# Poissons Ratio (z) = 0.14561 0.21948
#
# Static dielectric constant tensor:
#      x y z
#    x 1.916250 -0.023890 -0.015870 
#    y -0.023890 1.820820 0.005140 
#    z -0.015870 0.005140 1.818500 
# 
# From -- ./inp_files/579212.got.cif
#   From: 2010.05.17/outbox.cif.g08.bks.cpg/sg2_290_cif.got.tgz:579212.got - 2010.06.03 11:33:40.
