data_PCOD9099793
_publ_section_title
;
Structure prediction by ZEFSAII (Michael W. Deem and Ramdas Pophale) SiO2 
 PCOD9099793
Probable space group: P -1
;
_chemical_formula_sum "Si O2"
_cell_formula_units_Z 14
_cell_length_a 5.089714
_cell_length_b 10.692829
_cell_length_c 14.106344
_cell_angle_alpha 126.250065
_cell_angle_beta 80.763466
_cell_angle_gamma 93.573370
_cell_volume 610.580057
_symmetry_space_group_name_H-M "P -1"
_symmetry_group_IT_number 2
_symmetry_cell_setting 'triclinic'
loop_
_space_group_symop_operation_xyz
x,y,z
-x,-y,-z
loop_
_atom_site_type_symbol
_atom_site_label
_atom_site_fract_x
_atom_site_fract_y
_atom_site_fract_z
Si Si1 0.946059 0.349718 0.834436
Si Si2 0.005323 0.316509 0.087800
Si Si3 0.339490 0.644476 0.480271
Si Si4 0.866485 0.436102 0.354381
Si Si5 0.545280 0.830104 0.204945
Si Si6 0.798625 0.144402 0.588040
Si Si7 0.461319 0.879623 0.031795
O O1 0.010493 0.527674 0.903909
O O2 0.162801 0.241758 0.827250
O O3 0.649709 0.312821 0.867925
O O4 0.943820 0.283414 0.696747
O O5 0.886523 0.357258 0.216142
O O6 0.828160 0.185915 0.995243
O O7 0.310128 0.256627 0.053255
O O8 0.640298 0.575130 0.432119
O O9 0.228634 0.676641 0.606721
O O10 0.306366 0.785164 0.472338
O O11 0.149490 0.507596 0.394529
O O12 0.429649 0.895346 0.340243
O O13 0.505368 0.936622 0.162802
O O14 0.000000 0.000000 0.500000
O O15 0.500000 0.000000 0.000000
#
# Coordination Sequence:
#
# PCOD9099793 Si02
#       7
#     2   2   2   2   2   2   2
#     4  10  22  41  68  98 128 161 220 264 314 380
#     4  12  23  42  72  94 131 169 214 268 317 373
#     4  10  20  37  61  92 133 159 211 255 314 369
#     4  10  20  38  62  94 123 167 207 264 304 372
#     4  10  23  44  64  94 134 160 223 265 316 380
#     4  10  23  41  65  95 133 170 205 263 322 381
#     4  12  28  45  65  95 129 173 213 263 325 388
#
# _framework density 22.929017999999999
#
# number of rings (size 3 to 8) (size 9 to 14) (size 15 to 20)
#    0.857    0.571    1.429    3.857    0.000    5.143 
#    2.571    0.000    0.000    0.000    0.000    0.000 
#    0.000    0.000    0.000    0.000    0.000    0.000 
#
# Total GULP energy -78282.174129 kJ/mol
# GULP energy per Si atom -5591.583866 kJ/mol
# Density = 2.287683 g / cm^3
# Si number density = 22.929018 Si / 1000 Ang^3
#
#
#
# Elastic Constant Matrix: (Units=GPa)
#
#
# Indices 1 2 3 4 5 6 
#
# 1 94.6932 11.2473 0.1315 -3.8069 -3.0092 -2.4640
# 2 11.2473 133.7697 44.5559 -42.9835 -1.2768 -9.6932
# 3 0.1315 44.5559 76.7257 -33.1271 -24.2152 0.3311
# 4 -3.8069 -42.9835 -33.1271 46.3618 2.4504 4.2769
# 5 -3.0092 -1.2768 -24.2152 2.4504 30.6549 -1.4429
# 6 -2.4640 -9.6932 0.3311 4.2769 -1.4429 30.8702
#
#
#
# Elastic Compliance Matrix: (Units=1/GPa)
#
#
# Indices 1 2 3 4 5 6 
#
# 1 0.010821 -0.001153 0.001812 0.000945 0.002392 0.000463
# 2 -0.001153 0.011663 -0.004945 0.007170 -0.003992 0.002443
# 3 0.001812 -0.004945 0.029756 0.015927 0.022067 -0.002902
# 4 0.000945 0.007170 0.015927 0.039426 0.009687 -0.002854
# 5 0.002392 -0.003992 0.022067 0.009687 0.049331 -0.000336
# 6 0.000463 0.002443 -0.002902 -0.002854 -0.000336 0.033609
#
#
# Mechanical properties :
#
#
# Convention : Reuss Voigt Hill
#
# Bulk Modulus (GPa) = 22.90120 46.33979 34.62049
# Shear Modulus (GPa) = 25.28651 38.19430 31.74041
#
# Velocity S-wave (km/s) = 3.32447 4.08580 3.72464
# Velocity P-wave (km/s) = 4.97450 6.52015 5.79905
#
# Compressibility (1/GPa) = 0.04366584
#
# Stress axis : x y z
#
# Youngs Moduli (GPa) = 92.41338 85.74471 33.60680
#
# Poissons Ratio (x) = 0.09890 -0.06090
# Poissons Ratio (y) = 0.10659 0.16620
# Poissons Ratio (z) = -0.16746 0.42405
#
# Static dielectric constant tensor:
#      x y z
#    x 1.809110 0.030090 0.026210 
#    y 0.030090 1.845800 -0.072930 
#    z 0.026210 -0.072930 1.897300 
# 
# From -- ./inp_files/480723.got.cif
#   From: 2010.05.17/outbox.cif.g08.bks.cpg/sg2_241_cif.got.tgz:480723.got - 2010.06.03 11:33:40.
