data_PCOD9099850
_publ_section_title
;
Structure prediction by ZEFSAII (Michael W. Deem and Ramdas Pophale) SiO2 
 PCOD9099850
Probable space group: P -1
;
_chemical_formula_sum "Si O2"
_cell_formula_units_Z 14
_cell_length_a 12.450063
_cell_length_b 8.249550
_cell_length_c 14.233102
_cell_angle_alpha 53.579070
_cell_angle_beta 28.796206
_cell_angle_gamma 55.488134
_cell_volume 562.570905
_symmetry_space_group_name_H-M "P -1"
_symmetry_group_IT_number 2
_symmetry_cell_setting 'triclinic'
loop_
_space_group_symop_operation_xyz
x,y,z
-x,-y,-z
loop_
_atom_site_type_symbol
_atom_site_label
_atom_site_fract_x
_atom_site_fract_y
_atom_site_fract_z
Si Si1 0.948116 0.799566 0.835756
Si Si2 0.819993 0.245784 0.529570
Si Si3 0.363756 0.284148 0.449905
Si Si4 0.170082 0.623839 0.907091
Si Si5 0.455017 0.954718 0.867067
Si Si6 0.212922 0.122332 0.808968
Si Si7 0.852610 0.707603 0.575131
O O1 0.055473 0.778894 0.658120
O O2 0.134464 0.742943 0.794200
O O3 0.792612 0.618768 0.037876
O O4 0.779127 0.007620 0.908875
O O5 0.726486 0.482449 0.535463
O O6 0.626486 0.099309 0.728365
O O7 0.989161 0.200866 0.502551
O O8 0.625128 0.294429 0.224445
O O9 0.334306 0.156576 0.608608
O O10 0.226343 0.204343 0.496462
O O11 0.925854 0.664899 0.127427
O O12 0.370488 0.041237 0.800666
O O13 0.608484 0.738304 0.806606
O O14 0.000000 0.000000 0.000000
O O15 0.000000 0.500000 0.500000
#
# Coordination Sequence:
#
# PCOD9099850 Si02
#       7
#     2   2   2   2   2   2   2
#     4  10  21  36  65  99 128 160 212 274 320 379
#     4  11  22  42  68  96 128 175 222 266 315 382
#     4  11  22  42  68  93 137 176 206 267 331 381
#     4  10  20  37  61  99 132 162 209 263 331 384
#     4  11  23  42  68  96 129 167 222 272 322 383
#     4  11  24  39  66 101 135 169 211 264 331 400
#     4  10  25  44  64  94 131 178 222 259 320 391
#
# _framework density 24.885753000000001
#
# number of rings (size 3 to 8) (size 9 to 14) (size 15 to 20)
#    0.000    1.429    2.857    2.143    0.000    6.286 
#    0.000    3.571    0.000    0.000    0.000    0.000 
#    0.000    0.000    0.000    0.000    0.000    0.000 
#
# Total GULP energy -78156.104559 kJ/mol
# GULP energy per Si atom -5582.578897 kJ/mol
# Density = 2.482911 g / cm^3
# Si number density = 24.885753 Si / 1000 Ang^3
#
#
#
# Elastic Constant Matrix: (Units=GPa)
#
#
# Indices 1 2 3 4 5 6 
#
# 1 168.0336 -3.1993 43.0298 11.5590 -18.9101 13.8033
# 2 -3.1993 109.9743 35.2587 46.8485 -2.4514 -4.6830
# 3 43.0298 35.2587 86.3036 35.4690 -6.7524 -4.2368
# 4 11.5590 46.8485 35.4690 57.9017 7.3131 -2.0216
# 5 -18.9101 -2.4514 -6.7524 7.3131 45.3112 6.7342
# 6 13.8033 -4.6830 -4.2368 -2.0216 6.7342 30.3112
#
#
#
# Elastic Compliance Matrix: (Units=1/GPa)
#
#
# Indices 1 2 3 4 5 6 
#
# 1 0.007972 0.002001 -0.004217 -0.001267 0.003728 -0.004823
# 2 0.002001 0.014772 -0.002070 -0.011508 0.003244 -0.000407
# 3 -0.004217 -0.002070 0.018514 -0.008949 0.001859 0.003178
# 4 -0.001267 -0.011508 -0.008949 0.033396 -0.008109 0.001577
# 5 0.003728 0.003244 0.001859 -0.008109 0.026481 -0.007361
# 6 -0.004823 -0.000407 0.003178 0.001577 -0.007361 0.037310
#
#
# Mechanical properties :
#
#
# Convention : Reuss Voigt Hill
#
# Bulk Modulus (GPa) = 30.59206 57.16555 43.87880
# Shear Modulus (GPa) = 31.66351 45.98633 38.82492
#
# Velocity S-wave (km/s) = 3.57088 4.30338 3.95413
# Velocity P-wave (km/s) = 5.41491 6.90747 6.20622
#
# Compressibility (1/GPa) = 0.03268822
#
# Stress axis : x y z
#
# Youngs Moduli (GPa) = 125.43811 67.69566 54.01252
#
# Poissons Ratio (x) = -0.13548 0.22776
# Poissons Ratio (y) = -0.25104 0.11178
# Poissons Ratio (z) = 0.52895 0.14010
#
# Static dielectric constant tensor:
#      x y z
#    x 1.913280 0.055790 0.015500 
#    y 0.055790 2.216910 0.104490 
#    z 0.015500 0.104490 1.927070 
# 
# From -- ./inp_files/514052.got.cif
#   From: 2010.05.17/outbox.cif.g08.bks.cpg/sg2_258_cif.got.tgz:514052.got - 2010.06.03 11:33:40.
