data_PCOD9099677
_publ_section_title
;
Structure prediction by ZEFSAII (Michael W. Deem and Ramdas Pophale) SiO2 
 PCOD9099677
Probable space group: P -1
;
_chemical_formula_sum "Si O2"
_cell_formula_units_Z 16
_cell_length_a 16.124856
_cell_length_b 8.893618
_cell_length_c 10.743933
_cell_angle_alpha 62.727795
_cell_angle_beta 56.736591
_cell_angle_gamma 107.066953
_cell_volume 778.867835
_symmetry_space_group_name_H-M "P -1"
_symmetry_group_IT_number 2
_symmetry_cell_setting 'triclinic'
loop_
_space_group_symop_operation_xyz
x,y,z
-x,-y,-z
loop_
_atom_site_type_symbol
_atom_site_label
_atom_site_fract_x
_atom_site_fract_y
_atom_site_fract_z
Si Si1 0.105821 0.648911 0.640984
Si Si2 0.934036 0.976398 0.196001
Si Si3 0.874146 0.560474 0.528864
Si Si4 0.201723 0.853146 0.841110
Si Si5 0.215445 0.390477 0.982627
Si Si6 0.897620 0.026874 0.621444
Si Si7 0.640250 0.178665 0.466884
Si Si8 0.310032 0.772817 0.970568
O O1 0.085995 0.522054 0.578015
O O2 0.236633 0.716253 0.575432
O O3 0.139089 0.885641 0.489728
O O4 0.957158 0.437137 0.921079
O O5 0.830015 0.002019 0.238970
O O6 0.852893 0.716309 0.423343
O O7 0.064367 0.192333 0.102362
O O8 0.000000 0.000000 0.000000
O O9 0.740799 0.332593 0.809631
O O10 0.007380 0.752924 0.440534
O O11 0.323562 0.912856 0.635565
O O12 0.256512 0.889759 0.922594
O O13 0.329546 0.603512 0.706839
O O14 0.229396 0.540747 0.029325
O O15 0.229506 0.227358 0.101270
O O16 0.000000 0.000000 0.500000
O O17 0.480892 0.967400 0.733962
#
# Coordination Sequence:
#
# PCOD9099677 Si02
#       8
#     2   2   2   2   2   2   2   2
#     4  12  23  39  66  98 121 165 214 266 317 369
#     4  11  22  37  63 101 125 156 207 281 313 360
#     4  11  23  39  64  95 135 156 207 261 329 364
#     4  11  21  38  65  92 121 162 217 259 308 364
#     4  10  20  37  61  88 126 159 209 259 311 355
#     4  11  21  36  63  97 122 156 206 271 311 360
#     4  11  24  41  62  91 130 169 214 251 314 380
#     4  11  24  41  62  90 133 173 203 253 315 393
#
# _framework density 20.542638
#
# number of rings (size 3 to 8) (size 9 to 14) (size 15 to 20)
#    0.000    1.000    5.000    3.000    5.250    0.500 
#    0.000    3.750    0.000    7.500    0.000    0.000 
#    0.000    0.000    0.000    0.000    0.000    0.000 
#
# Total GULP energy -89301.940873 kJ/mol
# GULP energy per Si atom -5581.371305 kJ/mol
# Density = 2.049588 g / cm^3
# Si number density = 20.542638 Si / 1000 Ang^3
#
#
#
# Elastic Constant Matrix: (Units=GPa)
#
#
# Indices 1 2 3 4 5 6 
#
# 1 85.3601 -10.4083 34.0375 -8.8512 20.2991 -18.6780
# 2 -10.4083 26.4739 -0.6446 0.3102 6.4597 -1.2293
# 3 34.0375 -0.6446 105.2625 6.1483 16.0277 -18.3632
# 4 -8.8512 0.3102 6.1483 22.2552 -2.3547 13.8915
# 5 20.2991 6.4597 16.0277 -2.3547 41.2783 -8.5343
# 6 -18.6780 -1.2293 -18.3632 13.8915 -8.5343 31.5460
#
#
#
# Elastic Compliance Matrix: (Units=1/GPa)
#
#
# Indices 1 2 3 4 5 6 
#
# 1 0.017533 0.008727 -0.003976 0.004358 -0.007260 0.004523
# 2 0.008727 0.043914 -0.000167 -0.000941 -0.010237 0.004426
# 3 -0.003976 -0.000167 0.013558 -0.011945 -0.001836 0.010295
# 4 0.004358 -0.000941 -0.011945 0.072788 -0.000788 -0.036675
# 5 -0.007260 -0.010237 -0.001836 -0.000788 0.030660 0.002876
# 6 0.004523 0.004426 0.010295 -0.036675 0.002876 0.057471
#
#
# Mechanical properties :
#
#
# Convention : Reuss Voigt Hill
#
# Bulk Modulus (GPa) = 11.88040 29.22952 20.55496
# Shear Modulus (GPa) = 19.62206 31.95671 25.78938
#
# Velocity S-wave (km/s) = 3.09396 3.94842 3.54702
# Velocity P-wave (km/s) = 4.30805 5.91999 5.17714
#
# Compressibility (1/GPa) = 0.08417227
#
# Stress axis : x y z
#
# Youngs Moduli (GPa) = 57.03621 22.77154 73.75811
#
# Poissons Ratio (x) = -0.19872 0.29326
# Poissons Ratio (y) = -0.49774 0.01233
# Poissons Ratio (z) = 0.22677 0.00381
#
# Static dielectric constant tensor:
#      x y z
#    x 1.781180 0.002000 0.058350 
#    y 0.002000 1.776970 -0.002150 
#    z 0.058350 -0.002150 1.758200 
# 
# From -- ./inp_files/461081.got.cif
#   From: 2010.05.17/outbox.cif.g08.bks.cpg/sg2_231_cif.got.tgz:461081.got - 2010.06.03 11:33:40.
