data_PCOD9099496
_publ_section_title
;
Structure prediction by ZEFSAII (Michael W. Deem and Ramdas Pophale) SiO2 
 PCOD9099496
Probable space group: P -1
;
_chemical_formula_sum "Si O2"
_cell_formula_units_Z 16
_cell_length_a 13.553499
_cell_length_b 11.984530
_cell_length_c 9.438257
_cell_angle_alpha 39.152926
_cell_angle_beta 131.250823
_cell_angle_gamma 136.975974
_cell_volume 645.069393
_symmetry_space_group_name_H-M "P -1"
_symmetry_group_IT_number 2
_symmetry_cell_setting 'triclinic'
loop_
_space_group_symop_operation_xyz
x,y,z
-x,-y,-z
loop_
_atom_site_type_symbol
_atom_site_label
_atom_site_fract_x
_atom_site_fract_y
_atom_site_fract_z
Si Si1 0.081355 0.645996 0.804542
Si Si2 0.396338 0.789094 0.928068
Si Si3 0.188707 0.245001 0.010071
Si Si4 0.520735 0.496894 0.854903
Si Si5 0.124199 0.518461 0.485807
Si Si6 0.830087 0.951876 0.353864
Si Si7 0.478105 0.233648 0.630356
Si Si8 0.845764 0.069793 0.934237
O O1 0.162921 0.857402 0.748267
O O2 0.960985 0.608968 0.606926
O O3 0.223959 0.644661 0.869409
O O4 0.000000 0.500000 0.000000
O O5 0.489392 0.711526 0.997369
O O6 0.422695 0.749971 0.155005
O O7 0.445570 0.023978 0.730441
O O8 0.207703 0.414108 0.746969
O O9 0.024697 0.163366 0.997464
O O10 0.308177 0.332110 0.158682
O O11 0.206803 0.074391 0.108663
O O12 0.447138 0.583620 0.587635
O O13 0.500000 0.500000 0.000000
O O14 0.198909 0.751891 0.287674
O O15 0.000000 0.500000 0.500000
O O16 0.675087 0.779797 0.435914
O O17 0.810487 0.964198 0.155953
O O18 0.000000 0.000000 0.500000
#
# Coordination Sequence:
#
# PCOD9099496 Si02
#       8
#     2   2   2   2   2   2   2   2
#     4  11  22  38  66 101 130 173 223 275 344 400
#     4  10  24  48  70  97 139 178 232 282 336 407
#     4  10  23  39  60  94 135 168 217 271 336 396
#     4  12  27  45  69  99 132 184 232 279 341 403
#     4  10  20  37  60  91 129 169 206 266 330 391
#     4  11  22  37  67  99 132 173 223 280 342 395
#     4  10  25  47  71  97 138 183 226 285 339 406
#     4  10  20  38  61  91 129 169 206 272 333 395
#
# _framework density 24.803532000000001
#
# number of rings (size 3 to 8) (size 9 to 14) (size 15 to 20)
#    0.000    1.500    1.250    3.375    3.500    7.500 
#    2.250    0.000    0.000    0.000    0.000    0.000 
#    0.000    0.000    0.000    0.000    0.000    0.000 
#
# Total GULP energy -89435.165926 kJ/mol
# GULP energy per Si atom -5589.697870 kJ/mol
# Density = 2.474708 g / cm^3
# Si number density = 24.803532 Si / 1000 Ang^3
#
#
#
# Elastic Constant Matrix: (Units=GPa)
#
#
# Indices 1 2 3 4 5 6 
#
# 1 79.6565 9.6118 40.8448 -10.5336 -18.6081 -4.5749
# 2 9.6118 62.8670 -0.9990 6.6586 8.6472 -10.0027
# 3 40.8448 -0.9990 86.5586 8.9774 -18.0481 5.1098
# 4 -10.5336 6.6586 8.9774 35.3854 -1.7105 7.4213
# 5 -18.6081 8.6472 -18.0481 -1.7105 35.5956 6.4161
# 6 -4.5749 -10.0027 5.1098 7.4213 6.4161 39.5179
#
#
#
# Elastic Compliance Matrix: (Units=1/GPa)
#
#
# Indices 1 2 3 4 5 6 
#
# 1 0.021423 -0.005907 -0.009412 0.010537 0.008579 -0.001170
# 2 -0.005907 0.020000 0.001579 -0.007831 -0.008797 0.007073
# 3 -0.009412 0.001579 0.017639 -0.006917 0.003718 -0.002275
# 4 0.010537 -0.007831 -0.006917 0.036624 0.007087 -0.007896
# 5 0.008579 -0.008797 0.003718 0.007087 0.038620 -0.009315
# 6 -0.001170 0.007073 -0.002275 -0.007896 -0.009315 0.030250
#
#
# Mechanical properties :
#
#
# Convention : Reuss Voigt Hill
#
# Bulk Modulus (GPa) = 31.66484 36.44414 34.05449
# Shear Modulus (GPa) = 24.68350 34.07474 29.37912
#
# Velocity S-wave (km/s) = 3.15804 3.71048 3.44535
# Velocity P-wave (km/s) = 5.10799 5.75169 5.43937
#
# Compressibility (1/GPa) = 0.03158077
#
# Stress axis : x y z
#
# Youngs Moduli (GPa) = 46.67831 50.00063 56.69142
#
# Poissons Ratio (x) = 0.29536 0.53359
# Poissons Ratio (y) = 0.27574 -0.08949
# Poissons Ratio (z) = 0.43935 -0.07893
#
# Static dielectric constant tensor:
#      x y z
#    x 2.303500 0.066670 0.149520 
#    y 0.066670 1.990540 -0.077550 
#    z 0.149520 -0.077550 2.002180 
# 
# From -- ./inp_files/306365.got.cif
#   From: 2010.05.17/outbox.cif.g08.bks.cpg/sg2_154_cif.got.tgz:306365.got - 2010.06.03 11:33:40.
