data_PCOD9099884
_publ_section_title
;
Structure prediction by ZEFSAII (Michael W. Deem and Ramdas Pophale) SiO2 
 PCOD9099884
Probable space group: P -1
;
_chemical_formula_sum "Si O2"
_cell_formula_units_Z 14
_cell_length_a 15.073882
_cell_length_b 7.784755
_cell_length_c 9.107432
_cell_angle_alpha 111.225341
_cell_angle_beta 52.210860
_cell_angle_gamma 139.474862
_cell_volume 537.480035
_symmetry_space_group_name_H-M "P -1"
_symmetry_group_IT_number 2
_symmetry_cell_setting 'triclinic'
loop_
_space_group_symop_operation_xyz
x,y,z
-x,-y,-z
loop_
_atom_site_type_symbol
_atom_site_label
_atom_site_fract_x
_atom_site_fract_y
_atom_site_fract_z
Si Si1 0.451451 0.136315 0.285739
Si Si2 0.058677 0.170461 0.345453
Si Si3 0.030941 0.399741 0.674190
Si Si4 0.743817 0.975640 0.051666
Si Si5 0.151294 0.946665 0.715169
Si Si6 0.332651 0.724205 0.658374
Si Si7 0.436333 0.677871 0.095259
O O1 0.301612 0.054174 0.495036
O O2 0.427268 0.885452 0.211843
O O3 0.607594 0.346232 0.301620
O O4 0.483931 0.241364 0.121441
O O5 0.026387 0.339872 0.490704
O O6 0.251675 0.382476 0.187111
O O7 0.950756 0.026224 0.264006
O O8 0.000000 0.000000 0.500000
O O9 0.038271 0.628526 0.755338
O O10 0.200959 0.519310 0.605046
O O11 0.883564 0.134782 0.835609
O O12 0.783405 0.925288 0.149592
O O13 0.746749 0.196996 0.156866
O O14 0.559973 0.731447 0.101126
O O15 0.500000 0.000000 0.500000
#
# Coordination Sequence:
#
# PCOD9099884 Si02
#       7
#     2   2   2   2   2   2   2
#     4  10  19  33  63  98 119 152 196 256 307 353
#     4  12  27  43  59  86 126 166 204 249 302 362
#     4  11  21  37  64  90 127 158 203 253 302 356
#     4  10  21  35  61  98 124 152 198 257 310 353
#     4  11  21  38  64  94 120 154 205 251 304 360
#     4  10  16  31  57  98 131 145 189 255 311 348
#     4  10  22  37  60  89 128 155 199 248 309 352
#
# _framework density 26.047477000000001
#
# number of rings (size 3 to 8) (size 9 to 14) (size 15 to 20)
#    0.000    1.429    4.286    3.857    8.000    0.000 
#    0.000    4.286    0.000    0.000    0.000    0.000 
#    0.000    0.000    0.000    0.000    0.000    0.000 
#
# Total GULP energy -78419.067264 kJ/mol
# GULP energy per Si atom -5601.361947 kJ/mol
# Density = 2.598819 g / cm^3
# Si number density = 26.047477 Si / 1000 Ang^3
#
#
#
# Elastic Constant Matrix: (Units=GPa)
#
#
# Indices 1 2 3 4 5 6 
#
# 1 189.6489 52.1038 57.0556 -17.0293 26.0742 39.5878
# 2 52.1038 78.8221 34.1121 -16.9753 16.4206 16.2800
# 3 57.0556 34.1121 191.1115 -12.4397 1.2600 20.6719
# 4 -17.0293 -16.9753 -12.4397 36.9739 3.1515 4.0004
# 5 26.0742 16.4206 1.2600 3.1515 42.7920 6.8397
# 6 39.5878 16.2800 20.6719 4.0004 6.8397 50.7616
#
#
#
# Elastic Compliance Matrix: (Units=1/GPa)
#
#
# Indices 1 2 3 4 5 6 
#
# 1 0.008044 -0.002458 -0.001232 0.002965 -0.003379 -0.004761
# 2 -0.002458 0.018509 -0.001694 0.007617 -0.005609 -0.003174
# 3 -0.001232 -0.001694 0.006071 0.000712 0.001363 -0.001208
# 4 0.002965 0.007617 0.000712 0.033411 -0.006116 -0.006854
# 5 -0.003379 -0.005609 0.001363 -0.006116 0.027894 0.000603
# 6 -0.004761 -0.003174 -0.001208 -0.006854 0.000603 0.025382
#
#
# Mechanical properties :
#
#
# Convention : Reuss Voigt Hill
#
# Bulk Modulus (GPa) = 45.75570 82.90281 64.32925
# Shear Modulus (GPa) = 36.39973 47.19289 41.79631
#
# Velocity S-wave (km/s) = 3.74229 4.26115 4.01012
# Velocity P-wave (km/s) = 6.02307 7.49043 6.79646
#
# Compressibility (1/GPa) = 0.02185520
#
# Stress axis : x y z
#
# Youngs Moduli (GPa) = 124.32240 54.02755 164.72366
#
# Poissons Ratio (x) = 0.13279 0.20301
# Poissons Ratio (y) = 0.30557 0.27901
# Poissons Ratio (z) = 0.15322 0.09151
#
# Static dielectric constant tensor:
#      x y z
#    x 2.078440 -0.082920 -0.047940 
#    y -0.082920 2.178400 0.100830 
#    z -0.047940 0.100830 2.012840 
# 
# From -- ./inp_files/180613.got.cif
#   From: 2010.05.17/outbox.cif.g08.bks.cpg/sg2_91_cif.got.tgz:180613.got - 2010.06.03 11:33:40.
