data_PCOD9099557
_publ_section_title
;
Structure prediction by ZEFSAII (Michael W. Deem and Ramdas Pophale) SiO2 
 PCOD9099557
Probable space group: P -1
;
_chemical_formula_sum "Si O2"
_cell_formula_units_Z 16
_cell_length_a 6.014194
_cell_length_b 21.438006
_cell_length_c 9.286787
_cell_angle_alpha 133.508137
_cell_angle_beta 52.807718
_cell_angle_gamma 118.124574
_cell_volume 688.627802
_symmetry_space_group_name_H-M "P -1"
_symmetry_group_IT_number 2
_symmetry_cell_setting 'triclinic'
loop_
_space_group_symop_operation_xyz
x,y,z
-x,-y,-z
loop_
_atom_site_type_symbol
_atom_site_label
_atom_site_fract_x
_atom_site_fract_y
_atom_site_fract_z
Si Si1 0.187356 0.396005 0.258771
Si Si2 0.388219 0.079935 0.009981
Si Si3 0.705914 0.887784 0.234951
Si Si4 0.809020 0.235324 0.099296
Si Si5 0.870490 0.205339 0.702210
Si Si6 0.880819 0.959313 0.667063
Si Si7 0.001967 0.515122 0.270600
Si Si8 0.775336 0.373769 0.897727
O O1 0.217316 0.436549 0.470681
O O2 0.161853 0.468121 0.259713
O O3 0.903625 0.330695 0.270388
O O4 0.451483 0.348780 0.026123
O O5 0.137300 0.051015 0.168836
O O6 0.316577 0.096561 0.901464
O O7 0.544630 0.171316 0.152494
O O8 0.609357 0.007941 0.814943
O O9 0.929031 0.819169 0.058942
O O10 0.397400 0.852634 0.350717
O O11 0.848452 0.977759 0.385238
O O12 0.780274 0.242219 0.949381
O O13 0.942523 0.289042 0.710113
O O14 0.094377 0.138277 0.545965
O O15 0.184508 0.582989 0.205608
O O16 0.878081 0.443584 0.091153
#
# Coordination Sequence:
#
# PCOD9099557 Si02
#       8
#     2   2   2   2   2   2   2   2
#     4  11  21  43  66  92 127 167 204 256 320 372
#     4   9  21  39  57  86 121 159 203 258 301 365
#     4  10  20  37  61  82 117 161 202 248 305 364
#     4  10  21  38  58  86 124 158 204 253 305 372
#     4  11  22  37  58  89 122 160 204 257 308 365
#     4  10  21  38  58  87 120 159 204 254 307 361
#     4  10  24  41  67  95 123 164 209 256 316 379
#     4  11  22  43  63  95 128 161 210 261 309 377
#
# _framework density 23.234613
#
# number of rings (size 3 to 8) (size 9 to 14) (size 15 to 20)
#    0.000    1.750    2.500    1.500    0.000    6.500 
#    2.250    1.250    0.000    0.000    0.000    0.000 
#    0.000    0.000    0.000    0.000    0.000    0.000 
#
# Total GULP energy -89351.047610 kJ/mol
# GULP energy per Si atom -5584.440476 kJ/mol
# Density = 2.318173 g / cm^3
# Si number density = 23.234613 Si / 1000 Ang^3
#
#
#
# Elastic Constant Matrix: (Units=GPa)
#
#
# Indices 1 2 3 4 5 6 
#
# 1 49.3617 28.3535 10.6409 -0.7738 9.6215 -2.9411
# 2 28.3535 136.6400 48.6802 13.7431 3.5405 -2.8828
# 3 10.6409 48.6802 75.9535 -2.7349 14.0905 -2.7492
# 4 -0.7738 13.7431 -2.7349 35.6544 -3.7050 2.5521
# 5 9.6215 3.5405 14.0905 -3.7050 24.0023 1.9311
# 6 -2.9411 -2.8828 -2.7492 2.5521 1.9311 38.4058
#
#
#
# Elastic Compliance Matrix: (Units=1/GPa)
#
#
# Indices 1 2 3 4 5 6 
#
# 1 0.025395 -0.005978 0.002377 0.001789 -0.010585 0.002079
# 2 -0.005978 0.011631 -0.007608 -0.004735 0.004420 -0.000037
# 3 0.002377 -0.007608 0.019945 0.003257 -0.011148 0.001383
# 4 0.001789 -0.004735 0.003257 0.030625 0.002971 -0.002170
# 5 -0.010585 0.004420 -0.011148 0.002971 0.052588 -0.004118
# 6 0.002079 -0.000037 0.001383 -0.002170 -0.004118 0.026644
#
#
# Mechanical properties :
#
#
# Convention : Reuss Voigt Hill
#
# Bulk Modulus (GPa) = 28.94251 48.58935 38.76593
# Shear Modulus (GPa) = 24.90489 31.23121 28.06805
#
# Velocity S-wave (km/s) = 3.27752 3.67027 3.47944
# Velocity P-wave (km/s) = 5.17750 6.23851 5.73261
#
# Compressibility (1/GPa) = 0.03455125
#
# Stress axis : x y z
#
# Youngs Moduli (GPa) = 39.37740 85.98043 50.13869
#
# Poissons Ratio (x) = 0.51402 -0.11919
# Poissons Ratio (y) = 0.23541 0.38148
# Poissons Ratio (z) = -0.09361 0.65417
#
# Static dielectric constant tensor:
#      x y z
#    x 1.935970 0.037210 0.008500 
#    y 0.037210 1.874760 0.040280 
#    z 0.008500 0.040280 1.894130 
# 
# From -- ./inp_files/141571.got.cif
#   From: 2010.05.17/outbox.cif.g08.bks.cpg/sg2_71_cif.got.tgz:141571.got - 2010.06.03 11:33:40.
