data_PCOD9099766
_publ_section_title
;
Structure prediction by ZEFSAII (Michael W. Deem and Ramdas Pophale) SiO2 
 PCOD9099766
Probable space group: P -1
;
_chemical_formula_sum "Si O2"
_cell_formula_units_Z 16
_cell_length_a 8.374058
_cell_length_b 11.498188
_cell_length_c 19.680802
_cell_angle_alpha 44.992271
_cell_angle_beta 38.183215
_cell_angle_gamma 38.068178
_cell_volume 702.630253
_symmetry_space_group_name_H-M "P -1"
_symmetry_group_IT_number 2
_symmetry_cell_setting 'triclinic'
loop_
_space_group_symop_operation_xyz
x,y,z
-x,-y,-z
loop_
_atom_site_type_symbol
_atom_site_label
_atom_site_fract_x
_atom_site_fract_y
_atom_site_fract_z
Si Si1 0.170798 0.430702 0.665555
Si Si2 0.046717 0.122112 0.776777
Si Si3 0.199396 0.828874 0.949920
Si Si4 0.098751 0.817091 0.493146
Si Si5 0.186608 0.611687 0.833426
Si Si6 0.026185 0.980258 0.304739
Si Si7 0.726750 0.714575 0.159250
Si Si8 0.546707 0.661620 0.033802
O O1 0.019072 0.657559 0.607385
O O2 0.533924 0.312678 0.579659
O O3 0.134945 0.395518 0.770712
O O4 0.066570 0.308030 0.708670
O O5 0.055789 0.086621 0.709128
O O6 0.727592 0.176394 0.895652
O O7 0.281183 0.929838 0.821259
O O8 0.461042 0.678801 0.976114
O O9 0.970089 0.762909 0.030360
O O10 0.000000 0.000000 0.000000
O O11 0.982553 0.897343 0.423202
O O12 0.000000 0.000000 0.500000
O O13 0.309444 0.427714 0.819299
O O14 0.367599 0.537138 0.874344
O O15 0.173183 0.788102 0.727353
O O16 0.838623 0.678263 0.936986
O O17 0.389898 0.898068 0.211500
#
# Coordination Sequence:
#
# PCOD9099766 Si02
#       8
#     2   2   2   2   2   2   2   2
#     4  10  22  43  69  94 121 161 214 265 328 377
#     4  11  22  42  64  95 131 172 212 261 312 377
#     4  10  20  37  61  91 131 169 215 247 301 370
#     4  10  23  46  70  95 119 157 212 273 332 389
#     4  11  24  38  59  96 134 178 215 251 309 369
#     4  11  24  41  66  91 129 170 210 266 323 378
#     4  11  21  40  65  91 128 176 213 261 309 377
#     4  10  22  40  56  94 137 174 216 252 301 369
#
# _framework density 22.771578999999999
#
# number of rings (size 3 to 8) (size 9 to 14) (size 15 to 20)
#    0.000    1.500    3.750    2.250    5.250    2.000 
#    2.250    0.625    0.000    0.000    0.000    0.000 
#    0.000    0.000    0.000    0.000    0.000    0.000 
#
# Total GULP energy -89395.312942 kJ/mol
# GULP energy per Si atom -5587.207059 kJ/mol
# Density = 2.271975 g / cm^3
# Si number density = 22.771579 Si / 1000 Ang^3
#
#
#
# Elastic Constant Matrix: (Units=GPa)
#
#
# Indices 1 2 3 4 5 6 
#
# 1 124.6826 38.5520 41.5279 -33.2591 36.2202 7.0872
# 2 38.5520 99.4847 44.5215 -37.8256 21.3219 10.5958
# 3 41.5279 44.5215 82.9276 -40.5226 22.6207 3.0585
# 4 -33.2591 -37.8256 -40.5226 46.5264 -7.4156 6.2249
# 5 36.2202 21.3219 22.6207 -7.4156 36.2305 -1.0231
# 6 7.0872 10.5958 3.0585 6.2249 -1.0231 36.2837
#
#
#
# Elastic Compliance Matrix: (Units=1/GPa)
#
#
# Indices 1 2 3 4 5 6 
#
# 1 0.014610 0.001856 0.001674 0.011904 -0.014475 -0.005987
# 2 0.001856 0.018379 -0.000154 0.015768 -0.009593 -0.008692
# 3 0.001674 -0.000154 0.026414 0.022821 -0.013596 -0.006807
# 4 0.011904 0.015768 0.022821 0.061661 -0.023376 -0.020091
# 5 -0.014475 -0.009593 -0.013596 -0.023376 0.051768 0.012245
# 6 -0.005987 -0.008692 -0.006807 -0.020091 0.012245 0.035634
#
#
# Mechanical properties :
#
#
# Convention : Reuss Voigt Hill
#
# Bulk Modulus (GPa) = 15.11617 61.81086 38.46352
# Shear Modulus (GPa) = 22.34474 35.97435 29.15954
#
# Velocity S-wave (km/s) = 3.13590 3.97897 3.58232
# Velocity P-wave (km/s) = 4.44572 6.95071 5.83424
#
# Compressibility (1/GPa) = 0.06615434
#
# Stress axis : x y z
#
# Youngs Moduli (GPa) = 68.44643 54.41099 37.85821
#
# Poissons Ratio (x) = -0.10096 -0.06337
# Poissons Ratio (y) = -0.12700 0.00582
# Poissons Ratio (z) = -0.11457 0.00836
#
# Static dielectric constant tensor:
#      x y z
#    x 1.871510 -0.039970 0.002500 
#    y -0.039970 1.949170 -0.027520 
#    z 0.002500 -0.027520 1.842940 
# 
# From -- ./inp_files/589439.got.cif
#   From: 2010.05.17/outbox.cif.g08.bks.cpg/sg2_295_cif.got.tgz:589439.got - 2010.06.03 11:33:40.
