data_PCOD9099681
_publ_section_title
;
Structure prediction by ZEFSAII (Michael W. Deem and Ramdas Pophale) SiO2 
 PCOD9099681
Probable space group: P -1
;
_chemical_formula_sum "Si O2"
_cell_formula_units_Z 16
_cell_length_a 20.586167
_cell_length_b 9.084402
_cell_length_c 6.698478
_cell_angle_alpha 62.031339
_cell_angle_beta 141.577185
_cell_angle_gamma 130.831023
_cell_volume 586.551170
_symmetry_space_group_name_H-M "P -1"
_symmetry_group_IT_number 2
_symmetry_cell_setting 'triclinic'
loop_
_space_group_symop_operation_xyz
x,y,z
-x,-y,-z
loop_
_atom_site_type_symbol
_atom_site_label
_atom_site_fract_x
_atom_site_fract_y
_atom_site_fract_z
Si Si1 0.106516 0.307125 0.074138
Si Si2 0.680297 0.401291 0.362779
Si Si3 0.907598 0.079336 0.223055
Si Si4 0.930704 0.541535 0.483268
Si Si5 0.678841 0.702103 0.850766
Si Si6 0.828146 0.011114 0.528031
Si Si7 0.448744 0.661183 0.507102
Si Si8 0.326861 0.837051 0.833116
O O1 0.190149 0.509041 0.264823
O O2 0.169767 0.185168 0.346554
O O3 0.119370 0.349097 0.842624
O O4 0.960682 0.167666 0.852907
O O5 0.582328 0.364078 0.319624
O O6 0.630661 0.197174 0.256406
O O7 0.700803 0.566574 0.145587
O O8 0.852758 0.073879 0.314299
O O9 0.987967 0.311967 0.240501
O O10 0.793133 0.913280 0.933243
O O11 0.000000 0.000000 0.500000
O O12 0.814621 0.344258 0.396812
O O13 0.000000 0.500000 0.500000
O O14 0.586523 0.748634 0.713418
O O15 0.616200 0.554951 0.610460
O O16 0.702459 0.996012 0.299352
O O17 0.394957 0.785910 0.198573
#
# Coordination Sequence:
#
# PCOD9099681 Si02
#       8
#     2   2   2   2   2   2   2   2
#     4  10  20  37  61  88 131 176 211 266 324 382
#     4  11  21  36  68  94 127 169 226 265 317 397
#     4  11  21  36  64  95 126 168 214 266 323 384
#     4  11  21  40  63  92 135 174 209 267 328 388
#     4  10  22  41  65  99 130 172 219 274 324 386
#     4  10  22  39  58  94 138 172 209 272 327 387
#     4  10  22  41  67  95 127 176 224 269 324 382
#     4  11  22  41  65  96 135 174 215 270 327 384
#
# _framework density 27.278098
#
# number of rings (size 3 to 8) (size 9 to 14) (size 15 to 20)
#    0.000    1.500    5.000    1.875    1.750    0.500 
#    0.000    4.375    0.000    0.750    0.000    0.000 
#    0.000    0.000    0.000    0.000    0.000    0.000 
#
# Total GULP energy -89571.542074 kJ/mol
# GULP energy per Si atom -5598.221380 kJ/mol
# Density = 2.721601 g / cm^3
# Si number density = 27.278098 Si / 1000 Ang^3
#
#
#
# Elastic Constant Matrix: (Units=GPa)
#
#
# Indices 1 2 3 4 5 6 
#
# 1 133.8956 -1.0184 17.5156 -3.3599 4.6782 -14.9008
# 2 -1.0184 59.1425 21.7754 3.0985 11.5598 -2.1746
# 3 17.5156 21.7754 52.6002 3.1404 4.6683 -12.3068
# 4 -3.3599 3.0985 3.1404 43.6661 -6.9054 7.2292
# 5 4.6782 11.5598 4.6683 -6.9054 51.0879 1.5142
# 6 -14.9008 -2.1746 -12.3068 7.2292 1.5142 46.8934
#
#
#
# Elastic Compliance Matrix: (Units=1/GPa)
#
#
# Indices 1 2 3 4 5 6 
#
# 1 0.008086 0.001370 -0.002762 0.000281 -0.000816 0.001891
# 2 0.001370 0.021072 -0.008856 -0.001330 -0.004247 -0.000569
# 3 -0.002762 -0.008856 0.025122 -0.002418 -0.000534 0.005695
# 4 0.000281 -0.001330 -0.002418 0.024564 0.003950 -0.004521
# 5 -0.000816 -0.004247 -0.000534 0.003950 0.021249 -0.001892
# 6 0.001891 -0.000569 0.005695 -0.004521 -0.001892 0.024152
#
#
# Mechanical properties :
#
#
# Convention : Reuss Voigt Hill
#
# Bulk Modulus (GPa) = 29.60012 35.79815 32.69913
# Shear Modulus (GPa) = 32.05098 42.15388 37.10243
#
# Velocity S-wave (km/s) = 3.43150 3.93534 3.69203
# Velocity P-wave (km/s) = 5.15510 5.81387 5.49437
#
# Compressibility (1/GPa) = 0.03378365
#
# Stress axis : x y z
#
# Youngs Moduli (GPa) = 123.66647 47.45724 39.80643
#
# Poissons Ratio (x) = -0.06504 0.10994
# Poissons Ratio (y) = -0.16948 0.35254
# Poissons Ratio (z) = 0.34156 0.42030
#
# Static dielectric constant tensor:
#      x y z
#    x 2.260630 -0.033580 -0.009150 
#    y -0.033580 2.195980 -0.019370 
#    z -0.009150 -0.019370 2.224820 
# 
# From -- ./inp_files/108528.got.cif
#   From: 2010.05.17/outbox.cif.g08.bks.cpg/sg2_55_cif.got.tgz:108528.got - 2010.06.03 11:33:40.
