data_PCOD9099513
_publ_section_title
;
Structure prediction by ZEFSAII (Michael W. Deem and Ramdas Pophale) SiO2 
 PCOD9099513
Probable space group: P -1
;
_chemical_formula_sum "Si O2"
_cell_formula_units_Z 16
_cell_length_a 9.967486
_cell_length_b 7.909785
_cell_length_c 11.217219
_cell_angle_alpha 95.786254
_cell_angle_beta 116.863136
_cell_angle_gamma 111.918344
_cell_volume 692.021599
_symmetry_space_group_name_H-M "P -1"
_symmetry_group_IT_number 2
_symmetry_cell_setting 'triclinic'
loop_
_space_group_symop_operation_xyz
x,y,z
-x,-y,-z
loop_
_atom_site_type_symbol
_atom_site_label
_atom_site_fract_x
_atom_site_fract_y
_atom_site_fract_z
Si Si1 0.933843 0.487960 0.337627
Si Si2 0.714643 0.817383 0.383952
Si Si3 0.689201 0.596018 0.136809
Si Si4 0.151567 0.323967 0.047205
Si Si5 0.084181 0.222610 0.335417
Si Si6 0.166939 0.009024 0.172692
Si Si7 0.637407 0.425098 0.659442
Si Si8 0.265774 0.861054 0.422120
O O1 0.751234 0.476575 0.241419
O O2 0.000000 0.500000 0.500000
O O3 0.956424 0.310581 0.283220
O O4 0.074463 0.686014 0.348213
O O5 0.722595 0.780138 0.245231
O O6 0.875541 0.823543 0.520006
O O7 0.539929 0.638364 0.350093
O O8 0.702641 0.003487 0.441200
O O9 0.500000 0.500000 0.000000
O O10 0.797928 0.627118 0.064109
O O11 0.233426 0.191416 0.124306
O O12 0.223642 0.510347 0.173023
O O13 0.949861 0.184040 0.959782
O O14 0.043791 0.050836 0.216396
O O15 0.270112 0.388723 0.374579
O O16 0.280370 0.974781 0.313008
O O17 0.625055 0.249077 0.563665
#
# Coordination Sequence:
#
# PCOD9099513 Si02
#       8
#     2   2   2   2   2   2   2   2
#     4  11  22  41  64  95 124 167 217 261 307 382
#     4  11  21  38  63  90 126 166 209 258 320 371
#     4  12  24  41  63  93 133 170 205 251 327 392
#     4  10  20  38  60  89 128 168 202 252 321 384
#     4   9  20  37  63  91 118 166 215 268 301 363
#     4   9  19  38  61  94 120 162 216 266 307 364
#     4  10  20  37  60  92 128 162 208 263 318 371
#     4  10  22  38  64  95 119 163 219 275 304 356
#
# _framework density 23.120664999999999
#
# number of rings (size 3 to 8) (size 9 to 14) (size 15 to 20)
#    0.000    1.750    3.750    0.750    0.000    2.000 
#    4.500    1.250    0.000    2.250    0.000    0.000 
#    0.000    0.000    0.000    0.000    0.000    0.000 
#
# Total GULP energy -89236.106565 kJ/mol
# GULP energy per Si atom -5577.256660 kJ/mol
# Density = 2.306804 g / cm^3
# Si number density = 23.120665 Si / 1000 Ang^3
#
#
#
# Elastic Constant Matrix: (Units=GPa)
#
#
# Indices 1 2 3 4 5 6 
#
# 1 49.3989 10.7738 23.0829 5.2092 2.2292 -1.7563
# 2 10.7738 50.5334 27.4333 -2.2112 3.1345 -8.9529
# 3 23.0829 27.4333 156.3143 3.1105 -11.2276 -9.0993
# 4 5.2092 -2.2112 3.1105 38.3360 0.9147 -14.7934
# 5 2.2292 3.1345 -11.2276 0.9147 37.4809 1.2034
# 6 -1.7563 -8.9529 -9.0993 -14.7934 1.2034 15.5662
#
#
#
# Elastic Compliance Matrix: (Units=1/GPa)
#
#
# Indices 1 2 3 4 5 6 
#
# 1 0.023131 -0.004817 -0.002996 -0.006058 -0.001480 -0.007554
# 2 -0.004817 0.028002 -0.003239 0.012682 -0.004171 0.026043
# 3 -0.002996 -0.003239 0.007743 0.000546 0.002670 0.002638
# 4 -0.006058 0.012682 0.000546 0.048087 -0.003408 0.052893
# 5 -0.001480 -0.004171 0.002670 -0.003408 0.028207 -0.006425
# 6 -0.007554 0.026043 0.002638 0.052893 -0.006425 0.130673
#
#
# Mechanical properties :
#
#
# Convention : Reuss Voigt Hill
#
# Bulk Modulus (GPa) = 27.19468 42.09187 34.64327
# Shear Modulus (GPa) = 16.65540 31.27373 23.96457
#
# Velocity S-wave (km/s) = 2.68688 3.68180 3.22296
# Velocity P-wave (km/s) = 4.62746 6.02653 5.37273
#
# Compressibility (1/GPa) = 0.03677190
#
# Stress axis : x y z
#
# Youngs Moduli (GPa) = 43.23241 35.71202 129.15395
#
# Poissons Ratio (x) = 0.17202 0.38693
# Poissons Ratio (y) = 0.20824 0.41833
# Poissons Ratio (z) = 0.12952 0.11567
#
# Static dielectric constant tensor:
#      x y z
#    x 1.880600 0.005480 0.019030 
#    y 0.005480 1.946410 -0.005420 
#    z 0.019030 -0.005420 1.913760 
# 
# From -- ./inp_files/417635.got.cif
#   From: 2010.05.17/outbox.cif.g08.bks.cpg/sg2_209_cif.got.tgz:417635.got - 2010.06.03 11:33:40.
