data_PCOD9099713
_publ_section_title
;
Structure prediction by ZEFSAII (Michael W. Deem and Ramdas Pophale) SiO2 
 PCOD9099713
Probable space group: P -1
;
_chemical_formula_sum "Si O2"
_cell_formula_units_Z 16
_cell_length_a 16.783980
_cell_length_b 10.989996
_cell_length_c 8.872452
_cell_angle_alpha 112.949277
_cell_angle_beta 145.994438
_cell_angle_gamma 82.368081
_cell_volume 783.115703
_symmetry_space_group_name_H-M "P -1"
_symmetry_group_IT_number 2
_symmetry_cell_setting 'triclinic'
loop_
_space_group_symop_operation_xyz
x,y,z
-x,-y,-z
loop_
_atom_site_type_symbol
_atom_site_label
_atom_site_fract_x
_atom_site_fract_y
_atom_site_fract_z
Si Si1 0.391531 0.924339 0.656798
Si Si2 0.380383 0.105824 0.195925
Si Si3 0.593145 0.428011 0.716402
Si Si4 0.245279 0.106517 0.645402
Si Si5 0.935025 0.965665 0.210847
Si Si6 0.799342 0.394502 0.782269
Si Si7 0.897005 0.663010 0.854951
Si Si8 0.357438 0.398944 0.822467
O O1 0.489466 0.957644 0.672322
O O2 0.334474 0.758016 0.523966
O O3 0.255955 0.982240 0.494156
O O4 0.500000 0.000000 0.000000
O O5 0.475160 0.266420 0.474132
O O6 0.305640 0.104971 0.911129
O O7 0.236913 0.034831 0.047331
O O8 0.500000 0.500000 0.500000
O O9 0.749472 0.434209 0.884261
O O10 0.643471 0.509282 0.989401
O O11 0.356280 0.251363 0.815306
O O12 0.065549 0.080143 0.369519
O O13 0.925574 0.809253 0.062932
O O14 0.000000 0.000000 0.500000
O O15 0.810108 0.525467 0.756183
O O16 0.951296 0.360768 0.976224
O O17 0.789763 0.650629 0.538810
O O18 0.500000 0.500000 0.000000
#
# Coordination Sequence:
#
# PCOD9099713 Si02
#       8
#     2   2   2   2   2   2   2   2
#     4   9  18  34  61  93 117 157 215 260 310 371
#     4   9  18  33  63  92 117 156 213 261 302 376
#     4  11  20  39  66  89 124 168 216 260 317 386
#     4  10  20  37  61  89 125 164 204 259 320 376
#     4  10  20  37  62  93 123 162 214 256 315 384
#     4  10  22  41  67  88 127 173 216 263 320 386
#     4  11  24  41  62  96 131 166 217 270 319 386
#     4  12  26  39  63  95 130 167 214 271 326 380
#
# _framework density 20.431208000000002
#
# number of rings (size 3 to 8) (size 9 to 14) (size 15 to 20)
#    0.000    1.750    2.500    2.250    5.250    1.000 
#    0.000    0.000    2.750    2.250    0.000    0.000 
#    0.000    0.000    0.000    0.000    0.000    0.000 
#
# Total GULP energy -89141.737340 kJ/mol
# GULP energy per Si atom -5571.358584 kJ/mol
# Density = 2.038471 g / cm^3
# Si number density = 20.431208 Si / 1000 Ang^3
#
#
#
# Elastic Constant Matrix: (Units=GPa)
#
#
# Indices 1 2 3 4 5 6 
#
# 1 129.2989 46.7243 51.9548 15.6318 9.1285 -13.0322
# 2 46.7243 38.3657 18.5055 18.6017 -5.1193 -8.9316
# 3 51.9548 18.5055 67.5087 9.2003 -13.8419 -11.2724
# 4 15.6318 18.6017 9.2003 30.1595 -3.5475 -0.7924
# 5 9.1285 -5.1193 -13.8419 -3.5475 47.8670 12.7351
# 6 -13.0322 -8.9316 -11.2724 -0.7924 12.7351 22.3980
#
#
#
# Elastic Compliance Matrix: (Units=1/GPa)
#
#
# Indices 1 2 3 4 5 6 
#
# 1 0.022053 -0.024523 -0.012853 0.006416 -0.010864 0.002988
# 2 -0.024523 0.072229 0.007366 -0.032723 0.008909 0.012018
# 3 -0.012853 0.007366 0.025738 -0.004530 0.009603 0.002792
# 4 0.006416 -0.032723 -0.004530 0.051183 0.000428 -0.010028
# 5 -0.010864 0.008909 0.009603 0.000428 0.030836 -0.015453
# 6 0.002988 0.012018 0.002792 -0.010028 -0.015453 0.061015
#
#
# Mechanical properties :
#
#
# Convention : Reuss Voigt Hill
#
# Bulk Modulus (GPa) = 16.66632 52.17140 34.41886
# Shear Modulus (GPa) = 14.57421 27.95083 21.26252
#
# Velocity S-wave (km/s) = 2.67372 3.70272 3.22947
# Velocity P-wave (km/s) = 4.20794 6.62350 5.54876
#
# Compressibility (1/GPa) = 0.06000124
#
# Stress axis : x y z
#
# Youngs Moduli (GPa) = 45.34611 13.84478 38.85360
#
# Poissons Ratio (x) = 0.33951 0.49937
# Poissons Ratio (y) = 1.11201 -0.28620
# Poissons Ratio (z) = 0.58282 -0.10198
#
# Static dielectric constant tensor:
#      x y z
#    x 1.803470 -0.041980 0.021970 
#    y -0.041980 1.755970 -0.045950 
#    z 0.021970 -0.045950 1.698040 
# 
# From -- ./inp_files/308407.got.cif
#   From: 2010.05.17/outbox.cif.g08.bks.cpg/sg2_155_cif.got.tgz:308407.got - 2010.06.03 11:33:40.
