data_PCOD9099443
_publ_section_title
;
Structure prediction by ZEFSAII (Michael W. Deem and Ramdas Pophale) SiO2 
 PCOD9099443
Probable space group: P -1
;
_chemical_formula_sum "Si O2"
_cell_formula_units_Z 16
_cell_length_a 24.054299
_cell_length_b 29.418781
_cell_length_c 21.428959
_cell_angle_alpha 16.852408
_cell_angle_beta 162.483273
_cell_angle_gamma 170.135711
_cell_volume 735.371878
_symmetry_space_group_name_H-M "P -1"
_symmetry_group_IT_number 2
_symmetry_cell_setting 'triclinic'
loop_
_space_group_symop_operation_xyz
x,y,z
-x,-y,-z
loop_
_atom_site_type_symbol
_atom_site_label
_atom_site_fract_x
_atom_site_fract_y
_atom_site_fract_z
Si Si1 0.231927 0.169667 0.654238
Si Si2 0.970993 0.948648 0.800900
Si Si3 0.874441 0.268063 0.585864
Si Si4 0.867056 0.914947 0.068927
Si Si5 0.482412 0.204878 0.660130
Si Si6 0.290268 0.517904 0.585102
Si Si7 0.660333 0.255639 0.918207
Si Si8 0.623410 0.395164 0.209562
O O1 0.500000 0.500000 0.500000
O O2 0.378213 0.126132 0.830974
O O3 0.189157 0.102420 0.770172
O O4 0.869892 0.956791 0.517630
O O5 0.639377 0.807702 0.610408
O O6 0.141207 0.132349 0.804472
O O7 0.840095 0.684709 0.028998
O O8 0.649125 0.253790 0.383948
O O9 0.001528 0.359217 0.531561
O O10 0.200809 0.514244 0.655272
O O11 0.738153 0.999424 0.809896
O O12 0.251480 0.186531 0.100957
O O13 0.700991 0.662811 0.181660
O O14 0.730344 0.425407 0.580041
O O15 0.634619 0.333119 0.723502
O O16 0.400812 0.965607 0.875717
O O17 0.000000 0.500000 0.000000
#
# Coordination Sequence:
#
# PCOD9099443 Si02
#       8
#     2   2   2   2   2   2   2   2
#     4  11  23  42  70  96 128 175 208 271 329 386
#     4  10  22  41  61  91 125 162 214 258 318 374
#     4  10  20  37  60  89 123 165 207 254 313 365
#     4  11  21  40  60  87 127 165 207 254 312 372
#     4  10  25  43  65 100 130 168 218 268 323 388
#     4  11  22  38  64  90 126 165 207 260 314 380
#     4  11  23  46  70  93 130 172 214 269 329 386
#     4  10  20  38  63  86 125 168 204 261 306 372
#
# _framework density 21.757698999999999
#
# number of rings (size 3 to 8) (size 9 to 14) (size 15 to 20)
#    0.000    1.500    3.750    1.500    3.500    0.500 
#    0.000    0.000    0.000    0.000    0.000    0.000 
#    0.000    0.000    0.000    0.000    0.000    0.000 
#
# Total GULP energy -89419.777445 kJ/mol
# GULP energy per Si atom -5588.736090 kJ/mol
# Density = 2.170818 g / cm^3
# Si number density = 21.757699 Si / 1000 Ang^3
#
#
#
# Elastic Constant Matrix: (Units=GPa)
#
#
# Indices 1 2 3 4 5 6 
#
# 1 187.4391 45.9294 51.3709 16.2231 -29.5754 9.4373
# 2 45.9294 47.7225 10.1855 9.5040 -20.6854 -8.6426
# 3 51.3709 10.1855 58.8699 12.9729 -3.6458 9.0126
# 4 16.2231 9.5040 12.9729 24.2238 4.0750 -8.6800
# 5 -29.5754 -20.6854 -3.6458 4.0750 51.3603 -2.9750
# 6 9.4373 -8.6426 9.0126 -8.6800 -2.9750 37.5773
#
#
#
# Elastic Compliance Matrix: (Units=1/GPa)
#
#
# Indices 1 2 3 4 5 6 
#
# 1 0.009279 -0.006899 -0.006009 -0.001605 0.002110 -0.002680
# 2 -0.006899 0.035737 0.001241 -0.008988 0.011715 0.008506
# 3 -0.006009 0.001241 0.025986 -0.012970 -0.000520 -0.007475
# 4 -0.001605 -0.008988 -0.012970 0.059588 -0.009355 0.014470
# 5 0.002110 0.011715 -0.000520 -0.009355 0.026237 0.002205
# 6 -0.002680 0.008506 -0.007475 0.014470 0.002205 0.034551
#
#
# Mechanical properties :
#
#
# Convention : Reuss Voigt Hill
#
# Bulk Modulus (GPa) = 20.97816 56.55590 38.76703
# Shear Modulus (GPa) = 21.68240 35.06864 28.37552
#
# Velocity S-wave (km/s) = 3.16023 4.01905 3.61523
# Velocity P-wave (km/s) = 4.79361 6.89833 5.93994
#
# Compressibility (1/GPa) = 0.04766863
#
# Stress axis : x y z
#
# Youngs Moduli (GPa) = 107.76730 27.98182 38.48244
#
# Poissons Ratio (x) = 0.19305 0.23124
# Poissons Ratio (y) = 0.74349 -0.04776
# Poissons Ratio (z) = 0.64758 -0.03473
#
# Static dielectric constant tensor:
#      x y z
#    x 1.795140 -0.041820 -0.031750 
#    y -0.041820 1.791330 -0.009530 
#    z -0.031750 -0.009530 1.820880 
# 
# From -- ./inp_files/602174.got.cif
#   From: 2010.05.17/outbox.cif.g08.bks.cpg/sg2_302_cif.got.tgz:602174.got - 2010.06.03 11:33:40.
