data_PCOD9099824
_publ_section_title
;
Structure prediction by ZEFSAII (Michael W. Deem and Ramdas Pophale) SiO2 
 PCOD9099824
Probable space group: P -1
;
_chemical_formula_sum "Si O2"
_cell_formula_units_Z 15
_cell_length_a 13.844742
_cell_length_b 6.911932
_cell_length_c 15.112094
_cell_angle_alpha 98.322074
_cell_angle_beta 150.347525
_cell_angle_gamma 64.513753
_cell_volume 554.288545
_symmetry_space_group_name_H-M "P -1"
_symmetry_group_IT_number 2
_symmetry_cell_setting 'triclinic'
loop_
_space_group_symop_operation_xyz
x,y,z
-x,-y,-z
loop_
_atom_site_type_symbol
_atom_site_label
_atom_site_fract_x
_atom_site_fract_y
_atom_site_fract_z
Si Si1 0.076841 0.235812 0.820509
Si Si2 0.025113 0.140774 0.302485
Si Si3 0.500000 0.000000 0.000000
Si Si4 0.764579 0.235235 0.276907
Si Si5 0.407936 0.550211 0.155917
Si Si6 0.298263 0.353987 0.321098
Si Si7 0.276304 0.791943 0.240435
Si Si8 0.566142 0.893408 0.761118
O O1 0.300265 0.054361 0.057368
O O2 0.226704 0.202231 0.850461
O O3 0.901549 0.498717 0.749915
O O4 0.931569 0.123016 0.681477
O O5 0.858573 0.279066 0.266248
O O6 0.860029 0.277283 0.093547
O O7 0.281667 0.094129 0.518431
O O8 0.589548 0.163356 0.107727
O O9 0.613302 0.462388 0.239361
O O10 0.000000 0.000000 0.500000
O O11 0.432035 0.676937 0.266686
O O12 0.438514 0.312961 0.204536
O O13 0.281496 0.577930 0.277083
O O14 0.575678 0.163961 0.570586
O O15 0.272584 0.227057 0.208478
O O16 0.000000 0.000000 0.000000
#
# Coordination Sequence:
#
# PCOD9099824 Si02
#       8
#     2   2   1   2   2   2   2   2
#     4  11  21  40  63  93 124 168 210 259 314 371
#     4  11  23  39  65  90 129 163 208 259 314 373
#     4  10  22  36  64  92 124 160 214 262 304 372
#     4  11  21  40  64  91 124 167 208 259 314 369
#     4  11  21  38  64  94 123 166 209 255 315 377
#     4  10  21  35  62  89 123 167 207 255 314 369
#     4  10  20  37  61  95 126 158 210 260 311 373
#     4  11  22  42  62  92 128 165 208 262 311 375
#
# _framework density 27.061717999999999
#
# number of rings (size 3 to 8) (size 9 to 14) (size 15 to 20)
#    0.000    1.333    2.667    4.800    1.867    0.000 
#    0.000    5.333    0.000   12.000    0.000    0.000 
#    0.000    0.000    0.000    0.000    0.000    0.000 
#
# Total GULP energy -83862.790994 kJ/mol
# GULP energy per Si atom -5590.852733 kJ/mol
# Density = 2.700012 g / cm^3
# Si number density = 27.061718 Si / 1000 Ang^3
#
#
#
# Elastic Constant Matrix: (Units=GPa)
#
#
# Indices 1 2 3 4 5 6 
#
# 1 117.1340 39.8598 32.1948 -0.9200 9.3526 -24.8444
# 2 39.8598 62.1931 31.1165 12.2324 10.7459 -24.2570
# 3 32.1948 31.1165 177.6709 -1.2367 1.5004 5.9609
# 4 -0.9200 12.2324 -1.2367 43.5607 4.9094 -1.8559
# 5 9.3526 10.7459 1.5004 4.9094 50.8823 -9.1360
# 6 -24.8444 -24.2570 5.9609 -1.8559 -9.1360 64.7492
#
#
#
# Elastic Compliance Matrix: (Units=1/GPa)
#
#
# Indices 1 2 3 4 5 6 
#
# 1 0.011489 -0.006359 -0.001019 0.002153 -0.000569 0.002101
# 2 -0.006359 0.026768 -0.003814 -0.007179 -0.002350 0.007402
# 3 -0.001019 -0.003814 0.006565 0.001105 0.000270 -0.002355
# 4 0.002153 -0.007179 0.001105 0.025168 -0.001604 -0.001470
# 5 -0.000569 -0.002350 0.000270 -0.001604 0.020716 0.001753
# 6 0.002101 0.007402 -0.002355 -0.001470 0.001753 0.019445
#
#
# Mechanical properties :
#
#
# Convention : Reuss Voigt Hill
#
# Bulk Modulus (GPa) = 44.56739 62.59337 53.58038
# Shear Modulus (GPa) = 35.71027 48.76022 42.23525
#
# Velocity S-wave (km/s) = 3.63655 4.24938 3.95486
# Velocity P-wave (km/s) = 5.84271 6.87433 6.37941
#
# Compressibility (1/GPa) = 0.02243793
#
# Stress axis : x y z
#
# Youngs Moduli (GPa) = 87.03689 37.35802 152.31347
#
# Poissons Ratio (x) = 0.23758 0.15519
# Poissons Ratio (y) = 0.55351 0.58094
# Poissons Ratio (z) = 0.08868 0.14249
#
# Static dielectric constant tensor:
#      x y z
#    x 2.113930 0.027180 0.000660 
#    y 0.027180 2.165430 -0.076050 
#    z 0.000660 -0.076050 2.055530 
# 
# From -- ./inp_files/528754.got.cif
#   From: 2010.05.17/outbox.cif.g08.bks.cpg/sg2_265_cif.got.tgz:528754.got - 2010.06.03 11:33:40.
