data_PCOD9099040
_publ_section_title
;
Structure prediction by ZEFSAII (Michael W. Deem and Ramdas Pophale) SiO2 
 PCOD9099040
Probable space group: P -1
;
_chemical_formula_sum "Si O2"
_cell_formula_units_Z 12
_cell_length_a 19.305986
_cell_length_b 9.416546
_cell_length_c 13.150740
_cell_angle_alpha 140.540151
_cell_angle_beta 152.886904
_cell_angle_gamma 39.276223
_cell_volume 660.585491
_symmetry_space_group_name_H-M "P -1"
_symmetry_group_IT_number 2
_symmetry_cell_setting 'triclinic'
loop_
_space_group_symop_operation_xyz
x,y,z
-x,-y,-z
loop_
_atom_site_type_symbol
_atom_site_label
_atom_site_fract_x
_atom_site_fract_y
_atom_site_fract_z
Si Si1 0.634796 0.783304 0.010561
Si Si2 0.067405 0.235689 0.481801
Si Si3 0.840139 0.948439 0.998934
Si Si4 0.654844 0.264113 0.762770
Si Si5 0.846641 0.187277 0.777185
Si Si6 0.348982 0.307604 0.256168
O O1 0.808107 0.784135 0.276374
O O2 0.615175 0.537495 0.887812
O O3 0.626708 0.779546 0.876025
O O4 0.500000 0.000000 0.000000
O O5 0.000000 0.500000 0.500000
O O6 0.924189 0.126836 0.259560
O O7 0.157811 0.058618 0.412082
O O8 0.698785 0.101910 0.828274
O O9 0.980632 0.799894 0.025313
O O10 0.777995 0.792644 0.908779
O O11 0.809276 0.204078 0.856846
O O12 0.511305 0.232901 0.490680
O O13 0.716922 0.409914 0.681234
#
# Coordination Sequence:
#
# PCOD9099040 Si02
#       6
#     2   2   2   2   2   2
#     4  11  21  38  60  81 113 152 193 227 274 343
#     4  10  20  37  59  82 114 149 190 225 276 338
#     4  10  22  36  60  85 118 142 188 237 285 322
#     4  11  20  38  61  84 112 152 192 226 277 342
#     4   9  20  37  60  86 106 151 195 223 276 337
#     4  11  22  37  58  89 114 145 188 238 284 324
#
# _framework density 18.165702
#
# number of rings (size 3 to 8) (size 9 to 14) (size 15 to 20)
#    1.000    0.667    1.667    5.500    0.000    0.667 
#    0.000    0.833    3.667    0.000    0.000    0.000 
#    0.000    0.000    0.000    0.000    0.000    0.000 
#
# Total GULP energy -66903.321492 kJ/mol
# GULP energy per Si atom -5575.276791 kJ/mol
# Density = 1.812436 g / cm^3
# Si number density = 18.165702 Si / 1000 Ang^3
#
#
#
# Elastic Constant Matrix: (Units=GPa)
#
#
# Indices 1 2 3 4 5 6 
#
# 1 51.6326 43.9193 13.5946 6.7506 6.8804 -2.6646
# 2 43.9193 100.2706 44.3848 2.6650 -13.2927 -11.5111
# 3 13.5946 44.3848 99.8308 -13.0150 -7.6264 -0.8919
# 4 6.7506 2.6650 -13.0150 34.1224 3.4770 -4.1339
# 5 6.8804 -13.2927 -7.6264 3.4770 26.2636 2.3721
# 6 -2.6646 -11.5111 -0.8919 -4.1339 2.3721 27.5573
#
#
#
# Elastic Compliance Matrix: (Units=1/GPa)
#
#
# Indices 1 2 3 4 5 6 
#
# 1 0.039964 -0.021355 0.001991 -0.003928 -0.019830 -0.003874
# 2 -0.021355 0.025497 -0.007328 -0.001365 0.015941 0.006771
# 3 0.001991 -0.007328 0.013613 0.005266 -0.000833 -0.001566
# 4 -0.003928 -0.001365 0.005266 0.033031 -0.002906 0.004425
# 5 -0.019830 0.015941 -0.000833 -0.002906 0.051495 -0.000154
# 6 -0.003874 0.006771 -0.001566 0.004425 -0.000154 0.039368
#
#
# Mechanical properties :
#
#
# Convention : Reuss Voigt Hill
#
# Bulk Modulus (GPa) = 38.92565 50.61457 44.77011
# Shear Modulus (GPa) = 18.87390 27.57771 23.22580
#
# Velocity S-wave (km/s) = 3.22683 3.90053 3.57956
# Velocity P-wave (km/s) = 5.94625 6.94325 6.46400
#
# Compressibility (1/GPa) = 0.02569000
#
# Stress axis : x y z
#
# Youngs Moduli (GPa) = 25.02222 39.21996 73.46105
#
# Poissons Ratio (x) = 0.83755 -0.14624
# Poissons Ratio (y) = 0.53435 0.53831
# Poissons Ratio (z) = -0.04981 0.28739
#
# Static dielectric constant tensor:
#      x y z
#    x 1.599880 -0.020500 0.009660 
#    y -0.020500 1.623370 -0.017460 
#    z 0.009660 -0.017460 1.650170 
# 
# From -- ./inp_files/149289.got.cif
#   From: 2010.05.17/outbox.cif.g08.bks.cpg/sg2_75_cif.got.tgz:149289.got - 2010.06.03 11:33:40.
