data_PCOD9099092
_publ_section_title
;
Structure prediction by ZEFSAII (Michael W. Deem and Ramdas Pophale) SiO2 
 PCOD9099092
Probable space group: P -1
;
_chemical_formula_sum "Si O2"
_cell_formula_units_Z 14
_cell_length_a 10.392548
_cell_length_b 12.957993
_cell_length_c 9.761413
_cell_angle_alpha 34.506055
_cell_angle_beta 60.964490
_cell_angle_gamma 71.028320
_cell_volume 643.604451
_symmetry_space_group_name_H-M "P -1"
_symmetry_group_IT_number 2
_symmetry_cell_setting 'triclinic'
loop_
_space_group_symop_operation_xyz
x,y,z
-x,-y,-z
loop_
_atom_site_type_symbol
_atom_site_label
_atom_site_fract_x
_atom_site_fract_y
_atom_site_fract_z
Si Si1 0.997180 0.446061 0.278811
Si Si2 0.629709 0.974481 0.258605
Si Si3 0.686395 0.339476 0.667061
Si Si4 0.670162 0.471749 0.972965
Si Si5 0.324826 0.940320 0.581883
Si Si6 0.528557 0.393051 0.402721
Si Si7 0.068817 0.813414 0.660069
O O1 0.858214 0.433958 0.466318
O O2 0.949172 0.282677 0.372607
O O3 0.164999 0.428875 0.261084
O O4 0.009908 0.645120 0.978275
O O5 0.481011 0.031374 0.341442
O O6 0.572247 0.783259 0.421957
O O7 0.721812 0.955630 0.372908
O O8 0.689422 0.136516 0.948000
O O9 0.607060 0.336196 0.562267
O O10 0.581811 0.458689 0.675571
O O11 0.500000 0.500000 0.000000
O O12 0.672858 0.266901 0.141619
O O13 0.661012 0.472860 0.142741
O O14 0.229697 0.897222 0.541781
O O15 0.000000 0.000000 0.500000
#
# Coordination Sequence:
#
# PCOD9099092 Si02
#       7
#     2   2   2   2   2   2   2
#     4  10  22  39  61  92 123 153 204 252 298 364
#     4  10  20  37  59  84 121 159 196 249 298 348
#     4  11  22  38  59  90 127 159 194 252 309 352
#     4  10  20  40  65  88 117 160 206 252 300 356
#     4   9  20  37  60  89 117 155 212 249 287 369
#     4  10  22  36  60  90 119 162 209 237 290 372
#     4  10  21  38  62  89 119 159 201 248 299 353
#
# _framework density 21.752492
#
# number of rings (size 3 to 8) (size 9 to 14) (size 15 to 20)
#    0.000    2.000    0.000    4.714    0.000    8.000 
#    0.000    7.857    0.000    7.714    0.000    0.000 
#    0.000    0.000    0.000    0.000    0.000    0.000 
#
# Total GULP energy -77942.366520 kJ/mol
# GULP energy per Si atom -5567.311894 kJ/mol
# Density = 2.170298 g / cm^3
# Si number density = 21.752492 Si / 1000 Ang^3
#
#
#
# Elastic Constant Matrix: (Units=GPa)
#
#
# Indices 1 2 3 4 5 6 
#
# 1 96.0611 21.5543 4.0468 -6.2275 -25.8380 -4.7427
# 2 21.5543 74.5701 13.1374 -13.1139 -12.8972 -0.6537
# 3 4.0468 13.1374 54.6945 10.2378 -17.0607 -12.6080
# 4 -6.2275 -13.1139 10.2378 32.2968 -3.1196 -0.5590
# 5 -25.8380 -12.8972 -17.0607 -3.1196 31.9284 -3.3733
# 6 -4.7427 -0.6537 -12.6080 -0.5590 -3.3733 33.3478
#
#
#
# Elastic Compliance Matrix: (Units=1/GPa)
#
#
# Indices 1 2 3 4 5 6 
#
# 1 0.015050 -0.002296 0.004902 0.001924 0.014636 0.005462
# 2 -0.002296 0.016874 -0.004773 0.008194 0.003065 -0.001353
# 3 0.004902 -0.004773 0.029467 -0.008323 0.018394 0.013465
# 4 0.001924 0.008194 -0.008323 0.037649 0.003920 -0.001685
# 5 0.014636 0.003065 0.018394 0.003920 0.056183 0.014845
# 6 0.005462 -0.001353 0.013465 -0.001685 0.014845 0.037301
#
#
# Mechanical properties :
#
#
# Convention : Reuss Voigt Hill
#
# Bulk Modulus (GPa) = 17.52628 33.64477 25.58553
# Shear Modulus (GPa) = 23.16145 31.95374 27.55759
#
# Velocity S-wave (km/s) = 3.26662 3.83687 3.56317
# Velocity P-wave (km/s) = 4.72254 5.92701 5.35872
#
# Compressibility (1/GPa) = 0.05705716
#
# Stress axis : x y z
#
# Youngs Moduli (GPa) = 66.44595 59.26227 33.93680
#
# Poissons Ratio (x) = 0.13608 -0.16637
# Poissons Ratio (y) = 0.15257 0.16197
# Poissons Ratio (z) = -0.32573 0.28284
#
# Static dielectric constant tensor:
#      x y z
#    x 2.267890 -0.005750 0.098790 
#    y -0.005750 1.814530 0.008130 
#    z 0.098790 0.008130 1.817190 
# 
# From -- ./inp_files/432231.got.cif
#   From: 2010.05.17/outbox.cif.g08.bks.cpg/sg2_217_cif.got.tgz:432231.got - 2010.06.03 11:33:40.
