data_PCOD9099038
_publ_section_title
;
Structure prediction by ZEFSAII (Michael W. Deem and Ramdas Pophale) SiO2 
 PCOD9099038
Probable space group: P -1
;
_chemical_formula_sum "Si O2"
_cell_formula_units_Z 14
_cell_length_a 17.947863
_cell_length_b 8.095025
_cell_length_c 18.687131
_cell_angle_alpha 128.216747
_cell_angle_beta 164.295192
_cell_angle_gamma 51.820421
_cell_volume 574.132889
_symmetry_space_group_name_H-M "P -1"
_symmetry_group_IT_number 2
_symmetry_cell_setting 'triclinic'
loop_
_space_group_symop_operation_xyz
x,y,z
-x,-y,-z
loop_
_atom_site_type_symbol
_atom_site_label
_atom_site_fract_x
_atom_site_fract_y
_atom_site_fract_z
Si Si1 0.302442 0.528023 0.895196
Si Si2 0.367260 0.808815 0.673094
Si Si3 0.222639 0.738693 0.670127
Si Si4 0.764106 0.621464 0.766701
Si Si5 0.772273 0.651398 0.612913
Si Si6 0.874616 0.031604 0.207399
Si Si7 0.781122 0.082820 0.882546
O O1 0.188305 0.773998 0.852312
O O2 0.047461 0.387501 0.615659
O O3 0.500000 0.500000 0.000000
O O4 0.507332 0.434507 0.121516
O O5 0.264208 0.877883 0.675960
O O6 0.286512 0.572357 0.532336
O O7 0.191860 0.944106 0.487201
O O8 0.684887 0.844729 0.967528
O O9 0.212585 0.873907 0.769502
O O10 0.500000 0.500000 0.500000
O O11 0.812948 0.611713 0.724355
O O12 0.726654 0.870856 0.817118
O O13 0.000000 0.500000 0.000000
O O14 0.501176 0.810264 0.385087
O O15 0.050037 0.751990 0.874624
O O16 0.000000 0.000000 0.000000
#
# Coordination Sequence:
#
# PCOD9099038 Si02
#       7
#     2   2   2   2   2   2   2
#     4  10  20  37  59  82 110 149 202 258 296 343
#     4  12  24  38  58  87 122 156 196 253 295 340
#     4  11  21  38  60  85 113 159 211 246 288 358
#     4  11  21  38  65  93 113 144 192 240 281 345
#     4  11  23  41  59  88 124 158 192 236 299 355
#     4  11  21  38  59  84 116 160 202 246 298 345
#     4  10  20  40  65  85 115 158 191 227 286 364
#
# _framework density 24.384598
#
# number of rings (size 3 to 8) (size 9 to 14) (size 15 to 20)
#    0.000    1.143    0.000   11.143    0.000    0.000 
#    0.000    8.571    0.000    0.000    0.000    0.000 
#    0.000    0.000    0.000    0.000    0.000    0.000 
#
# Total GULP energy -78378.267654 kJ/mol
# GULP energy per Si atom -5598.447690 kJ/mol
# Density = 2.432910 g / cm^3
# Si number density = 24.384598 Si / 1000 Ang^3
#
#
#
# Elastic Constant Matrix: (Units=GPa)
#
#
# Indices 1 2 3 4 5 6 
#
# 1 66.4242 19.9005 30.6988 -0.1647 -7.8609 12.9490
# 2 19.9005 131.2281 67.5093 -2.0999 -12.8816 26.7763
# 3 30.6988 67.5093 209.1711 -2.5038 -8.6133 28.4900
# 4 -0.1647 -2.0999 -2.5038 70.8992 13.0794 -2.3649
# 5 -7.8609 -12.8816 -8.6133 13.0794 25.8370 0.0443
# 6 12.9490 26.7763 28.4900 -2.3649 0.0443 26.1135
#
#
#
# Elastic Compliance Matrix: (Units=1/GPa)
#
#
# Indices 1 2 3 4 5 6 
#
# 1 0.017809 0.000090 -0.001400 -0.001302 0.005669 -0.007524
# 2 0.000090 0.011092 -0.002131 -0.001048 0.005394 -0.009198
# 3 -0.001400 -0.002131 0.006235 -0.000096 0.000646 -0.003933
# 4 -0.001302 -0.001048 -0.000096 0.015831 -0.008971 0.003275
# 5 0.005669 0.005394 0.000646 -0.008971 0.047892 -0.009940
# 6 -0.007524 -0.009198 -0.003933 0.003275 -0.009940 0.056061
#
#
# Mechanical properties :
#
#
# Convention : Reuss Voigt Hill
#
# Bulk Modulus (GPa) = 35.39197 71.44896 53.42046
# Shear Modulus (GPa) = 29.20209 43.81758 36.50984
#
# Velocity S-wave (km/s) = 3.46434 4.24363 3.87363
# Velocity P-wave (km/s) = 5.52700 7.30586 6.47778
#
# Compressibility (1/GPa) = 0.02825500
#
# Stress axis : x y z
#
# Youngs Moduli (GPa) = 56.15082 90.15241 160.38032
#
# Poissons Ratio (x) = -0.00815 0.22459
# Poissons Ratio (y) = -0.00508 0.34176
# Poissons Ratio (z) = 0.07863 0.19211
#
# Static dielectric constant tensor:
#      x y z
#    x 2.000510 -0.055910 -0.009650 
#    y -0.055910 2.018260 0.013690 
#    z -0.009650 0.013690 1.913400 
# 
# From -- ./inp_files/226406.got.cif
#   From: 2010.05.17/outbox.cif.g08.bks.cpg/sg2_114_cif.got.tgz:226406.got - 2010.06.03 11:33:40.
