data_PCOD9099761
_publ_section_title
;
Structure prediction by ZEFSAII (Michael W. Deem and Ramdas Pophale) SiO2 
 PCOD9099761
Probable space group: P -1
;
_chemical_formula_sum "Si O2"
_cell_formula_units_Z 16
_cell_length_a 18.647409
_cell_length_b 13.962193
_cell_length_c 7.509809
_cell_angle_alpha 60.919776
_cell_angle_beta 122.816389
_cell_angle_gamma 157.621451
_cell_volume 624.912783
_symmetry_space_group_name_H-M "P -1"
_symmetry_group_IT_number 2
_symmetry_cell_setting 'triclinic'
loop_
_space_group_symop_operation_xyz
x,y,z
-x,-y,-z
loop_
_atom_site_type_symbol
_atom_site_label
_atom_site_fract_x
_atom_site_fract_y
_atom_site_fract_z
Si Si1 0.057160 0.369323 0.579297
Si Si2 0.647797 0.976921 0.393198
Si Si3 0.617026 0.877277 0.061813
Si Si4 0.988799 0.792574 0.688284
Si Si5 0.464273 0.927577 0.722540
Si Si6 0.231995 0.276911 0.431217
Si Si7 0.483743 0.344139 0.206784
Si Si8 0.168105 0.105608 0.155975
O O1 0.119016 0.402500 0.433008
O O2 0.945499 0.136516 0.723865
O O3 0.244476 0.624391 0.707401
O O4 0.883252 0.257952 0.434116
O O5 0.603766 0.863301 0.619680
O O6 0.537608 0.964436 0.262308
O O7 0.584841 0.829441 0.273306
O O8 0.608294 0.996917 0.908885
O O9 0.470836 0.648314 0.934692
O O10 0.829541 0.071259 0.129882
O O11 0.857136 0.703595 0.734532
O O12 0.077547 0.001557 0.518551
O O13 0.500000 0.000000 0.500000
O O14 0.356274 0.432976 0.636890
O O15 0.304806 0.310543 0.313765
O O16 0.314372 0.240937 0.072629
O O17 0.000000 0.000000 0.000000
#
# Coordination Sequence:
#
# PCOD9099761 Si02
#       8
#     2   2   2   2   2   2   2   2
#     4   9  21  40  65  90 130 175 205 268 328 379
#     4  10  23  44  64  91 130 166 216 267 325 386
#     4  11  23  41  63  92 128 163 213 270 321 379
#     4   9  20  38  59  91 126 165 212 258 321 389
#     4  12  23  41  69  95 126 169 221 271 328 383
#     4  10  20  37  61  91 129 172 209 259 321 382
#     4  11  22  39  65  92 129 169 214 265 316 388
#     4  10  21  37  61  97 136 168 216 262 323 392
#
# _framework density 25.603573999999998
#
# number of rings (size 3 to 8) (size 9 to 14) (size 15 to 20)
#    0.000    1.750    1.250    3.375    0.000    2.500 
#    0.000    2.500    0.000    0.000    0.000    0.000 
#    0.000    0.000    0.000    0.000    0.000    0.000 
#
# Total GULP energy -89487.659908 kJ/mol
# GULP energy per Si atom -5592.978744 kJ/mol
# Density = 2.554530 g / cm^3
# Si number density = 25.603574 Si / 1000 Ang^3
#
#
#
# Elastic Constant Matrix: (Units=GPa)
#
#
# Indices 1 2 3 4 5 6 
#
# 1 152.1731 29.0318 52.1559 4.5508 11.7185 -18.4526
# 2 29.0318 67.0105 7.6747 16.1955 -0.4021 -11.4291
# 3 52.1559 7.6747 104.5657 2.1247 19.6578 -8.7262
# 4 4.5508 16.1955 2.1247 32.5145 -8.4908 -3.4767
# 5 11.7185 -0.4021 19.6578 -8.4908 64.1764 6.5983
# 6 -18.4526 -11.4291 -8.7262 -3.4767 6.5983 34.6618
#
#
#
# Elastic Compliance Matrix: (Units=1/GPa)
#
#
# Indices 1 2 3 4 5 6 
#
# 1 0.008859 -0.003065 -0.003835 0.000675 -0.000674 0.002936
# 2 -0.003065 0.019026 0.000893 -0.008974 -0.001214 0.004198
# 3 -0.003835 0.000893 0.012236 -0.001403 -0.003417 0.001843
# 4 0.000675 -0.008974 -0.001403 0.036529 0.005110 -0.000262
# 5 -0.000674 -0.001214 -0.003417 0.005110 0.017884 -0.004511
# 6 0.002936 0.004198 0.001843 -0.000262 -0.004511 0.033094
#
#
# Mechanical properties :
#
#
# Convention : Reuss Voigt Hill
#
# Bulk Modulus (GPa) = 35.58011 55.71933 45.64972
# Shear Modulus (GPa) = 33.55457 41.92967 37.74212
#
# Velocity S-wave (km/s) = 3.62407 4.05118 3.84356
# Velocity P-wave (km/s) = 5.60701 6.61001 6.12906
#
# Compressibility (1/GPa) = 0.02810559
#
# Stress axis : x y z
#
# Youngs Moduli (GPa) = 112.88525 52.55869 81.72899
#
# Poissons Ratio (x) = 0.16110 0.31347
# Poissons Ratio (y) = 0.34601 -0.07300
# Poissons Ratio (z) = 0.43297 -0.04695
#
# Static dielectric constant tensor:
#      x y z
#    x 2.061260 0.056990 0.018630 
#    y 0.056990 2.029030 0.028540 
#    z 0.018630 0.028540 2.054190 
# 
# From -- ./inp_files/333058.got.cif
#   From: 2010.05.17/outbox.cif.g08.bks.cpg/sg2_167_cif.got.tgz:333058.got - 2010.06.03 11:33:40.
