data_PCOD9099163
_publ_section_title
;
Structure prediction by ZEFSAII (Michael W. Deem and Ramdas Pophale) SiO2 
 PCOD9099163
Probable space group: P -1
;
_chemical_formula_sum "Si O2"
_cell_formula_units_Z 16
_cell_length_a 7.896643
_cell_length_b 6.133956
_cell_length_c 21.365245
_cell_angle_alpha 126.803772
_cell_angle_beta 91.226921
_cell_angle_gamma 60.917750
_cell_volume 668.168932
_symmetry_space_group_name_H-M "P -1"
_symmetry_group_IT_number 2
_symmetry_cell_setting 'triclinic'
loop_
_space_group_symop_operation_xyz
x,y,z
-x,-y,-z
loop_
_atom_site_type_symbol
_atom_site_label
_atom_site_fract_x
_atom_site_fract_y
_atom_site_fract_z
Si Si1 0.955609 0.929381 0.331309
Si Si2 0.636084 0.128489 0.859853
Si Si3 0.347369 0.333107 0.313448
Si Si4 0.975460 0.406715 0.064127
Si Si5 0.219696 0.858527 0.751734
Si Si6 0.116712 0.596544 0.805774
Si Si7 0.344142 0.309964 0.996681
Si Si8 0.894010 0.340329 0.511054
O O1 0.172614 0.638363 0.317761
O O2 0.860356 0.740069 0.270881
O O3 0.944899 0.101366 0.294696
O O4 0.824637 0.216075 0.431331
O O5 0.520275 0.077272 0.906712
O O6 0.588547 0.016384 0.776847
O O7 0.882683 0.880934 0.829393
O O8 0.584393 0.494486 0.930561
O O9 0.557050 0.309063 0.307740
O O10 0.261751 0.386200 0.391994
O O11 0.852283 0.432951 0.006500
O O12 0.893614 0.315743 0.106799
O O13 0.889835 0.783895 0.151556
O O14 0.224528 0.205261 0.020993
O O15 0.271382 0.612796 0.767132
O O16 0.000000 0.500000 0.500000
O O17 0.000000 0.000000 0.500000
#
# Coordination Sequence:
#
# PCOD9099163 Si02
#       8
#     2   2   2   2   2   2   2   2
#     4   9  23  42  67  95 130 173 217 276 330 408
#     4  10  20  37  61  87 121 171 216 268 333 402
#     4  10  22  43  67  98 128 180 223 267 348 405
#     4  10  21  39  58  88 125 167 217 277 334 391
#     4  11  21  43  64  94 134 171 219 278 331 407
#     4  10  22  39  62  91 127 169 216 272 341 394
#     4  10  20  37  59  87 124 167 219 276 330 401
#     4  10  23  44  72 107 140 182 230 286 346 413
#
# _framework density 23.94604
#
# number of rings (size 3 to 8) (size 9 to 14) (size 15 to 20)
#    0.000    2.000    2.500    0.000    5.250    1.500 
#   11.250    1.875    0.000    0.000    0.000    0.000 
#    0.000    0.000    0.000    0.000    0.000    0.000 
#
# Total GULP energy -89097.210022 kJ/mol
# GULP energy per Si atom -5568.575626 kJ/mol
# Density = 2.389154 g / cm^3
# Si number density = 23.946040 Si / 1000 Ang^3
#
#
#
# Elastic Constant Matrix: (Units=GPa)
#
#
# Indices 1 2 3 4 5 6 
#
# 1 72.2302 30.4864 44.8241 -19.1985 -24.0276 16.1540
# 2 30.4864 88.3724 46.4539 -27.6399 -9.3621 1.4520
# 3 44.8241 46.4539 192.4320 -27.4645 -5.4108 17.2080
# 4 -19.1985 -27.6399 -27.4645 33.0484 8.6396 -5.9658
# 5 -24.0276 -9.3621 -5.4108 8.6396 42.0622 -10.5062
# 6 16.1540 1.4520 17.2080 -5.9658 -10.5062 22.0159
#
#
#
# Elastic Compliance Matrix: (Units=1/GPa)
#
#
# Indices 1 2 3 4 5 6 
#
# 1 0.023508 -0.004414 -0.002796 0.003576 0.008974 -0.009521
# 2 -0.004414 0.017494 -0.002192 0.011394 0.000533 0.007141
# 3 -0.002796 -0.002192 0.006984 0.002334 -0.002637 -0.003889
# 4 0.003576 0.011394 0.002334 0.045637 -0.003071 0.005702
# 5 0.008974 0.000533 -0.002637 -0.003071 0.031749 0.009761
# 6 -0.009521 0.007141 -0.003889 0.005702 0.009761 0.061179
#
#
# Mechanical properties :
#
#
# Convention : Reuss Voigt Hill
#
# Bulk Modulus (GPa) = 34.26953 66.28483 50.27718
# Shear Modulus (GPa) = 23.24692 34.84330 29.04511
#
# Velocity S-wave (km/s) = 3.11915 3.81868 3.48651
# Velocity P-wave (km/s) = 5.22632 6.86907 6.10322
#
# Compressibility (1/GPa) = 0.02918044
#
# Stress axis : x y z
#
# Youngs Moduli (GPa) = 42.53881 57.16289 143.18874
#
# Poissons Ratio (x) = 0.25234 0.40037
# Poissons Ratio (y) = 0.18778 0.31389
# Poissons Ratio (z) = 0.11894 0.12531
#
# Static dielectric constant tensor:
#      x y z
#    x 1.955050 0.125010 -0.029690 
#    y 0.125010 2.243620 -0.015440 
#    z -0.029690 -0.015440 1.880500 
# 
# From -- ./inp_files/585860.got.cif
#   From: 2010.05.17/outbox.cif.g08.bks.cpg/sg2_293_cif.got.tgz:585860.got - 2010.06.03 11:33:40.
