data_PCOD9099985
_publ_section_title
;
Structure prediction by ZEFSAII (Michael W. Deem and Ramdas Pophale) SiO2 
 PCOD9099985
Probable space group: P -1
;
_chemical_formula_sum "Si O2"
_cell_formula_units_Z 16
_cell_length_a 9.745266
_cell_length_b 12.437332
_cell_length_c 8.031141
_cell_angle_alpha 108.803042
_cell_angle_beta 74.043635
_cell_angle_gamma 128.089295
_cell_volume 721.449988
_symmetry_space_group_name_H-M "P -1"
_symmetry_group_IT_number 2
_symmetry_cell_setting 'triclinic'
loop_
_space_group_symop_operation_xyz
x,y,z
-x,-y,-z
loop_
_atom_site_type_symbol
_atom_site_label
_atom_site_fract_x
_atom_site_fract_y
_atom_site_fract_z
Si Si1 0.511236 0.594678 0.894331
Si Si2 0.995141 0.137060 0.863672
Si Si3 0.803708 0.159889 0.634261
Si Si4 0.497554 0.907739 0.800101
Si Si5 0.655360 0.681375 0.330313
Si Si6 0.789649 0.093810 0.244721
Si Si7 0.247981 0.178606 0.285354
Si Si8 0.459860 0.765878 0.238529
O O1 0.408602 0.478035 0.727251
O O2 0.703235 0.709612 0.816582
O O3 0.500000 0.500000 0.000000
O O4 0.435654 0.672777 0.041747
O O5 0.921461 0.190250 0.772913
O O6 0.201322 0.235971 0.821775
O O7 0.918395 0.978187 0.761540
O O8 0.916391 0.121824 0.064469
O O9 0.871772 0.150767 0.427681
O O10 0.715886 0.242423 0.688314
O O11 0.632030 0.006386 0.659639
O O12 0.307958 0.835709 0.748056
O O13 0.583068 0.829103 0.783919
O O14 0.500000 0.000000 0.000000
O O15 0.746804 0.760849 0.508346
O O16 0.504887 0.702827 0.344994
O O17 0.630321 0.927204 0.232226
#
# Coordination Sequence:
#
# PCOD9099985 Si02
#       8
#     2   2   2   2   2   2   2   2
#     4  10  22  39  58  85 117 164 209 247 285 361
#     4  11  23  39  60  95 130 151 193 256 314 363
#     4  10  20  35  61  93 121 155 202 252 302 363
#     4  10  16  31  58  89 117 144 202 252 293 344
#     4  11  24  39  58  92 124 159 202 248 301 360
#     4  11  19  34  60  93 122 155 193 254 309 356
#     4  11  19  38  63  84 116 164 200 247 297 358
#     4  10  19  39  60  86 120 157 208 248 293 356
#
# _framework density 22.177561000000001
#
# number of rings (size 3 to 8) (size 9 to 14) (size 15 to 20)
#    0.000    1.500    3.750    5.250    0.000    0.500 
#    4.500    0.625    0.000    0.750    0.000    0.000 
#    0.000    0.000    0.000    0.000    0.000    0.000 
#
# Total GULP energy -89305.566795 kJ/mol
# GULP energy per Si atom -5581.597925 kJ/mol
# Density = 2.212708 g / cm^3
# Si number density = 22.177561 Si / 1000 Ang^3
#
#
#
# Elastic Constant Matrix: (Units=GPa)
#
#
# Indices 1 2 3 4 5 6 
#
# 1 74.9310 13.5377 22.2321 5.6478 2.8046 -10.1852
# 2 13.5377 65.6193 18.3234 12.7180 -0.0847 3.7066
# 3 22.2321 18.3234 148.8844 6.6088 13.0380 -5.1509
# 4 5.6478 12.7180 6.6088 28.8978 -7.1335 1.2993
# 5 2.8046 -0.0847 13.0380 -7.1335 27.6221 0.7365
# 6 -10.1852 3.7066 -5.1509 1.2993 0.7365 19.1913
#
#
#
# Elastic Compliance Matrix: (Units=1/GPa)
#
#
# Indices 1 2 3 4 5 6 
#
# 1 0.015721 -0.002894 -0.001433 -0.002297 -0.001755 0.008740
# 2 -0.002894 0.017886 -0.001588 -0.006855 -0.000540 -0.004932
# 3 -0.001433 -0.001588 0.007620 -0.001830 -0.003979 0.001868
# 4 -0.002297 -0.006855 -0.001830 0.041595 0.011915 -0.003660
# 5 -0.001755 -0.000540 -0.003979 0.011915 0.041449 -0.004292
# 6 0.008740 -0.004932 0.001868 -0.003660 -0.004292 0.058612
#
#
# Mechanical properties :
#
#
# Convention : Reuss Voigt Hill
#
# Bulk Modulus (GPa) = 34.01738 44.18012 39.09875
# Shear Modulus (GPa) = 24.44839 30.83167 27.64003
#
# Velocity S-wave (km/s) = 3.32383 3.73261 3.53414
# Velocity P-wave (km/s) = 5.48657 6.20813 5.85847
#
# Compressibility (1/GPa) = 0.02939674
#
# Stress axis : x y z
#
# Youngs Moduli (GPa) = 63.61097 55.90859 131.22733
#
# Poissons Ratio (x) = 0.16179 0.18809
# Poissons Ratio (y) = 0.18407 0.20842
# Poissons Ratio (z) = 0.09117 0.08879
#
# Static dielectric constant tensor:
#      x y z
#    x 1.901150 -0.055840 0.035080 
#    y -0.055840 1.844700 0.028220 
#    z 0.035080 0.028220 1.878650 
# 
# From -- ./inp_files/262804.got.cif
#   From: 2010.05.17/outbox.cif.g08.bks.cpg/sg2_132_cif.got.tgz:262804.got - 2010.06.03 11:33:40.
