data_PCOD9099815
_publ_section_title
;
Structure prediction by ZEFSAII (Michael W. Deem and Ramdas Pophale) SiO2 
 PCOD9099815
Probable space group: P -1
;
_chemical_formula_sum "Si O2"
_cell_formula_units_Z 16
_cell_length_a 7.994760
_cell_length_b 14.077651
_cell_length_c 9.757025
_cell_angle_alpha 100.243812
_cell_angle_beta 65.256184
_cell_angle_gamma 138.617852
_cell_volume 642.104848
_symmetry_space_group_name_H-M "P -1"
_symmetry_group_IT_number 2
_symmetry_cell_setting 'triclinic'
loop_
_space_group_symop_operation_xyz
x,y,z
-x,-y,-z
loop_
_atom_site_type_symbol
_atom_site_label
_atom_site_fract_x
_atom_site_fract_y
_atom_site_fract_z
Si Si1 0.078935 0.756552 0.930565
Si Si2 0.314310 0.545599 0.707121
Si Si3 0.399353 0.144197 0.272001
Si Si4 0.769899 0.448826 0.864115
Si Si5 0.210165 0.078342 0.611724
Si Si6 0.202245 0.161709 0.911153
Si Si7 0.287437 0.471403 0.390874
Si Si8 0.827521 0.147892 0.392069
O O1 0.389988 0.841383 0.878573
O O2 0.115035 0.804008 0.772207
O O3 0.873942 0.582579 0.949218
O O4 0.960899 0.803816 0.056952
O O5 0.485477 0.702598 0.752408
O O6 0.345362 0.550896 0.531762
O O7 0.453640 0.502123 0.703043
O O8 0.989687 0.449184 0.811105
O O9 0.423814 0.154740 0.433514
O O10 0.079823 0.978818 0.328231
O O11 0.453921 0.290050 0.957986
O O12 0.759972 0.484415 0.718401
O O13 0.334737 0.166890 0.731133
O O14 0.065819 0.917602 0.639281
O O15 0.000000 0.000000 0.000000
O O16 0.003554 0.293873 0.457717
O O17 0.500000 0.000000 0.500000
#
# Coordination Sequence:
#
# PCOD9099815 Si02
#       8
#     2   2   2   2   2   2   2   2
#     4  10  22  41  64  88 125 169 207 257 317 378
#     4  10  20  37  61  94 122 166 214 261 313 380
#     4  10  21  40  62  91 128 164 207 259 321 376
#     4  10  23  41  63  87 126 170 214 258 321 379
#     4  11  22  37  61  91 130 160 204 261 316 370
#     4  12  25  41  65  94 125 164 216 262 318 386
#     4  10  21  36  62  93 132 162 213 264 315 373
#     4  11  20  35  61  94 124 166 205 255 317 370
#
# _framework density 24.918047999999999
#
# number of rings (size 3 to 8) (size 9 to 14) (size 15 to 20)
#    0.000    1.500    3.750    1.500    1.750    0.500 
#    0.000    1.250    0.000    4.500    0.000    0.000 
#    0.000    0.000    0.000    0.000    0.000    0.000 
#
# Total GULP energy -89378.281451 kJ/mol
# GULP energy per Si atom -5586.142591 kJ/mol
# Density = 2.486133 g / cm^3
# Si number density = 24.918048 Si / 1000 Ang^3
#
#
#
# Elastic Constant Matrix: (Units=GPa)
#
#
# Indices 1 2 3 4 5 6 
#
# 1 79.5797 33.3102 32.4519 -1.3579 -16.5496 6.4866
# 2 33.3102 115.6698 29.2093 -19.9877 -13.0093 -8.3753
# 3 32.4519 29.2093 74.3612 -10.7062 -8.8129 7.7763
# 4 -1.3579 -19.9877 -10.7062 19.6507 6.9656 2.5009
# 5 -16.5496 -13.0093 -8.8129 6.9656 47.0247 3.2132
# 6 6.4866 -8.3753 7.7763 2.5009 3.2132 19.4418
#
#
#
# Elastic Compliance Matrix: (Units=1/GPa)
#
#
# Indices 1 2 3 4 5 6 
#
# 1 0.018698 -0.005095 -0.006095 -0.008482 0.005684 -0.005844
# 2 -0.005095 0.012965 -0.002066 0.011092 -0.000701 0.006800
# 3 -0.006095 -0.002066 0.018982 0.008763 0.000061 -0.007586
# 4 -0.008482 0.011092 0.008763 0.069770 -0.008371 -0.003488
# 5 0.005684 -0.000701 0.000061 -0.008371 0.024680 -0.005225
# 6 -0.005844 0.006800 -0.007586 -0.003488 -0.005225 0.060661
#
#
# Mechanical properties :
#
#
# Convention : Reuss Voigt Hill
#
# Bulk Modulus (GPa) = 41.43977 51.06150 46.25063
# Shear Modulus (GPa) = 20.80627 28.86608 24.83617
#
# Velocity S-wave (km/s) = 2.89275 3.40728 3.16050
# Velocity P-wave (km/s) = 5.27483 6.00131 5.64976
#
# Compressibility (1/GPa) = 0.02413141
#
# Stress axis : x y z
#
# Youngs Moduli (GPa) = 53.48197 77.13339 52.68257
#
# Poissons Ratio (x) = 0.39299 0.32110
# Poissons Ratio (y) = 0.27249 0.10886
# Poissons Ratio (z) = 0.32598 0.15938
#
# Static dielectric constant tensor:
#      x y z
#    x 2.217360 0.001660 -0.053470 
#    y 0.001660 1.946620 -0.037790 
#    z -0.053470 -0.037790 2.002150 
# 
# From -- ./inp_files/277260.got.cif
#   From: 2010.05.17/outbox.cif.g08.bks.cpg/sg2_139_cif.got.tgz:277260.got - 2010.06.03 11:33:40.
