data_PCOD9099743
_publ_section_title
;
Structure prediction by ZEFSAII (Michael W. Deem and Ramdas Pophale) SiO2 
 PCOD9099743
Probable space group: P -1
;
_chemical_formula_sum "Si O2"
_cell_formula_units_Z 14
_cell_length_a 5.280033
_cell_length_b 10.285966
_cell_length_c 9.750098
_cell_angle_alpha 82.372858
_cell_angle_beta 77.011229
_cell_angle_gamma 93.058301
_cell_volume 509.516206
_symmetry_space_group_name_H-M "P -1"
_symmetry_group_IT_number 2
_symmetry_cell_setting 'triclinic'
loop_
_space_group_symop_operation_xyz
x,y,z
-x,-y,-z
loop_
_atom_site_type_symbol
_atom_site_label
_atom_site_fract_x
_atom_site_fract_y
_atom_site_fract_z
Si Si1 0.928254 0.254933 0.421924
Si Si2 0.755964 0.477855 0.245329
Si Si3 0.219514 0.941534 0.950257
Si Si4 0.754086 0.987764 0.379935
Si Si5 0.619074 0.801554 0.018425
Si Si6 0.270763 0.413254 0.176245
Si Si7 0.423548 0.280428 0.648840
O O1 0.760534 0.326392 0.314199
O O2 0.720887 0.266917 0.567423
O O3 0.189622 0.349342 0.347149
O O4 0.957795 0.103320 0.397620
O O5 0.554573 0.482443 0.147860
O O6 0.674982 0.575233 0.360320
O O7 0.053235 0.512376 0.163879
O O8 0.288217 0.973434 0.778477
O O9 0.113139 0.088390 0.008517
O O10 0.320572 0.801201 0.996557
O O11 0.500000 0.000000 0.000000
O O12 0.772279 0.830022 0.390191
O O13 0.500000 0.000000 0.500000
O O14 0.590909 0.756743 0.184492
O O15 0.742205 0.706412 0.908970
#
# Coordination Sequence:
#
# PCOD9099743 Si02
#       7
#     2   2   2   2   2   2   2
#     4   9  20  40  68  95 131 175 224 270 331 393
#     4  10  23  43  69  96 132 178 226 269 328 392
#     4  10  20  37  61  90 131 168 216 265 336 394
#     4   9  18  37  66  93 130 165 220 274 331 387
#     4  10  22  38  60  94 129 173 217 272 330 393
#     4  10  23  41  71  92 131 178 225 265 329 396
#     4  10  21  41  62 100 136 170 221 278 331 388
#
# _framework density 27.477048
#
# number of rings (size 3 to 8) (size 9 to 14) (size 15 to 20)
#    0.857    1.429    0.000    2.143    2.000    1.714 
#    5.143    2.857    0.000   12.857    0.000    0.000 
#    0.000    0.000    0.000    0.000    0.000    0.000 
#
# Total GULP energy -78065.417853 kJ/mol
# GULP energy per Si atom -5576.101275 kJ/mol
# Density = 2.741451 g / cm^3
# Si number density = 27.477048 Si / 1000 Ang^3
#
#
#
# Elastic Constant Matrix: (Units=GPa)
#
#
# Indices 1 2 3 4 5 6 
#
# 1 138.7982 52.7282 46.4059 12.8204 -24.0417 -21.3230
# 2 52.7282 137.4336 32.4209 30.2858 -4.5635 2.3913
# 3 46.4059 32.4209 152.9976 12.8202 -21.0312 5.2065
# 4 12.8204 30.2858 12.8202 59.4059 7.1927 -6.8885
# 5 -24.0417 -4.5635 -21.0312 7.1927 31.5065 11.5328
# 6 -21.3230 2.3913 5.2065 -6.8885 11.5328 31.1038
#
#
#
# Elastic Compliance Matrix: (Units=1/GPa)
#
#
# Indices 1 2 3 4 5 6 
#
# 1 0.011110 -0.003802 -0.002326 0.000405 0.003716 0.007010
# 2 -0.003802 0.010010 -0.000194 -0.004981 0.001371 -0.004955
# 3 -0.002326 -0.000194 0.008683 -0.002833 0.006919 -0.006226
# 4 0.000405 -0.004981 -0.002833 0.022439 -0.011177 0.010249
# 5 0.003716 0.001371 0.006919 -0.011177 0.049035 -0.019373
# 6 0.007010 -0.004955 -0.006226 0.010249 -0.019373 0.047832
#
#
# Mechanical properties :
#
#
# Convention : Reuss Voigt Hill
#
# Bulk Modulus (GPa) = 58.27438 76.92661 67.60049
# Shear Modulus (GPa) = 29.85615 44.24819 37.05217
#
# Velocity S-wave (km/s) = 3.29991 4.01729 3.67615
# Velocity P-wave (km/s) = 5.98111 7.04100 6.53259
#
# Compressibility (1/GPa) = 0.01716020
#
# Stress axis : x y z
#
# Youngs Moduli (GPa) = 90.01260 99.90092 115.17014
#
# Poissons Ratio (x) = 0.37978 0.26786
# Poissons Ratio (y) = 0.34219 0.02230
# Poissons Ratio (z) = 0.20935 0.01935
#
# Static dielectric constant tensor:
#      x y z
#    x 2.222050 0.111780 0.080160 
#    y 0.111780 1.859750 -0.107640 
#    z 0.080160 -0.107640 2.093400 
# 
# From -- ./inp_files/363162.got.cif
#   From: 2010.05.17/outbox.cif.g08.bks.cpg/sg2_182_cif.got.tgz:363162.got - 2010.06.03 11:33:40.
