data_PCOD9099571
_publ_section_title
;
Structure prediction by ZEFSAII (Michael W. Deem and Ramdas Pophale) SiO2 
 PCOD9099571
Probable space group: P -1
;
_chemical_formula_sum "Si O2"
_cell_formula_units_Z 16
_cell_length_a 16.389609
_cell_length_b 11.154668
_cell_length_c 7.447126
_cell_angle_alpha 91.564509
_cell_angle_beta 134.846730
_cell_angle_gamma 121.283562
_cell_volume 627.301942
_symmetry_space_group_name_H-M "P -1"
_symmetry_group_IT_number 2
_symmetry_cell_setting 'triclinic'
loop_
_space_group_symop_operation_xyz
x,y,z
-x,-y,-z
loop_
_atom_site_type_symbol
_atom_site_label
_atom_site_fract_x
_atom_site_fract_y
_atom_site_fract_z
Si Si1 0.966809 0.619498 0.678143
Si Si2 0.602572 0.589438 0.450786
Si Si3 0.258698 0.352493 0.693470
Si Si4 0.125011 0.009138 0.587241
Si Si5 0.404172 0.212387 0.323379
Si Si6 0.310450 0.795814 0.658205
Si Si7 0.995195 0.709360 0.143563
Si Si8 0.282326 0.701314 0.192894
O O1 0.900571 0.689594 0.487456
O O2 0.792013 0.394770 0.406314
O O3 0.000070 0.683107 0.939500
O O4 0.146945 0.694297 0.900135
O O5 0.710277 0.603392 0.466974
O O6 0.530226 0.420832 0.451709
O O7 0.694507 0.780748 0.684557
O O8 0.431080 0.512325 0.085089
O O9 0.241862 0.196633 0.666997
O O10 0.004641 0.845599 0.250465
O O11 0.265458 0.063441 0.948655
O O12 0.000000 0.000000 0.500000
O O13 0.528100 0.199267 0.577982
O O14 0.180805 0.801972 0.497427
O O15 0.312764 0.762855 0.449903
O O16 0.500000 0.000000 0.000000
O O17 0.844514 0.513610 0.997216
#
# Coordination Sequence:
#
# PCOD9099571 Si02
#       8
#     2   2   2   2   2   2   2   2
#     4   9  19  35  57  89 122 158 196 247 303 361
#     4   9  20  35  60  87 113 161 198 249 294 353
#     4  10  21  39  59  88 126 154 206 244 307 358
#     4  11  25  38  59  91 120 160 205 254 303 353
#     4  10  20  37  61  84 118 155 204 245 295 355
#     4   9  16  30  57  88 117 154 202 248 290 352
#     4   9  19  33  54  88 120 154 203 245 292 355
#     4   9  18  33  60  87 117 157 199 242 298 358
#
# _framework density 25.506056999999998
#
# number of rings (size 3 to 8) (size 9 to 14) (size 15 to 20)
#    0.000    2.500    0.000    3.750    7.000    2.500 
#    0.000    0.625    0.000    0.750    0.000    0.000 
#    0.000    0.000    0.000    0.000    0.000    0.000 
#
# Total GULP energy -89238.512778 kJ/mol
# GULP energy per Si atom -5577.407049 kJ/mol
# Density = 2.544800 g / cm^3
# Si number density = 25.506057 Si / 1000 Ang^3
#
#
#
# Elastic Constant Matrix: (Units=GPa)
#
#
# Indices 1 2 3 4 5 6 
#
# 1 84.6441 20.2143 37.1509 -7.4475 2.0924 -29.2075
# 2 20.2143 37.6396 37.7568 -0.1314 -0.0757 -23.4443
# 3 37.1509 37.7568 133.6134 8.1268 22.6532 -26.3920
# 4 -7.4475 -0.1314 8.1268 38.1173 -24.5645 5.7131
# 5 2.0924 -0.0757 22.6532 -24.5645 53.6093 -6.9804
# 6 -29.2075 -23.4443 -26.3920 5.7131 -6.9804 33.3615
#
#
#
# Elastic Compliance Matrix: (Units=1/GPa)
#
#
# Indices 1 2 3 4 5 6 
#
# 1 0.018823 0.005061 -0.004904 0.006422 0.006423 0.016401
# 2 0.005061 0.062342 -0.014356 0.007887 0.014595 0.038587
# 3 -0.004904 -0.014356 0.014980 -0.011308 -0.011738 -0.003051
# 4 0.006422 0.007887 -0.011308 0.046653 0.025869 -0.000358
# 5 0.006423 0.014595 -0.011738 0.025869 0.036513 0.009804
# 6 0.016401 0.038587 -0.003051 -0.000358 0.009804 0.071149
#
#
# Mechanical properties :
#
#
# Convention : Reuss Voigt Hill
#
# Bulk Modulus (GPa) = 14.76083 49.57123 32.16603
# Shear Modulus (GPa) = 16.58701 35.73596 26.16148
#
# Velocity S-wave (km/s) = 2.55290 3.74716 3.20612
# Velocity P-wave (km/s) = 3.80650 6.18052 5.13266
#
# Compressibility (1/GPa) = 0.06774685
#
# Stress axis : x y z
#
# Youngs Moduli (GPa) = 53.12526 16.04055 66.75652
#
# Poissons Ratio (x) = -0.08118 0.32736
# Poissons Ratio (y) = -0.26886 0.95837
# Poissons Ratio (z) = 0.26052 0.23028
#
# Static dielectric constant tensor:
#      x y z
#    x 2.151870 0.116450 0.049080 
#    y 0.116450 2.270420 0.026900 
#    z 0.049080 0.026900 2.146510 
# 
# From -- ./inp_files/332233.got.cif
#   From: 2010.05.17/outbox.cif.g08.bks.cpg/sg2_167_cif.got.tgz:332233.got - 2010.06.03 11:33:40.
