data_PCOD9099556
_publ_section_title
;
Structure prediction by ZEFSAII (Michael W. Deem and Ramdas Pophale) SiO2 
 PCOD9099556
Probable space group: P -1
;
_chemical_formula_sum "Si O2"
_cell_formula_units_Z 14
_cell_length_a 12.832985
_cell_length_b 8.032511
_cell_length_c 14.432986
_cell_angle_alpha 86.661498
_cell_angle_beta 145.701542
_cell_angle_gamma 72.745303
_cell_volume 661.382660
_symmetry_space_group_name_H-M "P -1"
_symmetry_group_IT_number 2
_symmetry_cell_setting 'triclinic'
loop_
_space_group_symop_operation_xyz
x,y,z
-x,-y,-z
loop_
_atom_site_type_symbol
_atom_site_label
_atom_site_fract_x
_atom_site_fract_y
_atom_site_fract_z
Si Si1 0.106892 0.144602 0.760908
Si Si2 0.775837 0.249139 0.827285
Si Si3 0.082880 0.274141 0.536996
Si Si4 0.714444 0.260542 0.177636
Si Si5 0.475754 0.140964 0.140498
Si Si6 0.099396 0.514973 0.975477
Si Si7 0.258262 0.491272 0.387877
O O1 0.046623 0.194854 0.608271
O O2 0.881982 0.314700 0.649481
O O3 0.227278 0.897080 0.858735
O O4 0.298311 0.175798 0.929870
O O5 0.517009 0.310755 0.623675
O O6 0.758178 0.386285 0.721661
O O7 0.816476 0.344936 0.943651
O O8 0.000000 0.000000 0.000000
O O9 0.000000 0.500000 0.500000
O O10 0.930975 0.262634 0.351226
O O11 0.350154 0.109112 0.706690
O O12 0.634744 0.197924 0.211540
O O13 0.500000 0.500000 0.000000
O O14 0.321158 0.288387 0.107450
O O15 0.893981 0.589147 0.747511
O O16 0.000000 0.500000 0.000000
#
# Coordination Sequence:
#
# PCOD9099556 Si02
#       7
#     2   2   2   2   2   2   2
#     4  10  20  38  58  81 122 151 192 247 303 351
#     4  10  21  38  63  88 118 157 210 246 300 360
#     4  11  22  37  56  88 116 154 200 242 297 364
#     4  11  22  35  57  87 117 154 199 241 295 366
#     4  10  20  37  61  82 116 158 189 248 300 346
#     4   9  20  39  61  85 121 157 198 246 302 355
#     4   9  21  40  59  87 121 159 194 256 304 351
#
# _framework density 21.167776
#
# number of rings (size 3 to 8) (size 9 to 14) (size 15 to 20)
#    0.000    2.000    0.000    5.143    4.000    1.714 
#    7.714    0.000    0.000    0.000    0.000    0.000 
#    0.000    0.000    0.000    0.000    0.000    0.000 
#
# Total GULP energy -77969.682770 kJ/mol
# GULP energy per Si atom -5569.263055 kJ/mol
# Density = 2.111960 g / cm^3
# Si number density = 21.167776 Si / 1000 Ang^3
#
#
#
# Elastic Constant Matrix: (Units=GPa)
#
#
# Indices 1 2 3 4 5 6 
#
# 1 33.6144 20.8570 11.5432 -3.0432 11.3900 -18.1681
# 2 20.8570 155.5864 69.3938 -2.7233 12.9043 -25.2278
# 3 11.5432 69.3938 138.5866 -4.0938 25.4296 -6.7079
# 4 -3.0432 -2.7233 -4.0938 38.0754 -1.1157 3.5648
# 5 11.3900 12.9043 25.4296 -1.1157 22.3572 -5.3534
# 6 -18.1681 -25.2278 -6.7079 3.5648 -5.3534 33.3770
#
#
#
# Elastic Compliance Matrix: (Units=1/GPa)
#
#
# Indices 1 2 3 4 5 6 
#
# 1 0.049650 -0.002118 0.001856 0.001317 -0.020772 0.022326
# 2 -0.002118 0.009531 -0.004763 -0.000448 0.002292 0.005510
# 3 0.001856 -0.004763 0.011530 0.000913 -0.011807 -0.002264
# 4 0.001317 -0.000448 0.000913 0.026639 -0.000695 -0.002395
# 5 -0.020772 0.002292 -0.011807 -0.000695 0.067117 -0.001107
# 6 0.022326 0.005510 -0.002264 -0.002395 -0.001107 0.045901
#
#
# Mechanical properties :
#
#
# Convention : Reuss Voigt Hill
#
# Bulk Modulus (GPa) = 16.48494 59.04170 37.76332
# Shear Modulus (GPa) = 20.77798 33.82816 27.30307
#
# Velocity S-wave (km/s) = 3.13642 4.00196 3.59533
# Velocity P-wave (km/s) = 4.57393 7.02190 5.92570
#
# Compressibility (1/GPa) = 0.06066144
#
# Stress axis : x y z
#
# Youngs Moduli (GPa) = 20.14087 104.92057 86.72907
#
# Poissons Ratio (x) = 0.22218 -0.16095
# Poissons Ratio (y) = 0.04265 0.41311
# Poissons Ratio (z) = -0.03738 0.49976
#
# Static dielectric constant tensor:
#      x y z
#    x 1.810670 0.069390 -0.029580 
#    y 0.069390 1.853920 -0.082980 
#    z -0.029580 -0.082980 1.816540 
# 
# From -- ./inp_files/222688.got.cif
#   From: 2010.05.17/outbox.cif.g08.bks.cpg/sg2_112_cif.got.tgz:222688.got - 2010.06.03 11:33:40.
