data_PCOD9099099
_publ_section_title
;
Structure prediction by ZEFSAII (Michael W. Deem and Ramdas Pophale) SiO2 
 PCOD9099099
Probable space group: P -1
;
_chemical_formula_sum "Si O2"
_cell_formula_units_Z 12
_cell_length_a 12.799693
_cell_length_b 5.017819
_cell_length_c 16.503916
_cell_angle_alpha 76.653716
_cell_angle_beta 36.257863
_cell_angle_gamma 79.085304
_cell_volume 609.958970
_symmetry_space_group_name_H-M "P -1"
_symmetry_group_IT_number 2
_symmetry_cell_setting 'triclinic'
loop_
_space_group_symop_operation_xyz
x,y,z
-x,-y,-z
loop_
_atom_site_type_symbol
_atom_site_label
_atom_site_fract_x
_atom_site_fract_y
_atom_site_fract_z
Si Si1 0.058928 0.202003 0.018218
Si Si2 0.498039 0.706751 0.586541
Si Si3 0.790349 0.328779 0.606169
Si Si4 0.957659 0.897490 0.422510
Si Si5 0.452387 0.137139 0.734098
Si Si6 0.813054 0.008385 0.330304
O O1 0.268331 0.151604 0.896079
O O2 0.954655 0.100078 0.169317
O O3 0.000000 0.500000 0.000000
O O4 0.000000 0.000000 0.000000
O O5 0.451299 0.401916 0.659517
O O6 0.699393 0.726848 0.427020
O O7 0.475410 0.886944 0.672372
O O8 0.357217 0.807560 0.600963
O O9 0.852999 0.235855 0.662993
O O10 0.609403 0.201755 0.694802
O O11 0.821070 0.651956 0.550169
O O12 0.931407 0.170841 0.472289
O O13 0.912091 0.998057 0.354384
#
# Coordination Sequence:
#
# PCOD9099099 Si02
#       6
#     2   2   2   2   2   2
#     4  12  25  40  55  85 125 158 185 232 300 352
#     4  11  24  34  64  86 117 143 204 241 285 342
#     4  10  20  37  59  85 114 149 193 239 291 330
#     4  10  21  36  59  86 114 148 193 245 281 336
#     4  12  20  42  57  88 115 158 188 237 293 349
#     4  11  22  40  57  92 117 151 194 245 286 343
#
# _framework density 19.673455000000001
#
# number of rings (size 3 to 8) (size 9 to 14) (size 15 to 20)
#    0.000    1.000    6.667    0.000    0.000    6.667 
#    0.000    0.833    0.000    0.000    0.000   11.667 
#    0.000    0.000    0.000    0.000    0.000    0.000 
#
# Total GULP energy -66805.864469 kJ/mol
# GULP energy per Si atom -5567.155372 kJ/mol
# Density = 1.962868 g / cm^3
# Si number density = 19.673455 Si / 1000 Ang^3
#
#
#
# Elastic Constant Matrix: (Units=GPa)
#
#
# Indices 1 2 3 4 5 6 
#
# 1 161.6677 13.2711 33.6164 8.6700 8.9292 -15.1980
# 2 13.2711 89.3245 10.1224 0.6212 7.1687 17.4289
# 3 33.6164 10.1224 122.7393 -3.6841 2.0882 -1.1692
# 4 8.6700 0.6212 -3.6841 11.0222 -7.4928 0.1002
# 5 8.9292 7.1687 2.0882 -7.4928 26.8896 -4.5539
# 6 -15.1980 17.4289 -1.1692 0.1002 -4.5539 31.2629
#
#
#
# Elastic Compliance Matrix: (Units=1/GPa)
#
#
# Indices 1 2 3 4 5 6 
#
# 1 0.007870 -0.001272 -0.002235 -0.009725 -0.004154 0.003877
# 2 -0.001272 0.013769 -0.000894 -0.003957 -0.005834 -0.009165
# 3 -0.002235 -0.000894 0.008985 0.006176 0.002007 0.000021
# 4 -0.009725 -0.003957 0.006176 0.127786 0.039941 0.003118
# 5 -0.004154 -0.005834 0.002007 0.039941 0.052595 0.008841
# 6 0.003877 -0.009165 0.000021 0.003118 0.008841 0.040260
#
#
# Mechanical properties :
#
#
# Convention : Reuss Voigt Hill
#
# Bulk Modulus (GPa) = 45.82339 54.19457 50.00898
# Shear Modulus (GPa) = 18.70276 34.94972 26.82624
#
# Velocity S-wave (km/s) = 3.08662 4.21942 3.69667
# Velocity P-wave (km/s) = 6.00379 7.16553 6.61023
#
# Compressibility (1/GPa) = 0.02182291
#
# Stress axis : x y z
#
# Youngs Moduli (GPa) = 127.06305 72.62493 111.30131
#
# Poissons Ratio (x) = 0.09234 0.24875
# Poissons Ratio (y) = 0.16156 0.09952
# Poissons Ratio (z) = 0.28398 0.06494
#
# Static dielectric constant tensor:
#      x y z
#    x 1.779450 -0.008250 -0.020590 
#    y -0.008250 1.733600 0.016770 
#    z -0.020590 0.016770 1.697780 
# 
# From -- ./inp_files/127351.got.cif
#   From: 2010.05.17/outbox.cif.g08.bks.cpg/sg2_64_cif.got.tgz:127351.got - 2010.06.03 11:33:40.
