data_PCOD9099476
_publ_section_title
;
Structure prediction by ZEFSAII (Michael W. Deem and Ramdas Pophale) SiO2 
 PCOD9099476
Probable space group: P -1
;
_chemical_formula_sum "Si O2"
_cell_formula_units_Z 16
_cell_length_a 6.509933
_cell_length_b 19.693493
_cell_length_c 19.044446
_cell_angle_alpha 22.661646
_cell_angle_beta 48.017582
_cell_angle_gamma 48.741734
_cell_volume 691.643311
_symmetry_space_group_name_H-M "P -1"
_symmetry_group_IT_number 2
_symmetry_cell_setting 'triclinic'
loop_
_space_group_symop_operation_xyz
x,y,z
-x,-y,-z
loop_
_atom_site_type_symbol
_atom_site_label
_atom_site_fract_x
_atom_site_fract_y
_atom_site_fract_z
Si Si1 0.693012 0.613138 0.278017
Si Si2 0.695165 0.141708 0.296490
Si Si3 0.946984 0.110047 0.637514
Si Si4 0.140002 0.728025 0.344350
Si Si5 0.903791 0.648047 0.940312
Si Si6 0.235122 0.399286 0.209502
Si Si7 0.672028 0.413268 0.854775
Si Si8 0.576384 0.657205 0.505021
O O1 0.434721 0.765586 0.209370
O O2 0.777014 0.475409 0.453751
O O3 0.560281 0.487096 0.372583
O O4 0.998241 0.666393 0.142161
O O5 0.460239 0.313952 0.182766
O O6 0.500000 0.000000 0.500000
O O7 0.874411 0.074001 0.252249
O O8 0.919054 0.188287 0.258526
O O9 0.949152 0.156604 0.675274
O O10 0.631708 0.158337 0.635093
O O11 0.086120 0.251172 0.423825
O O12 0.881729 0.712188 0.367363
O O13 0.574135 0.706985 0.971149
O O14 0.010937 0.543837 0.086396
O O15 0.000000 0.500000 0.000000
O O16 0.382102 0.475274 0.168447
O O17 0.612623 0.558269 0.666731
#
# Coordination Sequence:
#
# PCOD9099476 Si02
#       8
#     2   2   2   2   2   2   2   2
#     4   9  17  29  50  85 121 150 190 245 288 331
#     4  10  24  41  59  84 123 153 188 244 298 342
#     4  10  19  37  54  86 125 153 188 241 295 341
#     4   9  17  29  52  84 120 155 188 236 297 340
#     4  12  24  39  64  87 109 158 204 238 285 348
#     4  11  20  41  58  83 120 153 192 245 282 342
#     4  11  19  34  58  83 119 149 196 241 286 335
#     4  10  16  31  55  84 118 155 190 242 286 339
#
# _framework density 23.133313000000001
#
# number of rings (size 3 to 8) (size 9 to 14) (size 15 to 20)
#    0.000    1.750    6.250    0.750    0.000    1.000 
#    2.250    1.875    0.000    0.750    0.000    4.375 
#    0.000    0.000    0.000    0.000    0.000    0.000 
#
# Total GULP energy -89100.429684 kJ/mol
# GULP energy per Si atom -5568.776855 kJ/mol
# Density = 2.308066 g / cm^3
# Si number density = 23.133313 Si / 1000 Ang^3
#
#
#
# Elastic Constant Matrix: (Units=GPa)
#
#
# Indices 1 2 3 4 5 6 
#
# 1 117.6241 50.8822 32.1381 14.5107 -36.6424 -21.0435
# 2 50.8822 143.6442 28.0522 7.9397 -26.6384 -32.0398
# 3 32.1381 28.0522 74.0443 10.7224 -31.1744 -16.6864
# 4 14.5107 7.9397 10.7224 23.5077 -8.6108 -12.1791
# 5 -36.6424 -26.6384 -31.1744 -8.6108 41.8185 23.4920
# 6 -21.0435 -32.0398 -16.6864 -12.1791 23.4920 38.1364
#
#
#
# Elastic Compliance Matrix: (Units=1/GPa)
#
#
# Indices 1 2 3 4 5 6 
#
# 1 0.013122 -0.003198 -0.000256 -0.004940 0.010159 -0.003394
# 2 -0.003198 0.009638 -0.001605 0.002755 -0.001451 0.007404
# 3 -0.000256 -0.001605 0.020431 -0.004867 0.014787 -0.003213
# 4 -0.004940 0.002755 -0.004867 0.054307 -0.005100 0.017944
# 5 0.010159 -0.001451 0.014787 -0.005100 0.056088 -0.025323
# 6 -0.003394 0.007404 -0.003213 0.017944 -0.025323 0.050493
#
#
# Mechanical properties :
#
#
# Convention : Reuss Voigt Hill
#
# Bulk Modulus (GPa) = 30.23603 61.93975 46.08789
# Shear Modulus (GPa) = 22.20037 35.64185 28.92111
#
# Velocity S-wave (km/s) = 3.10122 3.92945 3.53964
# Velocity P-wave (km/s) = 5.09138 6.88627 6.05569
#
# Compressibility (1/GPa) = 0.03307312
#
# Stress axis : x y z
#
# Youngs Moduli (GPa) = 76.20711 103.75621 48.94555
#
# Poissons Ratio (x) = 0.33183 0.01253
# Poissons Ratio (y) = 0.24372 0.07854
# Poissons Ratio (z) = 0.01952 0.16650
#
# Static dielectric constant tensor:
#      x y z
#    x 1.921230 -0.062000 -0.092290 
#    y -0.062000 1.984520 0.043230 
#    z -0.092290 0.043230 2.059650 
# 
# From -- ./inp_files/584048.got.cif
#   From: 2010.05.17/outbox.cif.g08.bks.cpg/sg2_293_cif.got.tgz:584048.got - 2010.06.03 11:33:40.
