data_PCOD9099334
_publ_section_title
;
Structure prediction by ZEFSAII (Michael W. Deem and Ramdas Pophale) SiO2 
 PCOD9099334
Probable space group: P -1
;
_chemical_formula_sum "Si O2"
_cell_formula_units_Z 16
_cell_length_a 11.887720
_cell_length_b 7.914577
_cell_length_c 11.096133
_cell_angle_alpha 85.440997
_cell_angle_beta 134.991109
_cell_angle_gamma 102.408966
_cell_volume 717.104495
_symmetry_space_group_name_H-M "P -1"
_symmetry_group_IT_number 2
_symmetry_cell_setting 'triclinic'
loop_
_space_group_symop_operation_xyz
x,y,z
-x,-y,-z
loop_
_atom_site_type_symbol
_atom_site_label
_atom_site_fract_x
_atom_site_fract_y
_atom_site_fract_z
Si Si1 0.610511 0.558327 0.391682
Si Si2 0.772679 0.841165 0.651134
Si Si3 0.754162 0.534354 0.943529
Si Si4 0.771193 0.369374 0.713493
Si Si5 0.100829 0.772138 0.830891
Si Si6 0.812637 0.013981 0.894116
Si Si7 0.065342 0.330867 0.525947
Si Si8 0.999317 0.785530 0.255242
O O1 0.626986 0.742885 0.463036
O O2 0.439263 0.494589 0.201866
O O3 0.635036 0.426289 0.524487
O O4 0.758843 0.602687 0.406512
O O5 0.715193 0.862445 0.742194
O O6 0.917920 0.736994 0.752186
O O7 0.870087 0.030944 0.667527
O O8 0.803502 0.494965 0.847162
O O9 0.807119 0.382227 0.070088
O O10 0.902110 0.356128 0.708875
O O11 0.764989 0.184516 0.786477
O O12 0.190770 0.937578 0.969998
O O13 0.058602 0.783099 0.658135
O O14 0.845009 0.722350 0.052486
O O15 0.000000 0.000000 0.000000
O O16 0.000000 0.500000 0.500000
O O17 0.064766 0.233587 0.657110
#
# Coordination Sequence:
#
# PCOD9099334 Si02
#       8
#     2   2   2   2   2   2   2   2
#     4  11  23  38  58  89 125 157 190 247 303 351
#     4   9  20  37  59  85 117 155 199 241 296 355
#     4  11  22  37  59  89 121 153 199 250 297 345
#     4  10  20  37  60  85 118 159 199 238 293 358
#     4   9  18  35  57  82 113 154 194 239 288 345
#     4   8  16  33  57  87 112 143 194 247 283 333
#     4  11  20  38  62  86 115 157 206 244 286 355
#     4  11  21  38  63  88 112 159 208 244 284 352
#
# _framework density 22.311952999999999
#
# number of rings (size 3 to 8) (size 9 to 14) (size 15 to 20)
#    0.000    2.000    2.500    1.500    0.000    9.500 
#    0.000    8.125    0.000    1.500    0.000    0.000 
#    0.000    0.000    0.000    0.000    0.000    0.000 
#
# Total GULP energy -89118.653203 kJ/mol
# GULP energy per Si atom -5569.915825 kJ/mol
# Density = 2.226117 g / cm^3
# Si number density = 22.311953 Si / 1000 Ang^3
#
#
#
# Elastic Constant Matrix: (Units=GPa)
#
#
# Indices 1 2 3 4 5 6 
#
# 1 100.3143 41.1320 47.7560 9.7785 -26.8168 -5.0433
# 2 41.1320 109.1027 39.3113 17.6658 5.9698 -10.0888
# 3 47.7560 39.3113 108.6425 12.3217 -11.5975 3.3446
# 4 9.7785 17.6658 12.3217 29.8063 -3.8707 -3.5441
# 5 -26.8168 5.9698 -11.5975 -3.8707 41.6113 5.1030
# 6 -5.0433 -10.0888 3.3446 -3.5441 5.1030 31.8203
#
#
#
# Elastic Compliance Matrix: (Units=1/GPa)
#
#
# Indices 1 2 3 4 5 6 
#
# 1 0.017169 -0.005619 -0.004465 0.000913 0.010737 -0.000211
# 2 -0.005619 0.014091 -0.002918 -0.005751 -0.007537 0.004452
# 3 -0.004465 -0.002918 0.012729 -0.002308 0.001296 -0.003436
# 4 0.000913 -0.005751 -0.002308 0.038402 0.004074 0.002188
# 5 0.010737 -0.007537 0.001296 0.004074 0.033477 -0.005739
# 6 -0.000211 0.004452 -0.003436 0.002188 -0.005739 0.034330
#
#
# Mechanical properties :
#
#
# Convention : Reuss Voigt Hill
#
# Bulk Modulus (GPa) = 55.60115 63.82869 59.71492
# Shear Modulus (GPa) = 27.44315 33.30493 30.37404
#
# Velocity S-wave (km/s) = 3.51091 3.86773 3.69363
# Velocity P-wave (km/s) = 6.43500 6.97247 6.70912
#
# Compressibility (1/GPa) = 0.01798524
#
# Stress axis : x y z
#
# Youngs Moduli (GPa) = 58.24536 70.96886 78.56271
#
# Poissons Ratio (x) = 0.39876 0.35075
# Poissons Ratio (y) = 0.32727 0.22925
# Poissons Ratio (z) = 0.26004 0.20709
#
# Static dielectric constant tensor:
#      x y z
#    x 1.815850 -0.002130 -0.001320 
#    y -0.002130 1.957420 -0.037590 
#    z -0.001320 -0.037590 1.943300 
# 
# From -- ./inp_files/416701.got.cif
#   From: 2010.05.17/outbox.cif.g08.bks.cpg/sg2_209_cif.got.tgz:416701.got - 2010.06.03 11:33:40.
