data_PCOD9099570
_publ_section_title
;
Structure prediction by ZEFSAII (Michael W. Deem and Ramdas Pophale) SiO2 
 PCOD9099570
Probable space group: P -1
;
_chemical_formula_sum "Si O2"
_cell_formula_units_Z 14
_cell_length_a 12.002596
_cell_length_b 11.930337
_cell_length_c 8.980377
_cell_angle_alpha 111.348576
_cell_angle_beta 57.602782
_cell_angle_gamma 139.350070
_cell_volume 705.213422
_symmetry_space_group_name_H-M "P -1"
_symmetry_group_IT_number 2
_symmetry_cell_setting 'triclinic'
loop_
_space_group_symop_operation_xyz
x,y,z
-x,-y,-z
loop_
_atom_site_type_symbol
_atom_site_label
_atom_site_fract_x
_atom_site_fract_y
_atom_site_fract_z
Si Si1 0.330727 0.784541 0.674704
Si Si2 0.393654 0.627434 0.327505
Si Si3 0.410634 0.454344 0.703941
Si Si4 0.394166 0.069545 0.902018
Si Si5 0.970823 0.855043 0.035129
Si Si6 0.672803 0.323978 0.058374
Si Si7 0.936260 0.594091 0.753729
O O1 0.427758 0.737587 0.497148
O O2 0.265140 0.694706 0.840544
O O3 0.156381 0.708767 0.658383
O O4 0.439722 0.978480 0.731311
O O5 0.455868 0.534089 0.276315
O O6 0.520129 0.762582 0.169292
O O7 0.178155 0.491752 0.358444
O O8 0.500000 0.500000 0.500000
O O9 0.201888 0.259335 0.779811
O O10 0.392386 0.582412 0.817300
O O11 0.498698 0.139661 0.018653
O O12 0.168558 0.939764 0.006089
O O13 0.915803 0.716758 0.887658
O O14 0.000000 0.000000 0.000000
O O15 0.835479 0.442232 0.874736
#
# Coordination Sequence:
#
# PCOD9099570 Si02
#       7
#     2   2   2   2   2   2   2
#     4  11  20  38  58  85 122 150 195 242 295 335
#     4  11  21  37  61  86 121 152 196 240 290 355
#     4  11  22  39  61  88 119 155 191 244 304 336
#     4  10  22  37  60  88 113 157 199 238 287 346
#     4  10  20  37  61  84 117 152 197 242 282 350
#     4  10  21  37  61  84 119 156 194 240 287 357
#     4   9  22  35  59  88 111 159 200 236 284 348
#
# _framework density 19.852146000000001
#
# number of rings (size 3 to 8) (size 9 to 14) (size 15 to 20)
#    0.000    1.714    2.857    1.714    2.000    1.714 
#    0.000    0.714    6.286    0.000    0.000    0.000 
#    0.000    0.000    0.000    0.000    0.000    0.000 
#
# Total GULP energy -78123.237454 kJ/mol
# GULP energy per Si atom -5580.231247 kJ/mol
# Density = 1.980696 g / cm^3
# Si number density = 19.852146 Si / 1000 Ang^3
#
#
#
# Elastic Constant Matrix: (Units=GPa)
#
#
# Indices 1 2 3 4 5 6 
#
# 1 71.5848 29.4105 -6.9488 6.4644 6.3927 -2.1747
# 2 29.4105 84.3496 17.3308 7.1942 6.1499 5.0004
# 3 -6.9488 17.3308 37.8977 -2.9664 -1.7130 7.3219
# 4 6.4644 7.1942 -2.9664 20.1676 -2.1258 4.6980
# 5 6.3927 6.1499 -1.7130 -2.1258 22.0144 -0.4794
# 6 -2.1747 5.0004 7.3219 4.6980 -0.4794 36.8110
#
#
#
# Elastic Compliance Matrix: (Units=1/GPa)
#
#
# Indices 1 2 3 4 5 6 
#
# 1 0.018047 -0.007112 0.005962 -0.002968 -0.003051 0.001185
# 2 -0.007112 0.017117 -0.009728 -0.005648 -0.004022 -0.000142
# 3 0.005962 -0.009728 0.033962 0.008430 0.004310 -0.006101
# 4 -0.002968 -0.005648 0.008430 0.056584 0.008381 -0.008197
# 5 -0.003051 -0.004022 0.004310 0.008381 0.048559 -0.000928
# 6 0.001185 -0.000142 -0.006101 -0.008197 -0.000928 0.029503
#
#
# Mechanical properties :
#
#
# Convention : Reuss Voigt Hill
#
# Bulk Modulus (GPa) = 21.11057 30.37968 25.74513
# Shear Modulus (GPa) = 20.71949 26.06791 23.39370
#
# Velocity S-wave (km/s) = 3.23412 3.62761 3.43650
# Velocity P-wave (km/s) = 4.96015 5.73430 5.36122
#
# Compressibility (1/GPa) = 0.04736964
#
# Stress axis : x y z
#
# Youngs Moduli (GPa) = 55.41190 58.41984 29.44434
#
# Poissons Ratio (x) = 0.41549 -0.17555
# Poissons Ratio (y) = 0.39409 0.28645
# Poissons Ratio (z) = -0.33037 0.56833
#
# Static dielectric constant tensor:
#      x y z
#    x 1.702450 0.011630 -0.012780 
#    y 0.011630 1.711850 -0.005260 
#    z -0.012780 -0.005260 1.707340 
# 
# From -- ./inp_files/162292.got.cif
#   From: 2010.05.17/outbox.cif.g08.bks.cpg/sg2_82_cif.got.tgz:162292.got - 2010.06.03 11:33:40.
