data_PCOD9099156
_publ_section_title
;
Structure prediction by ZEFSAII (Michael W. Deem and Ramdas Pophale) SiO2 
 PCOD9099156
Probable space group: P -1
;
_chemical_formula_sum "Si O2"
_cell_formula_units_Z 16
_cell_length_a 10.349110
_cell_length_b 5.272138
_cell_length_c 14.424789
_cell_angle_alpha 63.186241
_cell_angle_beta 92.987231
_cell_angle_gamma 96.441578
_cell_volume 697.983905
_symmetry_space_group_name_H-M "P -1"
_symmetry_group_IT_number 2
_symmetry_cell_setting 'triclinic'
loop_
_space_group_symop_operation_xyz
x,y,z
-x,-y,-z
loop_
_atom_site_type_symbol
_atom_site_label
_atom_site_fract_x
_atom_site_fract_y
_atom_site_fract_z
Si Si1 0.699771 0.061553 0.812972
Si Si2 0.118578 0.222521 0.007898
Si Si3 0.888820 0.652324 0.345397
Si Si4 0.519715 0.147517 0.635118
Si Si5 0.188170 0.303006 0.276760
Si Si6 0.361245 0.685698 0.574767
Si Si7 0.053160 0.738137 0.827347
Si Si8 0.105413 0.268408 0.465902
O O1 0.566232 0.022691 0.755876
O O2 0.731738 0.393071 0.785941
O O3 0.749623 0.903136 0.932134
O O4 0.786361 0.944830 0.752080
O O5 0.053640 0.309805 0.087141
O O6 0.144572 0.494164 0.896322
O O7 0.000000 0.000000 0.000000
O O8 0.777106 0.399240 0.365563
O O9 0.837785 0.740614 0.429495
O O10 0.028078 0.545893 0.396299
O O11 0.896043 0.929593 0.234577
O O12 0.447881 0.418285 0.618700
O O13 0.635159 0.238951 0.548669
O O14 0.432094 0.926804 0.604160
O O15 0.208957 0.240141 0.394724
O O16 0.034050 0.339040 0.253553
O O17 0.000000 0.000000 0.500000
#
# Coordination Sequence:
#
# PCOD9099156 Si02
#       8
#     2   2   2   2   2   2   2   2
#     4  11  22  37  65  85 119 157 206 254 301 345
#     4  10  20  37  59  87 119 158 196 250 303 368
#     4  11  24  38  57  88 125 168 193 247 301 367
#     4  10  22  41  60  88 112 159 211 257 289 351
#     4  11  21  35  56  89 124 160 186 242 296 372
#     4  10  23  40  62  83 121 158 206 247 300 350
#     4  10  21  36  55  86 124 155 198 234 305 375
#     4  11  23  34  54  88 127 157 194 227 295 387
#
# _framework density 22.923165000000001
#
# number of rings (size 3 to 8) (size 9 to 14) (size 15 to 20)
#    0.000    1.500    2.500    3.000    5.250    1.000 
#    0.000    0.000    0.000    1.500    0.000    0.000 
#    0.000    0.000    0.000    0.000    0.000    0.000 
#
# Total GULP energy -89136.674407 kJ/mol
# GULP energy per Si atom -5571.042150 kJ/mol
# Density = 2.287099 g / cm^3
# Si number density = 22.923165 Si / 1000 Ang^3
#
#
#
# Elastic Constant Matrix: (Units=GPa)
#
#
# Indices 1 2 3 4 5 6 
#
# 1 42.5991 5.6853 18.0119 -13.3908 12.1828 -9.3601
# 2 5.6853 86.9256 17.4081 -8.4816 2.8849 2.0531
# 3 18.0119 17.4081 80.5599 -12.6420 20.6077 -6.2319
# 4 -13.3908 -8.4816 -12.6420 40.6397 2.4900 2.0280
# 5 12.1828 2.8849 20.6077 2.4900 28.7789 -6.6084
# 6 -9.3601 2.0531 -6.2319 2.0280 -6.6084 32.1456
#
#
#
# Elastic Compliance Matrix: (Units=1/GPa)
#
#
# Indices 1 2 3 4 5 6 
#
# 1 0.032305 -0.000447 -0.002055 0.010329 -0.011679 0.005984
# 2 -0.000447 0.012215 -0.002445 0.001699 0.000238 -0.001443
# 3 -0.002055 -0.002445 0.017121 0.004834 -0.011516 0.000205
# 4 0.010329 0.001699 0.004834 0.030539 -0.010714 -0.000293
# 5 -0.011679 0.000238 -0.011516 -0.010714 0.050063 0.005319
# 6 0.005984 -0.001443 0.000205 -0.000293 0.005319 0.034095
#
#
# Mechanical properties :
#
#
# Convention : Reuss Voigt Hill
#
# Bulk Modulus (GPa) = 19.32514 32.47724 25.90119
# Shear Modulus (GPa) = 24.57223 31.57812 28.07518
#
# Velocity S-wave (km/s) = 3.27760 3.71558 3.50344
# Velocity P-wave (km/s) = 4.77203 5.71017 5.26205
#
# Compressibility (1/GPa) = 0.05174608
#
# Stress axis : x y z
#
# Youngs Moduli (GPa) = 30.95507 81.86655 58.40656
#
# Poissons Ratio (x) = 0.03662 0.12002
# Poissons Ratio (y) = 0.01385 0.14283
# Poissons Ratio (z) = 0.06361 0.20019
#
# Static dielectric constant tensor:
#      x y z
#    x 2.039180 -0.001560 0.068260 
#    y -0.001560 1.978910 0.026280 
#    z 0.068260 0.026280 1.993840 
# 
# From -- ./inp_files/363054.got.cif
#   From: 2010.05.17/outbox.cif.g08.bks.cpg/sg2_182_cif.got.tgz:363054.got - 2010.06.03 11:33:40.
