data_PCOD9099594
_publ_section_title
;
Structure prediction by ZEFSAII (Michael W. Deem and Ramdas Pophale) SiO2 
 PCOD9099594
Probable space group: P -1
;
_chemical_formula_sum "Si O2"
_cell_formula_units_Z 16
_cell_length_a 6.456187
_cell_length_b 20.376545
_cell_length_c 20.117806
_cell_angle_alpha 26.330862
_cell_angle_beta 37.038596
_cell_angle_gamma 40.045049
_cell_volume 694.549600
_symmetry_space_group_name_H-M "P -1"
_symmetry_group_IT_number 2
_symmetry_cell_setting 'triclinic'
loop_
_space_group_symop_operation_xyz
x,y,z
-x,-y,-z
loop_
_atom_site_type_symbol
_atom_site_label
_atom_site_fract_x
_atom_site_fract_y
_atom_site_fract_z
Si Si1 0.569283 0.602575 0.950968
Si Si2 0.815849 0.886890 0.330825
Si Si3 0.438166 0.673326 0.538670
Si Si4 0.658374 0.541250 0.129946
Si Si5 0.807034 0.863948 0.023220
Si Si6 0.552354 0.658402 0.371440
Si Si7 0.103105 0.188025 0.100185
Si Si8 0.807276 0.912887 0.455264
O O1 0.986416 0.581496 0.865558
O O2 0.310540 0.754383 0.861051
O O3 0.500000 0.500000 0.000000
O O4 0.464311 0.561616 0.090143
O O5 0.618616 0.798013 0.412759
O O6 0.649352 0.899135 0.435238
O O7 0.194923 0.780739 0.342029
O O8 0.867066 0.050139 0.144293
O O9 0.501425 0.531349 0.700624
O O10 0.598548 0.640560 0.454454
O O11 0.024042 0.749281 0.569479
O O12 0.766503 0.696635 0.987264
O O13 0.830198 0.731646 0.191118
O O14 0.725448 0.811860 0.017015
O O15 0.500000 0.000000 0.000000
O O16 0.500000 0.500000 0.500000
O O17 0.101837 0.018813 0.276913
O O18 0.500000 0.000000 0.500000
#
# Coordination Sequence:
#
# PCOD9099594 Si02
#       8
#     2   2   2   2   2   2   2   2
#     4   9  20  37  58  85 116 152 189 230 287 347
#     4   9  22  39  56  84 119 155 195 237 291 351
#     4  11  23  38  59  90 121 152 194 244 295 349
#     4  10  21  36  59  88 119 149 187 237 288 347
#     4   9  19  39  59  78 114 156 192 238 289 340
#     4  10  21  39  61  85 115 152 196 246 296 344
#     4  10  20  37  61  86 113 153 200 239 284 342
#     4  10  22  39  60  86 121 158 193 240 293 348
#
# _framework density 23.036511999999998
#
# number of rings (size 3 to 8) (size 9 to 14) (size 15 to 20)
#    0.000    2.250    0.000    2.250    0.000   11.500 
#    0.000    2.500    0.000    0.000    0.000    0.000 
#    0.000    0.000    0.000    0.000    0.000    0.000 
#
# Total GULP energy -89324.725028 kJ/mol
# GULP energy per Si atom -5582.795314 kJ/mol
# Density = 2.298408 g / cm^3
# Si number density = 23.036512 Si / 1000 Ang^3
#
#
#
# Elastic Constant Matrix: (Units=GPa)
#
#
# Indices 1 2 3 4 5 6 
#
# 1 102.1552 29.0113 52.7322 3.3068 13.2670 39.7135
# 2 29.0113 98.4203 19.3029 4.3520 10.5676 40.7646
# 3 52.7322 19.3029 128.5391 -1.1548 30.1598 33.4182
# 4 3.3068 4.3520 -1.1548 35.3641 7.6305 7.9902
# 5 13.2670 10.5676 30.1598 7.6305 32.0399 -3.8475
# 6 39.7135 40.7646 33.4182 7.9902 -3.8475 50.9677
#
#
#
# Elastic Compliance Matrix: (Units=1/GPa)
#
#
# Indices 1 2 3 4 5 6 
#
# 1 0.016904 0.002886 -0.000646 0.003976 -0.010267 -0.016455
# 2 0.002886 0.020407 0.007143 0.007525 -0.019554 -0.025910
# 3 -0.000646 0.007143 0.017802 0.009380 -0.023497 -0.020127
# 4 0.003976 0.007525 0.009380 0.037835 -0.024739 -0.023066
# 5 -0.010267 -0.019554 -0.023497 -0.024739 0.075763 0.048643
# 6 -0.016455 -0.025910 -0.020127 -0.023066 0.048643 0.073650
#
#
# Mechanical properties :
#
#
# Convention : Reuss Voigt Hill
#
# Bulk Modulus (GPa) = 13.53537 59.02303 36.27920
# Shear Modulus (GPa) = 20.14332 38.87889 29.51110
#
# Velocity S-wave (km/s) = 2.96025 4.11263 3.58307
# Velocity P-wave (km/s) = 4.19195 6.94469 5.73590
#
# Compressibility (1/GPa) = 0.07388051
#
# Stress axis : x y z
#
# Youngs Moduli (GPa) = 59.15661 49.00209 56.17325
#
# Poissons Ratio (x) = -0.14140 0.03626
# Poissons Ratio (y) = -0.17071 -0.40127
# Poissons Ratio (z) = 0.03819 -0.35004
#
# Static dielectric constant tensor:
#      x y z
#    x 1.869300 -0.017590 0.048330 
#    y -0.017590 1.786860 -0.038250 
#    z 0.048330 -0.038250 1.846890 
# 
# From -- ./inp_files/78679.got.cif
#   From: 2010.05.17/outbox.cif.g08.bks.cpg/sg2_40_cif.got.tgz:78679.got - 2010.06.03 11:33:40.
