data_PCOD9099726
_publ_section_title
;
Structure prediction by ZEFSAII (Michael W. Deem and Ramdas Pophale) SiO2 
 PCOD9099726
Probable space group: P -1
;
_chemical_formula_sum "Si O2"
_cell_formula_units_Z 14
_cell_length_a 9.048455
_cell_length_b 12.149135
_cell_length_c 11.028078
_cell_angle_alpha 46.158398
_cell_angle_beta 90.814800
_cell_angle_gamma 117.965738
_cell_volume 674.276328
_symmetry_space_group_name_H-M "P -1"
_symmetry_group_IT_number 2
_symmetry_cell_setting 'triclinic'
loop_
_space_group_symop_operation_xyz
x,y,z
-x,-y,-z
loop_
_atom_site_type_symbol
_atom_site_label
_atom_site_fract_x
_atom_site_fract_y
_atom_site_fract_z
Si Si1 0.471543 0.626405 0.989307
Si Si2 0.200897 0.667312 0.810947
Si Si3 0.138872 0.042542 0.319134
Si Si4 0.500119 0.118472 0.741104
Si Si5 0.896950 0.330613 0.451587
Si Si6 0.673826 0.312788 0.836539
Si Si7 0.762328 0.958596 0.411419
O O1 0.366014 0.676247 0.863001
O O2 0.686405 0.818297 0.875163
O O3 0.500000 0.500000 0.000000
O O4 0.356274 0.569339 0.157176
O O5 0.175587 0.626630 0.700077
O O6 0.249633 0.874464 0.675935
O O7 0.000000 0.500000 0.000000
O O8 0.968440 0.048335 0.291431
O O9 0.070968 0.824655 0.468481
O O10 0.224658 0.119651 0.398617
O O11 0.715402 0.216170 0.626055
O O12 0.530991 0.223568 0.789004
O O13 0.397445 0.153364 0.609751
O O14 0.377922 0.882257 0.946917
O O15 0.107292 0.535582 0.324383
#
# Coordination Sequence:
#
# PCOD9099726 Si02
#       7
#     2   2   2   2   2   2   2
#     4  12  23  38  61  94 128 158 206 261 318 360
#     4  11  19  35  61  93 123 156 207 262 308 361
#     4  10  22  36  63  92 125 160 204 262 316 355
#     4  11  22  43  66  86 127 168 213 246 307 379
#     4  11  21  40  66  91 124 161 210 256 314 363
#     4  11  24  40  64  92 124 167 210 256 300 377
#     4  10  20  37  61  90 121 164 203 256 311 364
#
# _framework density 20.763000000000002
#
# number of rings (size 3 to 8) (size 9 to 14) (size 15 to 20)
#    0.000    1.143    4.286    2.143    4.000    2.286 
#    0.000    1.429    3.143    0.000    0.000    0.000 
#    0.000    0.000    0.000    0.000    0.000    0.000 
#
# Total GULP energy -78063.709049 kJ/mol
# GULP energy per Si atom -5575.979218 kJ/mol
# Density = 2.071574 g / cm^3
# Si number density = 20.763000 Si / 1000 Ang^3
#
#
#
# Elastic Constant Matrix: (Units=GPa)
#
#
# Indices 1 2 3 4 5 6 
#
# 1 137.0645 34.1321 17.4081 -4.9413 -7.1482 8.1285
# 2 34.1321 101.9522 8.8455 0.7455 13.5107 11.7221
# 3 17.4081 8.8455 65.3613 -15.4998 -21.8587 4.7142
# 4 -4.9413 0.7455 -15.4998 19.0058 10.5828 -0.6305
# 5 -7.1482 13.5107 -21.8587 10.5828 27.4515 -4.1943
# 6 8.1285 11.7221 4.7142 -0.6305 -4.1943 27.4780
#
#
#
# Elastic Compliance Matrix: (Units=1/GPa)
#
#
# Indices 1 2 3 4 5 6 
#
# 1 0.008344 -0.003054 -0.000777 -0.000021 0.002977 -0.000578
# 2 -0.003054 0.013552 -0.004334 0.001948 -0.012585 -0.006010
# 3 -0.000777 -0.004334 0.024271 0.010038 0.017512 0.000818
# 4 -0.000021 0.001948 0.010038 0.072610 -0.021602 -0.004178
# 5 0.002977 -0.012585 0.017512 -0.021602 0.067392 0.011275
# 6 -0.000578 -0.006010 0.000818 -0.004178 0.011275 0.040613
#
#
# Mechanical properties :
#
#
# Convention : Reuss Voigt Hill
#
# Bulk Modulus (GPa) = 33.51516 47.23883 40.37699
# Shear Modulus (GPa) = 19.75855 31.05318 25.40587
#
# Velocity S-wave (km/s) = 3.08819 3.87150 3.50181
# Velocity P-wave (km/s) = 5.37519 6.54106 5.98657
#
# Compressibility (1/GPa) = 0.02983725
#
# Stress axis : x y z
#
# Youngs Moduli (GPa) = 119.85030 73.79240 41.20168
#
# Poissons Ratio (x) = 0.22535 0.03200
# Poissons Ratio (y) = 0.36601 0.17856
# Poissons Ratio (z) = 0.09309 0.31981
#
# Static dielectric constant tensor:
#      x y z
#    x 1.739670 0.015460 -0.075930 
#    y 0.015460 1.794270 -0.070970 
#    z -0.075930 -0.070970 1.963740 
# 
# From -- ./inp_files/173157.got.cif
#   From: 2010.05.17/outbox.cif.g08.bks.cpg/sg2_87_cif.got.tgz:173157.got - 2010.06.03 11:33:40.
