data_PCOD9099277
_publ_section_title
;
Structure prediction by ZEFSAII (Michael W. Deem and Ramdas Pophale) SiO2 
 PCOD9099277
Probable space group: P -1
;
_chemical_formula_sum "Si O2"
_cell_formula_units_Z 14
_cell_length_a 12.486087
_cell_length_b 8.716891
_cell_length_c 11.580029
_cell_angle_alpha 35.610086
_cell_angle_beta 80.526865
_cell_angle_gamma 80.960601
_cell_volume 723.265852
_symmetry_space_group_name_H-M "P -1"
_symmetry_group_IT_number 2
_symmetry_cell_setting 'triclinic'
loop_
_space_group_symop_operation_xyz
x,y,z
-x,-y,-z
loop_
_atom_site_type_symbol
_atom_site_label
_atom_site_fract_x
_atom_site_fract_y
_atom_site_fract_z
Si Si1 0.540436 0.400191 0.178255
Si Si2 0.263301 0.901849 0.370893
Si Si3 0.838224 0.980978 0.909097
Si Si4 0.607085 0.932388 0.951369
Si Si5 0.875197 0.598303 0.550793
Si Si6 0.666235 0.874655 0.533966
Si Si7 0.903580 0.536085 0.323619
O O1 0.597953 0.639679 0.082383
O O2 0.434839 0.315032 0.320488
O O3 0.620218 0.141783 0.317529
O O4 0.500000 0.500000 0.000000
O O5 0.179435 0.054486 0.203861
O O6 0.200915 0.638727 0.571830
O O7 0.297971 0.045578 0.391757
O O8 0.366968 0.878928 0.279013
O O9 0.866591 0.280266 0.744083
O O10 0.715588 0.950074 0.997296
O O11 0.913140 0.758581 0.089821
O O12 0.500000 0.000000 0.000000
O O13 0.768698 0.737135 0.537346
O O14 0.887986 0.670584 0.369916
O O15 0.985958 0.643075 0.573095
#
# Coordination Sequence:
#
# PCOD9099277 Si02
#       7
#     2   2   2   2   2   2   2
#     4  11  22  40  58  84 121 148 188 236 288 345
#     4   9  21  38  56  85 118 146 191 238 282 345
#     4   9  19  38  59  84 116 149 190 244 278 333
#     4  10  20  37  60  82 114 153 192 237 280 340
#     4  10  22  37  61  86 115 151 197 235 289 343
#     4  11  23  39  58  86 117 154 186 237 293 342
#     4  10  20  40  59  85 116 151 195 247 277 333
#
# _framework density 19.356645
#
# number of rings (size 3 to 8) (size 9 to 14) (size 15 to 20)
#    0.857    1.143    1.429    2.143    0.000    2.857 
#    0.000    2.143    0.000    0.000    0.000    0.000 
#    0.000    0.000    0.000    0.000    0.000    0.000 
#
# Total GULP energy -77999.070740 kJ/mol
# GULP energy per Si atom -5571.362196 kJ/mol
# Density = 1.931259 g / cm^3
# Si number density = 19.356645 Si / 1000 Ang^3
#
#
#
# Elastic Constant Matrix: (Units=GPa)
#
#
# Indices 1 2 3 4 5 6 
#
# 1 85.2110 29.2080 23.0355 -4.0416 -13.1643 -7.7918
# 2 29.2080 35.3019 20.0517 2.8665 -2.9875 -8.4678
# 3 23.0355 20.0517 95.4524 -0.5273 7.8533 3.3253
# 4 -4.0416 2.8665 -0.5273 16.7045 12.2168 -2.8409
# 5 -13.1643 -2.9875 7.8533 12.2168 31.5968 -2.6345
# 6 -7.7918 -8.4678 3.3253 -2.8409 -2.6345 33.9526
#
#
#
# Elastic Compliance Matrix: (Units=1/GPa)
#
#
# Indices 1 2 3 4 5 6 
#
# 1 0.017939 -0.012862 -0.002173 0.002373 0.006029 0.001788
# 2 -0.012862 0.047611 -0.007957 -0.015855 0.008001 0.008996
# 3 -0.002173 -0.007957 0.013481 0.006281 -0.007760 -0.003880
# 4 0.002373 -0.015855 0.006281 0.090552 -0.037026 0.000679
# 5 0.006029 0.008001 -0.007760 -0.037026 0.051583 0.005043
# 6 0.001788 0.008996 -0.003880 0.000679 0.005043 0.032935
#
#
# Mechanical properties :
#
#
# Convention : Reuss Voigt Hill
#
# Bulk Modulus (GPa) = 30.25938 40.06174 35.16056
# Shear Modulus (GPa) = 16.07206 26.02880 21.05043
#
# Velocity S-wave (km/s) = 2.88464 3.67099 3.30131
# Velocity P-wave (km/s) = 5.17314 6.22172 5.72150
#
# Compressibility (1/GPa) = 0.03304760
#
# Stress axis : x y z
#
# Youngs Moduli (GPa) = 55.74390 21.00372 74.18099
#
# Poissons Ratio (x) = 0.27015 0.16117
# Poissons Ratio (y) = 0.71697 0.59025
# Poissons Ratio (z) = 0.12111 0.16712
#
# Static dielectric constant tensor:
#      x y z
#    x 1.717330 0.017860 -0.006610 
#    y 0.017860 1.641400 0.009390 
#    z -0.006610 0.009390 1.720910 
# 
# From -- ./inp_files/379944.got.cif
#   From: 2010.05.17/outbox.cif.g08.bks.cpg/sg2_190_cif.got.tgz:379944.got - 2010.06.03 11:33:40.
