data_PCOD9099464
_publ_section_title
;
Structure prediction by ZEFSAII (Michael W. Deem and Ramdas Pophale) SiO2 
 PCOD9099464
Probable space group: P -1
;
_chemical_formula_sum "Si O2"
_cell_formula_units_Z 14
_cell_length_a 20.771319
_cell_length_b 13.392019
_cell_length_c 13.945390
_cell_angle_alpha 33.547054
_cell_angle_beta 22.654013
_cell_angle_gamma 27.023966
_cell_volume 677.449388
_symmetry_space_group_name_H-M "P -1"
_symmetry_group_IT_number 2
_symmetry_cell_setting 'triclinic'
loop_
_space_group_symop_operation_xyz
x,y,z
-x,-y,-z
loop_
_atom_site_type_symbol
_atom_site_label
_atom_site_fract_x
_atom_site_fract_y
_atom_site_fract_z
Si Si1 0.078602 0.180743 0.093993
Si Si2 0.678764 0.265647 0.979894
Si Si3 0.010089 0.368175 0.441012
Si Si4 0.686505 0.267653 0.185956
Si Si5 0.116020 0.209373 0.626414
Si Si6 0.891353 0.637149 0.906885
Si Si7 0.630720 0.471033 0.436210
O O1 0.855071 0.242754 0.320226
O O2 0.085904 0.210573 0.173910
O O3 0.072090 0.383608 0.890495
O O4 0.260761 0.946882 0.993381
O O5 0.875352 0.272868 0.700195
O O6 0.500000 0.500000 0.000000
O O7 0.634645 0.248612 0.164281
O O8 0.872873 0.629278 0.445435
O O9 0.146729 0.261391 0.434273
O O10 0.108451 0.329023 0.233162
O O11 0.504901 0.473389 0.328292
O O12 0.746233 0.046806 0.334741
O O13 0.884871 0.274496 0.904400
O O14 0.693185 0.643206 0.202794
O O15 0.500000 0.500000 0.500000
#
# Coordination Sequence:
#
# PCOD9099464 Si02
#       7
#     2   2   2   2   2   2   2
#     4   9  22  42  61  88 126 168 206 249 311 371
#     4  11  25  39  62  90 121 166 209 250 307 368
#     4  10  20  37  60  90 123 158 200 258 312 362
#     4  10  21  39  63  89 119 162 211 250 303 371
#     4   9  20  37  63  88 125 161 200 255 316 362
#     4   9  20  40  64  88 125 164 205 255 313 362
#     4  10  21  36  67  91 116 159 215 250 301 372
#
# _framework density 20.665752000000001
#
# number of rings (size 3 to 8) (size 9 to 14) (size 15 to 20)
#    0.857    1.429    0.000    1.714    8.000    1.714 
#    0.000    2.857    0.000    0.000    0.000    0.000 
#    0.000    0.000    0.000    0.000    0.000    0.000 
#
# Total GULP energy -78046.143409 kJ/mol
# GULP energy per Si atom -5574.724529 kJ/mol
# Density = 2.061872 g / cm^3
# Si number density = 20.665752 Si / 1000 Ang^3
#
#
#
# Elastic Constant Matrix: (Units=GPa)
#
#
# Indices 1 2 3 4 5 6 
#
# 1 116.2703 44.8363 29.7322 11.9793 20.0284 15.7854
# 2 44.8363 98.2476 14.7791 11.3696 15.8267 12.6597
# 3 29.7322 14.7791 46.3205 6.7619 25.6164 -1.3574
# 4 11.9793 11.3696 6.7619 26.4419 4.9392 -0.8514
# 5 20.0284 15.8267 25.6164 4.9392 35.0120 -0.1467
# 6 15.7854 12.6597 -1.3574 -0.8514 -0.1467 26.7811
#
#
#
# Elastic Compliance Matrix: (Units=1/GPa)
#
#
# Indices 1 2 3 4 5 6 
#
# 1 0.012948 -0.003703 -0.006629 -0.002682 -0.000530 -0.006305
# 2 -0.003703 0.013366 0.000699 -0.003649 -0.003938 -0.004238
# 3 -0.006629 0.000699 0.040351 -0.002651 -0.025650 0.005397
# 4 -0.002682 -0.003649 -0.002651 0.041560 -0.000721 0.004489
# 5 -0.000530 -0.003938 -0.025650 -0.000721 0.049518 0.001122
# 6 -0.006305 -0.004238 0.005397 0.004489 0.001122 0.043482
#
#
# Mechanical properties :
#
#
# Convention : Reuss Voigt Hill
#
# Bulk Modulus (GPa) = 21.09846 48.83708 34.96777
# Shear Modulus (GPa) = 21.16038 29.07972 25.12005
#
# Velocity S-wave (km/s) = 3.20337 3.75526 3.49024
# Velocity P-wave (km/s) = 4.89016 6.51812 5.76192
#
# Compressibility (1/GPa) = 0.04739682
#
# Stress axis : x y z
#
# Youngs Moduli (GPa) = 77.23424 74.81713 24.78258
#
# Poissons Ratio (x) = 0.27707 0.16429
# Poissons Ratio (y) = 0.28602 -0.01731
# Poissons Ratio (z) = 0.51200 -0.05227
#
# Static dielectric constant tensor:
#      x y z
#    x 1.767450 -0.015400 -0.019500 
#    y -0.015400 1.750010 -0.004090 
#    z -0.019500 -0.004090 1.736570 
# 
# From -- ./inp_files/465017.got.cif
#   From: 2010.05.17/outbox.cif.g08.bks.cpg/sg2_233_cif.got.tgz:465017.got - 2010.06.03 11:33:40.
