data_PCOD9099540
_publ_section_title
;
Structure prediction by ZEFSAII (Michael W. Deem and Ramdas Pophale) SiO2 
 PCOD9099540
Probable space group: P -1
;
_chemical_formula_sum "Si O2"
_cell_formula_units_Z 15
_cell_length_a 4.867359
_cell_length_b 15.685445
_cell_length_c 9.822617
_cell_angle_alpha 125.154139
_cell_angle_beta 107.949422
_cell_angle_gamma 93.056405
_cell_volume 557.038504
_symmetry_space_group_name_H-M "P -1"
_symmetry_group_IT_number 2
_symmetry_cell_setting 'triclinic'
loop_
_space_group_symop_operation_xyz
x,y,z
-x,-y,-z
loop_
_atom_site_type_symbol
_atom_site_label
_atom_site_fract_x
_atom_site_fract_y
_atom_site_fract_z
Si Si1 0.510787 0.165172 0.894088
Si Si2 0.939516 0.645859 0.526869
Si Si3 0.578432 0.482837 0.839168
Si Si4 0.634237 0.750392 0.763614
Si Si5 0.000000 0.000000 0.500000
Si Si6 0.974950 0.821924 0.485286
Si Si7 0.400122 0.035229 0.162906
Si Si8 0.116889 0.681160 0.139721
O O1 0.669881 0.249558 0.879581
O O2 0.202524 0.081240 0.717007
O O3 0.706921 0.081827 0.885306
O O4 0.429130 0.223433 0.067688
O O5 0.706730 0.538756 0.326548
O O6 0.854093 0.678700 0.693245
O O7 0.299063 0.674313 0.593019
O O8 0.853254 0.734982 0.500660
O O9 0.727086 0.384671 0.793474
O O10 0.500000 0.500000 0.000000
O O11 0.843531 0.590910 0.943831
O O12 0.749941 0.870371 0.816197
O O13 0.815486 0.913446 0.513509
O O14 0.310548 0.891613 0.643150
O O15 0.002085 0.759347 0.293652
O O16 0.500000 0.000000 0.000000
#
# Coordination Sequence:
#
# PCOD9099540 Si02
#       8
#     2   2   2   2   1   2   2   2
#     4  10  22  42  61  99 136 175 222 272 334 396
#     4  11  22  42  68  95 129 175 229 275 334 401
#     4  11  23  42  68  98 125 169 230 286 347 401
#     4  10  23  42  68  96 136 182 222 269 328 410
#     4  10  22  36  64 100 138 172 218 274 336 402
#     4  10  20  37  60  99 129 170 218 269 333 395
#     4   8  17  36  60  90 129 175 218 259 316 400
#     4  11  24  40  67  97 134 172 220 292 340 398
#
# _framework density 26.92812
#
# number of rings (size 3 to 8) (size 9 to 14) (size 15 to 20)
#    0.000    1.867    1.333    2.400    1.867    4.267 
#    0.000   26.667    0.000    0.000    0.000    0.000 
#    0.000    0.000    0.000    0.000    0.000    0.000 
#
# Total GULP energy -83610.702751 kJ/mol
# GULP energy per Si atom -5574.046850 kJ/mol
# Density = 2.686683 g / cm^3
# Si number density = 26.928120 Si / 1000 Ang^3
#
#
#
# Elastic Constant Matrix: (Units=GPa)
#
#
# Indices 1 2 3 4 5 6 
#
# 1 75.8241 18.0755 28.3275 10.3615 -6.1124 4.4127
# 2 18.0755 108.7513 45.0797 13.4577 8.0979 29.2473
# 3 28.3275 45.0797 117.0562 4.1113 5.0624 9.5025
# 4 10.3615 13.4577 4.1113 25.4420 16.9089 0.3112
# 5 -6.1124 8.0979 5.0624 16.9089 34.7540 -4.2215
# 6 4.4127 29.2473 9.5025 0.3112 -4.2215 34.3575
#
#
#
# Elastic Compliance Matrix: (Units=1/GPa)
#
#
# Indices 1 2 3 4 5 6 
#
# 1 0.017356 -0.000578 -0.004023 -0.012840 0.010110 0.000734
# 2 -0.000578 0.015134 -0.004464 -0.005883 -0.001538 -0.011709
# 3 -0.004023 -0.004464 0.011162 0.004409 -0.003344 0.000779
# 4 -0.012840 -0.005883 0.004409 0.070812 -0.035936 0.000381
# 5 0.010110 -0.001538 -0.003344 -0.035936 0.049777 0.007377
# 6 0.000734 -0.011709 0.000779 0.000381 0.007377 0.039667
#
#
# Mechanical properties :
#
#
# Convention : Reuss Voigt Hill
#
# Bulk Modulus (GPa) = 39.18513 53.84412 46.51462
# Shear Modulus (GPa) = 21.68752 32.92063 27.30408
#
# Velocity S-wave (km/s) = 2.84101 3.50027 3.18773
# Velocity P-wave (km/s) = 5.03439 6.03115 5.55517
#
# Compressibility (1/GPa) = 0.02551989
#
# Stress axis : x y z
#
# Youngs Moduli (GPa) = 57.61597 66.07810 89.58663
#
# Poissons Ratio (x) = 0.03822 0.36044
# Poissons Ratio (y) = 0.03332 0.39996
# Poissons Ratio (z) = 0.23181 0.29501
#
# Static dielectric constant tensor:
#      x y z
#    x 2.249180 -0.202180 0.054470 
#    y -0.202180 2.260980 -0.084020 
#    z 0.054470 -0.084020 2.092150 
# 
# From -- ./inp_files/138106.got.cif
#   From: 2010.05.17/outbox.cif.g08.bks.cpg/sg2_70_cif.got.tgz:138106.got - 2010.06.03 11:33:40.
