data_PCOD9099155
_publ_section_title
;
Structure prediction by ZEFSAII (Michael W. Deem and Ramdas Pophale) SiO2 
 PCOD9099155
Probable space group: P -1
;
_chemical_formula_sum "Si O2"
_cell_formula_units_Z 14
_cell_length_a 6.796496
_cell_length_b 21.281794
_cell_length_c 7.755918
_cell_angle_alpha 137.602466
_cell_angle_beta 118.845963
_cell_angle_gamma 69.891803
_cell_volume 662.411662
_symmetry_space_group_name_H-M "P -1"
_symmetry_group_IT_number 2
_symmetry_cell_setting 'triclinic'
loop_
_space_group_symop_operation_xyz
x,y,z
-x,-y,-z
loop_
_atom_site_type_symbol
_atom_site_label
_atom_site_fract_x
_atom_site_fract_y
_atom_site_fract_z
Si Si1 0.101974 0.464789 0.718334
Si Si2 0.123029 0.093142 0.673165
Si Si3 0.252155 0.162836 0.519358
Si Si4 0.719722 0.217893 0.720611
Si Si5 0.820733 0.624035 0.078169
Si Si6 0.328649 0.578408 0.767553
Si Si7 0.570595 0.895677 0.863395
O O1 0.275485 0.490931 0.692911
O O2 0.019219 0.561474 0.964051
O O3 0.872868 0.421721 0.454802
O O4 0.197199 0.399653 0.774315
O O5 0.172203 0.092113 0.488332
O O6 0.954645 0.178391 0.795662
O O7 0.339355 0.109861 0.917576
O O8 0.000000 0.000000 0.500000
O O9 0.522306 0.177752 0.681011
O O10 0.236580 0.130580 0.248608
O O11 0.152994 0.265588 0.712510
O O12 0.636233 0.173659 0.414073
O O13 0.701463 0.327495 0.944421
O O14 0.582657 0.587154 0.824145
O O15 0.500000 0.000000 0.000000
#
# Coordination Sequence:
#
# PCOD9099155 Si02
#       7
#     2   2   2   2   2   2   2
#     4  10  21  34  62  88 115 159 201 241 296 359
#     4  12  22  40  66  88 119 163 198 252 312 352
#     4   9  23  42  59  90 125 154 205 254 288 371
#     4   9  22  40  57  89 126 153 208 248 292 370
#     4  10  20  40  55  84 125 153 198 247 296 353
#     4  10  20  37  59  87 119 157 197 248 295 347
#     4  10  22  43  61  90 122 155 205 249 294 371
#
# _framework density 21.134893000000002
#
# number of rings (size 3 to 8) (size 9 to 14) (size 15 to 20)
#    0.857    1.143    1.429    1.714    2.000    2.857 
#    2.571    5.714    0.000    0.000    0.000    0.000 
#    0.000    0.000    0.000    0.000    0.000    0.000 
#
# Total GULP energy -78063.898726 kJ/mol
# GULP energy per Si atom -5575.992766 kJ/mol
# Density = 2.108679 g / cm^3
# Si number density = 21.134893 Si / 1000 Ang^3
#
#
#
# Elastic Constant Matrix: (Units=GPa)
#
#
# Indices 1 2 3 4 5 6 
#
# 1 34.0681 12.0854 -17.1510 9.9186 2.6417 11.1217
# 2 12.0854 54.8972 7.4132 -2.4652 7.2471 0.1837
# 3 -17.1510 7.4132 62.3516 1.8184 -1.1154 -1.2081
# 4 9.9186 -2.4652 1.8184 23.6494 -0.4387 0.3930
# 5 2.6417 7.2471 -1.1154 -0.4387 20.8688 3.8404
# 6 11.1217 0.1837 -1.2081 0.3930 3.8404 32.1513
#
#
#
# Elastic Compliance Matrix: (Units=1/GPa)
#
#
# Indices 1 2 3 4 5 6 
#
# 1 0.059084 -0.017039 0.018748 -0.027627 0.002465 -0.019593
# 2 -0.017039 0.024483 -0.007908 0.010060 -0.007708 0.006255
# 3 0.018748 -0.007908 0.022366 -0.010267 0.002413 -0.005762
# 4 -0.027627 0.010060 -0.010267 0.055550 -0.000950 0.008548
# 5 0.002465 -0.007708 0.002413 -0.000950 0.051657 -0.006877
# 6 -0.019593 0.006255 -0.005762 0.008548 -0.006877 0.038345
#
#
# Mechanical properties :
#
#
# Convention : Reuss Voigt Hill
#
# Bulk Modulus (GPa) = 10.69108 17.33469 14.01288
# Shear Modulus (GPa) = 16.94555 25.26518 21.10536
#
# Velocity S-wave (km/s) = 2.83465 3.46124 3.16350
# Velocity P-wave (km/s) = 3.97279 4.91867 4.47082
#
# Compressibility (1/GPa) = 0.09353596
#
# Stress axis : x y z
#
# Youngs Moduli (GPa) = 16.92493 40.84441 44.71010
#
# Poissons Ratio (x) = 0.69596 -0.83824
# Poissons Ratio (y) = 0.28839 0.35357
# Poissons Ratio (z) = -0.31731 0.32300
#
# Static dielectric constant tensor:
#      x y z
#    x 1.830940 -0.000820 -0.011930 
#    y -0.000820 1.729190 -0.008280 
#    z -0.011930 -0.008280 1.772470 
# 
# From -- ./inp_files/221420.got.cif
#   From: 2010.05.17/outbox.cif.g08.bks.cpg/sg2_111_cif.got.tgz:221420.got - 2010.06.03 11:33:40.
