data_PCOD9099398
_publ_section_title
;
Structure prediction by ZEFSAII (Michael W. Deem and Ramdas Pophale) SiO2 
 PCOD9099398
Probable space group: P -1
;
_chemical_formula_sum "Si O2"
_cell_formula_units_Z 14
_cell_length_a 9.254849
_cell_length_b 9.041359
_cell_length_c 16.177193
_cell_angle_alpha 52.977305
_cell_angle_beta 147.167037
_cell_angle_gamma 113.234115
_cell_volume 566.218254
_symmetry_space_group_name_H-M "P -1"
_symmetry_group_IT_number 2
_symmetry_cell_setting 'triclinic'
loop_
_space_group_symop_operation_xyz
x,y,z
-x,-y,-z
loop_
_atom_site_type_symbol
_atom_site_label
_atom_site_fract_x
_atom_site_fract_y
_atom_site_fract_z
Si Si1 0.662282 0.870937 0.042609
Si Si2 0.609549 0.589549 0.795722
Si Si3 0.535510 0.239145 0.784362
Si Si4 0.760222 0.784150 0.495434
Si Si5 0.220409 0.159288 0.330621
Si Si6 0.002618 0.806604 0.366650
Si Si7 0.386588 0.768235 0.787153
O O1 0.502587 0.768148 0.936331
O O2 0.736979 0.030082 0.965819
O O3 0.919171 0.740956 0.259060
O O4 0.500000 0.000000 0.000000
O O5 0.631719 0.380051 0.843537
O O6 0.810067 0.689314 0.808139
O O7 0.297323 0.694974 0.579237
O O8 0.598805 0.627950 0.875033
O O9 0.455910 0.298857 0.632765
O O10 0.232697 0.219833 0.675383
O O11 0.737520 0.750241 0.592552
O O12 0.088762 0.723316 0.657128
O O13 0.667214 0.015284 0.350757
O O14 0.500000 0.000000 0.500000
O O15 0.008834 0.028839 0.286082
#
# Coordination Sequence:
#
# PCOD9099398 Si02
#       7
#     2   2   2   2   2   2   2
#     4   9  19  34  55  80 109 144 183 219 268 326
#     4  11  21  35  58  85 112 135 184 235 269 304
#     4  10  20  33  59  85 109 137 185 233 267 308
#     4  10  16  31  55  81 104 146 187 214 260 334
#     4  10  19  33  55  82 111 141 183 223 267 321
#     4  10  18  36  57  78 109 147 179 219 267 327
#     4  10  18  32  58  81 105 145 188 217 262 332
#
# _framework density 24.725448
#
# number of rings (size 3 to 8) (size 9 to 14) (size 15 to 20)
#    0.000    2.000    4.286    3.000    0.000    0.571 
#    0.000    4.286    3.143    0.000    0.000    0.000 
#    0.000    0.000    0.000    0.000    0.000    0.000 
#
# Total GULP energy -78153.387829 kJ/mol
# GULP energy per Si atom -5582.384845 kJ/mol
# Density = 2.466917 g / cm^3
# Si number density = 24.725448 Si / 1000 Ang^3
#
#
#
# Elastic Constant Matrix: (Units=GPa)
#
#
# Indices 1 2 3 4 5 6 
#
# 1 87.2664 28.0008 18.5505 18.0739 -15.3278 -16.1013
# 2 28.0008 87.6112 21.1776 25.0194 -4.1580 -8.4002
# 3 18.5505 21.1776 92.0653 43.1691 -22.1210 -17.9277
# 4 18.0739 25.0194 43.1691 34.9567 -8.1626 -19.4809
# 5 -15.3278 -4.1580 -22.1210 -8.1626 26.2965 14.2751
# 6 -16.1013 -8.4002 -17.9277 -19.4809 14.2751 33.3529
#
#
#
# Elastic Compliance Matrix: (Units=1/GPa)
#
#
# Indices 1 2 3 4 5 6 
#
# 1 0.014791 -0.002942 0.003349 -0.007637 0.008563 0.000074
# 2 -0.002942 0.016437 0.006390 -0.021831 0.003992 -0.008305
# 3 0.003349 0.006390 0.041790 -0.064874 0.032051 -0.025920
# 4 -0.007637 -0.021831 -0.064874 0.154191 -0.051570 0.068077
# 5 0.008563 0.003992 0.032051 -0.051570 0.076614 -0.040545
# 6 0.000074 -0.008305 -0.025920 0.068077 -0.040545 0.071110
#
#
# Mechanical properties :
#
#
# Convention : Reuss Voigt Hill
#
# Bulk Modulus (GPa) = 11.54579 44.71118 28.12848
# Shear Modulus (GPa) = 12.81365 32.20215 22.50790
#
# Velocity S-wave (km/s) = 2.27895 3.61278 3.02041
# Velocity P-wave (km/s) = 3.40655 5.96030 4.85437
#
# Compressibility (1/GPa) = 0.08661167
#
# Stress axis : x y z
#
# Youngs Moduli (GPa) = 67.61039 60.83739 23.92935
#
# Poissons Ratio (x) = 0.17901 -0.08015
# Poissons Ratio (y) = 0.19893 -0.15291
# Poissons Ratio (z) = -0.22645 -0.38875
#
# Static dielectric constant tensor:
#      x y z
#    x 2.020780 -0.067680 -0.018900 
#    y -0.067680 2.159570 -0.007610 
#    z -0.018900 -0.007610 2.102430 
# 
# From -- ./inp_files/166387.got.cif
#   From: 2010.05.17/outbox.cif.g08.bks.cpg/sg2_84_cif.got.tgz:166387.got - 2010.06.03 11:33:40.
