data_PCOD9099797
_publ_section_title
;
Structure prediction by ZEFSAII (Michael W. Deem and Ramdas Pophale) SiO2 
 PCOD9099797
Probable space group: P -1
;
_chemical_formula_sum "Si O2"
_cell_formula_units_Z 16
_cell_length_a 18.999598
_cell_length_b 9.853305
_cell_length_c 6.886435
_cell_angle_alpha 48.554760
_cell_angle_beta 87.995436
_cell_angle_gamma 112.396267
_cell_volume 813.166322
_symmetry_space_group_name_H-M "P -1"
_symmetry_group_IT_number 2
_symmetry_cell_setting 'triclinic'
loop_
_space_group_symop_operation_xyz
x,y,z
-x,-y,-z
loop_
_atom_site_type_symbol
_atom_site_label
_atom_site_fract_x
_atom_site_fract_y
_atom_site_fract_z
Si Si1 0.056986 0.915989 0.652963
Si Si2 0.658850 0.433869 0.784741
Si Si3 0.894077 0.185152 0.655122
Si Si4 0.423416 0.006880 0.595667
Si Si5 0.944365 0.638413 0.259770
Si Si6 0.167178 0.201593 0.725832
Si Si7 0.457299 0.612592 0.494809
Si Si8 0.400153 0.350134 0.114231
O O1 0.098603 0.867393 0.517436
O O2 0.124223 0.088610 0.633530
O O3 0.000000 0.000000 0.500000
O O4 0.995902 0.710187 0.986555
O O5 0.747579 0.580097 0.536540
O O6 0.589229 0.341686 0.710480
O O7 0.644330 0.588637 0.778001
O O8 0.644139 0.232297 0.100724
O O9 0.883110 0.382688 0.502090
O O10 0.985535 0.277189 0.658311
O O11 0.828106 0.972824 0.980232
O O12 0.500000 0.000000 0.500000
O O13 0.470104 0.173224 0.610272
O O14 0.384849 0.114059 0.364063
O O15 0.894621 0.752789 0.192706
O O16 0.500000 0.500000 0.500000
O O17 0.392557 0.440341 0.823170
O O18 0.500000 0.500000 0.000000
#
# Coordination Sequence:
#
# PCOD9099797 Si02
#       8
#     2   2   2   2   2   2   2   2
#     4  11  18  38  68  84 116 166 199 239 293 358
#     4  12  24  39  62  93 125 161 201 259 318 356
#     4  10  20  38  64  87 120 159 206 237 293 358
#     4  11  20  40  67  89 115 156 211 256 299 365
#     4  10  20  37  61  93 115 157 206 247 279 362
#     4  11  24  38  58  89 130 155 194 257 307 346
#     4  11  20  40  68  86 114 160 207 250 305 370
#     4  10  20  39  61  88 120 150 203 259 298 360
#
# _framework density 19.676172000000001
#
# number of rings (size 3 to 8) (size 9 to 14) (size 15 to 20)
#    0.000    1.250    7.500    1.500    0.000    2.000 
#    0.000    0.000    5.500    0.000    0.000    0.000 
#    0.000    0.000    0.000    0.000    0.000    0.000 
#
# Total GULP energy -89299.460473 kJ/mol
# GULP energy per Si atom -5581.216280 kJ/mol
# Density = 1.963139 g / cm^3
# Si number density = 19.676172 Si / 1000 Ang^3
#
#
#
# Elastic Constant Matrix: (Units=GPa)
#
#
# Indices 1 2 3 4 5 6 
#
# 1 7.3615 3.2125 4.7458 -5.7489 -1.8848 -5.4729
# 2 3.2125 79.5657 29.6360 -3.3355 -4.4833 -19.6250
# 3 4.7458 29.6360 107.3785 -15.6731 1.9820 -3.0440
# 4 -5.7489 -3.3355 -15.6731 45.6262 -3.7472 1.2296
# 5 -1.8848 -4.4833 1.9820 -3.7472 29.4629 -7.0785
# 6 -5.4729 -19.6250 -3.0440 1.2296 -7.0785 16.8840
#
#
#
# Elastic Compliance Matrix: (Units=1/GPa)
#
#
# Indices 1 2 3 4 5 6 
#
# 1 0.303220 0.041719 -0.015974 0.037120 0.072796 0.171715
# 2 0.041719 0.028410 -0.007835 0.004924 0.021019 0.053586
# 3 -0.015974 -0.007835 0.012088 0.001441 -0.006425 -0.014904
# 4 0.037120 0.004924 0.001441 0.027838 0.011574 0.020841
# 5 0.072796 0.021019 -0.006425 0.011574 0.060892 0.071555
# 6 0.171715 0.053586 -0.014904 0.020841 0.071555 0.202968
#
#
# Mechanical properties :
#
#
# Convention : Reuss Voigt Hill
#
# Bulk Modulus (GPa) = 2.63478 29.94382 16.28930
# Shear Modulus (GPa) = 6.88602 28.84204 17.86403
#
# Velocity S-wave (km/s) = 1.87277 3.83278 3.01641
# Velocity P-wave (km/s) = 2.45323 5.90239 4.51977
#
# Compressibility (1/GPa) = 0.37953813
#
# Stress axis : x y z
#
# Youngs Moduli (GPa) = 3.29793 35.19880 82.72899
#
# Poissons Ratio (x) = -1.46845 1.32147
# Poissons Ratio (y) = -0.13759 0.64819
# Poissons Ratio (z) = 0.05268 0.27578
#
# Static dielectric constant tensor:
#      x y z
#    x 1.699770 0.010600 0.062940 
#    y 0.010600 1.726700 0.009110 
#    z 0.062940 0.009110 1.802670 
# 
# From -- ./inp_files/115909.got.cif
#   From: 2010.05.17/outbox.cif.g08.bks.cpg/sg2_58_cif.got.tgz:115909.got - 2010.06.03 11:33:40.
