data_PCOD9099103
_publ_section_title
;
Structure prediction by ZEFSAII (Michael W. Deem and Ramdas Pophale) SiO2 
 PCOD9099103
Probable space group: P -1
;
_chemical_formula_sum "Si O2"
_cell_formula_units_Z 14
_cell_length_a 6.955727
_cell_length_b 13.240675
_cell_length_c 14.350921
_cell_angle_alpha 29.434800
_cell_angle_beta 60.642432
_cell_angle_gamma 76.674453
_cell_volume 503.029296
_symmetry_space_group_name_H-M "P -1"
_symmetry_group_IT_number 2
_symmetry_cell_setting 'triclinic'
loop_
_space_group_symop_operation_xyz
x,y,z
-x,-y,-z
loop_
_atom_site_type_symbol
_atom_site_label
_atom_site_fract_x
_atom_site_fract_y
_atom_site_fract_z
Si Si1 0.547700 0.275338 0.672778
Si Si2 0.887183 0.567570 0.584600
Si Si3 0.994046 0.415283 0.858555
Si Si4 0.537605 0.826311 0.735269
Si Si5 0.930927 0.975130 0.895002
Si Si6 0.273037 0.645692 0.776280
Si Si7 0.596742 0.881363 0.883267
O O1 0.500000 0.500000 0.500000
O O2 0.833659 0.379644 0.558125
O O3 0.550558 0.107768 0.722178
O O4 0.314084 0.086280 0.937992
O O5 0.941591 0.590388 0.666419
O O6 0.857637 0.763867 0.373607
O O7 0.633563 0.330968 0.840140
O O8 0.232473 0.535551 0.771443
O O9 0.005188 0.230641 0.932274
O O10 0.748486 0.256020 0.102203
O O11 0.489163 0.672188 0.776927
O O12 0.643128 0.819219 0.817808
O O13 0.677123 0.091972 0.460323
O O14 0.835933 0.933311 0.845301
O O15 0.000000 0.500000 0.000000
#
# Coordination Sequence:
#
# PCOD9099103 Si02
#       7
#     2   2   2   2   2   2   2
#     4  11  22  38  58  85 116 154 198 236 287 344
#     4  10  21  40  57  83 120 153 197 237 284 337
#     4  10  20  37  59  85 116 154 188 237 287 337
#     4   9  19  35  59  87 111 151 194 230 287 344
#     4  11  23  37  58  86 116 154 196 236 289 339
#     4   9  17  33  60  87 115 148 188 233 285 343
#     4  10  22  39  59  83 118 155 191 244 285 333
#
# _framework density 27.831378000000001
#
# number of rings (size 3 to 8) (size 9 to 14) (size 15 to 20)
#    0.000    2.000    1.429    3.429    0.000    4.000 
#    2.571    0.714    0.000   35.143    0.000    0.000 
#    0.000    0.000    0.000    0.000    0.000    0.000 
#
# Total GULP energy -78055.272073 kJ/mol
# GULP energy per Si atom -5575.376577 kJ/mol
# Density = 2.776803 g / cm^3
# Si number density = 27.831378 Si / 1000 Ang^3
#
#
#
# Elastic Constant Matrix: (Units=GPa)
#
#
# Indices 1 2 3 4 5 6 
#
# 1 48.9589 14.4157 8.1201 -9.1263 -9.5256 -3.0232
# 2 14.4157 60.2593 38.6132 -25.6430 10.8126 16.9911
# 3 8.1201 38.6132 232.1503 0.5507 -8.0185 -12.6553
# 4 -9.1263 -25.6430 0.5507 49.2625 -1.4717 -3.2733
# 5 -9.5256 10.8126 -8.0185 -1.4717 40.5069 -8.7691
# 6 -3.0232 16.9911 -12.6553 -3.2733 -8.7691 45.5561
#
#
#
# Elastic Compliance Matrix: (Units=1/GPa)
#
#
# Indices 1 2 3 4 5 6 
#
# 1 0.026706 -0.013028 0.002176 -0.000860 0.012220 0.009526
# 2 -0.013028 0.042432 -0.008520 0.017729 -0.020121 -0.021657
# 3 0.002176 -0.008520 0.006148 -0.003565 0.005120 0.005759
# 4 -0.000860 0.017729 -0.003565 0.028779 -0.006058 -0.006758
# 5 0.012220 -0.020121 0.005120 -0.006058 0.037293 0.016481
# 6 0.009526 -0.021657 0.005759 -0.006758 0.016481 0.034947
#
#
# Mechanical properties :
#
#
# Convention : Reuss Voigt Hill
#
# Bulk Modulus (GPa) = 27.36520 51.51849 39.44185
# Shear Modulus (GPa) = 22.00430 45.74640 33.87535
#
# Velocity S-wave (km/s) = 2.81486 4.05865 3.49257
# Velocity P-wave (km/s) = 4.51868 6.36511 5.51965
#
# Compressibility (1/GPa) = 0.03654276
#
# Stress axis : x y z
#
# Youngs Moduli (GPa) = 37.44508 23.56697 162.66125
#
# Poissons Ratio (x) = 0.30703 -0.35399
# Poissons Ratio (y) = 0.48784 1.38581
# Poissons Ratio (z) = -0.08149 0.20078
#
# Static dielectric constant tensor:
#      x y z
#    x 2.228420 0.067610 0.093230 
#    y 0.067610 2.386990 -0.004070 
#    z 0.093230 -0.004070 2.145410 
# 
# From -- ./inp_files/314892.got.cif
#   From: 2010.05.17/outbox.cif.g08.bks.cpg/sg2_158_cif.got.tgz:314892.got - 2010.06.03 11:33:40.
