data_PCOD9099325
_publ_section_title
;
Structure prediction by ZEFSAII (Michael W. Deem and Ramdas Pophale) SiO2 
 PCOD9099325
Probable space group: P -1
;
_chemical_formula_sum "Si O2"
_cell_formula_units_Z 14
_cell_length_a 17.578839
_cell_length_b 9.110928
_cell_length_c 7.145386
_cell_angle_alpha 130.984451
_cell_angle_beta 101.689611
_cell_angle_gamma 50.161246
_cell_volume 614.848969
_symmetry_space_group_name_H-M "P -1"
_symmetry_group_IT_number 2
_symmetry_cell_setting 'triclinic'
loop_
_space_group_symop_operation_xyz
x,y,z
-x,-y,-z
loop_
_atom_site_type_symbol
_atom_site_label
_atom_site_fract_x
_atom_site_fract_y
_atom_site_fract_z
Si Si1 0.387872 0.242002 0.553341
Si Si2 0.798784 0.202513 0.980493
Si Si3 0.497742 0.403231 0.615874
Si Si4 0.313949 0.973863 0.124967
Si Si5 0.734567 0.958103 0.287853
Si Si6 0.138780 0.896600 0.639557
Si Si7 0.103433 0.662143 0.116853
O O1 0.310240 0.492544 0.862100
O O2 0.425644 0.335611 0.499384
O O3 0.328933 0.159981 0.370584
O O4 0.500000 0.000000 0.500000
O O5 0.822906 0.193874 0.205056
O O6 0.884590 0.171248 0.875617
O O7 0.771900 0.019251 0.809149
O O8 0.500000 0.500000 0.500000
O O9 0.621925 0.144034 0.497194
O O10 0.428481 0.664628 0.930674
O O11 0.285657 0.038505 0.943525
O O12 0.785536 0.085440 0.421071
O O13 0.816204 0.652942 0.142565
O O14 0.130175 0.707890 0.370408
O O15 0.019401 0.190697 0.828736
#
# Coordination Sequence:
#
# PCOD9099325 Si02
#       7
#     2   2   2   2   2   2   2
#     4  11  22  36  55  84 118 152 194 236 282 347
#     4  10  22  40  61  86 119 155 192 238 292 346
#     4   9  20  35  55  82 111 148 189 230 282 343
#     4   9  21  39  56  82 122 157 188 237 290 343
#     4  10  20  37  60  85 116 153 195 240 288 345
#     4  10  23  41  59  87 119 150 195 244 293 345
#     4  11  22  38  64  88 113 153 197 244 291 340
#
# _framework density 22.769819999999999
#
# number of rings (size 3 to 8) (size 9 to 14) (size 15 to 20)
#    0.000    2.000    0.000    3.429    0.000    9.143 
#    0.000    0.000    0.000    9.429    0.000    0.000 
#    0.000    0.000    0.000    0.000    0.000    0.000 
#
# Total GULP energy -78220.734818 kJ/mol
# GULP energy per Si atom -5587.195344 kJ/mol
# Density = 2.271799 g / cm^3
# Si number density = 22.769820 Si / 1000 Ang^3
#
#
#
# Elastic Constant Matrix: (Units=GPa)
#
#
# Indices 1 2 3 4 5 6 
#
# 1 110.4787 11.5404 15.1533 2.6130 1.0244 4.8172
# 2 11.5404 55.0769 9.2755 3.3230 4.0770 3.6838
# 3 15.1533 9.2755 59.8857 21.9666 4.3198 -3.4799
# 4 2.6130 3.3230 21.9666 30.9510 -1.4229 -9.7875
# 5 1.0244 4.0770 4.3198 -1.4229 33.7464 5.0715
# 6 4.8172 3.6838 -3.4799 -9.7875 5.0715 36.5930
#
#
#
# Elastic Compliance Matrix: (Units=1/GPa)
#
#
# Indices 1 2 3 4 5 6 
#
# 1 0.009600 -0.001579 -0.002596 0.000847 0.000446 -0.001187
# 2 -0.001579 0.019178 -0.002156 -0.001102 -0.001742 -0.001981
# 3 -0.002596 -0.002156 0.024190 -0.017282 -0.003289 -0.001307
# 4 0.000847 -0.001102 -0.017282 0.048183 0.002718 0.010867
# 5 0.000446 -0.001742 -0.003289 0.002718 0.030930 -0.003756
# 6 -0.001187 -0.001981 -0.001307 0.010867 -0.003756 0.030986
#
#
# Mechanical properties :
#
#
# Convention : Reuss Voigt Hill
#
# Bulk Modulus (GPa) = 24.81062 33.04218 28.92640
# Shear Modulus (GPa) = 26.43187 32.88953 29.66070
#
# Velocity S-wave (km/s) = 3.41079 3.80470 3.61312
# Velocity P-wave (km/s) = 5.14113 5.81755 5.48977
#
# Compressibility (1/GPa) = 0.04030533
#
# Stress axis : x y z
#
# Youngs Moduli (GPa) = 104.16477 52.14215 41.33936
#
# Poissons Ratio (x) = 0.08233 0.10733
# Poissons Ratio (y) = 0.16447 0.08914
# Poissons Ratio (z) = 0.27046 0.11243
#
# Static dielectric constant tensor:
#      x y z
#    x 1.882890 -0.004590 -0.016890 
#    y -0.004590 1.895800 0.016020 
#    z -0.016890 0.016020 1.859650 
# 
# From -- ./inp_files/37939.got.cif
#   From: 2010.05.17/outbox.cif.g08.bks.cpg/sg2_19_cif.got.tgz:37939.got - 2010.06.03 11:33:40.
