data_PCOD9099205
_publ_section_title
;
Structure prediction by ZEFSAII (Michael W. Deem and Ramdas Pophale) SiO2 
 PCOD9099205
Probable space group: P -1
;
_chemical_formula_sum "Si O2"
_cell_formula_units_Z 14
_cell_length_a 14.818755
_cell_length_b 11.532079
_cell_length_c 15.024070
_cell_angle_alpha 139.735821
_cell_angle_beta 28.074396
_cell_angle_gamma 141.042660
_cell_volume 733.566906
_symmetry_space_group_name_H-M "P -1"
_symmetry_group_IT_number 2
_symmetry_cell_setting 'triclinic'
loop_
_space_group_symop_operation_xyz
x,y,z
-x,-y,-z
loop_
_atom_site_type_symbol
_atom_site_label
_atom_site_fract_x
_atom_site_fract_y
_atom_site_fract_z
Si Si1 0.486937 0.428176 0.068633
Si Si2 0.439879 0.954912 0.169377
Si Si3 0.798680 0.684980 0.601470
Si Si4 0.503952 0.692956 0.557872
Si Si5 0.058896 0.489361 0.781461
Si Si6 0.839819 0.092812 0.788037
Si Si7 0.639563 0.559216 0.190403
O O1 0.559868 0.244301 0.905237
O O2 0.500000 0.500000 0.000000
O O3 0.260525 0.365092 0.273787
O O4 0.615773 0.587319 0.121848
O O5 0.400819 0.110218 0.357930
O O6 0.284407 0.905709 0.193430
O O7 0.668469 0.057275 0.991881
O O8 0.567390 0.629187 0.727532
O O9 0.905615 0.562312 0.382025
O O10 0.905776 0.907767 0.624432
O O11 0.500000 0.500000 0.500000
O O12 0.608223 0.697623 0.373631
O O13 0.263324 0.653121 0.728321
O O14 0.023071 0.291807 0.750128
O O15 0.852797 0.530972 0.000961
#
# Coordination Sequence:
#
# PCOD9099205 Si02
#       7
#     2   2   2   2   2   2   2
#     4   9  18  38  61  79 103 145 194 234 267 314
#     4  10  19  33  56  82 111 144 184 227 272 323
#     4   8  18  30  52  83 105 136 180 229 267 318
#     4  11  23  34  51  85 122 146 173 220 279 337
#     4  11  18  33  55  78 114 151 171 218 280 334
#     4  10  16  31  54  81 109 143 184 219 270 335
#     4   9  19  36  53  77 108 147 183 224 268 327
#
# _framework density 19.084828999999999
#
# number of rings (size 3 to 8) (size 9 to 14) (size 15 to 20)
#    0.857    1.429    1.429    3.857    0.000    2.286 
#    0.000    2.857    0.000    0.857    0.000    0.000 
#    0.000    0.000    0.000    0.000    0.000    0.000 
#
# Total GULP energy -77988.121977 kJ/mol
# GULP energy per Si atom -5570.580141 kJ/mol
# Density = 1.904139 g / cm^3
# Si number density = 19.084829 Si / 1000 Ang^3
#
#
#
# Elastic Constant Matrix: (Units=GPa)
#
#
# Indices 1 2 3 4 5 6 
#
# 1 79.8929 34.1219 38.8535 8.5114 26.1485 -12.2539
# 2 34.1219 43.6938 34.0282 0.1044 8.5039 -4.4691
# 3 38.8535 34.0282 110.7127 -0.3938 7.5494 9.2628
# 4 8.5114 0.1044 -0.3938 28.3421 11.0845 2.5969
# 5 26.1485 8.5039 7.5494 11.0845 22.5883 -7.1934
# 6 -12.2539 -4.4691 9.2628 2.5969 -7.1934 27.0811
#
#
#
# Elastic Compliance Matrix: (Units=1/GPa)
#
#
# Indices 1 2 3 4 5 6 
#
# 1 0.030713 -0.014150 -0.005097 0.000742 -0.026953 0.006075
# 2 -0.014150 0.039538 -0.007788 0.001958 0.004331 0.003749
# 3 -0.005097 -0.007788 0.013916 0.002421 0.000284 -0.008508
# 4 0.000742 0.001958 0.002421 0.047993 -0.030015 -0.012744
# 5 -0.026953 0.004331 0.000284 -0.030015 0.093625 0.016169
# 6 0.006075 0.003749 -0.008508 -0.012744 0.016169 0.048721
#
#
# Mechanical properties :
#
#
# Convention : Reuss Voigt Hill
#
# Bulk Modulus (GPa) = 33.22681 49.81184 41.51933
# Shear Modulus (GPa) = 14.76625 24.08869 19.42747
#
# Velocity S-wave (km/s) = 2.78459 3.55659 3.19400
# Velocity P-wave (km/s) = 5.27129 6.55916 5.95017
#
# Compressibility (1/GPa) = 0.03009618
#
# Stress axis : x y z
#
# Youngs Moduli (GPa) = 32.55912 25.29206 71.85911
#
# Poissons Ratio (x) = 0.35788 0.36628
# Poissons Ratio (y) = 0.46071 0.55967
# Poissons Ratio (z) = 0.16596 0.19699
#
# Static dielectric constant tensor:
#      x y z
#    x 1.688130 0.023530 0.014180 
#    y 0.023530 1.659610 -0.006500 
#    z 0.014180 -0.006500 1.738350 
# 
# From -- ./inp_files/532010.got.cif
#   From: 2010.05.17/outbox.cif.g08.bks.cpg/sg2_267_cif.got.tgz:532010.got - 2010.06.03 11:33:40.
