data_PCOD9099375
_publ_section_title
;
Structure prediction by ZEFSAII (Michael W. Deem and Ramdas Pophale) SiO2 
 PCOD9099375
Probable space group: P -1
;
_chemical_formula_sum "Si O2"
_cell_formula_units_Z 16
_cell_length_a 9.102490
_cell_length_b 16.759078
_cell_length_c 8.944591
_cell_angle_alpha 92.079663
_cell_angle_beta 101.427618
_cell_angle_gamma 35.536531
_cell_volume 758.426683
_symmetry_space_group_name_H-M "P -1"
_symmetry_group_IT_number 2
_symmetry_cell_setting 'triclinic'
loop_
_space_group_symop_operation_xyz
x,y,z
-x,-y,-z
loop_
_atom_site_type_symbol
_atom_site_label
_atom_site_fract_x
_atom_site_fract_y
_atom_site_fract_z
Si Si1 0.639638 0.512820 0.728929
Si Si2 0.122358 0.696657 0.465406
Si Si3 0.182627 0.097223 0.059523
Si Si4 0.651830 0.984276 0.247317
Si Si5 0.039533 0.401980 0.589478
Si Si6 0.358591 0.713618 0.926986
Si Si7 0.615588 0.163976 0.815886
Si Si8 0.895376 0.042014 0.313111
O O1 0.356138 0.636214 0.596370
O O2 0.764557 0.375565 0.682675
O O3 0.581623 0.560200 0.889938
O O4 0.845461 0.485998 0.699767
O O5 0.854601 0.862430 0.402994
O O6 0.054705 0.638476 0.512987
O O7 0.878803 0.234074 0.050503
O O8 0.362142 0.074186 0.199475
O O9 0.274548 0.964870 0.094165
O O10 0.240555 0.091028 0.898615
O O11 0.679204 0.066980 0.262386
O O12 0.344271 0.260832 0.686344
O O13 0.000000 0.500000 0.500000
O O14 0.440472 0.741777 0.070342
O O15 0.231820 0.823522 0.775815
O O16 0.848097 0.090306 0.746476
O O17 0.000000 0.000000 0.500000
#
# Coordination Sequence:
#
# PCOD9099375 Si02
#       8
#     2   2   2   2   2   2   2   2
#     4   9  21  40  60  83 120 158 199 246 297 343
#     4   9  20  40  61  81 118 159 196 251 296 349
#     4  10  20  37  60  87 118 158 196 244 300 358
#     4  11  19  37  63  87 117 157 202 242 301 349
#     4  10  22  38  63  86 112 160 205 246 294 351
#     4  11  21  40  59  90 125 159 200 242 300 364
#     4  11  21  41  60  86 126 157 201 247 298 360
#     4  11  23  36  62  94 121 159 196 246 303 358
#
# _framework density 21.096305000000001
#
# number of rings (size 3 to 8) (size 9 to 14) (size 15 to 20)
#    0.750    1.000    3.750    1.500    3.500    0.500 
#    2.250    2.500    0.000    0.000    0.000    0.000 
#    0.000    0.000    0.000    0.000    0.000    0.000 
#
# Total GULP energy -89237.952636 kJ/mol
# GULP energy per Si atom -5577.372040 kJ/mol
# Density = 2.104829 g / cm^3
# Si number density = 21.096305 Si / 1000 Ang^3
#
#
#
# Elastic Constant Matrix: (Units=GPa)
#
#
# Indices 1 2 3 4 5 6 
#
# 1 73.7493 13.0705 -6.8389 7.3369 14.6581 -14.2324
# 2 13.0705 30.3046 0.4399 7.9033 8.8600 1.8329
# 3 -6.8389 0.4399 34.7835 9.2265 8.6988 6.2015
# 4 7.3369 7.9033 9.2265 34.2030 4.5122 4.0447
# 5 14.6581 8.8600 8.6988 4.5122 27.1930 -7.7925
# 6 -14.2324 1.8329 6.2015 4.0447 -7.7925 15.0287
#
#
#
# Elastic Compliance Matrix: (Units=1/GPa)
#
#
# Indices 1 2 3 4 5 6 
#
# 1 0.019774 -0.007459 0.002838 -0.005032 -0.003080 0.018222
# 2 -0.007459 0.044752 0.008746 -0.005599 -0.019520 -0.024746
# 3 0.002838 0.008746 0.041859 -0.007688 -0.023944 -0.025998
# 4 -0.005032 -0.005599 -0.007688 0.035337 -0.002177 -0.011550
# 5 -0.003080 -0.019520 -0.023944 -0.002177 0.065375 0.043828
# 6 0.018222 -0.024746 -0.025998 -0.011550 0.043828 0.123375
#
#
# Mechanical properties :
#
#
# Convention : Reuss Voigt Hill
#
# Bulk Modulus (GPa) = 8.72322 16.90896 12.81609
# Shear Modulus (GPa) = 13.87215 24.09601 18.98408
#
# Velocity S-wave (km/s) = 2.56708 3.38330 3.00305
# Velocity P-wave (km/s) = 3.59590 4.82647 4.25589
#
# Compressibility (1/GPa) = 0.11463655
#
# Stress axis : x y z
#
# Youngs Moduli (GPa) = 50.57157 22.34524 23.88950
#
# Poissons Ratio (x) = 0.16667 -0.06781
# Poissons Ratio (y) = 0.37722 -0.20894
# Poissons Ratio (z) = -0.14354 -0.19544
#
# Static dielectric constant tensor:
#      x y z
#    x 1.749100 -0.002000 -0.009720 
#    y -0.002000 1.749990 0.021150 
#    z -0.009720 0.021150 1.777930 
# 
# From -- ./inp_files/217881.got.cif
#   From: 2010.05.17/outbox.cif.g08.bks.cpg/sg2_109_cif.got.tgz:217881.got - 2010.06.03 11:33:40.
