data_PCOD9099740
_publ_section_title
;
Structure prediction by ZEFSAII (Michael W. Deem and Ramdas Pophale) SiO2 
 PCOD9099740
Probable space group: P -1
;
_chemical_formula_sum "Si O2"
_cell_formula_units_Z 16
_cell_length_a 22.139812
_cell_length_b 13.610378
_cell_length_c 9.147946
_cell_angle_alpha 132.205477
_cell_angle_beta 132.119644
_cell_angle_gamma 21.786323
_cell_volume 746.746364
_symmetry_space_group_name_H-M "P -1"
_symmetry_group_IT_number 2
_symmetry_cell_setting 'triclinic'
loop_
_space_group_symop_operation_xyz
x,y,z
-x,-y,-z
loop_
_atom_site_type_symbol
_atom_site_label
_atom_site_fract_x
_atom_site_fract_y
_atom_site_fract_z
Si Si1 0.321756 0.729749 0.122925
Si Si2 0.561007 0.151100 0.028954
Si Si3 0.268719 0.923719 0.545346
Si Si4 0.796948 0.924919 0.967702
Si Si5 0.937226 0.535894 0.588433
Si Si6 0.814741 0.141167 0.418999
Si Si7 0.632859 0.783941 0.372182
Si Si8 0.843023 0.244567 0.293824
O O1 0.456613 0.425298 0.070908
O O2 0.297298 0.843842 0.346053
O O3 0.333432 0.818290 0.097717
O O4 0.168962 0.855448 0.944799
O O5 0.625868 0.104688 0.245638
O O6 0.461021 0.157317 0.854658
O O7 0.713095 0.935258 0.946419
O O8 0.299181 0.754811 0.533647
O O9 0.075820 0.234225 0.559591
O O10 0.928184 0.667914 0.821378
O O11 0.863645 0.943618 0.202993
O O12 0.753282 0.734837 0.480109
O O13 0.000000 0.500000 0.500000
O O14 0.970540 0.990285 0.593806
O O15 0.747837 0.332330 0.374977
O O16 0.756005 0.497141 0.345618
O O17 0.500000 0.000000 0.500000
#
# Coordination Sequence:
#
# PCOD9099740 Si02
#       8
#     2   2   2   2   2   2   2   2
#     4  10  20  37  61  90 126 168 203 256 320 376
#     4  10  22  39  62  94 120 161 218 263 306 366
#     4  11  22  38  62  93 129 165 205 261 319 373
#     4  10  20  37  64  88 123 166 211 253 308 371
#     4  12  24  42  64  93 128 168 212 254 316 382
#     4   9  19  36  58  94 122 154 211 265 306 359
#     4  11  22  41  64  92 125 169 210 256 313 376
#     4   9  19  37  60  90 125 154 210 259 308 363
#
# _framework density 21.426285
#
# number of rings (size 3 to 8) (size 9 to 14) (size 15 to 20)
#    0.000    1.750    3.750    0.750    0.000    4.500 
#    0.000    0.625    0.000    0.000    0.000    0.000 
#    0.000    0.000    0.000    0.000    0.000    0.000 
#
# Total GULP energy -89250.473362 kJ/mol
# GULP energy per Si atom -5578.154585 kJ/mol
# Density = 2.137752 g / cm^3
# Si number density = 21.426285 Si / 1000 Ang^3
#
#
#
# Elastic Constant Matrix: (Units=GPa)
#
#
# Indices 1 2 3 4 5 6 
#
# 1 71.6550 -2.7530 46.0164 -12.1249 1.0740 -8.6720
# 2 -2.7530 36.8343 28.7497 -3.0224 2.5975 -14.4773
# 3 46.0164 28.7497 171.6423 -24.7870 -12.4835 -20.2873
# 4 -12.1249 -3.0224 -24.7870 32.6870 -6.3329 5.8092
# 5 1.0740 2.5975 -12.4835 -6.3329 29.2916 -4.2326
# 6 -8.6720 -14.4773 -20.2873 5.8092 -4.2326 20.6757
#
#
#
# Elastic Compliance Matrix: (Units=1/GPa)
#
#
# Indices 1 2 3 4 5 6 
#
# 1 0.019299 0.009387 -0.005710 0.001795 -0.002420 0.008065
# 2 0.009387 0.044790 -0.007589 -0.003964 -0.004351 0.028076
# 3 -0.005710 -0.007589 0.010215 0.005879 0.006804 0.002055
# 4 0.001795 -0.003964 0.005879 0.038222 0.010351 -0.004875
# 5 -0.002420 -0.004351 0.006804 0.010351 0.040920 0.008083
# 6 0.008065 0.028076 0.002055 -0.004875 0.008083 0.076448
#
#
# Mechanical properties :
#
#
# Convention : Reuss Voigt Hill
#
# Bulk Modulus (GPa) = 15.04220 47.12866 31.08543
# Shear Modulus (GPa) = 19.23975 30.40542 24.82259
#
# Velocity S-wave (km/s) = 2.99983 3.77114 3.40738
# Velocity P-wave (km/s) = 4.36284 6.40355 5.47904
#
# Compressibility (1/GPa) = 0.06647962
#
# Stress axis : x y z
#
# Youngs Moduli (GPa) = 51.81536 22.32636 97.89733
#
# Poissons Ratio (x) = -0.20957 0.55898
# Poissons Ratio (y) = -0.48638 0.74297
# Poissons Ratio (z) = 0.29586 0.16944
#
# Static dielectric constant tensor:
#      x y z
#    x 1.826340 0.015820 0.018240 
#    y 0.015820 1.831230 -0.025170 
#    z 0.018240 -0.025170 1.767130 
# 
# From -- ./inp_files/333459.got.cif
#   From: 2010.05.17/outbox.cif.g08.bks.cpg/sg2_167_cif.got.tgz:333459.got - 2010.06.03 11:33:40.
