data_PCOD9099152
_publ_section_title
;
Structure prediction by ZEFSAII (Michael W. Deem and Ramdas Pophale) SiO2 
 PCOD9099152
Probable space group: P -1
;
_chemical_formula_sum "Si O2"
_cell_formula_units_Z 16
_cell_length_a 8.706477
_cell_length_b 9.070902
_cell_length_c 17.066359
_cell_angle_alpha 132.341431
_cell_angle_beta 110.739893
_cell_angle_gamma 47.181878
_cell_volume 717.273010
_symmetry_space_group_name_H-M "P -1"
_symmetry_group_IT_number 2
_symmetry_cell_setting 'triclinic'
loop_
_space_group_symop_operation_xyz
x,y,z
-x,-y,-z
loop_
_atom_site_type_symbol
_atom_site_label
_atom_site_fract_x
_atom_site_fract_y
_atom_site_fract_z
Si Si1 0.103112 0.544004 0.708399
Si Si2 0.531595 0.634572 0.893545
Si Si3 0.512660 0.572030 0.339439
Si Si4 0.444273 0.737980 0.626102
Si Si5 0.708513 0.507503 0.106171
Si Si6 0.187101 0.227190 0.046242
Si Si7 0.163649 0.050818 0.552968
Si Si8 0.669013 0.915653 0.798741
O O1 0.269016 0.482007 0.652384
O O2 0.221105 0.480527 0.789816
O O3 0.887443 0.839068 0.777737
O O4 0.065771 0.338571 0.619006
O O5 0.577549 0.439648 0.763274
O O6 0.426680 0.590832 0.931917
O O7 0.733663 0.631628 0.933115
O O8 0.336046 0.930334 0.938052
O O9 0.575490 0.332005 0.316125
O O10 0.352076 0.840255 0.452803
O O11 0.500000 0.500000 0.500000
O O12 0.249078 0.987277 0.634691
O O13 0.619589 0.770618 0.680285
O O14 0.939072 0.347191 0.045966
O O15 0.540556 0.789101 0.138798
O O16 0.265033 0.194833 0.140154
O O17 0.000000 0.000000 0.500000
#
# Coordination Sequence:
#
# PCOD9099152 Si02
#       8
#     2   2   2   2   2   2   2   2
#     4  10  21  39  59  91 124 161 200 254 308 360
#     4  10  21  41  65  94 125 161 211 254 313 367
#     4  10  21  39  61  87 124 158 203 259 303 367
#     4  10  20  37  59  87 118 156 204 245 301 371
#     4  10  22  40  64  91 129 165 205 255 311 369
#     4  10  22  41  67  91 126 167 203 258 312 368
#     4  11  22  38  63  87 120 165 202 248 313 375
#     4  11  21  41  62  90 124 164 206 252 307 371
#
# _framework density 22.306709000000001
#
# number of rings (size 3 to 8) (size 9 to 14) (size 15 to 20)
#    0.000    1.750    2.500    2.250    1.750    0.500 
#    6.750    5.625    0.000    0.000    0.000    0.000 
#    0.000    0.000    0.000    0.000    0.000    0.000 
#
# Total GULP energy -89180.964179 kJ/mol
# GULP energy per Si atom -5573.810261 kJ/mol
# Density = 2.225594 g / cm^3
# Si number density = 22.306709 Si / 1000 Ang^3
#
#
#
# Elastic Constant Matrix: (Units=GPa)
#
#
# Indices 1 2 3 4 5 6 
#
# 1 135.4472 32.6417 4.0934 8.1124 -9.4798 -8.5690
# 2 32.6417 70.5101 1.3195 2.9584 -5.1856 -19.7588
# 3 4.0934 1.3195 60.2131 -6.2217 2.9604 -11.3339
# 4 8.1124 2.9584 -6.2217 25.7994 -2.4047 0.7459
# 5 -9.4798 -5.1856 2.9604 -2.4047 33.4275 11.0849
# 6 -8.5690 -19.7588 -11.3339 0.7459 11.0849 22.7010
#
#
#
# Elastic Compliance Matrix: (Units=1/GPa)
#
#
# Indices 1 2 3 4 5 6 
#
# 1 0.008629 -0.004339 -0.001277 -0.002225 0.002489 -0.002299
# 2 -0.004339 0.022049 0.004188 -0.001339 -0.005735 0.022489
# 3 -0.001277 0.004188 0.020432 0.003743 -0.006734 0.016530
# 4 -0.002225 -0.001339 0.003743 0.040848 0.002695 -0.002795
# 5 0.002489 -0.005735 -0.006734 0.002695 0.039388 -0.026735
# 6 -0.002299 0.022489 0.016530 -0.002795 -0.026735 0.084157
#
#
# Mechanical properties :
#
#
# Convention : Reuss Voigt Hill
#
# Bulk Modulus (GPa) = 20.72262 38.03108 29.37685
# Shear Modulus (GPa) = 21.32723 31.59330 26.46026
#
# Velocity S-wave (km/s) = 3.09543 3.76748 3.44786
# Velocity P-wave (km/s) = 4.69953 6.00095 5.38966
#
# Compressibility (1/GPa) = 0.04825646
#
# Stress axis : x y z
#
# Youngs Moduli (GPa) = 115.88591 45.35380 48.94297
#
# Poissons Ratio (x) = 0.19677 0.06248
# Poissons Ratio (y) = 0.50279 -0.20500
# Poissons Ratio (z) = 0.14794 -0.18996
#
# Static dielectric constant tensor:
#      x y z
#    x 1.922200 0.032110 0.081980 
#    y 0.032110 1.824430 0.019510 
#    z 0.081980 0.019510 1.982790 
# 
# From -- ./inp_files/557604.got.cif
#   From: 2010.05.17/outbox.cif.g08.bks.cpg/sg2_279_cif.got.tgz:557604.got - 2010.06.03 11:33:40.
