data_PCOD9099418
_publ_section_title
;
Structure prediction by ZEFSAII (Michael W. Deem and Ramdas Pophale) SiO2 
 PCOD9099418
Probable space group: P -1
;
_chemical_formula_sum "Si O2"
_cell_formula_units_Z 16
_cell_length_a 9.042408
_cell_length_b 16.405190
_cell_length_c 12.009492
_cell_angle_alpha 47.839734
_cell_angle_beta 144.045396
_cell_angle_gamma 109.152551
_cell_volume 673.914313
_symmetry_space_group_name_H-M "P -1"
_symmetry_group_IT_number 2
_symmetry_cell_setting 'triclinic'
loop_
_space_group_symop_operation_xyz
x,y,z
-x,-y,-z
loop_
_atom_site_type_symbol
_atom_site_label
_atom_site_fract_x
_atom_site_fract_y
_atom_site_fract_z
Si Si1 0.688065 0.012580 0.326830
Si Si2 0.399226 0.658845 0.469388
Si Si3 0.949167 0.565021 0.290420
Si Si4 0.587552 0.197782 0.278099
Si Si5 0.371334 0.198240 0.383821
Si Si6 0.153946 0.630243 0.965772
Si Si7 0.188681 0.162701 0.624299
Si Si8 0.593705 0.671731 0.326538
O O1 0.692623 0.909012 0.510495
O O2 0.615818 0.959577 0.219593
O O3 0.526909 0.139975 0.183287
O O4 0.000000 0.000000 0.500000
O O5 0.408340 0.770785 0.440540
O O6 0.658834 0.520511 0.794386
O O7 0.463413 0.670515 0.368525
O O8 0.108965 0.649251 0.310201
O O9 0.000000 0.500000 0.500000
O O10 0.108294 0.456459 0.395824
O O11 0.609713 0.651309 0.985300
O O12 0.482695 0.164809 0.357729
O O13 0.926229 0.153907 0.528040
O O14 0.069062 0.326898 0.105795
O O15 0.382393 0.673207 0.101609
O O16 0.970934 0.717229 0.671032
O O17 0.360099 0.209124 0.763304
#
# Coordination Sequence:
#
# PCOD9099418 Si02
#       8
#     2   2   2   2   2   2   2   2
#     4   9  20  41  64  86 121 161 210 259 301 369
#     4  11  21  37  59  90 127 161 209 249 301 376
#     4  11  25  40  59  94 131 163 198 260 313 370
#     4  11  22  38  63  88 126 166 201 256 323 354
#     4  11  21  36  64  94 121 160 213 253 309 370
#     4  10  20  37  60  88 124 163 201 254 305 369
#     4  10  22  39  63  90 118 164 211 253 297 381
#     4  11  21  38  62  87 126 162 207 247 309 361
#
# _framework density 23.741889
#
# number of rings (size 3 to 8) (size 9 to 14) (size 15 to 20)
#    0.000    1.500    2.500    5.250    3.500    0.500 
#    0.000    0.625    5.500    7.500    0.000    0.000 
#    0.000    0.000    0.000    0.000    0.000    0.000 
#
# Total GULP energy -89442.685899 kJ/mol
# GULP energy per Si atom -5590.167869 kJ/mol
# Density = 2.368785 g / cm^3
# Si number density = 23.741889 Si / 1000 Ang^3
#
#
#
# Elastic Constant Matrix: (Units=GPa)
#
#
# Indices 1 2 3 4 5 6 
#
# 1 154.3870 38.0542 12.0566 -5.6032 0.9295 -6.3431
# 2 38.0542 141.3254 13.6984 11.1562 9.8734 8.7003
# 3 12.0566 13.6984 27.0648 -12.6943 0.2186 2.9908
# 4 -5.6032 11.1562 -12.6943 20.4642 -2.6133 -3.3426
# 5 0.9295 9.8734 0.2186 -2.6133 35.0503 -7.2721
# 6 -6.3431 8.7003 2.9908 -3.3426 -7.2721 39.5144
#
#
#
# Elastic Compliance Matrix: (Units=1/GPa)
#
#
# Indices 1 2 3 4 5 6 
#
# 1 0.007333 -0.002396 -0.000725 0.003389 0.001208 0.002269
# 2 -0.002396 0.010375 -0.010228 -0.013891 -0.004645 -0.003925
# 3 -0.000725 -0.010228 0.063779 0.046155 0.006441 0.002398
# 4 0.003389 -0.013891 0.046155 0.089178 0.012239 0.009905
# 5 0.001208 -0.004645 0.006441 0.012239 0.032278 0.007705
# 6 0.002269 -0.003925 0.002398 0.009905 0.007705 0.028610
#
#
# Mechanical properties :
#
#
# Convention : Reuss Voigt Hill
#
# Bulk Modulus (GPa) = 18.25146 50.04395 34.14771
# Shear Modulus (GPa) = 18.08224 36.27031 27.17628
#
# Velocity S-wave (km/s) = 2.76274 3.91281 3.38695
# Velocity P-wave (km/s) = 4.22860 6.44496 5.45063
#
# Compressibility (1/GPa) = 0.05479013
#
# Stress axis : x y z
#
# Youngs Moduli (GPa) = 136.36293 96.38453 15.67910
#
# Poissons Ratio (x) = 0.23094 0.01136
# Poissons Ratio (y) = 0.32673 0.16036
# Poissons Ratio (z) = 0.09884 0.98581
#
# Static dielectric constant tensor:
#      x y z
#    x 1.892920 0.016700 -0.035740 
#    y 0.016700 1.897230 0.010370 
#    z -0.035740 0.010370 1.963190 
# 
# From -- ./inp_files/398842.got.cif
#   From: 2010.05.17/outbox.cif.g08.bks.cpg/sg2_200_cif.got.tgz:398842.got - 2010.06.03 11:33:40.
