data_PCOD9099725
_publ_section_title
;
Structure prediction by ZEFSAII (Michael W. Deem and Ramdas Pophale) SiO2 
 PCOD9099725
Probable space group: P -1
;
_chemical_formula_sum "Si O2"
_cell_formula_units_Z 12
_cell_length_a 9.599622
_cell_length_b 9.210230
_cell_length_c 7.722700
_cell_angle_alpha 70.057763
_cell_angle_beta 47.419642
_cell_angle_gamma 56.688071
_cell_volume 419.640538
_symmetry_space_group_name_H-M "P -1"
_symmetry_group_IT_number 2
_symmetry_cell_setting 'triclinic'
loop_
_space_group_symop_operation_xyz
x,y,z
-x,-y,-z
loop_
_atom_site_type_symbol
_atom_site_label
_atom_site_fract_x
_atom_site_fract_y
_atom_site_fract_z
Si Si1 0.753735 0.930068 0.304872
Si Si2 0.237108 0.480514 0.299966
Si Si3 0.308307 0.798743 0.036497
Si Si4 0.205957 0.604549 0.647476
Si Si5 0.713009 0.083214 0.616923
Si Si6 0.765751 0.716015 0.081570
O O1 0.776163 0.069419 0.104781
O O2 0.819933 0.932277 0.446528
O O3 0.500000 0.000000 0.500000
O O4 0.836932 0.755852 0.193317
O O5 0.431059 0.302737 0.138338
O O6 0.303585 0.501006 0.432043
O O7 0.000000 0.500000 0.500000
O O8 0.246035 0.643247 0.133345
O O9 0.221843 0.904274 0.246542
O O10 0.278648 0.751264 0.550200
O O11 0.248766 0.462900 0.817272
O O12 0.949707 0.697528 0.805763
O O13 0.465119 0.130540 0.821289
#
# Coordination Sequence:
#
# PCOD9099725 Si02
#       6
#     2   2   2   2   2   2
#     4  10  22  40  61  89 123 159 196 243 301 354
#     4  10  20  37  61  90 121 156 199 249 296 348
#     4  10  22  39  61  90 121 156 201 244 295 356
#     4  10  21  37  60  88 114 156 205 242 293 354
#     4  10  21  39  62  85 117 156 196 247 296 346
#     4  10  21  37  59  87 119 154 199 245 293 353
#
# _framework density 28.595904999999998
#
# number of rings (size 3 to 8) (size 9 to 14) (size 15 to 20)
#    0.000    2.000    0.000    3.500    0.000    8.667 
#    0.000    8.333    0.000    0.000    0.000    0.000 
#    0.000    0.000    0.000    0.000    0.000    0.000 
#
# Total GULP energy -67319.581521 kJ/mol
# GULP energy per Si atom -5609.965127 kJ/mol
# Density = 2.853082 g / cm^3
# Si number density = 28.595905 Si / 1000 Ang^3
#
#
#
# Elastic Constant Matrix: (Units=GPa)
#
#
# Indices 1 2 3 4 5 6 
#
# 1 135.3662 14.7782 52.9404 13.0085 -5.6695 11.5072
# 2 14.7782 126.8534 55.9184 -11.8366 10.2074 0.7637
# 3 52.9404 55.9184 149.1059 6.7206 7.0565 10.2062
# 4 13.0085 -11.8366 6.7206 62.9399 20.2692 11.6825
# 5 -5.6695 10.2074 7.0565 20.2692 58.2613 15.9237
# 6 11.5072 0.7637 10.2062 11.6825 15.9237 34.2010
#
#
#
# Elastic Compliance Matrix: (Units=1/GPa)
#
#
# Indices 1 2 3 4 5 6 
#
# 1 0.009126 -0.000098 -0.003056 -0.001938 0.002702 -0.002753
# 2 -0.000098 0.010065 -0.003828 0.002960 -0.002661 0.001178
# 3 -0.003056 -0.003828 0.009361 -0.000801 -0.000112 -0.001354
# 4 -0.001938 0.002960 -0.000801 0.019592 -0.006672 -0.002761
# 5 0.002702 -0.002661 -0.000112 -0.006672 0.022719 -0.009115
# 6 -0.002753 0.001178 -0.001354 -0.002761 -0.009115 0.035730
#
#
# Mechanical properties :
#
#
# Convention : Reuss Voigt Hill
#
# Bulk Modulus (GPa) = 68.54206 73.17773 70.85990
# Shear Modulus (GPa) = 39.86579 50.25967 45.06273
#
# Velocity S-wave (km/s) = 3.73783 4.19690 3.97400
# Velocity P-wave (km/s) = 6.53067 7.00936 6.77425
#
# Compressibility (1/GPa) = 0.01458958
#
# Stress axis : x y z
#
# Youngs Moduli (GPa) = 109.57111 99.35180 106.82217
#
# Poissons Ratio (x) = 0.00972 0.32643
# Poissons Ratio (y) = 0.01072 0.40893
# Poissons Ratio (z) = 0.33483 0.38033
#
# Static dielectric constant tensor:
#      x y z
#    x 2.247940 0.000050 -0.017530 
#    y 0.000050 2.185440 -0.026730 
#    z -0.017530 -0.026730 2.173280 
# 
# From -- ./inp_files/191930.got.cif
#   From: 2010.05.17/outbox.cif.g08.bks.cpg/sg2_96_cif.got.tgz:191930.got - 2010.06.03 11:33:40.
