data_PCOD9099742
_publ_section_title
;
Structure prediction by ZEFSAII (Michael W. Deem and Ramdas Pophale) SiO2 
 PCOD9099742
Probable space group: P -1
;
_chemical_formula_sum "Si O2"
_cell_formula_units_Z 16
_cell_length_a 11.491726
_cell_length_b 10.854370
_cell_length_c 14.186823
_cell_angle_alpha 29.375554
_cell_angle_beta 62.150702
_cell_angle_gamma 75.024702
_cell_volume 721.001892
_symmetry_space_group_name_H-M "P -1"
_symmetry_group_IT_number 2
_symmetry_cell_setting 'triclinic'
loop_
_space_group_symop_operation_xyz
x,y,z
-x,-y,-z
loop_
_atom_site_type_symbol
_atom_site_label
_atom_site_fract_x
_atom_site_fract_y
_atom_site_fract_z
Si Si1 0.375947 0.155719 0.385894
Si Si2 0.098227 0.031544 0.349337
Si Si3 0.154848 0.384106 0.371756
Si Si4 0.942992 0.216014 0.973786
Si Si5 0.494206 0.178896 0.529399
Si Si6 0.154942 0.614723 0.908627
Si Si7 0.245020 0.603356 0.591185
Si Si8 0.242150 0.338252 0.579048
O O1 0.477384 0.103150 0.303836
O O2 0.277366 0.333964 0.295911
O O3 0.465715 0.243997 0.388900
O O4 0.263588 0.855567 0.649289
O O5 0.199091 0.863127 0.440156
O O6 0.984729 0.880486 0.412294
O O7 0.185297 0.339978 0.092042
O O8 0.000000 0.000000 0.500000
O O9 0.107062 0.622229 0.194676
O O10 0.212268 0.426722 0.427708
O O11 0.862941 0.261226 0.067427
O O12 0.106480 0.360939 0.833793
O O13 0.897594 0.904435 0.179947
O O14 0.628062 0.371284 0.404902
O O15 0.361556 0.202915 0.618105
O O16 0.000000 0.500000 0.000000
O O17 0.277498 0.555297 0.502750
#
# Coordination Sequence:
#
# PCOD9099742 Si02
#       8
#     2   2   2   2   2   2   2   2
#     4  10  20  37  62  90 122 163 199 252 313 359
#     4  11  20  34  58  94 123 152 195 256 317 353
#     4  10  20  37  61  90 128 153 201 259 305 364
#     4  11  22  38  64  95 118 159 201 260 311 356
#     4  10  21  39  61  86 122 170 204 244 304 367
#     4  12  19  34  62  95 127 149 198 253 314 365
#     4  11  23  38  64  88 124 165 204 250 305 369
#     4  11  23  44  61  87 122 171 210 245 303 358
#
# _framework density 22.191341999999999
#
# number of rings (size 3 to 8) (size 9 to 14) (size 15 to 20)
#    0.000    1.250    6.250    2.250    0.000    2.000 
#    0.000    7.500    0.000    4.500    0.000    0.000 
#    0.000    0.000    0.000    0.000    0.000    0.000 
#
# Total GULP energy -89408.363642 kJ/mol
# GULP energy per Si atom -5588.022728 kJ/mol
# Density = 2.214083 g / cm^3
# Si number density = 22.191342 Si / 1000 Ang^3
#
#
#
# Elastic Constant Matrix: (Units=GPa)
#
#
# Indices 1 2 3 4 5 6 
#
# 1 141.0029 28.9067 17.8107 -4.1582 -8.3589 11.9600
# 2 28.9067 109.1004 16.2411 3.1576 0.4973 7.1651
# 3 17.8107 16.2411 49.2893 -6.2766 1.7007 5.3750
# 4 -4.1582 3.1576 -6.2766 23.4035 -2.8497 -5.4339
# 5 -8.3589 0.4973 1.7007 -2.8497 12.1347 1.6864
# 6 11.9600 7.1651 5.3750 -5.4339 1.6864 36.3638
#
#
#
# Elastic Compliance Matrix: (Units=1/GPa)
#
#
# Indices 1 2 3 4 5 6 
#
# 1 0.008378 -0.001817 -0.002242 0.001458 0.006803 -0.002164
# 2 -0.001817 0.010264 -0.002900 -0.003020 -0.001785 -0.001365
# 3 -0.002242 -0.002900 0.022988 0.005509 -0.003198 -0.001118
# 4 0.001458 -0.003020 0.005509 0.047548 0.010701 0.005910
# 5 0.006803 -0.001785 -0.003198 0.010701 0.090688 -0.004020
# 6 -0.002164 -0.001365 -0.001118 0.005910 -0.004020 0.029715
#
#
# Mechanical properties :
#
#
# Convention : Reuss Voigt Hill
#
# Bulk Modulus (GPa) = 36.08449 47.25664 41.67057
# Shear Modulus (GPa) = 21.48377 30.14265 25.81321
#
# Velocity S-wave (km/s) = 3.11483 3.68952 3.41429
# Velocity P-wave (km/s) = 5.40668 6.28422 5.86189
#
# Compressibility (1/GPa) = 0.02771273
#
# Stress axis : x y z
#
# Youngs Moduli (GPa) = 119.36725 97.42678 43.50180
#
# Poissons Ratio (x) = 0.17704 0.09751
# Poissons Ratio (y) = 0.21690 0.12614
# Poissons Ratio (z) = 0.26757 0.28250
#
# Static dielectric constant tensor:
#      x y z
#    x 1.837800 -0.015080 -0.003970 
#    y -0.015080 1.882100 0.018020 
#    z -0.003970 0.018020 1.837460 
# 
# From -- ./inp_files/499087.got.cif
#   From: 2010.05.17/outbox.cif.g08.bks.cpg/sg2_250_cif.got.tgz:499087.got - 2010.06.03 11:33:40.
