data_PCOD9099833
_publ_section_title
;
Structure prediction by ZEFSAII (Michael W. Deem and Ramdas Pophale) SiO2 
 PCOD9099833
Probable space group: P -1
;
_chemical_formula_sum "Si O2"
_cell_formula_units_Z 16
_cell_length_a 9.081455
_cell_length_b 10.603526
_cell_length_c 9.274266
_cell_angle_alpha 91.622582
_cell_angle_beta 78.729770
_cell_angle_gamma 125.469162
_cell_volume 709.255756
_symmetry_space_group_name_H-M "P -1"
_symmetry_group_IT_number 2
_symmetry_cell_setting 'triclinic'
loop_
_space_group_symop_operation_xyz
x,y,z
-x,-y,-z
loop_
_atom_site_type_symbol
_atom_site_label
_atom_site_fract_x
_atom_site_fract_y
_atom_site_fract_z
Si Si1 0.810808 0.017757 0.399455
Si Si2 0.126522 0.520445 0.608929
Si Si3 0.815119 0.353915 0.098605
Si Si4 0.539656 0.720497 0.586394
Si Si5 0.145401 0.829967 0.298480
Si Si6 0.102963 0.056389 0.131955
Si Si7 0.520824 0.625025 0.889861
Si Si8 0.551740 0.049555 0.244196
O O1 0.717813 0.837709 0.458795
O O2 0.864602 0.121499 0.534823
O O3 0.654032 0.015646 0.341467
O O4 0.985623 0.083162 0.266393
O O5 0.137178 0.627077 0.738741
O O6 0.344031 0.599969 0.539866
O O7 0.000000 0.500000 0.500000
O O8 0.016123 0.350061 0.693207
O O9 0.666700 0.387050 0.083344
O O10 0.701970 0.166117 0.098065
O O11 0.000000 0.500000 0.000000
O O12 0.563619 0.632050 0.708816
O O13 0.514277 0.846642 0.673676
O O14 0.114063 0.926578 0.198112
O O15 0.357501 0.887697 0.237407
O O16 0.308470 0.209645 0.079692
O O17 0.000000 0.000000 0.000000
O O18 0.500000 0.500000 0.000000
#
# Coordination Sequence:
#
# PCOD9099833 Si02
#       8
#     2   2   2   2   2   2   2   2
#     4  11  21  40  68  89 118 165 212 245 318 381
#     4  10  20  37  61  97 126 148 199 264 314 350
#     4  10  22  41  63  90 123 166 209 243 312 383
#     4   9  19  39  64  92 125 157 206 255 310 369
#     4  11  20  41  65  89 126 159 201 268 308 358
#     4  12  27  42  60  93 127 166 212 256 306 367
#     4  10  22  43  63  83 129 171 203 253 310 367
#     4   9  18  37  65  91 117 159 202 260 308 360
#
# _framework density 22.558859000000002
#
# number of rings (size 3 to 8) (size 9 to 14) (size 15 to 20)
#    0.000    2.000    3.750    4.125    5.250    0.000 
#    4.500    1.875    0.000    0.000    0.000    0.000 
#    0.000    0.000    0.000    0.000    0.000    0.000 
#
# Total GULP energy -89279.307047 kJ/mol
# GULP energy per Si atom -5579.956690 kJ/mol
# Density = 2.250751 g / cm^3
# Si number density = 22.558859 Si / 1000 Ang^3
#
#
#
# Elastic Constant Matrix: (Units=GPa)
#
#
# Indices 1 2 3 4 5 6 
#
# 1 64.7223 14.3189 34.6494 2.3401 20.0897 16.8051
# 2 14.3189 98.5931 7.9288 -10.8410 -5.8308 23.8232
# 3 34.6494 7.9288 99.0564 -0.6757 23.9570 1.1706
# 4 2.3401 -10.8410 -0.6757 39.5520 5.9618 12.6628
# 5 20.0897 -5.8308 23.9570 5.9618 45.3581 -11.8221
# 6 16.8051 23.8232 1.1706 12.6628 -11.8221 39.2965
#
#
#
# Elastic Compliance Matrix: (Units=1/GPa)
#
#
# Indices 1 2 3 4 5 6 
#
# 1 0.027650 0.000870 -0.005890 0.006757 -0.014815 -0.018811
# 2 0.000870 0.013662 -0.000613 0.007862 -0.002441 -0.011904
# 3 -0.005890 -0.000613 0.013242 0.000750 -0.004313 0.000957
# 4 0.006757 0.007862 0.000750 0.036568 -0.013301 -0.023463
# 5 -0.014815 -0.002441 -0.004313 -0.013301 0.038530 0.023821
# 6 -0.018811 -0.011904 0.000957 -0.023463 0.023821 0.055408
#
#
# Mechanical properties :
#
#
# Convention : Reuss Voigt Hill
#
# Bulk Modulus (GPa) = 23.10128 41.79621 32.44875
# Shear Modulus (GPa) = 23.72434 38.53964 31.13199
#
# Velocity S-wave (km/s) = 3.24646 4.13777 3.71891
# Velocity P-wave (km/s) = 4.93106 6.43397 5.73199
#
# Compressibility (1/GPa) = 0.04328764
#
# Stress axis : x y z
#
# Youngs Moduli (GPa) = 36.16669 73.19460 75.51948
#
# Poissons Ratio (x) = -0.06370 0.44481
# Poissons Ratio (y) = -0.03147 0.04631
# Poissons Ratio (z) = 0.21302 0.04488
#
# Static dielectric constant tensor:
#      x y z
#    x 1.854230 0.001240 -0.066090 
#    y 0.001240 1.911610 -0.031100 
#    z -0.066090 -0.031100 1.897770 
# 
# From -- ./inp_files/186813.got.cif
#   From: 2010.05.17/outbox.cif.g08.bks.cpg/sg2_94_cif.got.tgz:186813.got - 2010.06.03 11:33:40.
