data_PCOD9099301
_publ_section_title
;
Structure prediction by ZEFSAII (Michael W. Deem and Ramdas Pophale) SiO2 
 PCOD9099301
Probable space group: P -1
;
_chemical_formula_sum "Si O2"
_cell_formula_units_Z 14
_cell_length_a 10.756867
_cell_length_b 8.464310
_cell_length_c 8.134588
_cell_angle_alpha 104.960793
_cell_angle_beta 91.746460
_cell_angle_gamma 62.248152
_cell_volume 629.739371
_symmetry_space_group_name_H-M "P -1"
_symmetry_group_IT_number 2
_symmetry_cell_setting 'triclinic'
loop_
_space_group_symop_operation_xyz
x,y,z
-x,-y,-z
loop_
_atom_site_type_symbol
_atom_site_label
_atom_site_fract_x
_atom_site_fract_y
_atom_site_fract_z
Si Si1 0.463218 0.803818 0.919452
Si Si2 0.305607 0.656039 0.674667
Si Si3 0.114639 0.393019 0.334667
Si Si4 0.258868 0.552939 0.141279
Si Si5 0.600359 0.942125 0.716959
Si Si6 0.048054 0.782032 0.903420
Si Si7 0.425873 0.723730 0.388179
O O1 0.366747 0.711634 0.850231
O O2 0.615007 0.652505 0.955948
O O3 0.496065 0.868904 0.762767
O O4 0.384153 0.968508 0.086283
O O5 0.322369 0.759522 0.546012
O O6 0.419351 0.440677 0.601111
O O7 0.146678 0.718951 0.728370
O O8 0.172760 0.518354 0.276579
O O9 0.253289 0.226756 0.376234
O O10 0.936973 0.708595 0.831385
O O11 0.000000 0.500000 0.500000
O O12 0.147018 0.661335 0.024942
O O13 0.348324 0.655351 0.232187
O O14 0.555387 0.106629 0.631049
O O15 0.000000 0.000000 0.000000
#
# Coordination Sequence:
#
# PCOD9099301 Si02
#       7
#     2   2   2   2   2   2   2
#     4   9  19  37  60  84 112 146 194 250 288 335
#     4  10  21  36  56  86 118 149 189 240 299 339
#     4  11  24  41  59  85 123 157 189 236 293 349
#     4  10  21  39  61  84 115 154 194 238 293 339
#     4  10  20  37  60  84 111 151 198 240 287 340
#     4  12  24  39  62  87 117 157 200 235 277 352
#     4  10  20  37  61  86 115 149 192 247 292 339
#
# _framework density 22.231418000000001
#
# number of rings (size 3 to 8) (size 9 to 14) (size 15 to 20)
#    0.000    1.714    0.000    4.714    0.000    5.143 
#    0.000    8.571    0.000    0.000    0.000    0.000 
#    0.000    0.000    0.000    0.000    0.000    0.000 
#
# Total GULP energy -78161.505749 kJ/mol
# GULP energy per Si atom -5582.964696 kJ/mol
# Density = 2.218082 g / cm^3
# Si number density = 22.231418 Si / 1000 Ang^3
#
#
#
# Elastic Constant Matrix: (Units=GPa)
#
#
# Indices 1 2 3 4 5 6 
#
# 1 84.5848 29.2033 7.9101 7.6053 5.8651 17.4790
# 2 29.2033 108.1318 29.9186 -12.5044 -12.7421 11.1353
# 3 7.9101 29.9186 78.1071 11.0666 -17.6065 -2.9717
# 4 7.6053 -12.5044 11.0666 35.6219 -1.1965 0.2794
# 5 5.8651 -12.7421 -17.6065 -1.1965 42.5432 5.2040
# 6 17.4790 11.1353 -2.9717 0.2794 5.2040 21.2486
#
#
#
# Elastic Compliance Matrix: (Units=1/GPa)
#
#
# Indices 1 2 3 4 5 6 
#
# 1 0.015974 -0.003954 -0.000378 -0.004679 -0.002394 -0.010473
# 2 -0.003954 0.013609 -0.005332 0.007432 0.003300 -0.005531
# 3 -0.000378 -0.005332 0.017124 -0.006984 0.004806 0.004415
# 4 -0.004679 0.007432 -0.006984 0.033903 0.001148 -0.001750
# 5 -0.002394 0.003300 0.004806 0.001148 0.027561 -0.005854
# 6 -0.010473 -0.005531 0.004415 -0.001750 -0.005854 0.060649
#
#
# Mechanical properties :
#
#
# Convention : Reuss Voigt Hill
#
# Bulk Modulus (GPa) = 36.52454 44.98753 40.75603
# Shear Modulus (GPa) = 25.34530 33.46885 29.40708
#
# Velocity S-wave (km/s) = 3.38015 3.88425 3.64094
# Velocity P-wave (km/s) = 5.63017 6.35583 6.00397
#
# Compressibility (1/GPa) = 0.02737885
#
# Stress axis : x y z
#
# Youngs Moduli (GPa) = 62.60219 73.48044 58.39612
#
# Poissons Ratio (x) = 0.29055 0.02208
# Poissons Ratio (y) = 0.24754 0.31137
# Poissons Ratio (z) = 0.02367 0.39180
#
# Static dielectric constant tensor:
#      x y z
#    x 1.848290 0.052020 0.035500 
#    y 0.052020 1.822100 0.004090 
#    z 0.035500 0.004090 1.846000 
# 
# From -- ./inp_files/292289.got.cif
#   From: 2010.05.17/outbox.cif.g08.bks.cpg/sg2_147_cif.got.tgz:292289.got - 2010.06.03 11:33:40.
