data_PCOD9099285
_publ_section_title
;
Structure prediction by ZEFSAII (Michael W. Deem and Ramdas Pophale) SiO2 
 PCOD9099285
Probable space group: P -1
;
_chemical_formula_sum "Si O2"
_cell_formula_units_Z 14
_cell_length_a 15.082886
_cell_length_b 12.394298
_cell_length_c 10.483727
_cell_angle_alpha 152.585728
_cell_angle_beta 140.829317
_cell_angle_gamma 37.394737
_cell_volume 530.544277
_symmetry_space_group_name_H-M "P -1"
_symmetry_group_IT_number 2
_symmetry_cell_setting 'triclinic'
loop_
_space_group_symop_operation_xyz
x,y,z
-x,-y,-z
loop_
_atom_site_type_symbol
_atom_site_label
_atom_site_fract_x
_atom_site_fract_y
_atom_site_fract_z
Si Si1 0.729302 0.224910 0.941903
Si Si2 0.089295 0.523974 0.750555
Si Si3 0.359034 0.017775 0.980652
Si Si4 0.650730 0.589862 0.918204
Si Si5 0.882625 0.974748 0.088535
Si Si6 0.545011 0.633192 0.361918
Si Si7 0.130109 0.967429 0.506106
O O1 0.829498 0.289707 0.016991
O O2 0.664402 0.463407 0.215997
O O3 0.827054 0.013526 0.923574
O O4 0.588112 0.176780 0.673735
O O5 0.000000 0.500000 0.500000
O O6 0.230850 0.327528 0.779257
O O7 0.966433 0.673865 0.876782
O O8 0.390751 0.232533 0.320549
O O9 0.258405 0.923130 0.868146
O O10 0.520833 0.795639 0.904926
O O11 0.241869 0.100260 0.819238
O O12 0.543779 0.520892 0.828530
O O13 0.245092 0.675404 0.310070
O O14 0.016172 0.075457 0.374300
O O15 0.000000 0.000000 0.500000
#
# Coordination Sequence:
#
# PCOD9099285 Si02
#       7
#     2   2   2   2   2   2   2
#     4  10  20  38  56  86 125 150 188 246 288 339
#     4  10  21  35  56  87 119 153 196 232 287 359
#     4  11  21  38  65  84 113 159 199 234 290 346
#     4  10  21  40  60  86 119 149 191 248 289 336
#     4  10  20  37  60  82 119 158 187 243 296 327
#     4  10  22  36  59  92 116 147 198 241 286 347
#     4   9  21  40  62  84 115 154 195 242 288 340
#
# _framework density 26.387996000000001
#
# number of rings (size 3 to 8) (size 9 to 14) (size 15 to 20)
#    0.000    2.000    1.429    1.714    2.000    1.143 
#    0.000    0.714    3.143    0.000    0.000    0.000 
#    0.000    0.000    0.000    0.000    0.000    0.000 
#
# Total GULP energy -78143.840963 kJ/mol
# GULP energy per Si atom -5581.702926 kJ/mol
# Density = 2.632794 g / cm^3
# Si number density = 26.387996 Si / 1000 Ang^3
#
#
#
# Elastic Constant Matrix: (Units=GPa)
#
#
# Indices 1 2 3 4 5 6 
#
# 1 102.2186 16.6011 8.6385 1.0642 0.4874 -39.4505
# 2 16.6011 134.3703 48.7504 -33.2641 -4.3183 -34.3958
# 3 8.6385 48.7504 155.0794 -49.3587 -0.7817 -23.2768
# 4 1.0642 -33.2641 -49.3587 54.5295 -11.5228 -11.8847
# 5 0.4874 -4.3183 -0.7817 -11.5228 40.5208 -1.6554
# 6 -39.4505 -34.3958 -23.2768 -11.8847 -1.6554 52.8423
#
#
#
# Elastic Compliance Matrix: (Units=1/GPa)
#
#
# Indices 1 2 3 4 5 6 
#
# 1 0.016092 0.004427 0.004320 0.011487 0.004426 0.019521
# 2 0.004427 0.015303 0.003773 0.018505 0.007702 0.019332
# 3 0.004320 0.003773 0.013810 0.019756 0.006905 0.016424
# 4 0.011487 0.018505 0.019756 0.061365 0.021454 0.043797
# 5 0.004426 0.007702 0.006905 0.021454 0.032383 0.017199
# 6 0.019521 0.019332 0.016424 0.043797 0.017199 0.063705
#
#
# Mechanical properties :
#
#
# Convention : Reuss Voigt Hill
#
# Bulk Modulus (GPa) = 14.23572 59.96091 37.09832
# Shear Modulus (GPa) = 24.87161 50.75708 37.81435
#
# Velocity S-wave (km/s) = 3.07340 4.39052 3.78962
# Velocity P-wave (km/s) = 4.24275 6.96235 5.76521
#
# Compressibility (1/GPa) = 0.07024581
#
# Stress axis : x y z
#
# Youngs Moduli (GPa) = 62.14241 65.34527 72.41347
#
# Poissons Ratio (x) = -0.28930 -0.31285
# Poissons Ratio (y) = -0.27512 -0.27321
# Poissons Ratio (z) = -0.26847 -0.24654
#
# Static dielectric constant tensor:
#      x y z
#    x 2.032640 0.080440 -0.034830 
#    y 0.080440 2.179790 -0.011240 
#    z -0.034830 -0.011240 2.130640 
# 
# From -- ./inp_files/457452.got.cif
#   From: 2010.05.17/outbox.cif.g08.bks.cpg/sg2_229_cif.got.tgz:457452.got - 2010.06.03 11:33:40.
