data_PCOD9099975
_publ_section_title
;
Structure prediction by ZEFSAII (Michael W. Deem and Ramdas Pophale) SiO2 
 PCOD9099975
Probable space group: P -1
;
_chemical_formula_sum "Si O2"
_cell_formula_units_Z 16
_cell_length_a 11.387357
_cell_length_b 11.817500
_cell_length_c 10.520155
_cell_angle_alpha 128.631061
_cell_angle_beta 59.371360
_cell_angle_gamma 139.651773
_cell_volume 714.417342
_symmetry_space_group_name_H-M "P -1"
_symmetry_group_IT_number 2
_symmetry_cell_setting 'triclinic'
loop_
_space_group_symop_operation_xyz
x,y,z
-x,-y,-z
loop_
_atom_site_type_symbol
_atom_site_label
_atom_site_fract_x
_atom_site_fract_y
_atom_site_fract_z
Si Si1 0.596515 0.962851 0.733369
Si Si2 0.127409 0.660611 0.435023
Si Si3 0.552274 0.288790 0.613506
Si Si4 0.312320 0.576837 0.768059
Si Si5 0.317396 0.379041 0.837101
Si Si6 0.065455 0.966712 0.311485
Si Si7 0.753589 0.370965 0.898950
Si Si8 0.154989 0.323860 0.424758
O O1 0.553878 0.849633 0.546494
O O2 0.448832 0.793908 0.792972
O O3 0.794874 0.059141 0.743647
O O4 0.603478 0.138802 0.827971
O O5 0.334900 0.763800 0.423140
O O6 0.102367 0.576465 0.248844
O O7 0.000000 0.500000 0.500000
O O8 0.054119 0.772628 0.549947
O O9 0.413423 0.298884 0.767002
O O10 0.713296 0.508587 0.630985
O O11 0.401520 0.504638 0.746677
O O12 0.212519 0.434843 0.605400
O O13 0.193570 0.563693 0.937511
O O14 0.109078 0.203616 0.790563
O O15 0.319951 0.521615 0.025468
O O16 0.168208 0.162403 0.313119
O O17 0.000000 0.000000 0.500000
#
# Coordination Sequence:
#
# PCOD9099975 Si02
#       8
#     2   2   2   2   2   2   2   2
#     4  11  21  36  63  91 125 155 199 245 297 365
#     4  10  23  41  64  84 116 163 211 248 292 348
#     4  10  21  40  61  86 115 165 206 242 287 360
#     4   9  20  37  59  93 123 155 187 246 312 357
#     4  10  22  36  59  93 124 156 194 248 308 355
#     4  12  19  32  58  94 121 154 197 245 299 354
#     4  10  23  39  60  92 123 158 196 250 307 355
#     4  10  20  37  62  89 121 156 203 246 295 354
#
# _framework density 22.395872000000001
#
# number of rings (size 3 to 8) (size 9 to 14) (size 15 to 20)
#    0.750    1.000    2.500    1.875    0.000    5.000 
#    0.000    1.250    0.000    1.500    0.000    0.000 
#    0.000    0.000    0.000    0.000    0.000    0.000 
#
# Total GULP energy -89192.620168 kJ/mol
# GULP energy per Si atom -5574.538761 kJ/mol
# Density = 2.234490 g / cm^3
# Si number density = 22.395872 Si / 1000 Ang^3
#
#
#
# Elastic Constant Matrix: (Units=GPa)
#
#
# Indices 1 2 3 4 5 6 
#
# 1 93.9234 7.9595 12.6371 4.9663 -4.1347 27.7844
# 2 7.9595 95.5434 30.5685 13.1869 11.9875 3.0722
# 3 12.6371 30.5685 55.8595 8.2822 -8.8775 6.1426
# 4 4.9663 13.1869 8.2822 36.5651 -6.1263 2.3564
# 5 -4.1347 11.9875 -8.8775 -6.1263 19.8810 -10.6078
# 6 27.7844 3.0722 6.1426 2.3564 -10.6078 21.8854
#
#
#
# Elastic Compliance Matrix: (Units=1/GPa)
#
#
# Indices 1 2 3 4 5 6 
#
# 1 0.020777 0.004642 -0.006108 -0.004421 -0.021340 -0.035183
# 2 0.004642 0.019709 -0.013213 -0.008453 -0.029107 -0.018150
# 3 -0.006108 -0.013213 0.028975 0.002842 0.028508 0.014988
# 4 -0.004421 -0.008453 0.002842 0.033324 0.022934 0.013529
# 5 -0.021340 -0.029107 0.028508 0.022934 0.127138 0.082331
# 6 -0.035183 -0.018150 0.014988 0.013529 0.082331 0.127149
#
#
# Mechanical properties :
#
#
# Convention : Reuss Voigt Hill
#
# Bulk Modulus (GPa) = 24.93441 38.62849 31.78145
# Shear Modulus (GPa) = 12.50631 28.61037 20.55834
#
# Velocity S-wave (km/s) = 2.36566 3.57807 3.03306
# Velocity P-wave (km/s) = 4.31502 5.86136 5.14660
#
# Compressibility (1/GPa) = 0.04010521
#
# Stress axis : x y z
#
# Youngs Moduli (GPa) = 48.12919 50.73742 34.51205
#
# Poissons Ratio (x) = -0.23553 0.21080
# Poissons Ratio (y) = -0.22343 0.45600
# Poissons Ratio (z) = 0.29397 0.67038
#
# Static dielectric constant tensor:
#      x y z
#    x 1.896310 -0.014560 -0.014710 
#    y -0.014560 1.848980 -0.010010 
#    z -0.014710 -0.010010 1.818770 
# 
# From -- ./inp_files/347954.got.cif
#   From: 2010.05.17/outbox.cif.g08.bks.cpg/sg2_174_cif.got.tgz:347954.got - 2010.06.03 11:33:40.
