data_PCOD9099048
_publ_section_title
;
Structure prediction by ZEFSAII (Michael W. Deem and Ramdas Pophale) SiO2 
 PCOD9099048
Probable space group: P -1
;
_chemical_formula_sum "Si O2"
_cell_formula_units_Z 14
_cell_length_a 17.406290
_cell_length_b 8.901838
_cell_length_c 9.974861
_cell_angle_alpha 124.248587
_cell_angle_beta 128.082289
_cell_angle_gamma 98.572102
_cell_volume 650.512675
_symmetry_space_group_name_H-M "P -1"
_symmetry_group_IT_number 2
_symmetry_cell_setting 'triclinic'
loop_
_space_group_symop_operation_xyz
x,y,z
-x,-y,-z
loop_
_atom_site_type_symbol
_atom_site_label
_atom_site_fract_x
_atom_site_fract_y
_atom_site_fract_z
Si Si1 0.597019 0.770982 0.150963
Si Si2 0.389074 0.226114 0.150824
Si Si3 0.536796 0.093128 0.240223
Si Si4 0.047921 0.772603 0.225851
Si Si5 0.039960 0.309755 0.326600
Si Si6 0.166988 0.299089 0.220827
Si Si7 0.038238 0.737132 0.497610
O O1 0.569686 0.940428 0.254629
O O2 0.772260 0.971524 0.455728
O O3 0.500000 0.500000 0.000000
O O4 0.563770 0.704583 0.921662
O O5 0.500000 0.500000 0.500000
O O6 0.406428 0.040919 0.125694
O O7 0.213739 0.031780 0.865620
O O8 0.686167 0.430919 0.565323
O O9 0.500000 0.000000 0.000000
O O10 0.998292 0.745988 0.311197
O O11 0.000000 0.500000 0.000000
O O12 0.970568 0.799150 0.053947
O O13 0.164825 0.386376 0.409737
O O14 0.030097 0.505596 0.372437
O O15 0.059994 0.331720 0.519050
O O16 0.882725 0.979713 0.962498
#
# Coordination Sequence:
#
# PCOD9099048 Si02
#       7
#     2   2   2   2   2   2   2
#     4  10  22  38  60  87 115 153 200 239 287 346
#     4  10  21  39  61  82 117 156 192 233 296 349
#     4  10  20  37  59  82 118 154 193 238 290 346
#     4  11  20  38  60  81 122 155 188 235 298 349
#     4  10  21  35  57  88 114 142 199 244 276 344
#     4  11  21  36  61  88 111 155 198 236 291 348
#     4  10  21  39  56  85 120 151 185 243 296 335
#
# _framework density 21.521484999999998
#
# number of rings (size 3 to 8) (size 9 to 14) (size 15 to 20)
#    0.000    1.714    2.857    2.571    0.000    7.429 
#    0.000    0.714    0.000    0.000    0.000    0.000 
#    0.000    0.000    0.000    0.000    0.000    0.000 
#
# Total GULP energy -78191.767898 kJ/mol
# GULP energy per Si atom -5585.126278 kJ/mol
# Density = 2.147250 g / cm^3
# Si number density = 21.521485 Si / 1000 Ang^3
#
#
#
# Elastic Constant Matrix: (Units=GPa)
#
#
# Indices 1 2 3 4 5 6 
#
# 1 63.9746 14.2037 13.1885 -12.6205 -18.8889 15.8961
# 2 14.2037 87.1820 35.1990 12.6588 2.7705 16.7219
# 3 13.1885 35.1990 102.0871 4.8817 -9.1158 -1.9538
# 4 -12.6205 12.6588 4.8817 36.7322 -5.5724 -6.4253
# 5 -18.8889 2.7705 -9.1158 -5.5724 26.4919 -2.0084
# 6 15.8961 16.7219 -1.9538 -6.4253 -2.0084 30.5402
#
#
#
# Elastic Compliance Matrix: (Units=1/GPa)
#
#
# Indices 1 2 3 4 5 6 
#
# 1 0.028409 -0.005906 -0.000375 0.014124 0.023179 -0.007081
# 2 -0.005906 0.019268 -0.006592 -0.011518 -0.011758 -0.011094
# 3 -0.000375 -0.006592 0.012618 0.002280 0.005657 0.005463
# 4 0.014124 -0.011518 0.002280 0.040550 0.021273 0.009031
# 5 0.023179 -0.011758 0.005657 0.021273 0.062175 0.003300
# 6 -0.007081 -0.011094 0.005463 0.009031 0.003300 0.044970
#
#
# Mechanical properties :
#
#
# Convention : Reuss Voigt Hill
#
# Bulk Modulus (GPa) = 28.94479 42.04734 35.49606
# Shear Modulus (GPa) = 20.38722 31.46303 25.92513
#
# Velocity S-wave (km/s) = 3.08116 3.82767 3.47452
# Velocity P-wave (km/s) = 5.11239 6.25417 5.71188
#
# Compressibility (1/GPa) = 0.03454853
#
# Stress axis : x y z
#
# Youngs Moduli (GPa) = 35.19995 51.90037 79.25480
#
# Poissons Ratio (x) = 0.30653 0.02972
# Poissons Ratio (y) = 0.20789 0.52244
# Poissons Ratio (z) = 0.01320 0.34212
#
# Static dielectric constant tensor:
#      x y z
#    x 1.811640 0.037950 -0.020520 
#    y 0.037950 1.735870 0.054820 
#    z -0.020520 0.054820 1.775010 
# 
# From -- ./inp_files/185679.got.cif
#   From: 2010.05.17/outbox.cif.g08.bks.cpg/sg2_93_cif.got.tgz:185679.got - 2010.06.03 11:33:40.
