data_PCOD9099936
_publ_section_title
;
Structure prediction by ZEFSAII (Michael W. Deem and Ramdas Pophale) SiO2 
 PCOD9099936
Probable space group: P -1
;
_chemical_formula_sum "Si O2"
_cell_formula_units_Z 16
_cell_length_a 11.327015
_cell_length_b 14.007218
_cell_length_c 13.264613
_cell_angle_alpha 132.268243
_cell_angle_beta 33.454119
_cell_angle_gamma 143.253857
_cell_volume 694.049340
_symmetry_space_group_name_H-M "P -1"
_symmetry_group_IT_number 2
_symmetry_cell_setting 'triclinic'
loop_
_space_group_symop_operation_xyz
x,y,z
-x,-y,-z
loop_
_atom_site_type_symbol
_atom_site_label
_atom_site_fract_x
_atom_site_fract_y
_atom_site_fract_z
Si Si1 0.209161 0.153762 0.892170
Si Si2 0.822478 0.509237 0.369362
Si Si3 0.405561 0.911746 0.395911
Si Si4 0.189148 0.789704 0.820447
Si Si5 0.346752 0.498016 0.739433
Si Si6 0.055878 0.073453 0.261204
Si Si7 0.856634 0.146204 0.868486
Si Si8 0.355149 0.733705 0.049752
O O1 0.497373 0.202760 0.750022
O O2 0.140241 0.082188 0.777680
O O3 0.097980 0.258815 0.047306
O O4 0.000000 0.000000 0.000000
O O5 0.794481 0.354610 0.318658
O O6 0.640069 0.548099 0.582589
O O7 0.693155 0.461109 0.314891
O O8 0.127953 0.656748 0.240582
O O9 0.105427 0.853485 0.556033
O O10 0.500000 0.000000 0.500000
O O11 0.581640 0.047949 0.283267
O O12 0.210801 0.827011 0.951296
O O13 0.280190 0.585679 0.927704
O O14 0.145071 0.308658 0.757488
O O15 0.339587 0.182988 0.081294
O O16 0.122497 0.001756 0.255618
O O17 0.675907 0.150138 0.915423
#
# Coordination Sequence:
#
# PCOD9099936 Si02
#       8
#     2   2   2   2   2   2   2   2
#     4   8  17  33  55  76  96 135 183 236 270 317
#     4  10  19  33  56  79 107 156 190 215 257 331
#     4   9  18  34  52  79 101 134 185 240 269 321
#     4  10  16  31  58  81  99 140 198 219 265 323
#     4  10  19  34  55  76 114 155 191 214 253 320
#     4  10  20  32  55  81 109 145 178 228 285 321
#     4  10  18  34  54  80 112 153 185 217 255 331
#     4  11  20  36  50  82 127 145 171 228 275 318
#
# _framework density 23.053118000000001
#
# number of rings (size 3 to 8) (size 9 to 14) (size 15 to 20)
#    0.000    2.250    2.500    1.875    0.000    0.000 
#    6.750    0.625    0.000    7.500    0.000    0.000 
#    0.000    0.000    0.000    0.000    0.000    0.000 
#
# Total GULP energy -89300.356616 kJ/mol
# GULP energy per Si atom -5581.272288 kJ/mol
# Density = 2.300065 g / cm^3
# Si number density = 23.053118 Si / 1000 Ang^3
#
#
#
# Elastic Constant Matrix: (Units=GPa)
#
#
# Indices 1 2 3 4 5 6 
#
# 1 70.8029 24.3502 48.4200 -4.0297 -31.3461 -1.1411
# 2 24.3502 32.9887 19.3636 -7.5464 -26.0409 -0.4724
# 3 48.4200 19.3636 145.8506 -7.2202 -52.6560 3.2637
# 4 -4.0297 -7.5464 -7.2202 29.7012 1.2023 -1.9153
# 5 -31.3461 -26.0409 -52.6560 1.2023 58.5967 -1.4802
# 6 -1.1411 -0.4724 3.2637 -1.9153 -1.4802 21.7503
#
#
#
# Elastic Compliance Matrix: (Units=1/GPa)
#
#
# Indices 1 2 3 4 5 6 
#
# 1 0.022893 -0.012487 -0.005334 -0.001331 0.001975 0.001747
# 2 -0.012487 0.058500 0.005769 0.013757 0.024286 0.002614
# 3 -0.005334 0.005769 0.011694 0.003114 0.010131 -0.000946
# 4 -0.001331 0.013757 0.003114 0.037668 0.007518 0.003590
# 5 0.001975 0.024286 0.010131 0.007518 0.037925 0.002354
# 6 0.001747 0.002614 -0.000946 0.003590 0.002354 0.046743
#
#
# Mechanical properties :
#
#
# Convention : Reuss Voigt Hill
#
# Bulk Modulus (GPa) = 14.49631 48.21217 31.35424
# Shear Modulus (GPa) = 19.04605 32.51020 25.77813
#
# Velocity S-wave (km/s) = 2.87746 3.75938 3.34759
# Velocity P-wave (km/s) = 4.16432 6.30895 5.34529
#
# Compressibility (1/GPa) = 0.06898308
#
# Stress axis : x y z
#
# Youngs Moduli (GPa) = 43.68132 17.09400 85.51242
#
# Poissons Ratio (x) = 0.21346 0.45614
# Poissons Ratio (y) = 0.54547 -0.49336
# Poissons Ratio (z) = 0.23300 -0.09862
#
# Static dielectric constant tensor:
#      x y z
#    x 1.914580 0.015490 -0.029860 
#    y 0.015490 1.854860 -0.016010 
#    z -0.029860 -0.016010 1.916720 
# 
# From -- ./inp_files/297404.got.cif
#   From: 2010.05.17/outbox.cif.g08.bks.cpg/sg2_149_cif.got.tgz:297404.got - 2010.06.03 11:33:40.
