data_PCOD9099384
_publ_section_title
;
Structure prediction by ZEFSAII (Michael W. Deem and Ramdas Pophale) SiO2 
 PCOD9099384
Probable space group: P -1
;
_chemical_formula_sum "Si O2"
_cell_formula_units_Z 16
_cell_length_a 9.440124
_cell_length_b 5.236785
_cell_length_c 19.671972
_cell_angle_alpha 107.391743
_cell_angle_beta 57.753787
_cell_angle_gamma 76.093609
_cell_volume 681.828143
_symmetry_space_group_name_H-M "P -1"
_symmetry_group_IT_number 2
_symmetry_cell_setting 'triclinic'
loop_
_space_group_symop_operation_xyz
x,y,z
-x,-y,-z
loop_
_atom_site_type_symbol
_atom_site_label
_atom_site_fract_x
_atom_site_fract_y
_atom_site_fract_z
Si Si1 0.867868 0.802331 0.996376
Si Si2 0.548867 0.785463 0.361299
Si Si3 0.516726 0.441666 0.137266
Si Si4 0.683187 0.463036 0.670081
Si Si5 0.675619 0.572964 0.456105
Si Si6 0.736838 0.692705 0.158370
Si Si7 0.067537 0.240424 0.403843
Si Si8 0.368412 0.363418 0.049698
O O1 0.844662 0.795984 0.083707
O O2 0.713375 0.144738 0.040038
O O3 0.796522 0.596166 0.955671
O O4 0.088023 0.660102 0.905862
O O5 0.436006 0.592771 0.363387
O O6 0.690166 0.641142 0.378096
O O7 0.646781 0.803134 0.265831
O O8 0.393945 0.122155 0.455527
O O9 0.474451 0.388639 0.219617
O O10 0.568159 0.708555 0.154698
O O11 0.331222 0.507042 0.145992
O O12 0.774429 0.683161 0.661125
O O13 0.839077 0.110011 0.622164
O O14 0.500000 0.500000 0.500000
O O15 0.882430 0.321706 0.411590
O O16 0.000000 0.500000 0.500000
O O17 0.500000 0.500000 0.000000
O O18 0.500000 0.000000 0.000000
#
# Coordination Sequence:
#
# PCOD9099384 Si02
#       8
#     2   2   2   2   2   2   2   2
#     4  10  21  37  64  91 130 175 220 271 332 388
#     4  10  24  42  67  99 135 179 226 280 344 407
#     4  10  22  39  65  89 134 169 226 264 338 387
#     4  11  26  42  71 102 134 177 228 281 332 408
#     4  11  25  44  70  94 140 178 221 279 354 404
#     4  10  21  39  63  95 127 171 227 273 324 400
#     4  12  25  44  70 101 134 174 228 280 340 409
#     4  10  20  37  60  87 121 166 209 262 321 379
#
# _framework density 23.466322999999999
#
# number of rings (size 3 to 8) (size 9 to 14) (size 15 to 20)
#    0.000    1.500    2.500    1.500    7.000    2.000 
#    0.000    1.250    0.000    0.000    0.000    0.000 
#    0.000    0.000    0.000    0.000    0.000    0.000 
#
# Total GULP energy -89114.963987 kJ/mol
# GULP energy per Si atom -5569.685249 kJ/mol
# Density = 2.341291 g / cm^3
# Si number density = 23.466323 Si / 1000 Ang^3
#
#
#
# Elastic Constant Matrix: (Units=GPa)
#
#
# Indices 1 2 3 4 5 6 
#
# 1 147.9612 20.1699 51.0726 -5.4735 16.3364 -5.1501
# 2 20.1699 68.0180 24.7300 5.9399 0.5676 -2.1523
# 3 51.0726 24.7300 90.3169 10.1106 12.3574 -10.3223
# 4 -5.4735 5.9399 10.1106 21.8844 -7.1987 -9.6565
# 5 16.3364 0.5676 12.3574 -7.1987 36.0782 -4.4373
# 6 -5.1501 -2.1523 -10.3223 -9.6565 -4.4373 45.5563
#
#
#
# Elastic Compliance Matrix: (Units=1/GPa)
#
#
# Indices 1 2 3 4 5 6 
#
# 1 0.009010 -0.001226 -0.005040 0.004805 -0.001288 0.000712
# 2 -0.001226 0.016663 -0.003717 -0.003185 0.000834 -0.000788
# 3 -0.005040 -0.003717 0.016779 -0.009489 -0.005234 0.000535
# 4 0.004805 -0.003185 -0.009489 0.062944 0.015292 0.013074
# 5 -0.001288 0.000834 -0.005234 0.015292 0.033776 0.005239
# 6 0.000712 -0.000788 0.000535 0.013074 0.005239 0.025397
#
#
# Mechanical properties :
#
#
# Convention : Reuss Voigt Hill
#
# Bulk Modulus (GPa) = 44.46857 55.36013 49.91435
# Shear Modulus (GPa) = 26.03757 34.72537 30.38147
#
# Velocity S-wave (km/s) = 3.33464 3.85098 3.60207
# Velocity P-wave (km/s) = 5.81528 6.58908 6.21424
#
# Compressibility (1/GPa) = 0.02248779
#
# Stress axis : x y z
#
# Youngs Moduli (GPa) = 110.98891 60.01254 59.59724
#
# Poissons Ratio (x) = 0.07356 0.30035
# Poissons Ratio (y) = 0.13605 0.22152
# Poissons Ratio (z) = 0.55934 0.22306
#
# Static dielectric constant tensor:
#      x y z
#    x 1.333540 -0.349250 0.416820 
#    y -0.349250 1.875690 0.093360 
#    z 0.416820 0.093360 1.797780 
# 
# From -- ./inp_files/585775.got.cif
#   From: 2010.05.17/outbox.cif.g08.bks.cpg/sg2_293_cif.got.tgz:585775.got - 2010.06.03 11:33:40.
