data_PCOD9099118
_publ_section_title
;
Structure prediction by ZEFSAII (Michael W. Deem and Ramdas Pophale) SiO2 
 PCOD9099118
Probable space group: P -1
;
_chemical_formula_sum "Si O2"
_cell_formula_units_Z 16
_cell_length_a 7.861666
_cell_length_b 7.636331
_cell_length_c 13.891040
_cell_angle_alpha 75.880618
_cell_angle_beta 116.655533
_cell_angle_gamma 113.586336
_cell_volume 680.926265
_symmetry_space_group_name_H-M "P -1"
_symmetry_group_IT_number 2
_symmetry_cell_setting 'triclinic'
loop_
_space_group_symop_operation_xyz
x,y,z
-x,-y,-z
loop_
_atom_site_type_symbol
_atom_site_label
_atom_site_fract_x
_atom_site_fract_y
_atom_site_fract_z
Si Si1 0.378690 0.636335 0.488615
Si Si2 0.157583 0.830623 0.258783
Si Si3 0.995566 0.299112 0.450099
Si Si4 0.919400 0.437937 0.212603
Si Si5 0.190165 0.468969 0.109516
Si Si6 0.450651 0.687324 0.999235
Si Si7 0.770981 0.909026 0.923717
Si Si8 0.212110 0.047006 0.422779
O O1 0.500000 0.500000 0.500000
O O2 0.286714 0.725140 0.365593
O O3 0.180868 0.484628 0.511490
O O4 0.556164 0.818290 0.553231
O O5 0.955361 0.665164 0.195028
O O6 0.274526 0.948480 0.182640
O O7 0.114947 0.975973 0.304096
O O8 0.109333 0.170891 0.441435
O O9 0.894881 0.367446 0.324809
O O10 0.841758 0.152841 0.503716
O O11 0.736528 0.318911 0.115966
O O12 0.122524 0.441208 0.206604
O O13 0.238142 0.285084 0.108017
O O14 0.378212 0.648226 0.095806
O O15 0.000000 0.500000 0.000000
O O16 0.634389 0.867770 0.989011
O O17 0.500000 0.500000 0.000000
O O18 0.000000 0.000000 0.000000
#
# Coordination Sequence:
#
# PCOD9099118 Si02
#       8
#     2   2   2   2   2   2   2   2
#     4   9  20  38  58  85 123 158 199 249 305 361
#     4  11  22  36  60  89 118 158 204 253 305 356
#     4   9  20  37  62  84 122 160 193 254 311 365
#     4  10  20  37  59  85 120 158 205 243 312 371
#     4   9  18  37  60  80 116 161 193 248 309 361
#     4   9  19  36  59  84 114 157 198 245 305 362
#     4  11  22  38  62  89 123 153 205 263 303 363
#     4  10  20  38  60  88 122 154 204 252 304 365
#
# _framework density 23.497402999999998
#
# number of rings (size 3 to 8) (size 9 to 14) (size 15 to 20)
#    0.000    2.250    0.000    3.375    1.750    2.000 
#    2.250    5.625   35.750    0.000    0.000    0.000 
#    0.000    0.000    0.000    0.000    0.000    0.000 
#
# Total GULP energy -89275.372762 kJ/mol
# GULP energy per Si atom -5579.710798 kJ/mol
# Density = 2.344392 g / cm^3
# Si number density = 23.497403 Si / 1000 Ang^3
#
#
#
# Elastic Constant Matrix: (Units=GPa)
#
#
# Indices 1 2 3 4 5 6 
#
# 1 75.5318 29.5218 16.6245 -10.3155 -17.3652 28.7132
# 2 29.5218 134.3969 22.4343 -9.1810 -11.6164 20.9873
# 3 16.6245 22.4343 65.6802 -20.9517 -19.8755 11.1917
# 4 -10.3155 -9.1810 -20.9517 45.7327 0.7448 -3.7507
# 5 -17.3652 -11.6164 -19.8755 0.7448 31.1282 -10.2121
# 6 28.7132 20.9873 11.1917 -3.7507 -10.2121 49.4613
#
#
#
# Elastic Compliance Matrix: (Units=1/GPa)
#
#
# Indices 1 2 3 4 5 6 
#
# 1 0.019440 -0.002135 0.000665 0.003423 0.007531 -0.008715
# 2 -0.002135 0.008558 -0.001965 0.000178 0.000117 -0.001909
# 3 0.000665 -0.001965 0.023384 0.010144 0.013933 -0.001197
# 4 0.003423 0.000178 0.010144 0.027137 0.007561 -0.000739
# 5 0.007531 0.000117 0.013933 0.007561 0.045898 0.002475
# 6 -0.008715 -0.001909 -0.001197 -0.000739 0.002475 0.026813
#
#
# Mechanical properties :
#
#
# Convention : Reuss Voigt Hill
#
# Bulk Modulus (GPa) = 22.46643 45.86336 34.16489
# Shear Modulus (GPa) = 28.91196 39.06634 33.98915
#
# Velocity S-wave (km/s) = 3.51156 4.08190 3.80742
# Velocity P-wave (km/s) = 5.10131 6.46349 5.82237
#
# Compressibility (1/GPa) = 0.04451086
#
# Stress axis : x y z
#
# Youngs Moduli (GPa) = 51.44109 116.84715 42.76375
#
# Poissons Ratio (x) = 0.24952 -0.02844
# Poissons Ratio (y) = 0.10985 0.08404
# Poissons Ratio (z) = -0.03421 0.22964
#
# Static dielectric constant tensor:
#      x y z
#    x 1.975130 -0.020190 -0.009340 
#    y -0.020190 1.963530 0.003850 
#    z -0.009340 0.003850 1.843830 
# 
# From -- ./inp_files/494717.got.cif
#   From: 2010.05.17/outbox.cif.g08.bks.cpg/sg2_248_cif.got.tgz:494717.got - 2010.06.03 11:33:40.
