data_PCOD9099216
_publ_section_title
;
Structure prediction by ZEFSAII (Michael W. Deem and Ramdas Pophale) SiO2 
 PCOD9099216
Probable space group: P -1
;
_chemical_formula_sum "Si O2"
_cell_formula_units_Z 14
_cell_length_a 9.596679
_cell_length_b 17.816391
_cell_length_c 8.615031
_cell_angle_alpha 31.245556
_cell_angle_beta 134.873604
_cell_angle_gamma 133.406213
_cell_volume 527.140209
_symmetry_space_group_name_H-M "P -1"
_symmetry_group_IT_number 2
_symmetry_cell_setting 'triclinic'
loop_
_space_group_symop_operation_xyz
x,y,z
-x,-y,-z
loop_
_atom_site_type_symbol
_atom_site_label
_atom_site_fract_x
_atom_site_fract_y
_atom_site_fract_z
Si Si1 0.863794 0.140641 0.330459
Si Si2 0.046326 0.160861 0.123049
Si Si3 0.573473 0.754418 0.499710
Si Si4 0.719940 0.703468 0.198669
Si Si5 0.813322 0.582116 0.787498
Si Si6 0.602655 0.946560 0.882422
Si Si7 0.675208 0.291729 0.326179
O O1 0.632970 0.090587 0.290010
O O2 0.882152 0.172642 0.102077
O O3 0.993322 0.283594 0.265333
O O4 0.970078 0.001938 0.674325
O O5 0.249983 0.184908 0.344573
O O6 0.100103 0.273638 0.825036
O O7 0.640000 0.626680 0.679695
O O8 0.381780 0.692269 0.566769
O O9 0.577814 0.884107 0.149238
O O10 0.733749 0.579580 0.554218
O O11 0.724162 0.849201 0.051027
O O12 0.516255 0.691707 0.960922
O O13 0.842055 0.427481 0.150332
O O14 0.693126 0.121480 0.632456
#
# Coordination Sequence:
#
# PCOD9099216 Si02
#       7
#     2   2   2   2   2   2   2
#     4  10  20  37  59  90 119 150 194 252 289 343
#     4   9  19  37  62  85 117 154 203 235 288 349
#     4   9  19  37  62  85 111 160 202 235 278 363
#     4  10  21  39  62  86 114 163 198 235 283 367
#     4  10  22  37  58  86 124 154 193 238 305 347
#     4  11  21  37  66  89 115 148 209 243 286 339
#     4  11  20  36  60  89 115 156 198 245 283 353
#
# _framework density 26.558399000000001
#
# number of rings (size 3 to 8) (size 9 to 14) (size 15 to 20)
#    0.000    2.000    2.857    1.714    0.000    0.571 
#    0.000    4.286    0.000    3.429    0.000    0.000 
#    0.000    0.000    0.000    0.000    0.000    0.000 
#
# Total GULP energy -78429.827487 kJ/mol
# GULP energy per Si atom -5602.130535 kJ/mol
# Density = 2.649795 g / cm^3
# Si number density = 26.558399 Si / 1000 Ang^3
#
#
#
# Elastic Constant Matrix: (Units=GPa)
#
#
# Indices 1 2 3 4 5 6 
#
# 1 80.1968 16.3981 16.5676 4.2016 -5.3895 -21.2655
# 2 16.3981 79.8324 46.3268 3.5188 -14.4869 0.7247
# 3 16.5676 46.3268 180.4608 3.4117 -35.4036 -4.0691
# 4 4.2016 3.5188 3.4117 34.8452 0.8895 -2.7825
# 5 -5.3895 -14.4869 -35.4036 0.8895 38.6214 5.7657
# 6 -21.2655 0.7247 -4.0691 -2.7825 5.7657 38.3461
#
#
#
# Elastic Compliance Matrix: (Units=1/GPa)
#
#
# Indices 1 2 3 4 5 6 
#
# 1 0.015491 -0.003026 -0.000590 -0.000794 -0.000786 0.008646
# 2 -0.003026 0.015616 -0.003191 -0.001202 0.002962 -0.002845
# 3 -0.000590 -0.003191 0.007533 -0.000518 0.005692 -0.000361
# 4 -0.000794 -0.001202 -0.000518 0.029173 -0.001999 0.001945
# 5 -0.000786 0.002962 0.005692 -0.001999 0.032901 -0.004980
# 6 0.008646 -0.002845 -0.000361 0.001945 -0.004980 0.031779
#
#
# Mechanical properties :
#
#
# Convention : Reuss Voigt Hill
#
# Bulk Modulus (GPa) = 39.95765 55.45277 47.70521
# Shear Modulus (GPa) = 32.37317 39.77572 36.07445
#
# Velocity S-wave (km/s) = 3.49512 3.87417 3.68952
# Velocity P-wave (km/s) = 5.60051 6.39822 6.01261
#
# Compressibility (1/GPa) = 0.02502649
#
# Stress axis : x y z
#
# Youngs Moduli (GPa) = 64.55218 64.03650 132.74758
#
# Poissons Ratio (x) = 0.19377 0.07828
# Poissons Ratio (y) = 0.19533 0.42364
# Poissons Ratio (z) = 0.03807 0.20436
#
# Static dielectric constant tensor:
#      x y z
#    x 2.125060 0.045780 -0.004180 
#    y 0.045780 2.070290 0.020000 
#    z -0.004180 0.020000 2.048230 
# 
# From -- ./inp_files/277269.got.cif
#   From: 2010.05.17/outbox.cif.g08.bks.cpg/sg2_139_cif.got.tgz:277269.got - 2010.06.03 11:33:40.
