data_PCOD9099317
_publ_section_title
;
Structure prediction by ZEFSAII (Michael W. Deem and Ramdas Pophale) SiO2 
 PCOD9099317
Probable space group: P -1
;
_chemical_formula_sum "Si O2"
_cell_formula_units_Z 14
_cell_length_a 19.820186
_cell_length_b 6.359503
_cell_length_c 9.378645
_cell_angle_alpha 104.087638
_cell_angle_beta 39.679556
_cell_angle_gamma 117.179865
_cell_volume 659.161721
_symmetry_space_group_name_H-M "P -1"
_symmetry_group_IT_number 2
_symmetry_cell_setting 'triclinic'
loop_
_space_group_symop_operation_xyz
x,y,z
-x,-y,-z
loop_
_atom_site_type_symbol
_atom_site_label
_atom_site_fract_x
_atom_site_fract_y
_atom_site_fract_z
Si Si1 0.204968 0.388128 0.699634
Si Si2 0.972198 0.261726 0.415046
Si Si3 0.620472 0.598040 0.153631
Si Si4 0.584065 0.279344 0.413320
Si Si5 0.154942 0.073512 0.005368
Si Si6 0.223184 0.257676 0.342154
Si Si7 0.956526 0.558188 0.250689
O O1 0.300740 0.622765 0.660541
O O2 0.101983 0.444372 0.808059
O O3 0.133243 0.378822 0.494460
O O4 0.164715 0.176191 0.846414
O O5 0.854311 0.026316 0.607559
O O6 0.958954 0.329798 0.284028
O O7 0.000000 0.500000 0.500000
O O8 0.079770 0.189498 0.230319
O O9 0.619016 0.376627 0.211622
O O10 0.494409 0.594817 0.374032
O O11 0.716912 0.827850 0.119476
O O12 0.669188 0.623879 0.919986
O O13 0.500000 0.000000 0.500000
O O14 0.079666 0.791010 0.094347
O O15 0.254838 0.306057 0.466243
#
# Coordination Sequence:
#
# PCOD9099317 Si02
#       7
#     2   2   2   2   2   2   2
#     4   9  21  41  56  84 122 149 194 241 288 338
#     4  11  21  33  57  91 122 157 192 227 282 348
#     4  10  21  40  63  83 113 154 189 241 295 333
#     4  10  23  43  62  86 108 149 203 242 284 349
#     4  10  20  37  60  84 122 155 191 233 280 354
#     4   9  21  38  56  85 121 146 190 239 284 345
#     4   9  20  36  55  88 119 154 187 230 288 335
#
# _framework density 21.239099
#
# number of rings (size 3 to 8) (size 9 to 14) (size 15 to 20)
#    0.857    1.429    0.000    2.143    0.000    9.143 
#    7.714    0.714    0.000    0.000    0.000    0.000 
#    0.000    0.000    0.000    0.000    0.000    0.000 
#
# Total GULP energy -78149.982736 kJ/mol
# GULP energy per Si atom -5582.141624 kJ/mol
# Density = 2.119076 g / cm^3
# Si number density = 21.239099 Si / 1000 Ang^3
#
#
#
# Elastic Constant Matrix: (Units=GPa)
#
#
# Indices 1 2 3 4 5 6 
#
# 1 68.7073 -5.6521 4.2801 -3.9311 2.6903 1.0641
# 2 -5.6521 64.5040 9.6775 -5.7343 3.8231 14.6239
# 3 4.2801 9.6775 106.1196 -6.4709 30.0686 4.2291
# 4 -3.9311 -5.7343 -6.4709 33.8596 7.1229 -0.0618
# 5 2.6903 3.8231 30.0686 7.1229 38.7983 2.2303
# 6 1.0641 14.6239 4.2291 -0.0618 2.2303 16.3968
#
#
#
# Elastic Compliance Matrix: (Units=1/GPa)
#
#
# Indices 1 2 3 4 5 6 
#
# 1 0.014984 0.002254 -0.000152 0.002387 -0.001424 -0.002741
# 2 0.002254 0.020262 -0.000609 0.003830 -0.001357 -0.017861
# 3 -0.000152 -0.000609 0.012828 0.004566 -0.010635 -0.001292
# 4 0.002387 0.003830 0.004566 0.033437 -0.010033 -0.003257
# 5 -0.001424 -0.001357 -0.010635 -0.010033 0.036143 -0.000908
# 6 -0.002741 -0.017861 -0.001292 -0.003257 -0.000908 0.077540
#
#
# Mechanical properties :
#
#
# Convention : Reuss Voigt Hill
#
# Bulk Modulus (GPa) = 19.58428 28.43800 24.01114
# Shear Modulus (GPa) = 23.89735 33.21263 28.55499
#
# Velocity S-wave (km/s) = 3.35798 3.95872 3.67066
# Velocity P-wave (km/s) = 4.92702 5.85780 5.41246
#
# Compressibility (1/GPa) = 0.05106136
#
# Stress axis : x y z
#
# Youngs Moduli (GPa) = 66.73731 49.35338 77.95220
#
# Poissons Ratio (x) = -0.11123 0.01181
# Poissons Ratio (y) = -0.15040 0.04745
# Poissons Ratio (z) = 0.01011 0.03004
#
# Static dielectric constant tensor:
#      x y z
#    x 1.787220 0.011470 0.041860 
#    y 0.011470 1.757230 0.051600 
#    z 0.041860 0.051600 1.786350 
# 
# From -- ./inp_files/339834.got.cif
#   From: 2010.05.17/outbox.cif.g08.bks.cpg/sg2_170_cif.got.tgz:339834.got - 2010.06.03 11:33:40.
