data_PCOD9099028
_publ_section_title
;
Structure prediction by ZEFSAII (Michael W. Deem and Ramdas Pophale) SiO2 
 PCOD9099028
Probable space group: P -1
;
_chemical_formula_sum "Si O2"
_cell_formula_units_Z 14
_cell_length_a 13.866456
_cell_length_b 9.345538
_cell_length_c 11.459565
_cell_angle_alpha 103.152873
_cell_angle_beta 73.129789
_cell_angle_gamma 151.619316
_cell_volume 674.241884
_symmetry_space_group_name_H-M "P -1"
_symmetry_group_IT_number 2
_symmetry_cell_setting 'triclinic'
loop_
_space_group_symop_operation_xyz
x,y,z
-x,-y,-z
loop_
_atom_site_type_symbol
_atom_site_label
_atom_site_fract_x
_atom_site_fract_y
_atom_site_fract_z
Si Si1 0.530909 0.213370 0.031512
Si Si2 0.868845 0.706748 0.198669
Si Si3 0.638926 0.982217 0.423085
Si Si4 0.679897 0.769063 0.894172
Si Si5 0.192625 0.494840 0.578317
Si Si6 0.628513 0.404213 0.766415
Si Si7 0.935380 0.089388 0.388003
O O1 0.692367 0.463009 0.120872
O O2 0.343101 0.088258 0.097660
O O3 0.603341 0.342954 0.899572
O O4 0.500000 0.000000 0.000000
O O5 0.856289 0.569627 0.279766
O O6 0.860157 0.846762 0.302763
O O7 0.086509 0.969390 0.103302
O O8 0.420225 0.711877 0.518995
O O9 0.562390 0.889219 0.298460
O O10 0.775522 0.302269 0.448597
O O11 0.770225 0.006711 0.411382
O O12 0.646457 0.603483 0.775297
O O13 0.500000 0.500000 0.000000
O O14 0.008016 0.179114 0.514359
O O15 0.839822 0.595938 0.690308
#
# Coordination Sequence:
#
# PCOD9099028 Si02
#       7
#     2   2   2   2   2   2   2
#     4  11  23  37  57  86 116 149 189 233 285 341
#     4  11  23  38  59  85 116 151 188 236 285 333
#     4  10  20  37  59  81 114 152 185 232 282 329
#     4   9  21  39  57  80 114 150 190 233 277 333
#     4  10  22  37  55  86 117 145 188 234 281 335
#     4   9  20  37  56  82 111 145 192 231 273 338
#     4  10  21  37  60  82 107 150 194 231 277 334
#
# _framework density 20.764063
#
# number of rings (size 3 to 8) (size 9 to 14) (size 15 to 20)
#    0.000    2.000    0.000    2.571    0.000   10.857 
#    0.000    0.000    0.000    0.000    0.000    0.000 
#    0.000    0.000    0.000    0.000    0.000    0.000 
#
# Total GULP energy -78013.524436 kJ/mol
# GULP energy per Si atom -5572.394603 kJ/mol
# Density = 2.071680 g / cm^3
# Si number density = 20.764063 Si / 1000 Ang^3
#
#
#
# Elastic Constant Matrix: (Units=GPa)
#
#
# Indices 1 2 3 4 5 6 
#
# 1 115.7188 37.4358 5.1079 -4.4946 -27.1650 -2.1796
# 2 37.4358 55.2359 15.6903 19.1318 -5.0695 0.2660
# 3 5.1079 15.6903 79.0585 10.5215 12.6294 6.3238
# 4 -4.4946 19.1318 10.5215 39.1127 0.4379 -7.9548
# 5 -27.1650 -5.0695 12.6294 0.4379 31.5800 2.5284
# 6 -2.1796 0.2660 6.3238 -7.9548 2.5284 29.9999
#
#
#
# Elastic Compliance Matrix: (Units=1/GPa)
#
#
# Indices 1 2 3 4 5 6 
#
# 1 0.015918 -0.012170 -0.001963 0.008780 0.012164 0.002981
# 2 -0.012170 0.032911 -0.002391 -0.017852 -0.003573 -0.005105
# 3 -0.001963 -0.002391 0.015311 -0.003841 -0.007846 -0.003706
# 4 0.008780 -0.017852 -0.003841 0.038615 0.004771 0.011443
# 5 0.012164 -0.003573 -0.007846 0.004771 0.044621 0.000074
# 6 0.002981 -0.005105 -0.003706 0.011443 0.000074 0.037405
#
#
# Mechanical properties :
#
#
# Convention : Reuss Voigt Hill
#
# Bulk Modulus (GPa) = 32.16150 40.72013 36.44082
# Shear Modulus (GPa) = 21.91139 32.92382 27.41760
#
# Velocity S-wave (km/s) = 3.25199 3.98630 3.63772
# Velocity P-wave (km/s) = 5.44273 6.39069 5.93566
#
# Compressibility (1/GPa) = 0.03109308
#
# Stress axis : x y z
#
# Youngs Moduli (GPa) = 62.82259 30.38493 65.31218
#
# Poissons Ratio (x) = 0.36977 0.12823
# Poissons Ratio (y) = 0.76453 0.15613
# Poissons Ratio (z) = 0.12334 0.07264
#
# Static dielectric constant tensor:
#      x y z
#    x 1.788780 -0.049380 -0.030380 
#    y -0.049380 1.774440 0.001590 
#    z -0.030380 0.001590 1.760450 
# 
# From -- ./inp_files/38938.got.cif
#   From: 2010.05.17/outbox.cif.g08.bks.cpg/sg2_20_cif.got.tgz:38938.got - 2010.06.03 11:33:40.
