data_PCOD9099939
_publ_section_title
;
Structure prediction by ZEFSAII (Michael W. Deem and Ramdas Pophale) SiO2 
 PCOD9099939
Probable space group: P -1
;
_chemical_formula_sum "Si O2"
_cell_formula_units_Z 14
_cell_length_a 7.932027
_cell_length_b 6.900764
_cell_length_c 17.299857
_cell_angle_alpha 55.973757
_cell_angle_beta 128.466863
_cell_angle_gamma 121.367788
_cell_volume 592.386469
_symmetry_space_group_name_H-M "P -1"
_symmetry_group_IT_number 2
_symmetry_cell_setting 'triclinic'
loop_
_space_group_symop_operation_xyz
x,y,z
-x,-y,-z
loop_
_atom_site_type_symbol
_atom_site_label
_atom_site_fract_x
_atom_site_fract_y
_atom_site_fract_z
Si Si1 0.226116 0.598700 0.939549
Si Si2 0.375502 0.629811 0.555365
Si Si3 0.158194 0.156830 0.119022
Si Si4 0.126991 0.352402 0.286254
Si Si5 0.699678 0.870653 0.000621
Si Si6 0.018671 0.166355 0.593390
Si Si7 0.204917 0.791048 0.326515
O O1 0.001987 0.645017 0.831505
O O2 0.271353 0.403968 0.931898
O O3 0.560760 0.172100 0.049703
O O4 0.212506 0.439408 0.049091
O O5 0.620768 0.664800 0.648662
O O6 0.204424 0.765002 0.516702
O O7 0.388421 0.732737 0.448714
O O8 0.235738 0.349081 0.580044
O O9 0.264538 0.046509 0.243444
O O10 0.239447 0.044464 0.089067
O O11 0.889902 0.042388 0.068170
O O12 0.140804 0.587973 0.288626
O O13 0.000029 0.115517 0.351810
O O14 0.994840 0.218784 0.666923
#
# Coordination Sequence:
#
# PCOD9099939 Si02
#       7
#     2   2   2   2   2   2   2
#     4   9  18  30  54  86 114 146 191 227 284 344
#     4   9  22  44  55  84 124 147 191 245 288 340
#     4   9  15  32  54  78 115 149 177 236 284 320
#     4  12  20  37  64  88 110 154 197 234 286 345
#     4   8  15  31  48  84 115 145 185 226 283 338
#     4   9  23  42  56  82 123 153 186 244 291 333
#     4  10  20  37  62  88 113 150 199 232 286 349
#
# _framework density 23.633220000000001
#
# number of rings (size 3 to 8) (size 9 to 14) (size 15 to 20)
#    1.714    0.857    1.429    0.857    0.000    2.857 
#    0.000    6.429    0.000    1.714    0.000    0.000 
#    0.000    0.000    0.000    0.000    0.000    0.000 
#
# Total GULP energy -78073.962632 kJ/mol
# GULP energy per Si atom -5576.711617 kJ/mol
# Density = 2.357943 g / cm^3
# Si number density = 23.633220 Si / 1000 Ang^3
#
#
#
# Elastic Constant Matrix: (Units=GPa)
#
#
# Indices 1 2 3 4 5 6 
#
# 1 63.3797 27.4331 52.1822 8.8375 -0.4326 12.1817
# 2 27.4331 99.0240 56.3210 5.2011 5.7669 21.7001
# 3 52.1822 56.3210 162.0582 4.4466 7.9901 33.1130
# 4 8.8375 5.2011 4.4466 35.1467 -3.0695 1.3190
# 5 -0.4326 5.7669 7.9901 -3.0695 5.6430 2.3955
# 6 12.1817 21.7001 33.1130 1.3190 2.3955 43.9914
#
#
#
# Elastic Compliance Matrix: (Units=1/GPa)
#
#
# Indices 1 2 3 4 5 6 
#
# 1 0.023475 -0.003037 -0.006982 -0.003414 0.013083 -0.000357
# 2 -0.003037 0.013846 -0.002581 -0.001721 -0.010205 -0.003439
# 3 -0.006982 -0.002581 0.010747 -0.000052 -0.011333 -0.004264
# 4 -0.003414 -0.001721 -0.000052 0.031200 0.018590 -0.000114
# 5 0.013083 -0.010205 -0.011333 0.018590 0.215807 -0.002368
# 6 -0.000357 -0.003439 -0.004264 -0.000114 -0.002368 0.027869
#
#
# Mechanical properties :
#
#
# Convention : Reuss Voigt Hill
#
# Bulk Modulus (GPa) = 43.72783 66.25940 54.99362
# Shear Modulus (GPa) = 14.05416 29.52460 21.78938
#
# Velocity S-wave (km/s) = 2.44125 3.53836 3.03971
# Velocity P-wave (km/s) = 5.14676 6.69259 5.96992
#
# Compressibility (1/GPa) = 0.02286873
#
# Stress axis : x y z
#
# Youngs Moduli (GPa) = 42.59928 72.22188 93.04656
#
# Poissons Ratio (x) = 0.21931 0.64963
# Poissons Ratio (y) = 0.12936 0.24018
# Poissons Ratio (z) = 0.29742 0.18642
#
# Static dielectric constant tensor:
#      x y z
#    x 1.996580 -0.075570 0.020120 
#    y -0.075570 1.905830 -0.021240 
#    z 0.020120 -0.021240 1.883920 
# 
# From -- ./inp_files/586635.got.cif
#   From: 2010.05.17/outbox.cif.g08.bks.cpg/sg2_294_cif.got.tgz:586635.got - 2010.06.03 11:33:40.
