data_PCOD9099768
_publ_section_title
;
Structure prediction by ZEFSAII (Michael W. Deem and Ramdas Pophale) SiO2 
 PCOD9099768
Probable space group: P -1
;
_chemical_formula_sum "Si O2"
_cell_formula_units_Z 11
_cell_length_a 8.732073
_cell_length_b 12.125030
_cell_length_c 11.199013
_cell_angle_alpha 148.977289
_cell_angle_beta 138.942744
_cell_angle_gamma 37.156852
_cell_volume 359.350653
_symmetry_space_group_name_H-M "P -1"
_symmetry_group_IT_number 2
_symmetry_cell_setting 'triclinic'
loop_
_space_group_symop_operation_xyz
x,y,z
-x,-y,-z
loop_
_atom_site_type_symbol
_atom_site_label
_atom_site_fract_x
_atom_site_fract_y
_atom_site_fract_z
Si Si1 0.903085 0.292372 0.403839
Si Si2 0.446529 0.285863 0.714827
Si Si3 0.629359 0.127835 0.922298
Si Si4 0.376320 0.615099 0.333549
Si Si5 0.000000 0.500000 0.000000
Si Si6 0.791283 0.870066 0.002882
O O1 0.621486 0.511650 0.468832
O O2 0.143614 0.349938 0.598423
O O3 0.921480 0.054530 0.257097
O O4 0.830776 0.237928 0.174284
O O5 0.580258 0.098766 0.729360
O O6 0.564951 0.262334 0.630694
O O7 0.500000 0.500000 0.000000
O O8 0.370451 0.354274 0.039522
O O9 0.728444 0.897409 0.848922
O O10 0.091037 0.707796 0.300144
O O11 0.938081 0.644229 0.961431
O O12 0.500000 0.000000 0.000000
#
# Coordination Sequence:
#
# PCOD9099768 Si02
#       6
#     2   2   2   2   1   2
#     4   8  17  32  51  84 105 135 183 220 258 318
#     4  10  16  31  57  82 104 141 180 220 269 306
#     4   7  17  31  51  80 103 134 176 222 254 309
#     4   8  18  27  53  82 104 137 180 212 263 324
#     4  12  16  34  62  74 108 152 168 216 276 316
#     4   9  17  34  54  82 105 140 182 211 265 321
#
# _framework density 30.610768
#
# number of rings (size 3 to 8) (size 9 to 14) (size 15 to 20)
#    2.182    0.727    3.636    0.545    0.000    0.000 
#    0.000    2.727    0.000    9.818    0.000    0.000 
#    0.000    0.000    0.000    0.000    0.000    0.000 
#
# Total GULP energy -61302.076937 kJ/mol
# GULP energy per Si atom -5572.916085 kJ/mol
# Density = 3.054110 g / cm^3
# Si number density = 30.610768 Si / 1000 Ang^3
#
#
#
# Elastic Constant Matrix: (Units=GPa)
#
#
# Indices 1 2 3 4 5 6 
#
# 1 153.7724 66.6549 82.8542 -7.2297 34.1790 39.0814
# 2 66.6549 268.2120 83.4665 -25.0906 28.8011 59.8740
# 3 82.8542 83.4665 209.0245 -45.2870 56.3479 22.4594
# 4 -7.2297 -25.0906 -45.2870 72.9628 5.9959 8.3403
# 5 34.1790 28.8011 56.3479 5.9959 87.1738 6.0810
# 6 39.0814 59.8740 22.4594 8.3403 6.0810 62.6509
#
#
#
# Elastic Compliance Matrix: (Units=1/GPa)
#
#
# Indices 1 2 3 4 5 6 
#
# 1 0.009658 -0.000389 -0.002872 -0.000332 -0.001469 -0.004436
# 2 -0.000389 0.005442 -0.000837 0.001939 -0.000901 -0.004828
# 3 -0.002872 -0.000837 0.008715 0.005301 -0.004540 -0.000798
# 4 -0.000332 0.001939 0.005301 0.018663 -0.004833 -0.005562
# 5 -0.001469 -0.000901 -0.004540 -0.004833 0.015434 0.002550
# 6 -0.004436 -0.004828 -0.000798 -0.005562 0.002550 0.024122
#
#
# Mechanical properties :
#
#
# Convention : Reuss Voigt Hill
#
# Bulk Modulus (GPa) = 64.02844 121.88446 92.95645
# Shear Modulus (GPa) = 52.39218 71.09305 61.74261
#
# Velocity S-wave (km/s) = 4.14159 4.82445 4.49600
# Velocity P-wave (km/s) = 6.62063 8.42245 7.57530
#
# Compressibility (1/GPa) = 0.01561806
#
# Stress axis : x y z
#
# Youngs Moduli (GPa) = 103.54470 183.77226 114.75034
#
# Poissons Ratio (x) = 0.07155 0.32953
# Poissons Ratio (y) = 0.04031 0.09602
# Poissons Ratio (z) = 0.29735 0.15377
#
# Static dielectric constant tensor:
#      x y z
#    x 3.154140 -0.468850 0.186460 
#    y -0.468850 2.635680 -0.100590 
#    z 0.186460 -0.100590 2.895190 
# 
# From -- ./inp_files/275567.got.cif
#   From: 2010.05.17/outbox.cif.g08.bks.cpg/sg2_138_cif.got.tgz:275567.got - 2010.06.03 11:33:40.
