data_PCOD9099090
_publ_section_title
;
Structure prediction by ZEFSAII (Michael W. Deem and Ramdas Pophale) SiO2 
 PCOD9099090
Probable space group: P -1
;
_chemical_formula_sum "Si O2"
_cell_formula_units_Z 16
_cell_length_a 19.380011
_cell_length_b 5.680498
_cell_length_c 22.092311
_cell_angle_alpha 120.607324
_cell_angle_beta 23.146592
_cell_angle_gamma 106.460049
_cell_volume 689.198131
_symmetry_space_group_name_H-M "P -1"
_symmetry_group_IT_number 2
_symmetry_cell_setting 'triclinic'
loop_
_space_group_symop_operation_xyz
x,y,z
-x,-y,-z
loop_
_atom_site_type_symbol
_atom_site_label
_atom_site_fract_x
_atom_site_fract_y
_atom_site_fract_z
Si Si1 0.522344 0.712677 0.173987
Si Si2 0.300856 0.222325 0.518165
Si Si3 0.635050 0.275827 0.417489
Si Si4 0.096394 0.760088 0.106514
Si Si5 0.467486 0.183139 0.112733
Si Si6 0.065519 0.263320 0.478838
Si Si7 0.839210 0.735220 0.831682
Si Si8 0.681069 0.739128 0.237811
O O1 0.396509 0.558340 0.227974
O O2 0.370885 0.066159 0.374093
O O3 0.685819 0.485540 0.065440
O O4 0.679872 0.693906 0.994267
O O5 0.247356 0.581051 0.624565
O O6 0.104465 0.209240 0.696694
O O7 0.509636 0.992751 0.360349
O O8 0.500000 0.500000 0.500000
O O9 0.464570 0.311909 0.607076
O O10 0.762756 0.919747 0.236939
O O11 0.065529 0.111861 0.183043
O O12 0.145205 0.585231 0.979358
O O13 0.311390 0.112609 0.262955
O O14 0.500000 0.000000 0.000000
O O15 0.695636 0.004993 0.933170
O O16 0.985657 0.444443 0.631063
O O17 0.000000 0.500000 0.500000
O O18 0.000000 0.000000 0.500000
#
# Coordination Sequence:
#
# PCOD9099090 Si02
#       8
#     2   2   2   2   2   2   2   2
#     4  10  23  39  61  88 120 161 208 258 315 382
#     4  10  20  37  59  84 119 157 203 253 310 374
#     4   9  18  35  59  84 119 159 197 248 307 365
#     4  10  22  38  59  88 122 157 208 256 309 377
#     4  11  23  42  64  88 124 163 209 260 325 382
#     4  12  27  43  67  98 129 164 214 269 323 392
#     4  11  24  41  64  89 124 166 209 264 321 383
#     4   9  19  37  57  85 120 157 200 249 306 373
#
# _framework density 23.215385000000001
#
# number of rings (size 3 to 8) (size 9 to 14) (size 15 to 20)
#    0.000    1.750    1.250    2.250    3.500    3.500 
#    0.000    5.625    0.000    0.000    0.000    0.000 
#    0.000    0.000    0.000    0.000    0.000    0.000 
#
# Total GULP energy -89204.851159 kJ/mol
# GULP energy per Si atom -5575.303197 kJ/mol
# Density = 2.316255 g / cm^3
# Si number density = 23.215385 Si / 1000 Ang^3
#
#
#
# Elastic Constant Matrix: (Units=GPa)
#
#
# Indices 1 2 3 4 5 6 
#
# 1 119.5639 57.2164 48.3707 15.8153 23.6665 26.7981
# 2 57.2164 158.9791 59.4517 -7.2090 29.7547 56.3735
# 3 48.3707 59.4517 126.5615 5.0407 55.0504 47.3319
# 4 15.8153 -7.2090 5.0407 28.4434 4.5690 2.2744
# 5 23.6665 29.7547 55.0504 4.5690 59.8214 7.3782
# 6 26.7981 56.3735 47.3319 2.2744 7.3782 40.3149
#
#
#
# Elastic Compliance Matrix: (Units=1/GPa)
#
#
# Indices 1 2 3 4 5 6 
#
# 1 0.012241 -0.004675 -0.003964 -0.007761 0.001322 0.003250
# 2 -0.004675 0.020349 0.013765 0.011166 -0.016978 -0.039031
# 3 -0.003964 0.013765 0.038643 0.008891 -0.034593 -0.056153
# 4 -0.007761 0.011166 0.008891 0.044265 -0.011419 -0.021301
# 5 0.001322 -0.016978 -0.034593 -0.011419 0.050578 0.054864
# 6 0.003250 -0.039031 -0.056153 -0.021301 0.054864 0.134310
#
#
# Mechanical properties :
#
#
# Convention : Reuss Voigt Hill
#
# Bulk Modulus (GPa) = 12.27205 81.68691 46.97948
# Shear Modulus (GPa) = 15.75820 41.72034 28.73927
#
# Velocity S-wave (km/s) = 2.60817 4.24382 3.52226
# Velocity P-wave (km/s) = 3.79048 7.69911 6.06811
#
# Compressibility (1/GPa) = 0.08148598
#
# Stress axis : x y z
#
# Youngs Moduli (GPa) = 81.69304 49.14162 25.87777
#
# Poissons Ratio (x) = 0.22974 0.10257
# Poissons Ratio (y) = 0.38191 -0.35620
# Poissons Ratio (z) = 0.32380 -0.67642
#
# Static dielectric constant tensor:
#      x y z
#    x 1.981970 -0.010470 -0.097930 
#    y -0.010470 1.991870 0.198820 
#    z -0.097930 0.198820 1.729570 
# 
# From -- ./inp_files/51903.got.cif
#   From: 2010.05.17/outbox.cif.g08.bks.cpg/sg2_26_cif.got.tgz:51903.got - 2010.06.03 11:33:40.
