data_PCOD9099088
_publ_section_title
;
Structure prediction by ZEFSAII (Michael W. Deem and Ramdas Pophale) SiO2 
 PCOD9099088
Probable space group: P -1
;
_chemical_formula_sum "Si O2"
_cell_formula_units_Z 16
_cell_length_a 21.911902
_cell_length_b 11.067173
_cell_length_c 16.983883
_cell_angle_alpha 139.424540
_cell_angle_beta 156.838892
_cell_angle_gamma 30.823185
_cell_volume 820.797560
_symmetry_space_group_name_H-M "P -1"
_symmetry_group_IT_number 2
_symmetry_cell_setting 'triclinic'
loop_
_space_group_symop_operation_xyz
x,y,z
-x,-y,-z
loop_
_atom_site_type_symbol
_atom_site_label
_atom_site_fract_x
_atom_site_fract_y
_atom_site_fract_z
Si Si1 0.608193 0.584157 0.217861
Si Si2 0.484899 0.071228 0.242481
Si Si3 0.803577 0.335281 0.968486
Si Si4 0.227488 0.001460 0.334156
Si Si5 0.071468 0.423924 0.870192
Si Si6 0.957926 0.858082 0.436591
Si Si7 0.556913 0.140185 0.184183
Si Si8 0.643018 0.760950 0.500094
O O1 0.561472 0.808090 0.225179
O O2 0.841230 0.355305 0.386905
O O3 0.555572 0.668759 0.291103
O O4 0.500000 0.500000 0.000000
O O5 0.599265 0.132314 0.463090
O O6 0.540595 0.092610 0.231714
O O7 0.244798 0.252262 0.053228
O O8 0.751605 0.175455 0.792400
O O9 0.609591 0.579907 0.892499
O O10 0.880410 0.405628 0.021076
O O11 0.997293 0.171634 0.172882
O O12 0.261012 0.172371 0.416785
O O13 0.104888 0.262966 0.755599
O O14 0.840404 0.560053 0.685043
O O15 0.000000 0.000000 0.500000
O O16 0.776331 0.036294 0.367359
O O17 0.500000 0.000000 0.000000
O O18 0.500000 0.000000 0.500000
#
# Coordination Sequence:
#
# PCOD9099088 Si02
#       8
#     2   2   2   2   2   2   2   2
#     4  10  22  39  59  86 124 163 197 256 316 359
#     4  10  20  37  59  84 119 149 203 252 307 350
#     4   9  18  36  58  79 114 148 202 237 302 355
#     4   9  19  36  57  84 113 156 194 254 303 348
#     4   9  18  35  56  78 112 156 187 248 300 356
#     4  11  22  39  58  83 122 161 197 242 313 368
#     4  11  22  37  60  90 115 155 207 246 297 370
#     4   9  19  37  57  81 115 158 209 239 302 368
#
# _framework density 19.493234999999999
#
# number of rings (size 3 to 8) (size 9 to 14) (size 15 to 20)
#    0.000    2.250    2.500    1.500    0.000    4.500 
#    0.000    6.250    0.000    0.000    0.000    0.000 
#    0.000    0.000    0.000    0.000    0.000    0.000 
#
# Total GULP energy -89069.400526 kJ/mol
# GULP energy per Si atom -5566.837533 kJ/mol
# Density = 1.944887 g / cm^3
# Si number density = 19.493235 Si / 1000 Ang^3
#
#
#
# Elastic Constant Matrix: (Units=GPa)
#
#
# Indices 1 2 3 4 5 6 
#
# 1 33.0803 9.1795 27.6096 -13.4451 2.5736 -10.6497
# 2 9.1795 94.9729 55.2941 -16.9807 2.9364 -16.5577
# 3 27.6096 55.2941 161.4307 -17.3180 -20.2764 -16.2550
# 4 -13.4451 -16.9807 -17.3180 49.3822 -1.4741 10.8710
# 5 2.5736 2.9364 -20.2764 -1.4741 20.7282 -2.2048
# 6 -10.6497 -16.5577 -16.2550 10.8710 -2.2048 35.1330
#
#
#
# Elastic Compliance Matrix: (Units=1/GPa)
#
#
# Indices 1 2 3 4 5 6 
#
# 1 0.043203 0.004145 -0.008839 0.008009 -0.013214 0.007653
# 2 0.004145 0.015258 -0.006210 0.003048 -0.008095 0.004123
# 3 -0.008839 -0.006210 0.011546 -0.000237 0.013324 0.000646
# 4 0.008009 0.003048 -0.000237 0.024213 -0.000336 -0.003759
# 5 -0.013214 -0.008095 0.013324 -0.000336 0.064304 0.002483
# 6 0.007653 0.004123 0.000646 -0.003759 0.002483 0.034344
#
#
# Mechanical properties :
#
#
# Convention : Reuss Voigt Hill
#
# Bulk Modulus (GPa) = 20.74660 52.62783 36.68721
# Shear Modulus (GPa) = 21.66905 34.20871 27.93888
#
# Velocity S-wave (km/s) = 3.33771 4.19370 3.78995
# Velocity P-wave (km/s) = 5.05172 7.10676 6.16547
#
# Compressibility (1/GPa) = 0.04820066
#
# Stress axis : x y z
#
# Youngs Moduli (GPa) = 23.14639 65.53814 86.60654
#
# Poissons Ratio (x) = -0.27165 0.76549
# Poissons Ratio (y) = -0.09594 0.53782
# Poissons Ratio (z) = 0.20459 0.40699
#
# Static dielectric constant tensor:
#      x y z
#    x 1.699280 0.017050 0.002400 
#    y 0.017050 1.736550 -0.033060 
#    z 0.002400 -0.033060 1.779820 
# 
# From -- ./inp_files/218597.got.cif
#   From: 2010.05.17/outbox.cif.g08.bks.cpg/sg2_110_cif.got.tgz:218597.got - 2010.06.03 11:33:40.
