data_PCOD9099206
_publ_section_title
;
Structure prediction by ZEFSAII (Michael W. Deem and Ramdas Pophale) SiO2 
 PCOD9099206
Probable space group: P -1
;
_chemical_formula_sum "Si O2"
_cell_formula_units_Z 16
_cell_length_a 17.749324
_cell_length_b 8.653741
_cell_length_c 22.549175
_cell_angle_alpha 131.967091
_cell_angle_beta 28.066358
_cell_angle_gamma 148.570059
_cell_volume 798.092773
_symmetry_space_group_name_H-M "P -1"
_symmetry_group_IT_number 2
_symmetry_cell_setting 'triclinic'
loop_
_space_group_symop_operation_xyz
x,y,z
-x,-y,-z
loop_
_atom_site_type_symbol
_atom_site_label
_atom_site_fract_x
_atom_site_fract_y
_atom_site_fract_z
Si Si1 0.436716 0.329490 0.178308
Si Si2 0.833656 0.316435 0.480241
Si Si3 0.942275 0.679286 0.385356
Si Si4 0.735909 0.321404 0.116610
Si Si5 0.532285 0.531567 0.666269
Si Si6 0.918484 0.680336 0.961141
Si Si7 0.698239 0.388378 0.718963
Si Si8 0.340333 0.891665 0.654206
O O1 0.450743 0.421918 0.261767
O O2 0.382449 0.463867 0.206707
O O3 0.695726 0.487460 0.021127
O O4 0.206338 0.956331 0.245331
O O5 0.946805 0.595442 0.427586
O O6 0.758810 0.333886 0.600493
O O7 0.053469 0.372975 0.354173
O O8 0.577904 0.014543 0.548613
O O9 0.798606 0.758343 0.511027
O O10 0.789847 0.375395 0.372200
O O11 0.622433 0.432940 0.245466
O O12 0.523676 0.949208 0.181882
O O13 0.791114 0.433989 0.039618
O O14 0.000000 0.500000 0.000000
O O15 0.411357 0.187395 0.654738
O O16 0.147672 0.769947 0.806429
O O17 0.000000 0.000000 0.000000
#
# Coordination Sequence:
#
# PCOD9099206 Si02
#       8
#     2   2   2   2   2   2   2   2
#     4  11  21  37  63  91 120 159 210 254 294 362
#     4  10  20  37  59  89 123 156 200 251 306 352
#     4  11  23  38  63  93 124 161 206 250 312 359
#     4  11  22  34  60  96 122 153 201 261 306 349
#     4  10  20  37  64  89 121 157 210 252 294 363
#     4  11  20  40  65  89 115 159 217 257 294 358
#     4  11  22  34  61  94 125 156 199 258 305 351
#     4  11  21  40  66  90 122 162 205 257 304 362
#
# _framework density 20.047796000000002
#
# number of rings (size 3 to 8) (size 9 to 14) (size 15 to 20)
#    0.000    1.250    5.000    4.875    3.500    0.500 
#    0.000    0.625    5.500    1.500    0.000    0.000 
#    0.000    0.000    0.000    0.000    0.000    0.000 
#
# Total GULP energy -89166.479536 kJ/mol
# GULP energy per Si atom -5572.904971 kJ/mol
# Density = 2.000217 g / cm^3
# Si number density = 20.047796 Si / 1000 Ang^3
#
#
#
# Elastic Constant Matrix: (Units=GPa)
#
#
# Indices 1 2 3 4 5 6 
#
# 1 91.1345 37.0587 50.2567 -8.9175 -29.1554 -13.1642
# 2 37.0587 79.4557 19.7508 -19.6833 -8.2817 7.6645
# 3 50.2567 19.7508 84.8924 -26.5879 -28.6257 -3.6440
# 4 -8.9175 -19.6833 -26.5879 31.4756 -1.6220 2.8890
# 5 -29.1554 -8.2817 -28.6257 -1.6220 51.7957 -5.3571
# 6 -13.1642 7.6645 -3.6440 2.8890 -5.3571 22.4762
#
#
#
# Elastic Compliance Matrix: (Units=1/GPa)
#
#
# Indices 1 2 3 4 5 6 
#
# 1 0.030964 -0.016203 -0.016022 -0.016786 0.008059 0.025141
# 2 -0.016203 0.024579 0.008604 0.019739 -0.001829 -0.019450
# 3 -0.016022 0.008604 0.030912 0.028237 0.009427 -0.008689
# 4 -0.016786 0.019739 0.028237 0.065363 0.009485 -0.018125
# 5 0.008059 -0.001829 0.009427 0.009485 0.030391 0.012896
# 6 0.025141 -0.019450 -0.008689 -0.018125 0.012896 0.069844
#
#
# Mechanical properties :
#
#
# Convention : Reuss Voigt Hill
#
# Bulk Modulus (GPa) = 25.50046 52.17944 38.83995
# Shear Modulus (GPa) = 16.00684 31.04392 23.52538
#
# Velocity S-wave (km/s) = 2.82872 3.93936 3.42930
# Velocity P-wave (km/s) = 4.83904 6.83926 5.92418
#
# Compressibility (1/GPa) = 0.03921498
#
# Stress axis : x y z
#
# Youngs Moduli (GPa) = 32.29548 40.68434 32.34976
#
# Poissons Ratio (x) = 0.65920 0.51831
# Poissons Ratio (y) = 0.52328 -0.27835
# Poissons Ratio (z) = 0.51744 -0.35006
#
# Static dielectric constant tensor:
#      x y z
#    x 1.766990 0.002420 -0.029230 
#    y 0.002420 1.714870 -0.020570 
#    z -0.029230 -0.020570 1.814030 
# 
# From -- ./inp_files/254722.got.cif
#   From: 2010.05.17/outbox.cif.g08.bks.cpg/sg2_128_cif.got.tgz:254722.got - 2010.06.03 11:33:40.
