data_PCOD9099194
_publ_section_title
;
Structure prediction by ZEFSAII (Michael W. Deem and Ramdas Pophale) SiO2 
 PCOD9099194
Probable space group: P -1
;
_chemical_formula_sum "Si O2"
_cell_formula_units_Z 16
_cell_length_a 19.298063
_cell_length_b 8.396535
_cell_length_c 18.689095
_cell_angle_alpha 44.110105
_cell_angle_beta 157.348853
_cell_angle_gamma 136.277820
_cell_volume 791.116061
_symmetry_space_group_name_H-M "P -1"
_symmetry_group_IT_number 2
_symmetry_cell_setting 'triclinic'
loop_
_space_group_symop_operation_xyz
x,y,z
-x,-y,-z
loop_
_atom_site_type_symbol
_atom_site_label
_atom_site_fract_x
_atom_site_fract_y
_atom_site_fract_z
Si Si1 0.946983 0.494658 0.797327
Si Si2 0.214532 0.827678 0.133243
Si Si3 0.714268 0.627696 0.176585
Si Si4 0.080970 0.650902 0.446284
Si Si5 0.693397 0.153151 0.955266
Si Si6 0.721287 0.884638 0.451124
Si Si7 0.587435 0.766575 0.520354
Si Si8 0.908338 0.099516 0.774796
O O1 0.895454 0.413505 0.856366
O O2 0.827222 0.681747 0.600571
O O3 0.898327 0.258013 0.782084
O O4 0.158499 0.626719 0.944326
O O5 0.256465 0.826559 0.088726
O O6 0.416739 0.874475 0.345627
O O7 0.100351 0.021932 0.976205
O O8 0.796209 0.534719 0.356669
O O9 0.860918 0.574885 0.274409
O O10 0.500000 0.500000 0.000000
O O11 0.725836 0.905537 0.093818
O O12 0.112012 0.746929 0.364504
O O13 0.148335 0.856196 0.504849
O O14 0.478477 0.148794 0.764716
O O15 0.671050 0.862230 0.494017
O O16 0.500000 0.500000 0.500000
O O17 0.752681 0.855158 0.704020
#
# Coordination Sequence:
#
# PCOD9099194 Si02
#       8
#     2   2   2   2   2   2   2   2
#     4  12  24  38  58  88 131 165 197 241 301 364
#     4  11  23  39  62  86 122 167 206 244 291 349
#     4  11  20  37  68  95 110 146 205 263 301 349
#     4  10  21  39  63  89 119 149 201 256 303 350
#     4  11  22  37  65  90 117 155 212 253 296 350
#     4  10  20  37  59  89 116 156 202 251 292 349
#     4  10  21  37  61  84 114 158 209 248 288 342
#     4  11  25  40  57  89 129 163 195 245 304 362
#
# _framework density 20.224591
#
# number of rings (size 3 to 8) (size 9 to 14) (size 15 to 20)
#    0.000    1.250    5.000    1.500    3.500    1.500 
#    0.000    0.625    0.000    1.500    0.000    0.000 
#    0.000    0.000    0.000    0.000    0.000    0.000 
#
# Total GULP energy -89158.583779 kJ/mol
# GULP energy per Si atom -5572.411486 kJ/mol
# Density = 2.017856 g / cm^3
# Si number density = 20.224591 Si / 1000 Ang^3
#
#
#
# Elastic Constant Matrix: (Units=GPa)
#
#
# Indices 1 2 3 4 5 6 
#
# 1 33.4638 24.2465 29.5306 6.4067 -0.2798 0.1265
# 2 24.2465 95.2939 40.3649 6.1796 1.5884 0.2751
# 3 29.5306 40.3649 122.5429 1.0464 14.3736 -12.1493
# 4 6.4067 6.1796 1.0464 38.5873 14.7294 -1.4951
# 5 -0.2798 1.5884 14.3736 14.7294 20.7261 -7.3426
# 6 0.1265 0.2751 -12.1493 -1.4951 -7.3426 27.9905
#
#
#
# Elastic Compliance Matrix: (Units=1/GPa)
#
#
# Indices 1 2 3 4 5 6 
#
# 1 0.047525 -0.006697 -0.011379 -0.013538 0.018310 -0.001008
# 2 -0.006697 0.013639 -0.003201 -0.001778 0.001968 -0.001072
# 3 -0.011379 -0.003201 0.013783 0.007362 -0.013683 0.002870
# 4 -0.013538 -0.001778 0.007362 0.041997 -0.036429 -0.004039
# 5 0.018310 0.001968 -0.013683 -0.036429 0.089181 0.015407
# 6 -0.001008 -0.001072 0.002870 -0.004039 0.015407 0.040813
#
#
# Mechanical properties :
#
#
# Convention : Reuss Voigt Hill
#
# Bulk Modulus (GPa) = 30.86892 48.84274 39.85583
# Shear Modulus (GPa) = 16.65054 27.93802 22.29428
#
# Velocity S-wave (km/s) = 2.87240 3.72074 3.32375
# Velocity P-wave (km/s) = 5.12807 6.53155 5.87189
#
# Compressibility (1/GPa) = 0.03239504
#
# Stress axis : x y z
#
# Youngs Moduli (GPa) = 21.04135 73.31804 72.55130
#
# Poissons Ratio (x) = 0.49100 0.82555
# Poissons Ratio (y) = 0.14091 0.23222
# Poissons Ratio (z) = 0.23943 0.23468
#
# Static dielectric constant tensor:
#      x y z
#    x 1.697680 0.034210 -0.017890 
#    y 0.034210 1.923080 0.002320 
#    z -0.017890 0.002320 1.793070 
# 
# From -- ./inp_files/472253.got.cif
#   From: 2010.05.17/outbox.cif.g08.bks.cpg/sg2_237_cif.got.tgz:472253.got - 2010.06.03 11:33:40.
