data_PCOD9099722
_publ_section_title
;
Structure prediction by ZEFSAII (Michael W. Deem and Ramdas Pophale) SiO2 
 PCOD9099722
Probable space group: P -1
;
_chemical_formula_sum "Si O2"
_cell_formula_units_Z 16
_cell_length_a 8.653648
_cell_length_b 11.131330
_cell_length_c 20.663037
_cell_angle_alpha 25.122017
_cell_angle_beta 105.912265
_cell_angle_gamma 93.865850
_cell_volume 728.606612
_symmetry_space_group_name_H-M "P -1"
_symmetry_group_IT_number 2
_symmetry_cell_setting 'triclinic'
loop_
_space_group_symop_operation_xyz
x,y,z
-x,-y,-z
loop_
_atom_site_type_symbol
_atom_site_label
_atom_site_fract_x
_atom_site_fract_y
_atom_site_fract_z
Si Si1 0.709667 0.102197 0.658642
Si Si2 0.085732 0.337111 0.788390
Si Si3 0.065474 0.622727 0.509189
Si Si4 0.724344 0.918975 0.885572
Si Si5 0.421106 0.243159 0.932427
Si Si6 0.637425 0.609427 0.826775
Si Si7 0.877596 0.289770 0.128239
Si Si8 0.108427 0.678799 0.112048
O O1 0.588046 0.950496 0.687174
O O2 0.915805 0.813522 0.819852
O O3 0.750366 0.354933 0.499857
O O4 0.670394 0.165210 0.699838
O O5 0.074187 0.431550 0.667200
O O6 0.216185 0.447342 0.787051
O O7 0.909234 0.446466 0.758707
O O8 0.168860 0.956112 0.988135
O O9 0.000000 0.500000 0.500000
O O10 0.912468 0.980858 0.324178
O O11 0.584718 0.950625 0.909859
O O12 0.777360 0.588315 0.016380
O O13 0.910138 0.862489 0.968418
O O14 0.502864 0.480981 0.845897
O O15 0.500000 0.000000 0.000000
O O16 0.767242 0.584664 0.794014
O O17 0.756782 0.352944 0.019744
#
# Coordination Sequence:
#
# PCOD9099722 Si02
#       8
#     2   2   2   2   2   2   2   2
#     4   9  18  31  58  83 109 139 179 231 276 320
#     4  10  21  33  51  85 109 140 184 222 278 325
#     4  10  19  33  56  87 111 135 179 239 281 314
#     4  10  17  35  55  87 107 140 190 226 272 322
#     4  11  24  33  53  82 117 145 183 233 269 324
#     4  11  17  35  54  84 110 144 183 225 276 320
#     4   9  18  31  59  85 107 137 178 233 271 317
#     4  10  16  31  57  76 107 138 181 233 265 320
#
# _framework density 21.959723
#
# number of rings (size 3 to 8) (size 9 to 14) (size 15 to 20)
#    0.750    1.250    3.750    2.250    0.000    2.000 
#    0.000    6.250    0.000    2.250    0.000    0.000 
#    0.000    0.000    0.000    0.000    0.000    0.000 
#
# Total GULP energy -89109.602043 kJ/mol
# GULP energy per Si atom -5569.350128 kJ/mol
# Density = 2.190974 g / cm^3
# Si number density = 21.959723 Si / 1000 Ang^3
#
#
#
# Elastic Constant Matrix: (Units=GPa)
#
#
# Indices 1 2 3 4 5 6 
#
# 1 58.6481 47.6982 36.3032 10.9052 -34.3231 10.6386
# 2 47.6982 124.8451 36.3403 27.3140 -31.3059 11.0922
# 3 36.3032 36.3403 79.2772 27.5870 -33.4750 -5.2105
# 4 10.9052 27.3140 27.5870 30.3148 -13.0097 -16.5834
# 5 -34.3231 -31.3059 -33.4750 -13.0097 32.4917 3.2571
# 6 10.6386 11.0922 -5.2105 -16.5834 3.2571 45.5475
#
#
#
# Elastic Compliance Matrix: (Units=1/GPa)
#
#
# Indices 1 2 3 4 5 6 
#
# 1 0.059507 -0.007228 -0.002119 0.002813 0.056382 -0.015389
# 2 -0.007228 0.015400 0.003794 -0.017009 0.005122 -0.008187
# 3 -0.002119 0.003794 0.029108 -0.023309 0.022796 -0.007216
# 4 0.002813 -0.017009 -0.023309 0.082422 -0.007574 0.031369
# 5 0.056382 0.005122 0.022796 -0.007574 0.118031 -0.023007
# 6 -0.015389 -0.008187 -0.007216 0.031369 -0.023007 0.039784
#
#
# Mechanical properties :
#
#
# Convention : Reuss Voigt Hill
#
# Bulk Modulus (GPa) = 10.76339 55.93931 33.35135
# Shear Modulus (GPa) = 12.94236 31.16603 22.05420
#
# Velocity S-wave (km/s) = 2.43032 3.77136 3.17251
# Velocity P-wave (km/s) = 3.57594 6.67032 5.35166
#
# Compressibility (1/GPa) = 0.09290752
#
# Stress axis : x y z
#
# Youngs Moduli (GPa) = 16.80481 64.93500 34.35510
#
# Poissons Ratio (x) = 0.46936 0.07281
# Poissons Ratio (y) = 0.12147 -0.13034
# Poissons Ratio (z) = 0.03561 -0.24635
#
# Static dielectric constant tensor:
#      x y z
#    x 1.925710 0.004430 -0.028440 
#    y 0.004430 1.867040 -0.028310 
#    z -0.028440 -0.028310 1.874600 
# 
# From -- ./inp_files/588325.got.cif
#   From: 2010.05.17/outbox.cif.g08.bks.cpg/sg2_295_cif.got.tgz:588325.got - 2010.06.03 11:33:40.
