data_PCOD9099279
_publ_section_title
;
Structure prediction by ZEFSAII (Michael W. Deem and Ramdas Pophale) SiO2 
 PCOD9099279
Probable space group: P -1
;
_chemical_formula_sum "Si O2"
_cell_formula_units_Z 14
_cell_length_a 9.602821
_cell_length_b 14.809040
_cell_length_c 11.531106
_cell_angle_alpha 152.461755
_cell_angle_beta 121.061197
_cell_angle_gamma 60.263799
_cell_volume 646.371786
_symmetry_space_group_name_H-M "P -1"
_symmetry_group_IT_number 2
_symmetry_cell_setting 'triclinic'
loop_
_space_group_symop_operation_xyz
x,y,z
-x,-y,-z
loop_
_atom_site_type_symbol
_atom_site_label
_atom_site_fract_x
_atom_site_fract_y
_atom_site_fract_z
Si Si1 0.458150 0.025063 0.826374
Si Si2 0.378751 0.432673 0.970995
Si Si3 0.990327 0.338838 0.212902
Si Si4 0.652010 0.325925 0.155331
Si Si5 0.058039 0.709614 0.113092
Si Si6 0.799636 0.894772 0.389429
Si Si7 0.336427 0.266361 0.266225
O O1 0.338847 0.010672 0.651070
O O2 0.521035 0.829860 0.699003
O O3 0.616090 0.124348 0.967083
O O4 0.373112 0.181828 0.058937
O O5 0.291974 0.227210 0.692886
O O6 0.500000 0.500000 0.000000
O O7 0.494235 0.399476 0.094516
O O8 0.225431 0.595331 0.099202
O O9 0.808963 0.282905 0.092558
O O10 0.000000 0.500000 0.500000
O O11 0.157694 0.201932 0.147889
O O12 0.997290 0.400439 0.151002
O O13 0.673344 0.499909 0.454076
O O14 0.922406 0.745888 0.195889
O O15 0.095818 0.926221 0.330212
#
# Coordination Sequence:
#
# PCOD9099279 Si02
#       7
#     2   2   2   2   2   2   2
#     4  10  20  37  60  86 114 150 197 242 295 347
#     4  11  22  39  62  90 120 158 201 246 304 353
#     4  10  21  39  61  84 119 159 191 243 294 353
#     4  10  21  38  56  86 115 152 197 241 294 347
#     4  11  21  42  61  88 124 154 203 246 297 357
#     4  10  23  39  64  90 118 160 198 251 298 350
#     4  10  20  37  60  82 115 154 194 240 293 348
#
# _framework density 21.659361000000001
#
# number of rings (size 3 to 8) (size 9 to 14) (size 15 to 20)
#    0.000    1.714    2.857    1.714    0.000    1.143 
#    2.571    2.857    0.000    0.000    0.000    0.000 
#    0.000    0.000    0.000    0.000    0.000    0.000 
#
# Total GULP energy -78032.873854 kJ/mol
# GULP energy per Si atom -5573.776704 kJ/mol
# Density = 2.161006 g / cm^3
# Si number density = 21.659361 Si / 1000 Ang^3
#
#
#
# Elastic Constant Matrix: (Units=GPa)
#
#
# Indices 1 2 3 4 5 6 
#
# 1 78.8754 10.8832 -7.2162 -6.3450 5.9237 -9.2279
# 2 10.8832 39.2893 -4.5328 -14.7576 6.4622 -4.6166
# 3 -7.2162 -4.5328 31.5227 -18.1746 14.6927 16.8449
# 4 -6.3450 -14.7576 -18.1746 3.0859 11.1864 9.9647
# 5 5.9237 6.4622 14.6927 11.1864 20.7982 -0.0134
# 6 -9.2279 -4.6166 16.8449 9.9647 -0.0134 36.1230
#
#
#
# Elastic Compliance Matrix: (Units=1/GPa)
#
#
# Indices 1 2 3 4 5 6 
#
# 1 0.013533 -0.004071 -0.000390 -0.002374 -0.001035 0.003773
# 2 -0.004071 0.022381 -0.009876 -0.008386 0.005698 0.008741
# 3 -0.000390 -0.009876 0.010305 -0.025766 0.009759 0.000944
# 4 -0.002374 -0.008386 -0.025766 -0.008691 0.026167 0.012744
# 5 -0.001035 0.005698 0.009759 0.026167 0.025630 -0.011296
# 6 0.003773 0.008741 0.000944 0.012744 -0.011296 0.025804
#
#
# Mechanical properties :
#
#
# Convention : Reuss Voigt Hill
#
# Bulk Modulus (GPa) = 56.99993 16.43953 36.71973
# Shear Modulus (GPa) = 40.49157 22.03830 31.26494
#
# Velocity S-wave (km/s) = 4.32843 3.19328 3.80344
# Velocity P-wave (km/s) = 7.16618 4.60462 6.02315
#
# Compressibility (1/GPa) = 0.01754388
#
# Stress axis : x y z
#
# Youngs Moduli (GPa) = 73.89611 44.68158 97.04374
#
# Poissons Ratio (x) = 0.18192 0.03783
# Poissons Ratio (y) = 0.30087 0.95837
# Poissons Ratio (z) = 0.02880 0.44126
#
# Static dielectric constant tensor:
#      x y z
#    x 1.885690 0.017310 0.023570 
#    y 0.017310 1.791060 -0.002770 
#    z 0.023570 -0.002770 1.841230 
# 
# From -- ./inp_files/71152.got.cif
#   From: 2010.05.17/outbox.cif.g08.bks.cpg/sg2_36_cif.got.tgz:71152.got - 2010.06.03 11:33:40.
