data_PCOD9099446
_publ_section_title
;
Structure prediction by ZEFSAII (Michael W. Deem and Ramdas Pophale) SiO2 
 PCOD9099446
Probable space group: P -1
;
_chemical_formula_sum "Si O2"
_cell_formula_units_Z 14
_cell_length_a 23.397708
_cell_length_b 9.202883
_cell_length_c 5.303594
_cell_angle_alpha 126.578636
_cell_angle_beta 125.022394
_cell_angle_gamma 37.015213
_cell_volume 540.626065
_symmetry_space_group_name_H-M "P -1"
_symmetry_group_IT_number 2
_symmetry_cell_setting 'triclinic'
loop_
_space_group_symop_operation_xyz
x,y,z
-x,-y,-z
loop_
_atom_site_type_symbol
_atom_site_label
_atom_site_fract_x
_atom_site_fract_y
_atom_site_fract_z
Si Si1 0.229456 0.121419 0.129970
Si Si2 0.287540 0.342007 0.816418
Si Si3 0.544317 0.787602 0.177768
Si Si4 0.412743 0.713928 0.820417
Si Si5 0.699330 0.392890 0.530966
Si Si6 0.971167 0.440133 0.115335
Si Si7 0.845974 0.088766 0.970443
O O1 0.257809 0.197976 0.514445
O O2 0.193926 0.996563 0.034500
O O3 0.143348 0.369159 0.009033
O O4 0.321551 0.934656 0.989411
O O5 0.394377 0.201147 0.844401
O O6 0.291347 0.411053 0.179848
O O7 0.203942 0.631038 0.794573
O O8 0.634197 0.513143 0.244628
O O9 0.500000 0.000000 0.500000
O O10 0.461344 0.795951 0.890306
O O11 0.371117 0.608424 0.471739
O O12 0.500000 0.500000 0.000000
O O13 0.803447 0.134861 0.625348
O O14 0.000000 0.500000 0.500000
O O15 0.038572 0.140425 0.976661
O O16 0.000000 0.500000 0.000000
#
# Coordination Sequence:
#
# PCOD9099446 Si02
#       7
#     2   2   2   2   2   2   2
#     4  11  21  41  70  92 131 171 229 268 347 404
#     4  10  23  41  63  96 126 175 221 276 334 403
#     4  11  21  39  59  91 130 168 224 277 324 404
#     4  10  20  37  60  89 125 175 214 268 337 398
#     4   9  22  39  59  88 127 165 217 267 339 390
#     4  10  22  42  73 103 135 181 229 283 351 414
#     4   9  21  42  64  93 134 165 218 285 338 405
#
# _framework density 25.895903000000001
#
# number of rings (size 3 to 8) (size 9 to 14) (size 15 to 20)
#    0.857    1.143    1.429    2.571    0.000    4.000 
#    7.714    0.000    0.000    6.000    0.000    0.000 
#    0.000    0.000    0.000    0.000    0.000    0.000 
#
# Total GULP energy -78080.706850 kJ/mol
# GULP energy per Si atom -5577.193346 kJ/mol
# Density = 2.583696 g / cm^3
# Si number density = 25.895903 Si / 1000 Ang^3
#
#
#
# Elastic Constant Matrix: (Units=GPa)
#
#
# Indices 1 2 3 4 5 6 
#
# 1 63.1390 40.0180 17.6482 1.4214 -4.5479 9.2958
# 2 40.0180 190.2499 12.2691 -14.4308 -7.2949 -18.2836
# 3 17.6482 12.2691 97.5482 -4.7756 3.7747 -2.9340
# 4 1.4214 -14.4308 -4.7756 47.4697 3.4818 -2.8289
# 5 -4.5479 -7.2949 3.7747 3.4818 26.9990 -1.6145
# 6 9.2958 -18.2836 -2.9340 -2.8289 -1.6145 39.9984
#
#
#
# Elastic Compliance Matrix: (Units=1/GPa)
#
#
# Indices 1 2 3 4 5 6 
#
# 1 0.021594 -0.005192 -0.003753 -0.003266 0.002715 -0.007789
# 2 -0.005192 0.007003 0.000286 0.002522 0.000930 0.004645
# 3 -0.003753 0.000286 0.011113 0.001589 -0.002203 0.001841
# 4 -0.003266 0.002522 0.001589 0.022503 -0.002783 0.003507
# 5 0.002715 0.000930 -0.002203 -0.002783 0.038473 0.000989
# 6 -0.007789 0.004645 0.001841 0.003507 0.000989 0.029357
#
#
# Mechanical properties :
#
#
# Convention : Reuss Voigt Hill
#
# Bulk Modulus (GPa) = 44.66070 54.53420 49.59745
# Shear Modulus (GPa) = 32.29433 41.62688 36.96061
#
# Velocity S-wave (km/s) = 3.53524 4.01368 3.78203
# Velocity P-wave (km/s) = 5.82645 6.52566 6.18594
#
# Compressibility (1/GPa) = 0.02239105
#
# Stress axis : x y z
#
# Youngs Moduli (GPa) = 46.30992 142.78977 89.98661
#
# Poissons Ratio (x) = 0.74139 0.33770
# Poissons Ratio (y) = 0.24045 -0.02571
# Poissons Ratio (z) = 0.17379 -0.04079
#
# Static dielectric constant tensor:
#      x y z
#    x 2.170180 0.064460 -0.039910 
#    y 0.064460 2.103240 0.079790 
#    z -0.039910 0.079790 2.152560 
# 
# From -- ./inp_files/126792.got.cif
#   From: 2010.05.17/outbox.cif.g08.bks.cpg/sg2_64_cif.got.tgz:126792.got - 2010.06.03 11:33:40.
