data_PCOD9099203
_publ_section_title
;
Structure prediction by ZEFSAII (Michael W. Deem and Ramdas Pophale) SiO2 
 PCOD9099203
Probable space group: P -1
;
_chemical_formula_sum "Si O2"
_cell_formula_units_Z 16
_cell_length_a 11.840914
_cell_length_b 15.578840
_cell_length_c 12.785555
_cell_angle_alpha 25.474917
_cell_angle_beta 79.010071
_cell_angle_gamma 63.034985
_cell_volume 742.546868
_symmetry_space_group_name_H-M "P -1"
_symmetry_group_IT_number 2
_symmetry_cell_setting 'triclinic'
loop_
_space_group_symop_operation_xyz
x,y,z
-x,-y,-z
loop_
_atom_site_type_symbol
_atom_site_label
_atom_site_fract_x
_atom_site_fract_y
_atom_site_fract_z
Si Si1 0.073691 0.489009 0.838840
Si Si2 0.138729 0.730921 0.396720
Si Si3 0.579398 0.909247 0.750335
Si Si4 0.445014 0.351355 0.129992
Si Si5 0.086683 0.689465 0.839902
Si Si6 0.969031 0.313443 0.755165
Si Si7 0.647478 0.768318 0.378700
Si Si8 0.468591 0.308369 0.726327
O O1 0.043915 0.691322 0.532993
O O2 0.064010 0.609631 0.819452
O O3 0.254629 0.234424 0.073670
O O4 0.979810 0.391904 0.974253
O O5 0.094397 0.726550 0.291472
O O6 0.320705 0.465696 0.656732
O O7 0.098091 0.012991 0.108993
O O8 0.557567 0.710802 0.924264
O O9 0.563908 0.065494 0.479485
O O10 0.448402 0.127070 0.613851
O O11 0.500000 0.500000 0.000000
O O12 0.268168 0.518899 0.011297
O O13 0.000000 0.000000 0.500000
O O14 0.824303 0.505064 0.647177
O O15 0.000000 0.500000 0.500000
O O16 0.572405 0.729368 0.339510
O O17 0.617190 0.026151 0.057135
O O18 0.500000 0.500000 0.500000
#
# Coordination Sequence:
#
# PCOD9099203 Si02
#       8
#     2   2   2   2   2   2   2   2
#     4  10  21  40  63  89 123 165 214 267 317 388
#     4  10  21  39  61  88 124 167 211 258 320 377
#     4  10  21  40  61  89 123 162 213 261 319 378
#     4  10  22  40  62  90 125 164 206 265 323 384
#     4  10  22  40  62  92 125 161 211 269 322 384
#     4  10  22  39  58  89 129 164 206 262 316 383
#     4  10  21  37  59  88 118 159 208 251 311 371
#     4  10  20  37  59  89 122 157 205 259 305 375
#
# _framework density 21.547463
#
# number of rings (size 3 to 8) (size 9 to 14) (size 15 to 20)
#    0.000    2.000    1.250    1.500    0.000    5.000 
#    2.250    0.000    0.000    0.000    0.000    0.000 
#    0.000    0.000    0.000    0.000    0.000    0.000 
#
# Total GULP energy -89165.648066 kJ/mol
# GULP energy per Si atom -5572.853004 kJ/mol
# Density = 2.149842 g / cm^3
# Si number density = 21.547463 Si / 1000 Ang^3
#
#
#
# Elastic Constant Matrix: (Units=GPa)
#
#
# Indices 1 2 3 4 5 6 
#
# 1 74.1226 35.1655 32.0387 -10.9634 -16.6496 -11.1993
# 2 35.1655 107.1252 21.9928 -9.4058 -5.3272 -20.8391
# 3 32.0387 21.9928 97.5635 -17.1962 -15.0290 -3.3278
# 4 -10.9634 -9.4058 -17.1962 33.4581 -1.1157 1.3694
# 5 -16.6496 -5.3272 -15.0290 -1.1157 37.2622 2.3701
# 6 -11.1993 -20.8391 -3.3278 1.3694 2.3701 19.3985
#
#
#
# Elastic Compliance Matrix: (Units=1/GPa)
#
#
# Indices 1 2 3 4 5 6 
#
# 1 0.019847 -0.004057 -0.003818 0.003396 0.006506 0.005410
# 2 -0.004057 0.013252 -0.001204 0.001260 -0.001113 0.011734
# 3 -0.003818 -0.001204 0.013239 0.005425 0.003756 -0.002068
# 4 0.003396 0.001260 0.005425 0.034254 0.004833 0.001236
# 5 0.006506 -0.001113 0.003756 0.004833 0.031305 -0.000961
# 6 0.005410 0.011734 -0.002068 0.001236 -0.000961 0.066955
#
#
# Mechanical properties :
#
#
# Convention : Reuss Voigt Hill
#
# Bulk Modulus (GPa) = 35.48570 50.80058 43.14314
# Shear Modulus (GPa) = 24.22441 30.66470 27.44455
#
# Velocity S-wave (km/s) = 3.35660 3.77652 3.57274
# Velocity P-wave (km/s) = 5.61487 6.53020 6.08975
#
# Compressibility (1/GPa) = 0.02818037
#
# Stress axis : x y z
#
# Youngs Moduli (GPa) = 50.38457 75.46128 75.53453
#
# Poissons Ratio (x) = 0.30616 0.28837
# Poissons Ratio (y) = 0.20442 0.09094
# Poissons Ratio (z) = 0.19235 0.09085
#
# Static dielectric constant tensor:
#      x y z
#    x 1.806490 0.002600 -0.013230 
#    y 0.002600 1.801790 0.006940 
#    z -0.013230 0.006940 1.841840 
# 
# From -- ./inp_files/523159.got.cif
#   From: 2010.05.17/outbox.cif.g08.bks.cpg/sg2_262_cif.got.tgz:523159.got - 2010.06.03 11:33:40.
