data_PCOD9099691
_publ_section_title
;
Structure prediction by ZEFSAII (Michael W. Deem and Ramdas Pophale) SiO2 
 PCOD9099691
Probable space group: P -1
;
_chemical_formula_sum "Si O2"
_cell_formula_units_Z 16
_cell_length_a 13.769433
_cell_length_b 9.221132
_cell_length_c 10.565805
_cell_angle_alpha 139.885769
_cell_angle_beta 110.339036
_cell_angle_gamma 86.806825
_cell_volume 759.886022
_symmetry_space_group_name_H-M "P -1"
_symmetry_group_IT_number 2
_symmetry_cell_setting 'triclinic'
loop_
_space_group_symop_operation_xyz
x,y,z
-x,-y,-z
loop_
_atom_site_type_symbol
_atom_site_label
_atom_site_fract_x
_atom_site_fract_y
_atom_site_fract_z
Si Si1 0.462672 0.667599 0.499232
Si Si2 0.879599 0.004087 0.974878
Si Si3 0.389744 0.885690 0.033925
Si Si4 0.168304 0.569341 0.831482
Si Si5 0.178462 0.274299 0.885627
Si Si6 0.395123 0.216892 0.015672
Si Si7 0.217772 0.519353 0.340983
Si Si8 0.065210 0.777236 0.578323
O O1 0.500000 0.500000 0.500000
O O2 0.429458 0.499685 0.251685
O O3 0.347233 0.684730 0.510479
O O4 0.562702 0.916326 0.702053
O O5 0.851370 0.180388 0.983244
O O6 0.887077 0.131648 0.200232
O O7 0.796942 0.731292 0.761073
O O8 0.000000 0.000000 0.000000
O O9 0.370137 0.040457 0.009760
O O10 0.282308 0.662398 0.867939
O O11 0.494851 0.809690 0.005556
O O12 0.178176 0.433470 0.871825
O O13 0.061375 0.397544 0.593713
O O14 0.075665 0.026695 0.681392
O O15 0.282030 0.177718 0.864967
O O16 0.184836 0.425895 0.119488
O O17 0.136908 0.639817 0.447817
#
# Coordination Sequence:
#
# PCOD9099691 Si02
#       8
#     2   2   2   2   2   2   2   2
#     4   9  17  33  58  87 110 151 203 246 297 353
#     4  11  23  42  62  93 121 154 206 269 301 353
#     4  10  20  37  61  89 118 158 211 258 294 355
#     4  12  24  40  60  95 129 161 205 258 311 364
#     4  10  23  42  61  89 130 166 203 250 310 378
#     4   9  19  39  61  85 119 163 205 249 306 361
#     4  10  21  41  67  86 122 168 206 253 308 365
#     4  11  23  43  64  88 122 168 210 247 310 373
#
# _framework density 21.055789999999998
#
# number of rings (size 3 to 8) (size 9 to 14) (size 15 to 20)
#    0.000    1.750    1.250    4.500    0.000    3.000 
#    4.500    2.500    0.000    0.000    0.000    0.000 
#    0.000    0.000    0.000    0.000    0.000    0.000 
#
# Total GULP energy -89284.411959 kJ/mol
# GULP energy per Si atom -5580.275747 kJ/mol
# Density = 2.100787 g / cm^3
# Si number density = 21.055790 Si / 1000 Ang^3
#
#
#
# Elastic Constant Matrix: (Units=GPa)
#
#
# Indices 1 2 3 4 5 6 
#
# 1 116.7444 18.9121 50.2056 12.7455 5.7330 -0.0336
# 2 18.9121 100.9346 25.3913 27.2321 -2.5362 0.3786
# 3 50.2056 25.3913 98.5145 18.6553 18.4502 3.5369
# 4 12.7455 27.2321 18.6553 18.4403 2.7488 7.4580
# 5 5.7330 -2.5362 18.4502 2.7488 37.4665 7.0077
# 6 -0.0336 0.3786 3.5369 7.4580 7.0077 13.4501
#
#
#
# Elastic Compliance Matrix: (Units=1/GPa)
#
#
# Indices 1 2 3 4 5 6 
#
# 1 0.011209 0.000531 -0.005140 -0.004967 0.000494 0.003861
# 2 0.000531 0.020286 0.001510 -0.040601 -0.000557 0.021836
# 3 -0.005140 0.001510 0.017093 -0.018852 -0.008033 0.010088
# 4 -0.004967 -0.040601 -0.018852 0.174042 0.012673 -0.097020
# 5 0.000494 -0.000557 -0.008033 0.012673 0.033814 -0.022516
# 6 0.003861 0.021836 0.010088 -0.097020 -0.022516 0.136619
#
#
# Mechanical properties :
#
#
# Convention : Reuss Voigt Hill
#
# Bulk Modulus (GPa) = 23.59066 56.13463 39.86264
# Shear Modulus (GPa) = 12.09502 28.65034 20.37268
#
# Velocity S-wave (km/s) = 2.39932 3.69275 3.11393
# Velocity P-wave (km/s) = 4.34786 6.70072 5.64817
#
# Compressibility (1/GPa) = 0.04238966
#
# Stress axis : x y z
#
# Youngs Moduli (GPa) = 89.21200 49.29413 58.50255
#
# Poissons Ratio (x) = -0.02616 0.30070
# Poissons Ratio (y) = -0.04734 -0.08832
# Poissons Ratio (z) = 0.45854 -0.07442
#
# Static dielectric constant tensor:
#      x y z
#    x 1.806360 0.009710 0.002070 
#    y 0.009710 1.755510 0.001450 
#    z 0.002070 0.001450 1.845350 
# 
# From -- ./inp_files/448385.got.cif
#   From: 2010.05.17/outbox.cif.g08.bks.cpg/sg2_225_cif.got.tgz:448385.got - 2010.06.03 11:33:40.
