data_PCOD9099837
_publ_section_title
;
Structure prediction by ZEFSAII (Michael W. Deem and Ramdas Pophale) SiO2 
 PCOD9099837
Probable space group: P -1
;
_chemical_formula_sum "Si O2"
_cell_formula_units_Z 16
_cell_length_a 11.030685
_cell_length_b 8.713179
_cell_length_c 8.336423
_cell_angle_alpha 85.224786
_cell_angle_beta 98.707664
_cell_angle_gamma 61.276583
_cell_volume 683.202174
_symmetry_space_group_name_H-M "P -1"
_symmetry_group_IT_number 2
_symmetry_cell_setting 'triclinic'
loop_
_space_group_symop_operation_xyz
x,y,z
-x,-y,-z
loop_
_atom_site_type_symbol
_atom_site_label
_atom_site_fract_x
_atom_site_fract_y
_atom_site_fract_z
Si Si1 0.429940 0.444406 0.196801
Si Si2 0.662634 0.332524 0.575739
Si Si3 0.562760 0.106198 0.419285
Si Si4 0.371453 0.120826 0.846481
Si Si5 0.937761 0.726986 0.113299
Si Si6 0.972330 0.188686 0.545598
Si Si7 0.665491 0.525066 0.180613
Si Si8 0.001934 0.655512 0.773897
O O1 0.325837 0.635720 0.235568
O O2 0.431588 0.292701 0.317649
O O3 0.587602 0.419332 0.230321
O O4 0.394374 0.419821 0.014901
O O5 0.500000 0.500000 0.500000
O O6 0.656071 0.158053 0.544407
O O7 0.800532 0.318706 0.520280
O O8 0.500000 0.000000 0.500000
O O9 0.638502 0.999120 0.284126
O O10 0.227342 0.209328 0.908954
O O11 0.382582 0.286572 0.759636
O O12 0.500000 0.000000 0.000000
O O13 0.019795 0.514250 0.189045
O O14 0.972904 0.817680 0.261200
O O15 0.960563 0.756442 0.928637
O O16 0.045076 0.254894 0.419986
O O17 0.000000 0.000000 0.500000
O O18 0.831528 0.415092 0.204429
#
# Coordination Sequence:
#
# PCOD9099837 Si02
#       8
#     2   2   2   2   2   2   2   2
#     4  10  20  37  61  97 128 173 222 268 332 395
#     4  10  22  41  64  95 132 173 222 271 328 400
#     4  11  22  38  61  97 135 167 211 277 341 395
#     4  11  22  43  63  98 137 168 218 279 337 389
#     4  10  24  44  70  97 131 183 228 270 337 410
#     4  12  25  45  68  99 141 178 223 283 344 401
#     4  10  20  38  67  92 129 178 221 273 328 401
#     4  10  22  45  68  93 131 178 233 270 329 406
#
# _framework density 23.419129999999999
#
# number of rings (size 3 to 8) (size 9 to 14) (size 15 to 20)
#    0.000    1.500    1.250    4.125    0.000    3.500 
#    6.750    0.000    0.000    0.000    0.000    0.000 
#    0.000    0.000    0.000    0.000    0.000    0.000 
#
# Total GULP energy -89263.761590 kJ/mol
# GULP energy per Si atom -5578.985099 kJ/mol
# Density = 2.336583 g / cm^3
# Si number density = 23.419130 Si / 1000 Ang^3
#
#
#
# Elastic Constant Matrix: (Units=GPa)
#
#
# Indices 1 2 3 4 5 6 
#
# 1 62.6645 17.2538 24.6580 2.3499 -5.9496 0.3800
# 2 17.2538 76.4921 31.5586 27.4385 -1.7853 10.8135
# 3 24.6580 31.5586 103.0252 31.6858 -13.2642 7.2605
# 4 2.3499 27.4385 31.6858 43.4449 5.3813 4.3044
# 5 -5.9496 -1.7853 -13.2642 5.3813 35.1293 -1.3102
# 6 0.3800 10.8135 7.2605 4.3044 -1.3102 36.6765
#
#
#
# Elastic Compliance Matrix: (Units=1/GPa)
#
#
# Indices 1 2 3 4 5 6 
#
# 1 0.018857 -0.004250 -0.004772 0.004944 0.000472 0.001439
# 2 -0.004250 0.018902 -0.001012 -0.010739 0.001354 -0.004020
# 3 -0.004772 -0.001012 0.015524 -0.011133 0.006663 -0.001181
# 4 0.004944 -0.010739 -0.011133 0.038831 -0.009845 0.000410
# 5 0.000472 0.001354 0.006663 -0.009845 0.032661 0.000599
# 6 0.001439 -0.004020 -0.001181 0.000410 0.000599 0.028643
#
#
# Mechanical properties :
#
#
# Convention : Reuss Voigt Hill
#
# Bulk Modulus (GPa) = 30.10964 43.23586 36.67275
# Shear Modulus (GPa) = 27.09173 34.29756 30.69464
#
# Velocity S-wave (km/s) = 3.40490 3.83104 3.62424
# Velocity P-wave (km/s) = 5.32377 6.17017 5.76253
#
# Compressibility (1/GPa) = 0.03321196
#
# Stress axis : x y z
#
# Youngs Moduli (GPa) = 53.03097 52.90543 64.41772
#
# Poissons Ratio (x) = 0.22487 0.30743
# Poissons Ratio (y) = 0.22540 0.06521
# Poissons Ratio (z) = 0.25309 0.05356
#
# Static dielectric constant tensor:
#      x y z
#    x 1.860450 -0.001220 0.024490 
#    y -0.001220 1.945850 -0.022490 
#    z 0.024490 -0.022490 2.030840 
# 
# From -- ./inp_files/244047.got.cif
#   From: 2010.05.17/outbox.cif.g08.bks.cpg/sg2_123_cif.got.tgz:244047.got - 2010.06.03 11:33:40.
