data_PCOD9099928
_publ_section_title
;
Structure prediction by ZEFSAII (Michael W. Deem and Ramdas Pophale) SiO2 
 PCOD9099928
Probable space group: P -1
;
_chemical_formula_sum "Si O2"
_cell_formula_units_Z 16
_cell_length_a 8.291373
_cell_length_b 9.431558
_cell_length_c 12.708968
_cell_angle_alpha 47.823958
_cell_angle_beta 59.174034
_cell_angle_gamma 75.395099
_cell_volume 625.846319
_symmetry_space_group_name_H-M "P -1"
_symmetry_group_IT_number 2
_symmetry_cell_setting 'triclinic'
loop_
_space_group_symop_operation_xyz
x,y,z
-x,-y,-z
loop_
_atom_site_type_symbol
_atom_site_label
_atom_site_fract_x
_atom_site_fract_y
_atom_site_fract_z
Si Si1 0.785647 0.426496 0.072101
Si Si2 0.794884 0.629047 0.764835
Si Si3 0.106391 0.289472 0.532798
Si Si4 0.538604 0.949997 0.723920
Si Si5 0.337214 0.247480 0.913628
Si Si6 0.275975 0.864263 0.221898
Si Si7 0.822604 0.869143 0.184097
Si Si8 0.825508 0.124965 0.374828
O O1 0.676085 0.583736 0.085246
O O2 0.751356 0.229792 0.245880
O O3 0.773224 0.447049 0.941157
O O4 0.000000 0.500000 0.000000
O O5 0.809897 0.586217 0.657625
O O6 0.990818 0.759290 0.681337
O O7 0.614427 0.744966 0.781388
O O8 0.161997 0.256551 0.652036
O O9 0.885456 0.307493 0.609181
O O10 0.116048 0.076115 0.583883
O O11 0.648059 0.033202 0.749085
O O12 0.327908 0.988569 0.803523
O O13 0.641116 0.082369 0.531025
O O14 0.551215 0.206370 0.859930
O O15 0.268781 0.278998 0.802818
O O16 0.212414 0.044978 0.090931
O O17 0.000000 0.000000 0.000000
#
# Coordination Sequence:
#
# PCOD9099928 Si02
#       8
#     2   2   2   2   2   2   2   2
#     4  10  20  34  58  89 113 143 185 243 285 328
#     4  10  18  32  59  86 111 141 192 237 275 327
#     4  11  19  35  58  89 112 147 186 234 288 321
#     4  10  18  35  57  88 112 144 191 240 279 318
#     4  10  20  34  55  89 108 147 190 234 285 328
#     4  10  16  31  58  81 110 137 194 242 265 328
#     4  11  24  33  54  87 122 148 183 237 283 338
#     4  10  19  33  61  90 115 140 188 243 283 328
#
# _framework density 25.565382
#
# number of rings (size 3 to 8) (size 9 to 14) (size 15 to 20)
#    0.000    1.750    5.000    1.500    0.000    2.000 
#    0.000    2.500    0.000    6.000    9.750    0.000 
#    0.000    0.000    0.000    0.000    0.000    0.000 
#
# Total GULP energy -89389.572488 kJ/mol
# GULP energy per Si atom -5586.848280 kJ/mol
# Density = 2.550719 g / cm^3
# Si number density = 25.565382 Si / 1000 Ang^3
#
#
#
# Elastic Constant Matrix: (Units=GPa)
#
#
# Indices 1 2 3 4 5 6 
#
# 1 78.0916 21.0965 77.0527 11.5483 14.6815 -5.9335
# 2 21.0965 60.8062 40.9286 24.8648 2.7178 1.0318
# 3 77.0527 40.9286 207.1854 24.5744 36.3178 -6.6371
# 4 11.5483 24.8648 24.5744 33.4799 -7.4742 -3.9204
# 5 14.6815 2.7178 36.3178 -7.4742 64.4505 9.8423
# 6 -5.9335 1.0318 -6.6371 -3.9204 9.8423 38.8144
#
#
#
# Elastic Compliance Matrix: (Units=1/GPa)
#
#
# Indices 1 2 3 4 5 6 
#
# 1 0.020713 -0.002412 -0.006935 -0.000237 -0.001087 0.002297
# 2 -0.002412 0.025904 -0.002081 -0.017433 -0.000944 -0.002935
# 3 -0.006935 -0.002081 0.008946 -0.003371 -0.003946 0.001185
# 4 -0.000237 -0.017433 -0.003371 0.047421 0.007781 0.002668
# 5 -0.001087 -0.000944 -0.003946 0.007781 0.019696 -0.005024
# 6 0.002297 -0.002935 0.001185 0.002668 -0.005024 0.027939
#
#
# Mechanical properties :
#
#
# Convention : Reuss Voigt Hill
#
# Bulk Modulus (GPa) = 30.57348 69.35987 49.96668
# Shear Modulus (GPa) = 27.11819 41.14933 34.13376
#
# Velocity S-wave (km/s) = 3.26043 4.01630 3.65794
# Velocity P-wave (km/s) = 5.11457 6.97831 6.11783
#
# Compressibility (1/GPa) = 0.03270809
#
# Stress axis : x y z
#
# Youngs Moduli (GPa) = 48.27793 38.60404 111.78063
#
# Poissons Ratio (x) = 0.09312 0.77515
# Poissons Ratio (y) = 0.11646 0.23261
# Poissons Ratio (z) = 0.33479 0.08033
#
# Static dielectric constant tensor:
#      x y z
#    x 2.110920 0.054430 -0.041750 
#    y 0.054430 1.971840 -0.060230 
#    z -0.041750 -0.060230 2.109220 
# 
# From -- ./inp_files/388987.got.cif
#   From: 2010.05.17/outbox.cif.g08.bks.cpg/sg2_195_cif.got.tgz:388987.got - 2010.06.03 11:33:40.
