data_PCOD9099452
_publ_section_title
;
Structure prediction by ZEFSAII (Michael W. Deem and Ramdas Pophale) SiO2 
 PCOD9099452
Probable space group: P -1
;
_chemical_formula_sum "Si O2"
_cell_formula_units_Z 16
_cell_length_a 14.088850
_cell_length_b 10.899747
_cell_length_c 8.809426
_cell_angle_alpha 107.469858
_cell_angle_beta 25.987942
_cell_angle_gamma 101.836564
_cell_volume 558.617187
_symmetry_space_group_name_H-M "P -1"
_symmetry_group_IT_number 2
_symmetry_cell_setting 'triclinic'
loop_
_space_group_symop_operation_xyz
x,y,z
-x,-y,-z
loop_
_atom_site_type_symbol
_atom_site_label
_atom_site_fract_x
_atom_site_fract_y
_atom_site_fract_z
Si Si1 0.944666 0.142053 0.308796
Si Si2 0.184583 0.444474 0.428761
Si Si3 0.367551 0.249534 0.680967
Si Si4 0.287060 0.369103 0.557675
Si Si5 0.252535 0.080506 0.364486
Si Si6 0.585808 0.988416 0.193870
Si Si7 0.786819 0.358390 0.812849
Si Si8 0.611225 0.263930 0.627385
O O1 0.800671 0.213962 0.675513
O O2 0.858392 0.224792 0.313473
O O3 0.183581 0.181858 0.008276
O O4 0.917403 0.991667 0.316499
O O5 0.187665 0.474590 0.614248
O O6 0.171308 0.554715 0.361272
O O7 0.981062 0.370422 0.654238
O O8 0.429482 0.361856 0.016644
O O9 0.235377 0.359765 0.806649
O O10 0.540596 0.291070 0.565574
O O11 0.500000 0.000000 0.500000
O O12 0.499580 0.140187 0.342392
O O13 0.247017 0.230877 0.483085
O O14 0.537023 0.394759 0.229481
O O15 0.214529 0.057822 0.229122
O O16 0.500000 0.000000 0.000000
O O17 0.447329 0.878191 0.304201
#
# Coordination Sequence:
#
# PCOD9099452 Si02
#       8
#     2   2   2   2   2   2   2   2
#     4  12  23  40  69  96 134 177 213 266 329 382
#     4  11  23  42  72  97 121 169 234 265 318 395
#     4  11  25  40  62  98 137 172 214 267 326 387
#     4  12  23  43  68  95 135 170 216 272 327 381
#     4  12  19  39  65  95 130 172 216 260 318 402
#     4  10  20  37  60  89 134 169 201 263 317 378
#     4  11  23  42  72  95 123 172 226 271 320 387
#     4  11  21  40  63  90 132 168 215 265 319 383
#
# _framework density 28.642154000000001
#
# number of rings (size 3 to 8) (size 9 to 14) (size 15 to 20)
#    0.000    0.750    7.500    0.375    0.000    3.000 
#    0.000   10.625    0.000    0.000    0.000    0.000 
#    0.000    0.000    0.000    0.000    0.000    0.000 
#
# Total GULP energy -89197.816957 kJ/mol
# GULP energy per Si atom -5574.863560 kJ/mol
# Density = 2.857696 g / cm^3
# Si number density = 28.642154 Si / 1000 Ang^3
#
#
#
# Elastic Constant Matrix: (Units=GPa)
#
#
# Indices 1 2 3 4 5 6 
#
# 1 156.9718 28.5937 41.2187 -9.4468 -1.1176 -33.2342
# 2 28.5937 82.6210 9.7340 -4.8130 2.1920 1.1842
# 3 41.2187 9.7340 84.4837 -23.0327 5.0707 -1.3693
# 4 -9.4468 -4.8130 -23.0327 44.1678 1.0440 6.2255
# 5 -1.1176 2.1920 5.0707 1.0440 45.2440 -11.6385
# 6 -33.2342 1.1842 -1.3693 6.2255 -11.6385 53.7960
#
#
#
# Elastic Compliance Matrix: (Units=1/GPa)
#
#
# Indices 1 2 3 4 5 6 
#
# 1 0.009488 -0.002985 -0.004830 -0.001806 0.002657 0.006588
# 2 -0.002985 0.013252 0.000354 0.001392 -0.001457 -0.002603
# 3 -0.004830 0.000354 0.016545 0.008309 -0.003273 -0.004240
# 4 -0.001806 0.001392 0.008309 0.027476 -0.002897 -0.004741
# 5 0.002657 -0.001457 -0.003273 -0.002897 0.024533 0.007233
# 6 0.006588 -0.002603 -0.004240 -0.004741 0.007233 0.024721
#
#
# Mechanical properties :
#
#
# Convention : Reuss Voigt Hill
#
# Bulk Modulus (GPa) = 41.04557 53.68547 47.36552
# Shear Modulus (GPa) = 35.95657 44.94359 40.45008
#
# Velocity S-wave (km/s) = 3.54697 3.96554 3.76208
# Velocity P-wave (km/s) = 5.57998 6.30488 5.95348
#
# Compressibility (1/GPa) = 0.02436317
#
# Stress axis : x y z
#
# Youngs Moduli (GPa) = 105.40176 75.46214 60.44031
#
# Poissons Ratio (x) = 0.22522 0.29193
# Poissons Ratio (y) = 0.31457 -0.02139
# Poissons Ratio (z) = 0.50910 -0.02671
#
# Static dielectric constant tensor:
#      x y z
#    x 2.361090 -0.083940 -0.035780 
#    y -0.083940 2.354400 0.036720 
#    z -0.035780 0.036720 2.234840 
# 
# From -- ./inp_files/258395.got.cif
#   From: 2010.05.17/outbox.cif.g08.bks.cpg/sg2_130_cif.got.tgz:258395.got - 2010.06.03 11:33:40.
