data_PCOD9099185
_publ_section_title
;
Structure prediction by ZEFSAII (Michael W. Deem and Ramdas Pophale) SiO2 
 PCOD9099185
Probable space group: P -1
;
_chemical_formula_sum "Si O2"
_cell_formula_units_Z 16
_cell_length_a 12.451962
_cell_length_b 7.040685
_cell_length_c 12.385239
_cell_angle_alpha 104.418456
_cell_angle_beta 109.604286
_cell_angle_gamma 37.963920
_cell_volume 629.011748
_symmetry_space_group_name_H-M "P -1"
_symmetry_group_IT_number 2
_symmetry_cell_setting 'triclinic'
loop_
_space_group_symop_operation_xyz
x,y,z
-x,-y,-z
loop_
_atom_site_type_symbol
_atom_site_label
_atom_site_fract_x
_atom_site_fract_y
_atom_site_fract_z
Si Si1 0.817780 0.854842 0.960890
Si Si2 0.760155 0.123979 0.426547
Si Si3 0.942502 0.146799 0.672043
Si Si4 0.600999 0.806768 0.762092
Si Si5 0.174931 0.273706 0.457514
Si Si6 0.987112 0.752084 0.796706
Si Si7 0.360983 0.041800 0.893341
Si Si8 0.399687 0.286360 0.583914
O O1 0.703513 0.833441 0.868154
O O2 0.874159 0.928480 0.895059
O O3 0.711788 0.033251 0.062288
O O4 0.000000 0.500000 0.000000
O O5 0.870653 0.084812 0.553371
O O6 0.597651 0.487268 0.395643
O O7 0.696350 0.019040 0.457742
O O8 0.893896 0.946251 0.341787
O O9 0.762008 0.492807 0.704783
O O10 0.013588 0.918454 0.763724
O O11 0.481337 0.823863 0.799599
O O12 0.461881 0.129418 0.696747
O O13 0.132636 0.232588 0.321639
O O14 0.209181 0.459749 0.506595
O O15 0.000000 0.500000 0.500000
O O16 0.180176 0.396523 0.840974
O O17 0.500000 0.000000 0.000000
O O18 0.500000 0.000000 0.500000
#
# Coordination Sequence:
#
# PCOD9099185 Si02
#       8
#     2   2   2   2   2   2   2   2
#     4   9  20  39  63  86 113 155 213 262 311 374
#     4  10  22  40  57  89 139 171 209 249 294 375
#     4  10  20  37  59  88 124 165 206 251 302 377
#     4  11  21  38  62  91 121 163 208 253 323 370
#     4  11  23  37  63  93 130 173 215 244 299 387
#     4  10  20  38  63  87 120 164 209 252 310 376
#     4   9  19  38  62  85 115 154 206 268 321 364
#     4  12  23  39  62  95 133 170 206 254 315 367
#
# _framework density 25.436727000000001
#
# number of rings (size 3 to 8) (size 9 to 14) (size 15 to 20)
#    0.000    1.750    1.250    4.500    1.750    0.500 
#    2.250    6.250    0.000    0.000    0.000    0.000 
#    0.000    0.000    0.000    0.000    0.000    0.000 
#
# Total GULP energy -89141.570071 kJ/mol
# GULP energy per Si atom -5571.348129 kJ/mol
# Density = 2.537883 g / cm^3
# Si number density = 25.436727 Si / 1000 Ang^3
#
#
#
# Elastic Constant Matrix: (Units=GPa)
#
#
# Indices 1 2 3 4 5 6 
#
# 1 107.9698 34.9650 45.4905 -4.5888 -39.8215 -3.5690
# 2 34.9650 112.7044 35.1242 5.1203 -28.4215 -6.9083
# 3 45.4905 35.1242 127.9299 -9.2174 -30.9717 -6.5811
# 4 -4.5888 5.1203 -9.2174 33.8698 -14.1663 -14.9383
# 5 -39.8215 -28.4215 -30.9717 -14.1663 53.2612 7.9174
# 6 -3.5690 -6.9083 -6.5811 -14.9383 7.9174 40.6771
#
#
#
# Elastic Compliance Matrix: (Units=1/GPa)
#
#
# Indices 1 2 3 4 5 6 
#
# 1 0.014835 -0.001570 -0.001630 0.006909 0.010969 0.001173
# 2 -0.001570 0.010776 -0.001591 -0.000607 0.003409 0.000549
# 3 -0.001630 -0.001591 0.010761 0.006400 0.005505 0.002607
# 4 0.006909 -0.000607 0.006400 0.046791 0.018769 0.015069
# 5 0.010969 0.003409 0.005505 0.018769 0.036663 0.002188
# 6 0.001173 0.000549 0.002607 0.015069 0.002188 0.030310
#
#
# Mechanical properties :
#
#
# Convention : Reuss Voigt Hill
#
# Bulk Modulus (GPa) = 37.32687 64.41817 50.87252
# Shear Modulus (GPa) = 29.64731 41.09658 35.37195
#
# Velocity S-wave (km/s) = 3.41769 4.02386 3.73310
# Velocity P-wave (km/s) = 5.50276 6.85335 6.21486
#
# Compressibility (1/GPa) = 0.02679036
#
# Stress axis : x y z
#
# Youngs Moduli (GPa) = 67.40663 92.79533 92.92647
#
# Poissons Ratio (x) = 0.14570 0.15151
# Poissons Ratio (y) = 0.10584 0.14782
# Poissons Ratio (z) = 0.10990 0.14761
#
# Static dielectric constant tensor:
#      x y z
#    x 1.315770 -2.007320 1.422840 
#    y -2.007320 -4.286970 4.733600 
#    z 1.422840 4.733600 -1.421270 
# 
# From -- ./inp_files/447519.got.cif
#   From: 2010.05.17/outbox.cif.g08.bks.cpg/sg2_224_cif.got.tgz:447519.got - 2010.06.03 11:33:40.
