data_PCOD9099598
_publ_section_title
;
Structure prediction by ZEFSAII (Michael W. Deem and Ramdas Pophale) SiO2 
 PCOD9099598
Probable space group: P -1
;
_chemical_formula_sum "Si O2"
_cell_formula_units_Z 16
_cell_length_a 17.923775
_cell_length_b 19.774602
_cell_length_c 8.897988
_cell_angle_alpha 137.691497
_cell_angle_beta 150.370321
_cell_angle_gamma 31.233501
_cell_volume 808.400020
_symmetry_space_group_name_H-M "P -1"
_symmetry_group_IT_number 2
_symmetry_cell_setting 'triclinic'
loop_
_space_group_symop_operation_xyz
x,y,z
-x,-y,-z
loop_
_atom_site_type_symbol
_atom_site_label
_atom_site_fract_x
_atom_site_fract_y
_atom_site_fract_z
Si Si1 0.880654 0.771442 0.869033
Si Si2 0.727304 0.376163 0.541148
Si Si3 0.910661 0.144059 0.265644
Si Si4 0.234471 0.971258 0.995148
Si Si5 0.383020 0.195708 0.809695
Si Si6 0.522165 0.334380 0.372467
Si Si7 0.497170 0.065661 0.320947
Si Si8 0.709903 0.119564 0.592467
O O1 0.778330 0.763006 0.531763
O O2 0.719076 0.838895 0.829917
O O3 0.902727 0.879627 0.046416
O O4 0.094171 0.648962 0.094227
O O5 0.824208 0.282215 0.410964
O O6 0.618707 0.340534 0.400560
O O7 0.572312 0.529191 0.487126
O O8 0.879453 0.077747 0.236235
O O9 0.794753 0.151266 0.929349
O O10 0.135678 0.033707 0.432319
O O11 0.403792 0.884646 0.028259
O O12 0.357618 0.956627 0.330492
O O13 0.421484 0.082762 0.798437
O O14 0.357671 0.318148 0.028879
O O15 0.669731 0.211710 0.537410
O O16 0.524981 0.135394 0.354748
#
# Coordination Sequence:
#
# PCOD9099598 Si02
#       8
#     2   2   2   2   2   2   2   2
#     4   9  18  33  59  86 115 146 190 234 282 337
#     4  11  24  39  58  85 115 152 198 235 276 335
#     4  10  20  37  61  86 115 147 193 239 284 336
#     4   8  14  30  57  87 105 142 188 235 282 324
#     4   9  17  34  59  84 115 147 183 236 285 332
#     4  11  24  39  58  86 116 152 193 235 284 336
#     4   8  17  33  55  84 113 144 184 230 287 338
#     4  10  22  37  60  88 115 148 190 237 290 339
#
# _framework density 19.792180999999999
#
# number of rings (size 3 to 8) (size 9 to 14) (size 15 to 20)
#    0.000    2.500    1.250    2.250    3.500    3.500 
#    0.000    0.625    0.000    0.000    0.000    0.000 
#    0.000    0.000    0.000    0.000    0.000    0.000 
#
# Total GULP energy -89133.726800 kJ/mol
# GULP energy per Si atom -5570.857925 kJ/mol
# Density = 1.974713 g / cm^3
# Si number density = 19.792181 Si / 1000 Ang^3
#
#
#
# Elastic Constant Matrix: (Units=GPa)
#
#
# Indices 1 2 3 4 5 6 
#
# 1 38.6121 20.1065 14.7108 9.4274 -1.0422 12.2755
# 2 20.1065 78.8762 24.2342 23.3910 -10.6260 -2.6109
# 3 14.7108 24.2342 64.0062 6.4000 -3.9284 3.1934
# 4 9.4274 23.3910 6.4000 25.3625 -0.9213 2.2303
# 5 -1.0422 -10.6260 -3.9284 -0.9213 28.0700 5.1126
# 6 12.2755 -2.6109 3.1934 2.2303 5.1126 20.9783
#
#
#
# Elastic Compliance Matrix: (Units=1/GPa)
#
#
# Indices 1 2 3 4 5 6 
#
# 1 0.040684 -0.008303 -0.004461 -0.004137 0.002017 -0.024212
# 2 -0.008303 0.022322 -0.004981 -0.016835 0.005271 0.008900
# 3 -0.004461 -0.004981 0.018472 0.001726 0.000810 -0.001202
# 4 -0.004137 -0.016835 0.001726 0.056375 -0.003510 -0.005075
# 5 0.002017 0.005271 0.000810 -0.003510 0.039497 -0.009900
# 6 -0.024212 0.008900 -0.001202 -0.005075 -0.009900 0.066079
#
#
# Mechanical properties :
#
#
# Convention : Reuss Voigt Hill
#
# Bulk Modulus (GPa) = 21.74491 33.28863 27.51677
# Shear Modulus (GPa) = 16.99243 23.04502 20.01873
#
# Velocity S-wave (km/s) = 2.93327 3.41596 3.18377
# Velocity P-wave (km/s) = 4.74158 5.69333 5.23911
#
# Compressibility (1/GPa) = 0.04598777
#
# Stress axis : x y z
#
# Youngs Moduli (GPa) = 24.57966 44.79868 54.13681
#
# Poissons Ratio (x) = 0.37197 0.24153
# Poissons Ratio (y) = 0.20409 0.26963
# Poissons Ratio (z) = 0.10966 0.22312
#
# Static dielectric constant tensor:
#      x y z
#    x 1.722390 -0.007350 -0.019810 
#    y -0.007350 1.696950 0.030450 
#    z -0.019810 0.030450 1.746160 
# 
# From -- ./inp_files/260398.got.cif
#   From: 2010.05.17/outbox.cif.g08.bks.cpg/sg2_131_cif.got.tgz:260398.got - 2010.06.03 11:33:40.
