data_PCOD9099816
_publ_section_title
;
Structure prediction by ZEFSAII (Michael W. Deem and Ramdas Pophale) SiO2 
 PCOD9099816
Probable space group: P -1
;
_chemical_formula_sum "Si O2"
_cell_formula_units_Z 16
_cell_length_a 8.380061
_cell_length_b 9.518494
_cell_length_c 19.637372
_cell_angle_alpha 129.846337
_cell_angle_beta 70.945682
_cell_angle_gamma 71.107956
_cell_volume 771.500680
_symmetry_space_group_name_H-M "P -1"
_symmetry_group_IT_number 2
_symmetry_cell_setting 'triclinic'
loop_
_space_group_symop_operation_xyz
x,y,z
-x,-y,-z
loop_
_atom_site_type_symbol
_atom_site_label
_atom_site_fract_x
_atom_site_fract_y
_atom_site_fract_z
Si Si1 0.528733 0.642178 0.247015
Si Si2 0.383345 0.639980 0.485259
Si Si3 0.068705 0.247962 0.999533
Si Si4 0.049212 0.416721 0.387764
Si Si5 0.457624 0.363980 0.261439
Si Si6 0.166978 0.942236 0.264300
Si Si7 0.017226 0.269295 0.851843
Si Si8 0.509380 0.069312 0.410343
O O1 0.410806 0.566343 0.279206
O O2 0.392077 0.765368 0.231235
O O3 0.505389 0.855833 0.354954
O O4 0.822795 0.379897 0.114176
O O5 0.500000 0.500000 0.500000
O O6 0.521602 0.411441 0.338897
O O7 0.387352 0.852195 0.531957
O O8 0.092513 0.824652 0.586429
O O9 0.017237 0.259497 0.929913
O O10 0.313663 0.942190 0.889223
O O11 0.096433 0.444898 0.065831
O O12 0.222459 0.425092 0.329422
O O13 0.000000 0.500000 0.500000
O O14 0.772747 0.642810 0.468164
O O15 0.176620 0.116587 0.271443
O O16 0.123001 0.790717 0.181369
O O17 0.304871 0.051543 0.717994
#
# Coordination Sequence:
#
# PCOD9099816 Si02
#       8
#     2   2   2   2   2   2   2   2
#     4  11  25  42  59  87 130 166 198 250 300 369
#     4  11  20  37  67  94 120 154 204 255 298 363
#     4  10  22  43  64  87 119 161 216 249 299 347
#     4  12  20  36  62  93 123 155 196 253 298 367
#     4  12  25  40  63  88 127 166 198 246 315 359
#     4  11  22  38  64  95 125 152 204 252 308 356
#     4   9  21  39  69  92 115 156 208 263 290 349
#     4  10  20  37  61  94 123 152 200 247 309 355
#
# _framework density 20.738803000000001
#
# number of rings (size 3 to 8) (size 9 to 14) (size 15 to 20)
#    0.000    1.250    3.750    2.625    3.500    3.000 
#    0.000    3.125    0.000    0.000    0.000    0.000 
#    0.000    0.000    0.000    0.000    0.000    0.000 
#
# Total GULP energy -89313.954437 kJ/mol
# GULP energy per Si atom -5582.122152 kJ/mol
# Density = 2.069160 g / cm^3
# Si number density = 20.738803 Si / 1000 Ang^3
#
#
#
# Elastic Constant Matrix: (Units=GPa)
#
#
# Indices 1 2 3 4 5 6 
#
# 1 85.7805 25.5984 26.3038 5.2172 12.9920 43.6100
# 2 25.5984 67.9415 19.6380 2.6339 12.1111 38.7400
# 3 26.3038 19.6380 58.2853 12.5175 14.8088 12.8419
# 4 5.2172 2.6339 12.5175 23.5006 9.0301 2.1338
# 5 12.9920 12.1111 14.8088 9.0301 30.6423 9.1441
# 6 43.6100 38.7400 12.8419 2.1338 9.1441 39.5846
#
#
#
# Elastic Compliance Matrix: (Units=1/GPa)
#
#
# Indices 1 2 3 4 5 6 
#
# 1 0.043597 0.028164 -0.013270 0.001646 -0.002565 -0.070785
# 2 0.028164 0.052788 -0.013031 0.003501 -0.004370 -0.077642
# 3 -0.013270 -0.013031 0.026395 -0.009474 -0.005319 0.020549
# 4 0.001646 0.003501 -0.009474 0.051682 -0.012089 -0.002159
# 5 -0.002565 -0.004370 -0.005319 -0.012089 0.041623 -0.000135
# 6 -0.070785 -0.077642 0.020549 -0.002159 -0.000135 0.172712
#
#
# Mechanical properties :
#
#
# Convention : Reuss Voigt Hill
#
# Bulk Modulus (GPa) = 7.90474 39.45417 23.67946
# Shear Modulus (GPa) = 11.70304 28.10998 19.90651
#
# Velocity S-wave (km/s) = 2.37809 3.68561 3.10153
# Velocity P-wave (km/s) = 3.37050 6.09731 4.92633
#
# Compressibility (1/GPa) = 0.12650630
#
# Stress axis : x y z
#
# Youngs Moduli (GPa) = 22.93740 18.94367 37.88594
#
# Poissons Ratio (x) = -0.53354 0.50276
# Poissons Ratio (y) = -0.64602 0.49369
# Poissons Ratio (z) = 0.30438 0.24686
#
# Static dielectric constant tensor:
#      x y z
#    x 1.663400 0.033450 0.035300 
#    y 0.033450 1.771610 0.016610 
#    z 0.035300 0.016610 1.740970 
# 
# From -- ./inp_files/515757.got.cif
#   From: 2010.05.17/outbox.cif.g08.bks.cpg/sg2_258_cif.got.tgz:515757.got - 2010.06.03 11:33:40.
