data_PCOD9099517
_publ_section_title
;
Structure prediction by ZEFSAII (Michael W. Deem and Ramdas Pophale) SiO2 
 PCOD9099517
Probable space group: P -1
;
_chemical_formula_sum "Si O2"
_cell_formula_units_Z 14
_cell_length_a 9.044637
_cell_length_b 9.602337
_cell_length_c 11.077828
_cell_angle_alpha 63.257415
_cell_angle_beta 71.272209
_cell_angle_gamma 116.361504
_cell_volume 584.400610
_symmetry_space_group_name_H-M "P -1"
_symmetry_group_IT_number 2
_symmetry_cell_setting 'triclinic'
loop_
_space_group_symop_operation_xyz
x,y,z
-x,-y,-z
loop_
_atom_site_type_symbol
_atom_site_label
_atom_site_fract_x
_atom_site_fract_y
_atom_site_fract_z
Si Si1 0.281185 0.531361 0.655616
Si Si2 0.285579 0.048622 0.590930
Si Si3 0.339638 0.893194 0.868349
Si Si4 0.918606 0.072110 0.900401
Si Si5 0.854581 0.937754 0.713330
Si Si6 0.437381 0.677706 0.799536
Si Si7 0.158110 0.712903 0.458808
O O1 0.536648 0.710044 0.489476
O O2 0.276021 0.492582 0.816286
O O3 0.185225 0.634555 0.606563
O O4 0.138301 0.310336 0.707566
O O5 0.249475 0.899825 0.763002
O O6 0.431047 0.111369 0.409631
O O7 0.064565 0.975632 0.637783
O O8 0.595820 0.110965 0.726951
O O9 0.327951 0.699734 0.925508
O O10 0.217109 0.889717 0.010522
O O11 0.799704 0.919262 0.876382
O O12 0.000000 0.000000 0.000000
O O13 0.909416 0.152973 0.571950
O O14 0.641655 0.728106 0.781153
O O15 0.000000 0.500000 0.500000
#
# Coordination Sequence:
#
# PCOD9099517 Si02
#       7
#     2   2   2   2   2   2   2
#     4   9  22  40  61  88 120 154 202 245 297 350
#     4   9  19  38  63  89 115 154 202 248 294 340
#     4  10  21  37  65  82 126 161 192 242 299 362
#     4  12  24  40  59  91 123 163 193 239 309 358
#     4  11  21  36  65  91 122 151 202 250 294 352
#     4   9  21  39  62  89 115 157 207 244 293 345
#     4  10  20  37  60  93 115 151 205 248 287 345
#
# _framework density 23.95617
#
# number of rings (size 3 to 8) (size 9 to 14) (size 15 to 20)
#    0.857    1.143    2.857    0.857    2.000    4.571 
#    0.000    0.714    0.000    0.000    0.000    0.000 
#    0.000    0.000    0.000    0.000    0.000    0.000 
#
# Total GULP energy -78057.400573 kJ/mol
# GULP energy per Si atom -5575.528612 kJ/mol
# Density = 2.390164 g / cm^3
# Si number density = 23.956170 Si / 1000 Ang^3
#
#
#
# Elastic Constant Matrix: (Units=GPa)
#
#
# Indices 1 2 3 4 5 6 
#
# 1 141.4052 27.9538 18.5971 2.2915 -4.9346 17.3536
# 2 27.9538 56.9071 3.8295 9.2437 -2.6357 27.6618
# 3 18.5971 3.8295 32.4164 16.9952 -7.8969 -4.4306
# 4 2.2915 9.2437 16.9952 40.5786 -9.2107 0.1004
# 5 -4.9346 -2.6357 -7.8969 -9.2107 36.1780 9.9010
# 6 17.3536 27.6618 -4.4306 0.1004 9.9010 41.7029
#
#
#
# Elastic Compliance Matrix: (Units=1/GPa)
#
#
# Indices 1 2 3 4 5 6 
#
# 1 0.008838 -0.003134 -0.006445 0.003164 0.001072 -0.002545
# 2 -0.003134 0.029946 -0.000364 -0.005118 0.005837 -0.019971
# 3 -0.006445 -0.000364 0.045694 -0.018149 0.002468 0.007236
# 4 0.003164 -0.005118 -0.018149 0.034409 0.005176 -0.001162
# 5 0.001072 0.005837 0.002468 0.005176 0.033349 -0.011986
# 6 -0.002545 -0.019971 0.007236 -0.001162 -0.011986 0.041903
#
#
# Mechanical properties :
#
#
# Convention : Reuss Voigt Hill
#
# Bulk Modulus (GPa) = 15.48212 36.83216 26.15714
# Shear Modulus (GPa) = 21.22623 35.71513 28.47068
#
# Velocity S-wave (km/s) = 2.97988 3.86535 3.45113
# Velocity P-wave (km/s) = 4.27975 5.94385 5.17908
#
# Compressibility (1/GPa) = 0.06459065
#
# Stress axis : x y z
#
# Youngs Moduli (GPa) = 113.15132 33.39326 21.88452
#
# Poissons Ratio (x) = 0.10467 0.14105
# Poissons Ratio (y) = 0.35467 0.00796
# Poissons Ratio (z) = 0.72931 0.01215
#
# Static dielectric constant tensor:
#      x y z
#    x 1.943190 0.003190 0.045010 
#    y 0.003190 1.981580 0.012120 
#    z 0.045010 0.012120 1.950020 
# 
# From -- ./inp_files/211689.got.cif
#   From: 2010.05.17/outbox.cif.g08.bks.cpg/sg2_106_cif.got.tgz:211689.got - 2010.06.03 11:33:40.
