data_PCOD9099638
_publ_section_title
;
Structure prediction by ZEFSAII (Michael W. Deem and Ramdas Pophale) SiO2 
 PCOD9099638
Probable space group: P -1
;
_chemical_formula_sum "Si O2"
_cell_formula_units_Z 16
_cell_length_a 12.953156
_cell_length_b 19.713817
_cell_length_c 11.776681
_cell_angle_alpha 48.276624
_cell_angle_beta 66.764004
_cell_angle_gamma 26.769708
_cell_volume 813.259664
_symmetry_space_group_name_H-M "P -1"
_symmetry_group_IT_number 2
_symmetry_cell_setting 'triclinic'
loop_
_space_group_symop_operation_xyz
x,y,z
-x,-y,-z
loop_
_atom_site_type_symbol
_atom_site_label
_atom_site_fract_x
_atom_site_fract_y
_atom_site_fract_z
Si Si1 0.331574 0.445763 0.135140
Si Si2 0.136424 0.336881 0.020650
Si Si3 0.565820 0.312426 0.417286
Si Si4 0.669707 0.465620 0.489151
Si Si5 0.336569 0.366171 0.854854
Si Si6 0.689320 0.063499 0.265641
Si Si7 0.940846 0.185587 0.275965
Si Si8 0.238913 0.114979 0.379884
O O1 0.382483 0.405291 0.291515
O O2 0.626025 0.198447 0.220737
O O3 0.097748 0.549952 0.068426
O O4 0.229757 0.620786 0.947906
O O5 0.274583 0.308478 0.908813
O O6 0.345050 0.110027 0.247282
O O7 0.000000 0.500000 0.000000
O O8 0.374973 0.477002 0.424237
O O9 0.721777 0.285746 0.328812
O O10 0.826864 0.050357 0.622918
O O11 0.500000 0.500000 0.500000
O O12 0.559749 0.635025 0.276789
O O13 0.991708 0.201255 0.608783
O O14 0.038189 0.631141 0.729914
O O15 0.533309 0.203595 0.060349
O O16 0.582388 0.059413 0.398932
O O17 0.115667 0.120878 0.357620
#
# Coordination Sequence:
#
# PCOD9099638 Si02
#       8
#     2   2   2   2   2   2   2   2
#     4  11  21  37  64  96 118 148 205 254 304 348
#     4   9  17  35  60  93 125 148 193 262 298 344
#     4  11  23  39  60  85 122 162 202 245 300 356
#     4  11  27  43  58  85 130 165 197 241 302 363
#     4  10  20  39  58  89 126 154 206 242 299 357
#     4  11  20  36  64  91 119 156 199 245 298 362
#     4  10  20  37  61  87 120 151 200 254 298 346
#     4   9  17  33  57  91 121 146 190 254 302 339
#
# _framework density 19.673912999999999
#
# number of rings (size 3 to 8) (size 9 to 14) (size 15 to 20)
#    0.000    1.750    5.000    1.875    1.750    2.000 
#    2.250    0.625    0.000    3.750    0.000    0.000 
#    0.000    0.000    0.000    0.000    0.000    0.000 
#
# Total GULP energy -89124.197199 kJ/mol
# GULP energy per Si atom -5570.262325 kJ/mol
# Density = 1.962913 g / cm^3
# Si number density = 19.673913 Si / 1000 Ang^3
#
#
#
# Elastic Constant Matrix: (Units=GPa)
#
#
# Indices 1 2 3 4 5 6 
#
# 1 94.4595 27.7500 38.5446 17.7958 -8.3004 3.8934
# 2 27.7500 73.6789 46.2970 10.8300 -3.8080 13.9963
# 3 38.5446 46.2970 164.1008 2.6929 -16.9262 0.8507
# 4 17.7958 10.8300 2.6929 17.1090 4.1010 -2.8738
# 5 -8.3004 -3.8080 -16.9262 4.1010 29.8054 10.4701
# 6 3.8934 13.9963 0.8507 -2.8738 10.4701 24.6746
#
#
#
# Elastic Compliance Matrix: (Units=1/GPa)
#
#
# Indices 1 2 3 4 5 6 
#
# 1 0.016730 0.000931 -0.002810 -0.021440 0.009505 -0.009601
# 2 0.000931 0.024335 -0.005548 -0.021478 0.010442 -0.020692
# 3 -0.002810 -0.005548 0.008351 0.005366 0.001332 0.003362
# 4 -0.021440 -0.021478 0.005366 0.109407 -0.035960 0.043382
# 5 0.009505 0.010442 0.001332 -0.035960 0.055622 -0.035259
# 6 -0.009601 -0.020692 0.003362 0.043382 -0.035259 0.073677
#
#
# Mechanical properties :
#
#
# Convention : Reuss Voigt Hill
#
# Bulk Modulus (GPa) = 28.93301 61.93585 45.43443
# Shear Modulus (GPa) = 15.89852 28.96097 22.42974
#
# Velocity S-wave (km/s) = 2.84580 3.84089 3.38016
# Velocity P-wave (km/s) = 5.05334 7.15678 6.19499
#
# Compressibility (1/GPa) = 0.03456260
#
# Stress axis : x y z
#
# Youngs Moduli (GPa) = 59.77368 41.09349 119.74782
#
# Poissons Ratio (x) = -0.03828 0.33654
# Poissons Ratio (y) = -0.05568 0.66430
# Poissons Ratio (z) = 0.16799 0.22797
#
# Static dielectric constant tensor:
#      x y z
#    x 1.759420 -0.048930 -0.008080 
#    y -0.048930 1.703200 0.018890 
#    z -0.008080 0.018890 1.752060 
# 
# From -- ./inp_files/436614.got.cif
#   From: 2010.05.17/outbox.cif.g08.bks.cpg/sg2_219_cif.got.tgz:436614.got - 2010.06.03 11:33:40.
