data_PCOD9099230
_publ_section_title
;
Structure prediction by ZEFSAII (Michael W. Deem and Ramdas Pophale) SiO2 
 PCOD9099230
Probable space group: P -1
;
_chemical_formula_sum "Si O2"
_cell_formula_units_Z 14
_cell_length_a 7.607957
_cell_length_b 10.246177
_cell_length_c 10.984321
_cell_angle_alpha 42.010663
_cell_angle_beta 116.817023
_cell_angle_gamma 105.049183
_cell_volume 507.323904
_symmetry_space_group_name_H-M "P -1"
_symmetry_group_IT_number 2
_symmetry_cell_setting 'triclinic'
loop_
_space_group_symop_operation_xyz
x,y,z
-x,-y,-z
loop_
_atom_site_type_symbol
_atom_site_label
_atom_site_fract_x
_atom_site_fract_y
_atom_site_fract_z
Si Si1 0.434694 0.745865 0.870371
Si Si2 0.777041 0.604883 0.842776
Si Si3 0.527564 0.382682 0.463450
Si Si4 0.851980 0.037404 0.545339
Si Si5 0.148231 0.801103 0.173063
Si Si6 0.218522 0.004531 0.831460
Si Si7 0.230673 0.335711 0.797857
O O1 0.342381 0.919227 0.814133
O O2 0.338930 0.818965 0.660643
O O3 0.348416 0.543047 0.020683
O O4 0.662988 0.717451 0.003307
O O5 0.676743 0.626844 0.661777
O O6 0.786705 0.834099 0.713963
O O7 0.000000 0.500000 0.000000
O O8 0.500000 0.500000 0.500000
O O9 0.666415 0.191598 0.685968
O O10 0.669570 0.485791 0.347701
O O11 0.002308 0.099033 0.651202
O O12 0.000000 0.000000 0.500000
O O13 0.005750 0.638620 0.273673
O O14 0.210538 0.810003 0.046455
O O15 0.000000 0.000000 0.000000
O O16 0.289848 0.164329 0.833797
#
# Coordination Sequence:
#
# PCOD9099230 Si02
#       7
#     2   2   2   2   2   2   2
#     4  10  21  38  60  93 123 164 210 264 315 369
#     4  11  21  37  57  92 128 155 204 263 319 366
#     4  11  25  38  67  98 118 165 216 264 313 366
#     4  10  21  34  60  86 128 164 203 262 326 360
#     4  10  22  41  62  88 131 168 202 261 315 376
#     4  10  20  37  59  91 119 164 212 252 311 371
#     4  10  22  38  63  85 128 159 207 260 314 374
#
# _framework density 27.595782
#
# number of rings (size 3 to 8) (size 9 to 14) (size 15 to 20)
#    0.000    1.714    2.857    2.571    8.000    0.000 
#    0.000    0.714    0.000    1.714    0.000    0.000 
#    0.000    0.000    0.000    0.000    0.000    0.000 
#
# Total GULP energy -78391.936379 kJ/mol
# GULP energy per Si atom -5599.424027 kJ/mol
# Density = 2.753297 g / cm^3
# Si number density = 27.595782 Si / 1000 Ang^3
#
#
#
# Elastic Constant Matrix: (Units=GPa)
#
#
# Indices 1 2 3 4 5 6 
#
# 1 89.3799 26.5762 37.1019 11.6486 -4.6142 16.8014
# 2 26.5762 131.4844 63.3322 23.5634 10.0489 9.5570
# 3 37.1019 63.3322 219.0368 33.6042 22.7494 24.2101
# 4 11.6486 23.5634 33.6042 59.9962 15.6461 5.8800
# 5 -4.6142 10.0489 22.7494 15.6461 48.6126 1.0595
# 6 16.8014 9.5570 24.2101 5.8800 1.0595 44.1571
#
#
#
# Elastic Compliance Matrix: (Units=1/GPa)
#
#
# Indices 1 2 3 4 5 6 
#
# 1 0.013334 -0.001685 -0.001416 -0.001503 0.002843 -0.003801
# 2 -0.001685 0.009339 -0.002052 -0.002074 -0.000463 0.000032
# 3 -0.001416 -0.002052 0.006083 -0.001601 -0.001996 -0.002091
# 4 -0.001503 -0.002074 -0.001601 0.020152 -0.005437 -0.000655
# 5 0.002843 -0.000463 -0.001996 -0.005437 0.023614 0.000270
# 6 -0.003801 0.000032 -0.002091 -0.000655 0.000270 0.025313
#
#
# Mechanical properties :
#
#
# Convention : Reuss Voigt Hill
#
# Bulk Modulus (GPa) = 54.20139 77.10240 65.65189
# Shear Modulus (GPa) = 43.74774 51.41258 47.58016
#
# Velocity S-wave (km/s) = 3.98591 4.32100 4.15683
# Velocity P-wave (km/s) = 6.39274 7.27292 6.84699
#
# Compressibility (1/GPa) = 0.01844971
#
# Stress axis : x y z
#
# Youngs Moduli (GPa) = 74.99599 107.07558 164.40146
#
# Poissons Ratio (x) = 0.18039 0.23281
# Poissons Ratio (y) = 0.12635 0.33739
# Poissons Ratio (z) = 0.10620 0.21975
#
# Static dielectric constant tensor:
#      x y z
#    x 2.302040 -0.033350 -0.021480 
#    y -0.033350 2.150870 -0.048080 
#    z -0.021480 -0.048080 2.185040 
# 
# From -- ./inp_files/357057.got.cif
#   From: 2010.05.17/outbox.cif.g08.bks.cpg/sg2_179_cif.got.tgz:357057.got - 2010.06.03 11:33:40.
