data_PCOD9099950
_publ_section_title
;
Structure prediction by ZEFSAII (Michael W. Deem and Ramdas Pophale) SiO2 
 PCOD9099950
Probable space group: P -1
;
_chemical_formula_sum "Si O2"
_cell_formula_units_Z 14
_cell_length_a 10.075013
_cell_length_b 6.802153
_cell_length_c 13.709689
_cell_angle_alpha 71.372420
_cell_angle_beta 123.206299
_cell_angle_gamma 134.234730
_cell_volume 560.166848
_symmetry_space_group_name_H-M "P -1"
_symmetry_group_IT_number 2
_symmetry_cell_setting 'triclinic'
loop_
_space_group_symop_operation_xyz
x,y,z
-x,-y,-z
loop_
_atom_site_type_symbol
_atom_site_label
_atom_site_fract_x
_atom_site_fract_y
_atom_site_fract_z
Si Si1 0.313629 0.173932 0.023169
Si Si2 0.205810 0.905271 0.825200
Si Si3 0.572104 0.401984 0.468307
Si Si4 0.036048 0.328563 0.907912
Si Si5 0.704165 0.138452 0.654912
Si Si6 0.121788 0.198884 0.615160
Si Si7 0.659345 0.263980 0.274717
O O1 0.226229 0.331725 0.973889
O O2 0.347825 0.123717 0.934505
O O3 0.514138 0.303633 0.151481
O O4 0.117253 0.871787 0.035326
O O5 0.290067 0.862759 0.767882
O O6 0.091358 0.617820 0.880141
O O7 0.088029 0.003044 0.717219
O O8 0.500000 0.500000 0.500000
O O9 0.748276 0.399481 0.584162
O O10 0.643609 0.580735 0.371995
O O11 0.376352 0.083365 0.424338
O O12 0.891588 0.188694 0.776490
O O13 0.503182 0.975874 0.674165
O O14 0.142368 0.447363 0.637615
O O15 0.000000 0.000000 0.500000
#
# Coordination Sequence:
#
# PCOD9099950 Si02
#       7
#     2   2   2   2   2   2   2
#     4  10  23  43  64  91 123 165 209 251 307 365
#     4  12  23  38  64  93 124 163 203 253 312 368
#     4  10  20  37  62  88 119 160 207 251 298 362
#     4  10  22  40  63  90 126 160 204 257 301 367
#     4   9  20  39  61  88 121 163 204 248 304 356
#     4  11  25  41  60  91 125 161 204 252 312 367
#     4  10  23  42  63  91 127 161 204 257 306 369
#
# _framework density 24.992557000000001
#
# number of rings (size 3 to 8) (size 9 to 14) (size 15 to 20)
#    0.000    1.714    0.000    3.429    0.000    7.429 
#    0.000    5.714    0.000    0.000    0.000    0.000 
#    0.000    0.000    0.000    0.000    0.000    0.000 
#
# Total GULP energy -78068.439930 kJ/mol
# GULP energy per Si atom -5576.317138 kJ/mol
# Density = 2.493567 g / cm^3
# Si number density = 24.992557 Si / 1000 Ang^3
#
#
#
# Elastic Constant Matrix: (Units=GPa)
#
#
# Indices 1 2 3 4 5 6 
#
# 1 72.9214 29.3854 23.3983 10.1240 -20.5813 -20.7811
# 2 29.3854 128.0452 42.0887 -15.2510 -8.5956 9.0960
# 3 23.3983 42.0887 134.6065 9.2234 -9.8722 -17.8854
# 4 10.1240 -15.2510 9.2234 40.3473 -8.8002 -7.1556
# 5 -20.5813 -8.5956 -9.8722 -8.8002 40.5994 3.2947
# 6 -20.7811 9.0960 -17.8854 -7.1556 3.2947 33.4192
#
#
#
# Elastic Compliance Matrix: (Units=1/GPa)
#
#
# Indices 1 2 3 4 5 6 
#
# 1 0.023394 -0.006658 0.000934 -0.004044 0.008571 0.015148
# 2 -0.006658 0.011948 -0.004073 0.005649 0.000068 -0.008369
# 3 0.000934 -0.004073 0.009608 -0.002687 0.000864 0.006170
# 4 -0.004044 0.005649 -0.002687 0.029685 0.004895 0.000383
# 5 0.008571 0.000068 0.000864 0.004895 0.029947 0.003870
# 6 0.015148 -0.008369 0.006170 0.000383 0.003870 0.044623
#
#
# Mechanical properties :
#
#
# Convention : Reuss Voigt Hill
#
# Bulk Modulus (GPa) = 39.43838 58.36868 48.90353
# Shear Modulus (GPa) = 28.20840 38.91989 33.56414
#
# Velocity S-wave (km/s) = 3.36322 3.95049 3.66863
# Velocity P-wave (km/s) = 5.55841 6.64934 6.12820
#
# Compressibility (1/GPa) = 0.02535601
#
# Stress axis : x y z
#
# Youngs Moduli (GPa) = 42.74525 83.69365 104.08440
#
# Poissons Ratio (x) = 0.55725 -0.09720
# Poissons Ratio (y) = 0.28461 0.42391
# Poissons Ratio (z) = -0.03992 0.34086
#
# Static dielectric constant tensor:
#      x y z
#    x 2.010930 0.011230 0.006130 
#    y 0.011230 2.064100 0.010410 
#    z 0.006130 0.010410 2.035510 
# 
# From -- ./inp_files/96964.got.cif
#   From: 2010.05.17/outbox.cif.g08.bks.cpg/sg2_49_cif.got.tgz:96964.got - 2010.06.03 11:33:40.
