data_PCOD9099875
_publ_section_title
;
Structure prediction by ZEFSAII (Michael W. Deem and Ramdas Pophale) SiO2 
 PCOD9099875
Probable space group: P -1
;
_chemical_formula_sum "Si O2"
_cell_formula_units_Z 16
_cell_length_a 15.097180
_cell_length_b 12.477913
_cell_length_c 6.103163
_cell_angle_alpha 134.976288
_cell_angle_beta 114.050360
_cell_angle_gamma 61.851609
_cell_volume 712.043074
_symmetry_space_group_name_H-M "P -1"
_symmetry_group_IT_number 2
_symmetry_cell_setting 'triclinic'
loop_
_space_group_symop_operation_xyz
x,y,z
-x,-y,-z
loop_
_atom_site_type_symbol
_atom_site_label
_atom_site_fract_x
_atom_site_fract_y
_atom_site_fract_z
Si Si1 0.161771 0.918286 0.141861
Si Si2 0.262906 0.092271 0.191180
Si Si3 0.962790 0.302691 0.170739
Si Si4 0.134133 0.213131 0.849927
Si Si5 0.464874 0.400331 0.128908
Si Si6 0.461258 0.884820 0.946855
Si Si7 0.134584 0.399341 0.732841
Si Si8 0.632616 0.305526 0.776556
O O1 0.261235 0.799078 0.177447
O O2 0.195842 0.977225 0.032147
O O3 0.128758 0.077834 0.480360
O O4 0.077333 0.827888 0.938549
O O5 0.224638 0.253597 0.522247
O O6 0.236014 0.145935 0.993659
O O7 0.378184 0.992765 0.182226
O O8 0.872865 0.436829 0.157269
O O9 0.028317 0.371362 0.506067
O O10 0.042193 0.239000 0.963182
O O11 0.135327 0.372609 0.954565
O O12 0.500000 0.500000 0.500000
O O13 0.455717 0.244729 0.018390
O O14 0.626985 0.475484 0.907293
O O15 0.552663 0.343591 0.952271
O O16 0.405435 0.791755 0.592127
O O17 0.500000 0.000000 0.000000
#
# Coordination Sequence:
#
# PCOD9099875 Si02
#       8
#     2   2   2   2   2   2   2   2
#     4  11  21  36  61  89 115 154 199 241 291 349
#     4  10  21  39  57  84 122 152 193 251 286 347
#     4  10  21  38  59  88 116 157 194 240 291 348
#     4  10  20  37  62  83 121 152 194 241 292 346
#     4   9  20  40  62  84 116 155 192 244 299 347
#     4  11  22  40  62  88 117 159 198 245 302 355
#     4   9  21  40  57  83 124 154 191 240 293 349
#     4  10  20  40  61  85 120 154 194 248 297 350
#
# _framework density 22.470549999999999
#
# number of rings (size 3 to 8) (size 9 to 14) (size 15 to 20)
#    0.000    2.000    2.500    0.750    0.000    6.000 
#    9.000    0.000    0.000    0.000    0.000    0.000 
#    0.000    0.000    0.000    0.000    0.000    0.000 
#
# Total GULP energy -89348.259068 kJ/mol
# GULP energy per Si atom -5584.266192 kJ/mol
# Density = 2.241941 g / cm^3
# Si number density = 22.470550 Si / 1000 Ang^3
#
#
#
# Elastic Constant Matrix: (Units=GPa)
#
#
# Indices 1 2 3 4 5 6 
#
# 1 31.1346 20.0167 4.3229 10.5350 -10.8249 3.3199
# 2 20.0167 183.8631 10.1082 -0.2577 -8.5280 8.2492
# 3 4.3229 10.1082 25.0491 1.5633 -10.6288 -9.9052
# 4 10.5350 -0.2577 1.5633 34.1724 -4.1437 -4.1636
# 5 -10.8249 -8.5280 -10.6288 -4.1437 19.5722 1.8322
# 6 3.3199 8.2492 -9.9052 -4.1636 1.8322 37.6078
#
#
#
# Elastic Compliance Matrix: (Units=1/GPa)
#
#
# Indices 1 2 3 4 5 6 
#
# 1 0.047316 -0.003958 0.002049 -0.012518 0.023403 -0.005295
# 2 -0.003958 0.006060 -0.002712 0.001125 -0.000640 -0.001538
# 3 0.002049 -0.002712 0.059764 0.002244 0.031490 0.014869
# 4 -0.012518 0.001125 0.002244 0.033831 0.001468 0.005123
# 5 0.023403 -0.000640 0.031490 0.001468 0.080927 0.002588
# 6 -0.005295 -0.001538 0.014869 0.005123 0.002588 0.031752
#
#
# Mechanical properties :
#
#
# Convention : Reuss Voigt Hill
#
# Bulk Modulus (GPa) = 9.62488 34.32692 21.97590
# Shear Modulus (GPa) = 16.47318 31.97708 24.22513
#
# Velocity S-wave (km/s) = 2.71052 3.77645 3.28698
# Velocity P-wave (km/s) = 3.75347 5.85875 4.92004
#
# Compressibility (1/GPa) = 0.10389738
#
# Stress axis : x y z
#
# Youngs Moduli (GPa) = 21.13450 165.02182 16.73260
#
# Poissons Ratio (x) = 0.65321 -0.03429
# Poissons Ratio (y) = 0.08366 0.04538
# Poissons Ratio (z) = -0.04331 0.44756
#
# Static dielectric constant tensor:
#      x y z
#    x 1.815010 -0.000220 -0.006970 
#    y -0.000220 1.883930 0.005080 
#    z -0.006970 0.005080 1.825800 
# 
# From -- ./inp_files/95535.got.cif
#   From: 2010.05.17/outbox.cif.g08.bks.cpg/sg2_48_cif.got.tgz:95535.got - 2010.06.03 11:33:40.
