data_PCOD9099247
_publ_section_title
;
Structure prediction by ZEFSAII (Michael W. Deem and Ramdas Pophale) SiO2 
 PCOD9099247
Probable space group: P -1
;
_chemical_formula_sum "Si O2"
_cell_formula_units_Z 16
_cell_length_a 22.586040
_cell_length_b 13.737507
_cell_length_c 6.759006
_cell_angle_alpha 139.051736
_cell_angle_beta 128.705469
_cell_angle_gamma 32.142673
_cell_volume 730.628415
_symmetry_space_group_name_H-M "P -1"
_symmetry_group_IT_number 2
_symmetry_cell_setting 'triclinic'
loop_
_space_group_symop_operation_xyz
x,y,z
-x,-y,-z
loop_
_atom_site_type_symbol
_atom_site_label
_atom_site_fract_x
_atom_site_fract_y
_atom_site_fract_z
Si Si1 0.582465 0.418446 0.723513
Si Si2 0.541660 0.156230 0.695784
Si Si3 0.846455 0.423649 0.366271
Si Si4 0.079323 0.179916 0.404762
Si Si5 0.202923 0.765206 0.298496
Si Si6 0.288858 0.060453 0.601603
Si Si7 0.376498 0.144664 0.245042
Si Si8 0.894574 0.105638 0.308079
O O1 0.500000 0.500000 0.500000
O O2 0.677845 0.387720 0.787552
O O3 0.644813 0.181300 0.559010
O O4 0.516162 0.602339 0.034094
O O5 0.458700 0.165517 0.419205
O O6 0.662099 0.986614 0.585733
O O7 0.554755 0.072934 0.816255
O O8 0.728013 0.659163 0.536733
O O9 0.872633 0.268905 0.358822
O O10 0.949559 0.388168 0.502102
O O11 0.842283 0.328026 0.014456
O O12 0.159261 0.206258 0.581916
O O13 0.128732 0.003711 0.413071
O O14 0.090175 0.062973 0.050738
O O15 0.201936 0.776823 0.550219
O O16 0.326956 0.142354 0.942344
O O17 0.000000 0.000000 0.500000
#
# Coordination Sequence:
#
# PCOD9099247 Si02
#       8
#     2   2   2   2   2   2   2   2
#     4  11  22  40  67  95 124 161 204 272 314 354
#     4  11  24  46  65  91 125 168 215 253 308 376
#     4  11  21  39  61  92 127 166 209 249 313 372
#     4  10  22  37  60  93 127 156 205 266 304 365
#     4  10  20  37  59  93 127 158 204 258 314 362
#     4  11  25  42  65  94 126 165 208 259 318 367
#     4  11  25  44  64  89 128 173 205 256 308 379
#     4  11  19  35  64  92 123 163 207 256 305 368
#
# _framework density 21.898958
#
# number of rings (size 3 to 8) (size 9 to 14) (size 15 to 20)
#    0.000    1.250    5.000    1.500    1.750    2.500 
#    0.000    0.625    0.000    0.000    0.000    0.000 
#    0.000    0.000    0.000    0.000    0.000    0.000 
#
# Total GULP energy -89440.363049 kJ/mol
# GULP energy per Si atom -5590.022691 kJ/mol
# Density = 2.184912 g / cm^3
# Si number density = 21.898958 Si / 1000 Ang^3
#
#
#
# Elastic Constant Matrix: (Units=GPa)
#
#
# Indices 1 2 3 4 5 6 
#
# 1 83.6545 1.0902 15.5398 -2.8913 -2.4724 -20.5012
# 2 1.0902 32.2403 -8.7369 -0.5206 8.1638 -9.3251
# 3 15.5398 -8.7369 55.5208 -7.5168 0.7801 10.3958
# 4 -2.8913 -0.5206 -7.5168 26.3331 -7.4614 -3.7857
# 5 -2.4724 8.1638 0.7801 -7.4614 36.1421 -8.2924
# 6 -20.5012 -9.3251 10.3958 -3.7857 -8.2924 30.4386
#
#
#
# Elastic Compliance Matrix: (Units=1/GPa)
#
#
# Indices 1 2 3 4 5 6 
#
# 1 0.017807 0.000810 -0.007578 0.003909 0.005888 0.016920
# 2 0.000810 0.036162 0.004108 0.001588 -0.005849 0.008825
# 3 -0.007578 0.004108 0.023618 0.002957 -0.004261 -0.012705
# 4 0.003909 0.001588 0.002957 0.044044 0.011390 0.010690
# 5 0.005888 -0.005849 -0.004261 0.011390 0.035193 0.014633
# 6 0.016920 0.008825 -0.012705 0.010690 0.014633 0.056608
#
#
# Mechanical properties :
#
#
# Convention : Reuss Voigt Hill
#
# Bulk Modulus (GPa) = 13.83729 20.80022 17.31875
# Shear Modulus (GPa) = 20.58972 29.48426 25.03699
#
# Velocity S-wave (km/s) = 3.06962 3.67328 3.38493
# Velocity P-wave (km/s) = 4.34693 5.24496 4.81692
#
# Compressibility (1/GPa) = 0.07226849
#
# Stress axis : x y z
#
# Youngs Moduli (GPa) = 56.15859 27.65311 42.34079
#
# Poissons Ratio (x) = -0.02241 0.32086
# Poissons Ratio (y) = -0.04551 -0.17396
# Poissons Ratio (z) = 0.42557 -0.11361
#
# Static dielectric constant tensor:
#      x y z
#    x 1.899070 -0.025540 0.026390 
#    y -0.025540 1.792620 -0.015170 
#    z 0.026390 -0.015170 1.784460 
# 
# From -- ./inp_files/118918.got.cif
#   From: 2010.05.17/outbox.cif.g08.bks.cpg/sg2_60_cif.got.tgz:118918.got - 2010.06.03 11:33:40.
