data_PCOD9099307
_publ_section_title
;
Structure prediction by ZEFSAII (Michael W. Deem and Ramdas Pophale) SiO2 
 PCOD9099307
Probable space group: P -1
;
_chemical_formula_sum "Si O2"
_cell_formula_units_Z 16
_cell_length_a 10.081230
_cell_length_b 18.896114
_cell_length_c 7.466018
_cell_angle_alpha 39.288156
_cell_angle_beta 122.716988
_cell_angle_gamma 108.679686
_cell_volume 744.775463
_symmetry_space_group_name_H-M "P -1"
_symmetry_group_IT_number 2
_symmetry_cell_setting 'triclinic'
loop_
_space_group_symop_operation_xyz
x,y,z
-x,-y,-z
loop_
_atom_site_type_symbol
_atom_site_label
_atom_site_fract_x
_atom_site_fract_y
_atom_site_fract_z
Si Si1 0.026847 0.848197 0.767948
Si Si2 0.608618 0.379500 0.268627
Si Si3 0.039594 0.116262 0.728889
Si Si4 0.606077 0.178161 0.937454
Si Si5 0.813426 0.812889 0.976904
Si Si6 0.679708 0.221078 0.311304
Si Si7 0.492759 0.961648 0.362842
Si Si8 0.967874 0.382756 0.634757
O O1 0.925361 0.896493 0.429690
O O2 0.055708 0.127189 0.149064
O O3 0.204387 0.873348 0.844998
O O4 0.038086 0.711433 0.031338
O O5 0.570854 0.283160 0.569241
O O6 0.602313 0.327391 0.167654
O O7 0.794436 0.391924 0.401347
O O8 0.500000 0.500000 0.000000
O O9 0.871311 0.206391 0.453173
O O10 0.176795 0.154320 0.874232
O O11 0.000000 0.000000 0.000000
O O12 0.598561 0.219905 0.058236
O O13 0.510953 0.074257 0.046749
O O14 0.649935 0.862114 0.661894
O O15 0.885943 0.680843 0.257220
O O16 0.651602 0.106982 0.619905
O O17 0.500000 0.000000 0.500000
O O18 0.000000 0.500000 0.500000
#
# Coordination Sequence:
#
# PCOD9099307 Si02
#       8
#     2   2   2   2   2   2   2   2
#     4   8  19  34  58  84 113 146 195 228 287 337
#     4  11  23  39  62  84 113 157 201 239 284 342
#     4  11  19  34  61  86 115 148 189 236 282 354
#     4   9  19  39  58  84 124 149 190 240 286 351
#     4  10  20  37  60  84 117 150 190 234 291 335
#     4  10  21  39  57  87 121 152 190 235 294 346
#     4  10  21  37  59  89 125 153 184 235 296 351
#     4   9  20  41  59  82 115 149 196 244 283 334
#
# _framework density 21.482983000000001
#
# number of rings (size 3 to 8) (size 9 to 14) (size 15 to 20)
#    0.750    1.500    1.250    2.250    1.750    4.000 
#    0.000    6.875    0.000    0.000    0.000    0.000 
#    0.000    0.000    0.000    0.000    0.000    0.000 
#
# Total GULP energy -89217.672617 kJ/mol
# GULP energy per Si atom -5576.104539 kJ/mol
# Density = 2.143409 g / cm^3
# Si number density = 21.482983 Si / 1000 Ang^3
#
#
#
# Elastic Constant Matrix: (Units=GPa)
#
#
# Indices 1 2 3 4 5 6 
#
# 1 57.3818 14.9615 11.0023 -2.7189 5.2688 1.8059
# 2 14.9615 79.6564 23.5114 -14.6497 -0.5144 -5.0017
# 3 11.0023 23.5114 73.3841 -7.5879 12.4494 -6.5825
# 4 -2.7189 -14.6497 -7.5879 31.9813 -6.5161 -2.8297
# 5 5.2688 -0.5144 12.4494 -6.5161 30.4377 -3.7268
# 6 1.8059 -5.0017 -6.5825 -2.8297 -3.7268 30.9581
#
#
#
# Elastic Compliance Matrix: (Units=1/GPa)
#
#
# Indices 1 2 3 4 5 6 
#
# 1 0.018958 -0.003525 -0.001508 -0.001255 -0.003300 -0.002508
# 2 -0.003525 0.016059 -0.004372 0.007228 0.004595 0.003084
# 3 -0.001508 -0.004372 0.016576 0.000744 -0.006160 0.002233
# 4 -0.001255 0.007228 0.000744 0.036927 0.008652 0.005816
# 5 -0.003300 0.004595 -0.006160 0.008652 0.038493 0.005050
# 6 -0.002508 0.003084 0.002233 0.005816 0.005050 0.034561
#
#
# Mechanical properties :
#
#
# Convention : Reuss Voigt Hill
#
# Bulk Modulus (GPa) = 30.50379 34.37474 32.43926
# Shear Modulus (GPa) = 26.13539 29.40525 27.77032
#
# Velocity S-wave (km/s) = 3.49171 3.70370 3.59927
# Velocity P-wave (km/s) = 5.52141 5.85880 5.69260
#
# Compressibility (1/GPa) = 0.03278281
#
# Stress axis : x y z
#
# Youngs Moduli (GPa) = 52.74850 62.26933 60.32815
#
# Poissons Ratio (x) = 0.21953 0.09095
# Poissons Ratio (y) = 0.18596 0.26376
# Poissons Ratio (z) = 0.07953 0.27225
#
# Static dielectric constant tensor:
#      x y z
#    x 1.851660 -0.003290 0.019520 
#    y -0.003290 1.778780 0.010540 
#    z 0.019520 0.010540 1.783830 
# 
# From -- ./inp_files/282641.got.cif
#   From: 2010.05.17/outbox.cif.g08.bks.cpg/sg2_142_cif.got.tgz:282641.got - 2010.06.03 11:33:40.
