data_PCOD9099493
_publ_section_title
;
Structure prediction by ZEFSAII (Michael W. Deem and Ramdas Pophale) SiO2 
 PCOD9099493
Probable space group: P -1
;
_chemical_formula_sum "Si O2"
_cell_formula_units_Z 14
_cell_length_a 7.363007
_cell_length_b 14.585943
_cell_length_c 14.261054
_cell_angle_alpha 152.002590
_cell_angle_beta 79.118267
_cell_angle_gamma 114.978880
_cell_volume 587.585451
_symmetry_space_group_name_H-M "P -1"
_symmetry_group_IT_number 2
_symmetry_cell_setting 'triclinic'
loop_
_space_group_symop_operation_xyz
x,y,z
-x,-y,-z
loop_
_atom_site_type_symbol
_atom_site_label
_atom_site_fract_x
_atom_site_fract_y
_atom_site_fract_z
Si Si1 0.706674 0.414313 0.614277
Si Si2 0.651554 0.574897 0.422948
Si Si3 0.197221 0.311491 0.685827
Si Si4 0.080847 0.786518 0.209300
Si Si5 0.439460 0.012276 0.625814
Si Si6 0.170030 0.261814 0.252525
Si Si7 0.684451 0.639259 0.993055
O O1 0.462359 0.287336 0.475003
O O2 0.862998 0.557093 0.640627
O O3 0.693216 0.230369 0.522053
O O4 0.735349 0.624720 0.866446
O O5 0.753025 0.558429 0.301105
O O6 0.426030 0.343777 0.276596
O O7 0.824346 0.697913 0.600655
O O8 0.008984 0.301764 0.756784
O O9 0.424372 0.428115 0.830457
O O10 0.129305 0.047605 0.437428
O O11 0.870644 0.631290 0.023384
O O12 0.684201 0.175743 0.796382
O O13 0.313453 0.139357 0.770799
O O14 0.500000 0.000000 0.500000
O O15 0.000000 0.000000 0.000000
#
# Coordination Sequence:
#
# PCOD9099493 Si02
#       7
#     2   2   2   2   2   2   2
#     4   9  21  42  60  94 136 160 213 284 307 376
#     4   8  17  33  57  89 125 158 208 270 317 370
#     4  10  20  37  60  91 127 167 213 267 312 377
#     4  11  22  40  64  90 131 177 216 261 319 377
#     4  12  25  42  64  97 135 175 217 262 318 388
#     4   9  17  32  64  91 113 169 216 252 336 384
#     4  11  24  40  66  88 133 175 213 264 321 377
#
# _framework density 23.826321
#
# number of rings (size 3 to 8) (size 9 to 14) (size 15 to 20)
#    0.857    1.143    2.857    2.143    4.000    0.571 
#    2.571    0.000    0.000    8.571    0.000    0.000 
#    0.000    0.143    0.000    0.000    0.000    0.000 
#
# Total GULP energy -78058.811124 kJ/mol
# GULP energy per Si atom -5575.629366 kJ/mol
# Density = 2.377209 g / cm^3
# Si number density = 23.826321 Si / 1000 Ang^3
#
#
#
# Elastic Constant Matrix: (Units=GPa)
#
#
# Indices 1 2 3 4 5 6 
#
# 1 101.8928 28.4505 41.5192 -0.4680 10.2674 -9.6955
# 2 28.4505 155.3562 57.1025 -4.8086 4.6060 -19.9342
# 3 41.5192 57.1025 105.5413 3.8613 17.9263 -21.0546
# 4 -0.4680 -4.8086 3.8613 29.5767 0.3482 4.6748
# 5 10.2674 4.6060 17.9263 0.3482 38.2694 1.8268
# 6 -9.6955 -19.9342 -21.0546 4.6748 1.8268 28.4570
#
#
#
# Elastic Compliance Matrix: (Units=1/GPa)
#
#
# Indices 1 2 3 4 5 6 
#
# 1 0.011796 -0.000544 -0.004023 0.000535 -0.001251 0.000654
# 2 -0.000544 0.008343 -0.004035 0.001489 0.000905 0.002371
# 3 -0.004023 -0.004035 0.016273 -0.004182 -0.006446 0.008943
# 4 0.000535 0.001489 -0.004182 0.035830 0.001685 -0.007863
# 5 -0.001251 0.000905 -0.006446 0.001685 0.029684 -0.006744
# 6 0.000654 0.002371 0.008943 -0.007863 -0.006744 0.045366
#
#
# Mechanical properties :
#
#
# Convention : Reuss Voigt Hill
#
# Bulk Modulus (GPa) = 52.06212 68.54829 60.30520
# Shear Modulus (GPa) = 29.25723 34.97515 32.11619
#
# Velocity S-wave (km/s) = 3.50800 3.83550 3.67540
# Velocity P-wave (km/s) = 6.18920 6.96040 6.58610
#
# Compressibility (1/GPa) = 0.01920782
#
# Stress axis : x y z
#
# Youngs Moduli (GPa) = 84.77388 119.85960 61.45230
#
# Poissons Ratio (x) = 0.06521 0.24721
# Poissons Ratio (y) = 0.04612 0.24798
# Poissons Ratio (z) = 0.34102 0.48367
#
# Static dielectric constant tensor:
#      x y z
#    x 1.936030 -0.011380 0.006790 
#    y -0.011380 1.965990 0.008000 
#    z 0.006790 0.008000 1.951460 
# 
# From -- ./inp_files/520494.got.cif
#   From: 2010.05.17/outbox.cif.g08.bks.cpg/sg2_261_cif.got.tgz:520494.got - 2010.06.03 11:33:40.
