data_PCOD9099597
_publ_section_title
;
Structure prediction by ZEFSAII (Michael W. Deem and Ramdas Pophale) SiO2 
 PCOD9099597
Probable space group: P -1
;
_chemical_formula_sum "Si O2"
_cell_formula_units_Z 16
_cell_length_a 7.882035
_cell_length_b 17.549997
_cell_length_c 6.587191
_cell_angle_alpha 55.745160
_cell_angle_beta 87.099031
_cell_angle_gamma 66.265782
_cell_volume 670.549957
_symmetry_space_group_name_H-M "P -1"
_symmetry_group_IT_number 2
_symmetry_cell_setting 'triclinic'
loop_
_space_group_symop_operation_xyz
x,y,z
-x,-y,-z
loop_
_atom_site_type_symbol
_atom_site_label
_atom_site_fract_x
_atom_site_fract_y
_atom_site_fract_z
Si Si1 0.275223 0.959580 0.607580
Si Si2 0.219142 0.561861 0.934861
Si Si3 0.993645 0.925889 0.929941
Si Si4 0.793069 0.857723 0.353573
Si Si5 0.460811 0.660190 0.701151
Si Si6 0.359355 0.258274 0.694477
Si Si7 0.003976 0.469571 0.316775
Si Si8 0.656008 0.766169 0.804926
O O1 0.489765 0.883662 0.655156
O O2 0.178013 0.894277 0.821723
O O3 0.168854 0.013062 0.323516
O O4 0.254534 0.041072 0.662560
O O5 0.270137 0.656493 0.791034
O O6 0.181093 0.537313 0.743888
O O7 0.396856 0.460471 0.167490
O O8 0.042494 0.555236 0.065321
O O9 0.944791 0.847032 0.184366
O O10 0.000000 0.000000 0.000000
O O11 0.629628 0.845405 0.250817
O O12 0.822488 0.774833 0.654473
O O13 0.458326 0.725915 0.404704
O O14 0.557033 0.703572 0.795262
O O15 0.180797 0.356036 0.458641
O O16 0.307122 0.267181 0.916971
O O17 0.000000 0.500000 0.500000
#
# Coordination Sequence:
#
# PCOD9099597 Si02
#       8
#     2   2   2   2   2   2   2   2
#     4  10  21  38  58  86 114 155 199 242 289 347
#     4   9  19  39  60  84 114 153 193 232 299 344
#     4   9  20  39  58  79 115 156 193 240 296 346
#     4  10  21  38  59  82 116 158 191 244 289 345
#     4   9  20  38  59  83 119 153 188 247 288 343
#     4  10  22  38  56  87 120 154 192 241 294 343
#     4  10  20  37  61  86 114 150 194 238 287 353
#     4  11  22  36  59  88 118 150 203 240 286 350
#
# _framework density 23.861014000000001
#
# number of rings (size 3 to 8) (size 9 to 14) (size 15 to 20)
#    0.000    2.250    0.000    1.875    0.000    7.000 
#   11.250    3.750    0.000    0.000    0.000    0.000 
#    0.000    0.000    0.000    0.000    0.000    0.000 
#
# Total GULP energy -89164.517074 kJ/mol
# GULP energy per Si atom -5572.782317 kJ/mol
# Density = 2.380671 g / cm^3
# Si number density = 23.861014 Si / 1000 Ang^3
#
#
#
# Elastic Constant Matrix: (Units=GPa)
#
#
# Indices 1 2 3 4 5 6 
#
# 1 91.5852 18.7860 57.6763 -5.6006 -34.1424 19.5136
# 2 18.7860 89.0457 35.3117 12.4784 -10.3252 15.7546
# 3 57.6763 35.3117 168.9408 17.2215 -34.3833 16.6614
# 4 -5.6006 12.4784 17.2215 32.8956 0.1443 -3.6164
# 5 -34.1424 -10.3252 -34.3833 0.1443 46.5510 -14.5487
# 6 19.5136 15.7546 16.6614 -3.6164 -14.5487 32.3697
#
#
#
# Elastic Compliance Matrix: (Units=1/GPa)
#
#
# Indices 1 2 3 4 5 6 
#
# 1 0.018321 -0.001221 -0.004416 0.005456 0.008752 -0.003634
# 2 -0.001221 0.013828 -0.001489 -0.005353 -0.000852 -0.006209
# 3 -0.004416 -0.001489 0.008860 -0.004886 0.002854 -0.000437
# 4 0.005456 -0.005353 -0.004886 0.036617 0.001097 0.006415
# 5 0.008752 -0.000852 0.002854 0.001097 0.032432 0.008369
# 6 -0.003634 -0.006209 -0.000437 0.006415 0.008369 0.040809
#
#
# Mechanical properties :
#
#
# Convention : Reuss Voigt Hill
#
# Bulk Modulus (GPa) = 37.37301 63.67996 50.52649
# Shear Modulus (GPa) = 28.72948 38.21645 33.47296
#
# Velocity S-wave (km/s) = 3.47368 4.00637 3.74950
# Velocity P-wave (km/s) = 5.63786 6.93882 6.32189
#
# Compressibility (1/GPa) = 0.02675728
#
# Stress axis : x y z
#
# Youngs Moduli (GPa) = 54.58229 72.31705 112.86620
#
# Poissons Ratio (x) = 0.08828 0.49844
# Poissons Ratio (y) = 0.06663 0.16805
# Poissons Ratio (z) = 0.24105 0.10768
#
# Static dielectric constant tensor:
#      x y z
#    x 1.999360 -0.003820 -0.019420 
#    y -0.003820 1.935820 -0.032080 
#    z -0.019420 -0.032080 1.987510 
# 
# From -- ./inp_files/43344.got.cif
#   From: 2010.05.17/outbox.cif.g08.bks.cpg/sg2_22_cif.got.tgz:43344.got - 2010.06.03 11:33:40.
