data_PCOD9099171
_publ_section_title
;
Structure prediction by ZEFSAII (Michael W. Deem and Ramdas Pophale) SiO2 
 PCOD9099171
Probable space group: P -1
;
_chemical_formula_sum "Si O2"
_cell_formula_units_Z 14
_cell_length_a 10.230971
_cell_length_b 23.747221
_cell_length_c 24.997010
_cell_angle_alpha 17.591907
_cell_angle_beta 156.701960
_cell_angle_gamma 154.435826
_cell_volume 707.783749
_symmetry_space_group_name_H-M "P -1"
_symmetry_group_IT_number 2
_symmetry_cell_setting 'triclinic'
loop_
_space_group_symop_operation_xyz
x,y,z
-x,-y,-z
loop_
_atom_site_type_symbol
_atom_site_label
_atom_site_fract_x
_atom_site_fract_y
_atom_site_fract_z
Si Si1 0.812388 0.882438 0.783216
Si Si2 0.132630 0.126180 0.988027
Si Si3 0.966666 0.186156 0.471790
Si Si4 0.806711 0.947761 0.130075
Si Si5 0.674599 0.502057 0.339262
Si Si6 0.327910 0.605053 0.217156
Si Si7 0.716014 0.921046 0.421684
O O1 0.416145 0.798515 0.700127
O O2 0.942451 0.040109 0.643745
O O3 0.877782 0.988031 0.769678
O O4 0.035903 0.723247 0.007339
O O5 0.467235 0.062559 0.191240
O O6 0.211416 0.346637 0.801779
O O7 0.869567 0.065794 0.991889
O O8 0.000000 0.000000 0.000000
O O9 0.197332 0.394151 0.382390
O O10 0.122688 0.109450 0.547429
O O11 0.669835 0.727402 0.262063
O O12 0.500000 0.000000 0.000000
O O13 0.415404 0.579752 0.210710
O O14 0.502789 0.286173 0.454976
O O15 0.000000 0.500000 0.500000
O O16 0.000000 0.000000 0.500000
#
# Coordination Sequence:
#
# PCOD9099171 Si02
#       7
#     2   2   2   2   2   2   2
#     4  10  21  40  57  86 124 161 200 248 310 367
#     4  12  22  41  68  90 126 170 205 259 317 368
#     4  10  22  37  63  84 120 165 202 246 312 372
#     4  10  22  37  61  89 122 154 203 255 297 359
#     4  11  22  38  65  94 120 165 216 255 314 378
#     4  10  20  37  59  88 116 159 202 255 299 366
#     4  11  24  41  63  96 128 158 213 269 306 368
#
# _framework density 19.780054
#
# number of rings (size 3 to 8) (size 9 to 14) (size 15 to 20)
#    0.000    1.429    2.857    2.143    2.000    1.143 
#    0.000   11.429    0.000    0.000    0.000    0.000 
#    0.000    0.000    0.000    0.000    0.000    0.000 
#
# Total GULP energy -78240.895101 kJ/mol
# GULP energy per Si atom -5588.635364 kJ/mol
# Density = 1.973503 g / cm^3
# Si number density = 19.780054 Si / 1000 Ang^3
#
#
#
# Elastic Constant Matrix: (Units=GPa)
#
#
# Indices 1 2 3 4 5 6 
#
# 1 100.9717 26.1132 37.5042 -10.8317 -19.4987 12.9859
# 2 26.1132 121.3939 45.1636 -19.9465 -19.7627 -5.0272
# 3 37.5042 45.1636 88.1203 -10.8289 -7.2024 1.4370
# 4 -10.8317 -19.9465 -10.8289 35.2604 10.2284 -5.5724
# 5 -19.4987 -19.7627 -7.2024 10.2284 32.1388 1.1083
# 6 12.9859 -5.0272 1.4370 -5.5724 1.1083 31.6092
#
#
#
# Elastic Compliance Matrix: (Units=1/GPa)
#
#
# Indices 1 2 3 4 5 6 
#
# 1 0.014078 -0.000165 -0.005252 -0.000535 0.007638 -0.005933
# 2 -0.000165 0.011697 -0.005092 0.004114 0.004548 0.002725
# 3 -0.005252 -0.005092 0.016103 0.001549 -0.003236 0.001002
# 4 -0.000535 0.004114 0.001549 0.034673 -0.008732 0.007222
# 5 0.007638 0.004548 -0.003236 -0.008732 0.040780 -0.005236
# 6 -0.005933 0.002725 0.001002 0.007222 -0.005236 0.035918
#
#
# Mechanical properties :
#
#
# Convention : Reuss Voigt Hill
#
# Bulk Modulus (GPa) = 47.93824 58.67202 53.30513
# Shear Modulus (GPa) = 27.59103 33.24866 30.41985
#
# Velocity S-wave (km/s) = 3.73888 4.10435 3.92587
# Velocity P-wave (km/s) = 6.55188 7.22409 6.89618
#
# Compressibility (1/GPa) = 0.02086017
#
# Stress axis : x y z
#
# Youngs Moduli (GPa) = 71.03496 85.49417 62.10212
#
# Poissons Ratio (x) = 0.01406 0.32615
# Poissons Ratio (y) = 0.01169 0.31622
# Poissons Ratio (z) = 0.37306 0.43533
#
# Static dielectric constant tensor:
#      x y z
#    x 1.701710 0.009270 0.020630 
#    y 0.009270 1.707380 0.003650 
#    z 0.020630 0.003650 1.668370 
# 
# From -- ./inp_files/398188.got.cif
#   From: 2010.05.17/outbox.cif.g08.bks.cpg/sg2_200_cif.got.tgz:398188.got - 2010.06.03 11:33:40.
