data_PCOD9099544
_publ_section_title
;
Structure prediction by ZEFSAII (Michael W. Deem and Ramdas Pophale) SiO2 
 PCOD9099544
Probable space group: P -1
;
_chemical_formula_sum "Si O2"
_cell_formula_units_Z 16
_cell_length_a 15.303650
_cell_length_b 8.074910
_cell_length_c 8.249628
_cell_angle_alpha 87.131446
_cell_angle_beta 68.582448
_cell_angle_gamma 124.331782
_cell_volume 738.987932
_symmetry_space_group_name_H-M "P -1"
_symmetry_group_IT_number 2
_symmetry_cell_setting 'triclinic'
loop_
_space_group_symop_operation_xyz
x,y,z
-x,-y,-z
loop_
_atom_site_type_symbol
_atom_site_label
_atom_site_fract_x
_atom_site_fract_y
_atom_site_fract_z
Si Si1 0.184602 0.773487 0.766614
Si Si2 0.934994 0.753148 0.572462
Si Si3 0.323012 0.078689 0.386155
Si Si4 0.433847 0.562456 0.654689
Si Si5 0.093722 0.463857 0.098147
Si Si6 0.213488 0.130181 0.913079
Si Si7 0.768471 0.668943 0.414478
Si Si8 0.146328 0.848048 0.250725
O O1 0.046920 0.684594 0.844167
O O2 0.254489 0.863457 0.548129
O O3 0.246587 0.986276 0.821657
O O4 0.170322 0.583677 0.878591
O O5 0.883541 0.661892 0.790080
O O6 0.839483 0.641247 0.497623
O O7 0.043482 0.747501 0.460852
O O8 0.000000 0.000000 0.500000
O O9 0.463708 0.229823 0.326797
O O10 0.274768 0.208298 0.470936
O O11 0.275885 0.002795 0.240341
O O12 0.500000 0.500000 0.500000
O O13 0.338541 0.364622 0.846694
O O14 0.345657 0.546520 0.581247
O O15 0.124227 0.658083 0.175987
O O16 0.158353 0.176992 0.799265
O O17 0.136827 0.991806 0.125566
#
# Coordination Sequence:
#
# PCOD9099544 Si02
#       8
#     2   2   2   2   2   2   2   2
#     4   9  16  32  51  71 103 133 175 202 245 312
#     4  12  20  33  52  74 109 138 165 210 264 310
#     4  10  16  31  56  78  97 135 176 213 251 292
#     4   8  15  30  54  76  97 135 177 212 245 301
#     4  10  21  33  50  77 106 136 171 209 254 304
#     4   8  17  32  48  82 102 131 173 212 255 292
#     4   8  17  32  48  73 102 136 167 203 256 304
#     4  11  21  31  52  82 107 131 170 216 255 303
#
# _framework density 21.651233999999999
#
# number of rings (size 3 to 8) (size 9 to 14) (size 15 to 20)
#    0.750    1.750    3.750    1.125    0.000    1.000 
#    0.000    0.000    0.000    1.500    0.000    0.000 
#    0.000    0.000    0.000    0.000    0.000    0.000 
#
# Total GULP energy -89105.344838 kJ/mol
# GULP energy per Si atom -5569.084052 kJ/mol
# Density = 2.160195 g / cm^3
# Si number density = 21.651234 Si / 1000 Ang^3
#
#
#
# Elastic Constant Matrix: (Units=GPa)
#
#
# Indices 1 2 3 4 5 6 
#
# 1 60.4551 38.4900 19.5231 -2.0173 17.9020 24.2068
# 2 38.4900 85.3903 6.9239 -8.3285 5.0932 23.7830
# 3 19.5231 6.9239 84.3617 -21.2742 27.6501 1.8856
# 4 -2.0173 -8.3285 -21.2742 28.6884 -4.5624 4.0028
# 5 17.9020 5.0932 27.6501 -4.5624 30.8786 6.3565
# 6 24.2068 23.7830 1.8856 4.0028 6.3565 41.3062
#
#
#
# Elastic Compliance Matrix: (Units=1/GPa)
#
#
# Indices 1 2 3 4 5 6 
#
# 1 0.032250 -0.011115 -0.003226 -0.003935 -0.012488 -0.010049
# 2 -0.011115 0.018618 0.001657 0.007293 0.004124 -0.005623
# 3 -0.003226 0.001657 0.020734 0.013053 -0.015262 0.001073
# 4 -0.003935 0.007293 0.013053 0.046945 -0.002297 -0.006684
# 5 -0.012488 0.004124 -0.015262 -0.002297 0.052735 -0.002252
# 6 -0.010049 -0.005623 0.001073 -0.006684 -0.002252 0.034282
#
#
# Mechanical properties :
#
#
# Convention : Reuss Voigt Hill
#
# Bulk Modulus (GPa) = 21.62872 40.00901 30.81886
# Shear Modulus (GPa) = 20.29686 31.19263 25.74475
#
# Velocity S-wave (km/s) = 3.06510 3.79975 3.45202
# Velocity P-wave (km/s) = 4.74739 6.14572 5.49124
#
# Compressibility (1/GPa) = 0.04623483
#
# Stress axis : x y z
#
# Youngs Moduli (GPa) = 31.00744 53.71059 48.22982
#
# Poissons Ratio (x) = 0.59701 0.15558
# Poissons Ratio (y) = 0.34466 -0.07993
# Poissons Ratio (z) = 0.10003 -0.08901
#
# Static dielectric constant tensor:
#      x y z
#    x 1.828830 -0.019700 0.027740 
#    y -0.019700 1.805680 0.005200 
#    z 0.027740 0.005200 1.837630 
# 
# From -- ./inp_files/326515.got.cif
#   From: 2010.05.17/outbox.cif.g08.bks.cpg/sg2_164_cif.got.tgz:326515.got - 2010.06.03 11:33:40.
