data_PCOD9099116
_publ_section_title
;
Structure prediction by ZEFSAII (Michael W. Deem and Ramdas Pophale) SiO2 
 PCOD9099116
Probable space group: P -1
;
_chemical_formula_sum "Si O2"
_cell_formula_units_Z 15
_cell_length_a 6.979723
_cell_length_b 9.306857
_cell_length_c 14.358931
_cell_angle_alpha 58.355230
_cell_angle_beta 120.802279
_cell_angle_gamma 91.544391
_cell_volume 643.711863
_symmetry_space_group_name_H-M "P -1"
_symmetry_group_IT_number 2
_symmetry_cell_setting 'triclinic'
loop_
_space_group_symop_operation_xyz
x,y,z
-x,-y,-z
loop_
_atom_site_type_symbol
_atom_site_label
_atom_site_fract_x
_atom_site_fract_y
_atom_site_fract_z
Si Si1 0.994206 0.747388 0.976340
Si Si2 0.281566 0.329436 0.216516
Si Si3 0.574236 0.163766 0.993317
Si Si4 0.647356 0.312785 0.148815
Si Si5 0.233112 0.687469 0.312523
Si Si6 0.375629 0.635475 0.564306
Si Si7 0.857980 0.480693 0.283964
Si Si8 0.000000 0.000000 0.000000
O O1 0.191528 0.846021 0.007178
O O2 0.829132 0.860321 0.975548
O O3 0.892347 0.761698 0.843247
O O4 0.125469 0.541119 0.102748
O O5 0.479357 0.293339 0.196730
O O6 0.433797 0.292392 0.360462
O O7 0.665529 0.174416 0.117303
O O8 0.377761 0.349655 0.852250
O O9 0.500000 0.000000 0.000000
O O10 0.867748 0.347092 0.244612
O O11 0.500000 0.500000 0.000000
O O12 0.264522 0.740176 0.408516
O O13 0.477969 0.561932 0.371016
O O14 0.068089 0.561020 0.316454
O O15 0.128489 0.857008 0.165279
O O16 0.191489 0.613488 0.602736
#
# Coordination Sequence:
#
# PCOD9099116 Si02
#       8
#     2   2   2   2   2   2   2   1
#     4  11  22  34  59  86 126 156 201 261 302 370
#     4  10  20  37  59  85 119 159 210 257 292 374
#     4  11  21  33  52  90 130 156 197 257 317 366
#     4   9  18  32  52  83 118 152 208 247 303 359
#     4  11  23  37  67  86 131 162 202 266 312 370
#     4  10  21  42  59  95 119 164 214 255 306 374
#     4  10  20  37  60  89 118 161 214 255 299 375
#     4  12  24  38  56 102 118 160 208 248 328 366
#
# _framework density 23.302351000000002
#
# number of rings (size 3 to 8) (size 9 to 14) (size 15 to 20)
#    0.000    1.600    5.333    1.200    7.467    0.000 
#    0.000    0.667    0.000    0.000    0.000    4.667 
#    0.000    0.000    0.000    0.000    0.000    0.000 
#
# Total GULP energy -83633.760703 kJ/mol
# GULP energy per Si atom -5575.584047 kJ/mol
# Density = 2.324931 g / cm^3
# Si number density = 23.302351 Si / 1000 Ang^3
#
#
#
# Elastic Constant Matrix: (Units=GPa)
#
#
# Indices 1 2 3 4 5 6 
#
# 1 70.4478 37.4007 32.2662 21.7982 -9.1545 -0.9547
# 2 37.4007 160.4467 64.6016 50.4463 -9.4732 -3.2271
# 3 32.2662 64.6016 159.2784 49.2045 -32.6500 -1.4803
# 4 21.7982 50.4463 49.2045 51.1361 -10.2797 -0.0336
# 5 -9.1545 -9.4732 -32.6500 -10.2797 27.3722 14.1099
# 6 -0.9547 -3.2271 -1.4803 -0.0336 14.1099 41.1718
#
#
#
# Elastic Compliance Matrix: (Units=1/GPa)
#
#
# Indices 1 2 3 4 5 6 
#
# 1 0.017356 -0.002425 -0.000777 -0.003629 0.003137 -0.000893
# 2 -0.002425 0.009716 -0.001802 -0.007484 -0.003323 0.001773
# 3 -0.000777 -0.001802 0.011830 -0.006694 0.012849 -0.004143
# 4 -0.003629 -0.007484 -0.006694 0.035405 0.002384 -0.001700
# 5 0.003137 -0.003323 0.012849 0.002384 0.063779 -0.021582
# 6 -0.000893 0.001773 -0.004143 -0.001700 -0.021582 0.031653
#
#
# Mechanical properties :
#
#
# Convention : Reuss Voigt Hill
#
# Bulk Modulus (GPa) = 34.60824 73.18998 53.89911
# Shear Modulus (GPa) = 26.40221 40.99631 33.69926
#
# Velocity S-wave (km/s) = 3.36970 4.19898 3.80699
# Velocity P-wave (km/s) = 5.47941 7.41522 6.51957
#
# Compressibility (1/GPa) = 0.02889486
#
# Stress axis : x y z
#
# Youngs Moduli (GPa) = 57.61547 102.92326 84.53206
#
# Poissons Ratio (x) = 0.24957 0.06566
# Poissons Ratio (y) = 0.13971 0.15234
# Poissons Ratio (z) = 0.04475 0.18548
#
# Static dielectric constant tensor:
#      x y z
#    x 2.111530 -0.050460 0.003510 
#    y -0.050460 2.323920 0.083420 
#    z 0.003510 0.083420 1.821180 
# 
# From -- ./inp_files/490677.got.cif
#   From: 2010.05.17/outbox.cif.g08.bks.cpg/sg2_246_cif.got.tgz:490677.got - 2010.06.03 11:33:40.
