data_PCOD9099502
_publ_section_title
;
Structure prediction by ZEFSAII (Michael W. Deem and Ramdas Pophale) SiO2 
 PCOD9099502
Probable space group: P -1
;
_chemical_formula_sum "Si O2"
_cell_formula_units_Z 16
_cell_length_a 19.682322
_cell_length_b 16.857625
_cell_length_c 8.929337
_cell_angle_alpha 131.449617
_cell_angle_beta 143.534439
_cell_angle_gamma 22.384173
_cell_volume 625.402639
_symmetry_space_group_name_H-M "P -1"
_symmetry_group_IT_number 2
_symmetry_cell_setting 'triclinic'
loop_
_space_group_symop_operation_xyz
x,y,z
-x,-y,-z
loop_
_atom_site_type_symbol
_atom_site_label
_atom_site_fract_x
_atom_site_fract_y
_atom_site_fract_z
Si Si1 0.316689 0.904107 0.975613
Si Si2 0.461202 0.475515 0.240937
Si Si3 0.740168 0.157911 0.741437
Si Si4 0.202764 0.349499 0.007295
Si Si5 0.772809 0.542472 0.550578
Si Si6 0.959028 0.805841 0.888993
Si Si7 0.205697 0.060021 0.661139
Si Si8 0.312885 0.137357 0.676861
O O1 0.544785 0.737108 0.280834
O O2 0.073770 0.130447 0.919200
O O3 0.349238 0.758690 0.789106
O O4 0.320730 0.971775 0.918401
O O5 0.500000 0.500000 0.500000
O O6 0.431259 0.602921 0.240692
O O7 0.210378 0.616289 0.010070
O O8 0.772405 0.040757 0.773801
O O9 0.714511 0.116078 0.488244
O O10 0.000000 0.000000 0.000000
O O11 0.949138 0.497799 0.765226
O O12 0.259923 0.290929 0.858149
O O13 0.239592 0.430826 0.257369
O O14 0.408132 0.115173 0.169277
O O15 0.920369 0.314532 0.495821
O O16 0.852651 0.774730 0.636423
O O17 0.260279 0.099349 0.675511
#
# Coordination Sequence:
#
# PCOD9099502 Si02
#       8
#     2   2   2   2   2   2   2   2
#     4  12  23  41  63  92 127 160 202 258 305 358
#     4  11  22  40  60  87 123 160 198 253 307 354
#     4   9  18  39  61  82 117 158 201 249 300 361
#     4   9  17  34  65  83 118 161 203 243 307 367
#     4  10  20  37  60  92 119 160 202 253 304 357
#     4  10  22  39  64  90 119 160 207 247 305 369
#     4  10  21  38  60  87 125 159 200 254 307 361
#     4   9  17  37  62  87 117 164 197 249 306 358
#
# _framework density 25.583518000000002
#
# number of rings (size 3 to 8) (size 9 to 14) (size 15 to 20)
#    0.000    2.000    2.500    3.000    0.000    1.000 
#    4.500    6.250    0.000    0.000    0.000    0.000 
#    0.000    0.000    0.000    0.000    0.000    0.000 
#
# Total GULP energy -89197.874688 kJ/mol
# GULP energy per Si atom -5574.867168 kJ/mol
# Density = 2.552529 g / cm^3
# Si number density = 25.583518 Si / 1000 Ang^3
#
#
#
# Elastic Constant Matrix: (Units=GPa)
#
#
# Indices 1 2 3 4 5 6 
#
# 1 47.5516 34.0238 13.3696 6.1923 -17.5148 -5.1090
# 2 34.0238 100.0365 13.4222 16.8112 -17.9237 -4.2823
# 3 13.3696 13.4222 88.2036 12.6774 -3.9693 -8.4058
# 4 6.1923 16.8112 12.6774 43.2961 -5.6652 -8.8796
# 5 -17.5148 -17.9237 -3.9693 -5.6652 24.1975 -1.0930
# 6 -5.1090 -4.2823 -8.4058 -8.8796 -1.0930 37.3314
#
#
#
# Elastic Compliance Matrix: (Units=1/GPa)
#
#
# Indices 1 2 3 4 5 6 
#
# 1 0.035199 -0.008277 -0.003147 0.002560 0.019626 0.004343
# 2 -0.008277 0.014098 -0.000216 -0.003846 0.003498 -0.000377
# 3 -0.003147 -0.000216 0.012371 -0.002890 -0.001012 0.001613
# 4 0.002560 -0.003846 -0.002890 0.026929 0.005097 0.005813
# 5 0.019626 0.003498 -0.001012 0.005097 0.059414 0.005811
# 6 0.004343 -0.000377 0.001613 0.005813 0.005811 0.029254
#
#
# Mechanical properties :
#
#
# Convention : Reuss Voigt Hill
#
# Bulk Modulus (GPa) = 26.05041 39.71366 32.88204
# Shear Modulus (GPa) = 23.43661 32.63007 28.03334
#
# Velocity S-wave (km/s) = 3.02997 3.57520 3.31381
# Velocity P-wave (km/s) = 4.73767 5.70960 5.24619
#
# Compressibility (1/GPa) = 0.03838711
#
# Stress axis : x y z
#
# Youngs Moduli (GPa) = 28.40961 70.93402 80.83552
#
# Poissons Ratio (x) = 0.58715 0.25436
# Poissons Ratio (y) = 0.23516 0.01748
# Poissons Ratio (z) = 0.08940 0.01534
#
# Static dielectric constant tensor:
#      x y z
#    x 2.014770 -0.021300 0.037800 
#    y -0.021300 2.126820 0.030530 
#    z 0.037800 0.030530 2.113770 
# 
# From -- ./inp_files/355189.got.cif
#   From: 2010.05.17/outbox.cif.g08.bks.cpg/sg2_178_cif.got.tgz:355189.got - 2010.06.03 11:33:40.
