data_PCOD9099078
_publ_section_title
;
Structure prediction by ZEFSAII (Michael W. Deem and Ramdas Pophale) SiO2 
 PCOD9099078
Probable space group: P -1
;
_chemical_formula_sum "Si O2"
_cell_formula_units_Z 10
_cell_length_a 7.626716
_cell_length_b 14.938004
_cell_length_c 9.318060
_cell_angle_alpha 132.265867
_cell_angle_beta 47.352931
_cell_angle_gamma 150.122615
_cell_volume 378.327378
_symmetry_space_group_name_H-M "P -1"
_symmetry_group_IT_number 2
_symmetry_cell_setting 'triclinic'
loop_
_space_group_symop_operation_xyz
x,y,z
-x,-y,-z
loop_
_atom_site_type_symbol
_atom_site_label
_atom_site_fract_x
_atom_site_fract_y
_atom_site_fract_z
Si Si1 0.762344 0.437797 0.900192
Si Si2 0.504283 0.428373 0.740850
Si Si3 0.721289 0.967150 0.218615
Si Si4 0.782555 0.868404 0.617270
Si Si5 0.694726 0.168311 0.954115
O O1 0.757479 0.476387 0.776497
O O2 0.604024 0.244079 0.774213
O O3 0.152673 0.633478 0.953249
O O4 0.472268 0.417694 0.119090
O O5 0.484909 0.339477 0.515911
O O6 0.089933 0.262051 0.855031
O O7 0.519162 0.968199 0.210311
O O8 0.952738 0.087237 0.360136
O O9 0.000000 0.000000 0.000000
O O10 0.567657 0.898780 0.842112
O O11 0.000000 0.000000 0.500000
#
# Coordination Sequence:
#
# PCOD9099078 Si02
#       5
#     2   2   2   2   2
#     4   9  18  40  58  81 118 148 189 230 277 344
#     4   9  20  37  60  84 113 147 196 225 280 335
#     4  10  20  37  59  84 117 151 180 238 288 323
#     4  11  21  37  58  87 116 144 193 235 275 339
#     4   9  21  37  62  79 116 153 185 227 294 321
#
# _framework density 26.432134999999999
#
# number of rings (size 3 to 8) (size 9 to 14) (size 15 to 20)
#    1.200    1.200    2.000    0.600    0.000    2.400 
#    0.000    4.000    0.000    0.000    0.000    0.000 
#    0.000    0.000    0.000    0.000    0.000    0.000 
#
# Total GULP energy -55723.376323 kJ/mol
# GULP energy per Si atom -5572.337632 kJ/mol
# Density = 2.637197 g / cm^3
# Si number density = 26.432135 Si / 1000 Ang^3
#
#
#
# Elastic Constant Matrix: (Units=GPa)
#
#
# Indices 1 2 3 4 5 6 
#
# 1 91.4910 8.8545 39.4489 10.7307 22.3881 28.1246
# 2 8.8545 41.2703 -1.1151 -10.9425 -3.7935 16.6151
# 3 39.4489 -1.1151 166.1277 17.4028 6.4289 26.8916
# 4 10.7307 -10.9425 17.4028 54.2549 16.5617 10.7064
# 5 22.3881 -3.7935 6.4289 16.5617 34.6531 10.5859
# 6 28.1246 16.6151 26.8916 10.7064 10.5859 42.4983
#
#
#
# Elastic Compliance Matrix: (Units=1/GPa)
#
#
# Indices 1 2 3 4 5 6 
#
# 1 0.016218 -0.001255 -0.002566 0.001363 -0.008716 -0.006791
# 2 -0.001255 0.034268 0.002282 0.008174 0.005565 -0.017456
# 3 -0.002566 0.002282 0.007356 -0.001321 0.002433 -0.004122
# 4 0.001363 0.008174 -0.001321 0.024465 -0.009259 -0.007119
# 5 -0.008716 0.005565 0.002433 -0.009259 0.040839 -0.005787
# 6 -0.006791 -0.017456 -0.004122 -0.007119 -0.005787 0.040692
#
#
# Mechanical properties :
#
#
# Convention : Reuss Voigt Hill
#
# Bulk Modulus (GPa) = 18.25992 43.69620 30.97806
# Shear Modulus (GPa) = 27.00214 43.06132 35.03173
#
# Velocity S-wave (km/s) = 3.19966 4.04062 3.64448
# Velocity P-wave (km/s) = 4.53582 6.19162 5.42724
#
# Compressibility (1/GPa) = 0.05476474
#
# Stress axis : x y z
#
# Youngs Moduli (GPa) = 61.65814 29.18200 135.95261
#
# Poissons Ratio (x) = 0.03661 0.34883
# Poissons Ratio (y) = 0.07736 -0.31025
# Poissons Ratio (z) = 0.15821 -0.06660
#
# Static dielectric constant tensor:
#      x y z
#    x 2.284400 -0.227880 -0.017650 
#    y -0.227880 2.238690 0.024730 
#    z -0.017650 0.024730 2.111520 
# 
# From -- ./inp_files/16217.got.cif
#   From: 2010.05.17/outbox.cif.g08.bks.cpg/sg2_9_cif.got.tgz:16217.got - 2010.06.03 11:33:40.
