data_PCOD9099188
_publ_section_title
;
Structure prediction by ZEFSAII (Michael W. Deem and Ramdas Pophale) SiO2 
 PCOD9099188
Probable space group: P -1
;
_chemical_formula_sum "Si O2"
_cell_formula_units_Z 16
_cell_length_a 8.656993
_cell_length_b 17.130721
_cell_length_c 7.908327
_cell_angle_alpha 129.767880
_cell_angle_beta 75.301441
_cell_angle_gamma 124.196323
_cell_volume 735.227069
_symmetry_space_group_name_H-M "P -1"
_symmetry_group_IT_number 2
_symmetry_cell_setting 'triclinic'
loop_
_space_group_symop_operation_xyz
x,y,z
-x,-y,-z
loop_
_atom_site_type_symbol
_atom_site_label
_atom_site_fract_x
_atom_site_fract_y
_atom_site_fract_z
Si Si1 0.685400 0.561648 0.266560
Si Si2 0.957213 0.732066 0.701079
Si Si3 0.382400 0.677706 0.895736
Si Si4 0.777253 0.836512 0.133668
Si Si5 0.019468 0.080927 0.265917
Si Si6 0.400756 0.265279 0.596575
Si Si7 0.224251 0.631652 0.507608
Si Si8 0.009122 0.414015 0.017185
O O1 0.770805 0.626203 0.511627
O O2 0.613566 0.424401 0.134824
O O3 0.550834 0.601646 0.284642
O O4 0.853868 0.617449 0.157004
O O5 0.894344 0.783164 0.943470
O O6 0.049735 0.835553 0.673893
O O7 0.090420 0.683574 0.638898
O O8 0.591623 0.793219 0.009750
O O9 0.319739 0.633825 0.660986
O O10 0.208362 0.686874 0.024916
O O11 0.694679 0.779100 0.257755
O O12 0.901520 0.981393 0.302209
O O13 0.236635 0.170962 0.385117
O O14 0.000000 0.000000 0.000000
O O15 0.601526 0.279714 0.541248
O O16 0.104332 0.500399 0.272649
O O17 0.000000 0.500000 0.000000
#
# Coordination Sequence:
#
# PCOD9099188 Si02
#       8
#     2   2   2   2   2   2   2   2
#     4  10  22  40  61  90 125 167 204 250 308 360
#     4  10  22  40  65  89 125 160 203 255 309 364
#     4  11  23  38  60  90 127 165 203 246 300 373
#     4  11  24  42  65  90 122 165 206 253 305 369
#     4   9  20  45  67  88 120 161 203 256 308 365
#     4  11  24  40  68  91 121 160 212 253 303 367
#     4  12  23  39  61  96 124 166 202 254 310 358
#     4  10  20  37  59  88 130 158 198 257 298 361
#
# _framework density 21.761984000000002
#
# number of rings (size 3 to 8) (size 9 to 14) (size 15 to 20)
#    0.000    1.500    2.500    4.500    1.750    4.000 
#    0.000    6.250    0.000    0.000    0.000    0.000 
#    0.000    0.000    0.000    0.000    0.000    0.000 
#
# Total GULP energy -89343.650252 kJ/mol
# GULP energy per Si atom -5583.978141 kJ/mol
# Density = 2.171245 g / cm^3
# Si number density = 21.761984 Si / 1000 Ang^3
#
#
#
# Elastic Constant Matrix: (Units=GPa)
#
#
# Indices 1 2 3 4 5 6 
#
# 1 86.8318 31.3093 21.9193 -7.5460 4.4427 8.9930
# 2 31.3093 97.2316 16.6514 -4.9298 -6.7993 5.5415
# 3 21.9193 16.6514 60.1923 -7.5734 6.4162 2.0421
# 4 -7.5460 -4.9298 -7.5734 36.8827 9.0665 1.3907
# 5 4.4427 -6.7993 6.4162 9.0665 29.6409 -7.0867
# 6 8.9930 5.5415 2.0421 1.3907 -7.0867 32.1657
#
#
#
# Elastic Compliance Matrix: (Units=1/GPa)
#
#
# Indices 1 2 3 4 5 6 
#
# 1 0.014752 -0.004104 -0.003235 0.003054 -0.004419 -0.004317
# 2 -0.004104 0.012275 -0.002451 -0.000747 0.004226 0.000152
# 3 -0.003235 -0.002451 0.019754 0.004627 -0.006122 -0.001476
# 4 0.003054 -0.000747 0.004627 0.031886 -0.012622 -0.005179
# 5 -0.004419 0.004226 -0.006122 -0.012622 0.043174 0.010954
# 6 -0.004317 0.000152 -0.001476 -0.005179 0.010954 0.035001
#
#
# Mechanical properties :
#
#
# Convention : Reuss Voigt Hill
#
# Bulk Modulus (GPa) = 36.76273 42.66842 39.71557
# Shear Modulus (GPa) = 26.95587 31.36290 29.15939
#
# Velocity S-wave (km/s) = 3.52329 3.80040 3.66447
# Velocity P-wave (km/s) = 5.78629 6.23754 6.01615
#
# Compressibility (1/GPa) = 0.02720146
#
# Stress axis : x y z
#
# Youngs Moduli (GPa) = 67.78915 81.46610 50.62221
#
# Poissons Ratio (x) = 0.33436 0.16375
# Poissons Ratio (y) = 0.27822 0.12406
# Poissons Ratio (z) = 0.21928 0.19965
#
# Static dielectric constant tensor:
#      x y z
#    x 1.809670 0.022240 -0.014260 
#    y 0.022240 1.880800 -0.048850 
#    z -0.014260 -0.048850 1.835700 
# 
# From -- ./inp_files/215820.got.cif
#   From: 2010.05.17/outbox.cif.g08.bks.cpg/sg2_108_cif.got.tgz:215820.got - 2010.06.03 11:33:40.
