data_PCOD9099532
_publ_section_title
;
Structure prediction by ZEFSAII (Michael W. Deem and Ramdas Pophale) SiO2 
 PCOD9099532
Probable space group: P -1
;
_chemical_formula_sum "Si O2"
_cell_formula_units_Z 14
_cell_length_a 5.484017
_cell_length_b 12.737513
_cell_length_c 11.742949
_cell_angle_alpha 66.159415
_cell_angle_beta 74.078334
_cell_angle_gamma 67.610266
_cell_volume 686.663277
_symmetry_space_group_name_H-M "P -1"
_symmetry_group_IT_number 2
_symmetry_cell_setting 'triclinic'
loop_
_space_group_symop_operation_xyz
x,y,z
-x,-y,-z
loop_
_atom_site_type_symbol
_atom_site_label
_atom_site_fract_x
_atom_site_fract_y
_atom_site_fract_z
Si Si1 0.353114 0.018150 0.136241
Si Si2 0.034457 0.861475 0.028715
Si Si3 0.592543 0.564806 0.797742
Si Si4 0.370032 0.239030 0.740849
Si Si5 0.440186 0.241711 0.100856
Si Si6 0.682843 0.567686 0.516475
Si Si7 0.181767 0.422350 0.881615
O O1 0.458866 0.100893 0.171548
O O2 0.382212 0.883518 0.229018
O O3 0.075998 0.113477 0.096395
O O4 0.500000 0.000000 0.000000
O O5 0.871411 0.810241 0.163784
O O6 0.324423 0.771434 0.015574
O O7 0.000000 0.000000 0.000000
O O8 0.529403 0.689693 0.819874
O O9 0.611951 0.578677 0.653634
O O10 0.354407 0.505828 0.868194
O O11 0.883662 0.485425 0.844439
O O12 0.356794 0.303195 0.594547
O O13 0.344011 0.344706 0.788969
O O14 0.191025 0.329870 0.024291
O O15 0.500000 0.500000 0.500000
O O16 0.000000 0.500000 0.500000
#
# Coordination Sequence:
#
# PCOD9099532 Si02
#       7
#     2   2   2   2   2   2   2
#     4  10  20  37  60  96 125 171 215 274 325 392
#     4  11  20  38  65  97 132 172 220 269 336 390
#     4  12  27  43  64 101 135 179 218 272 339 391
#     4  11  21  41  69  97 128 167 236 268 329 384
#     4  12  24  39  64  98 142 168 214 276 343 404
#     4  12  25  47  70  93 132 179 230 275 315 398
#     4  12  23  42  66  98 137 171 217 277 333 400
#
# _framework density 20.388449000000001
#
# number of rings (size 3 to 8) (size 9 to 14) (size 15 to 20)
#    0.000    0.571    8.571    1.714    2.000    1.143 
#    0.000    0.714    0.000    0.857    0.000    0.000 
#    0.000    0.000    0.000    0.000    0.000    0.000 
#
# Total GULP energy -77968.746112 kJ/mol
# GULP energy per Si atom -5569.196151 kJ/mol
# Density = 2.034204 g / cm^3
# Si number density = 20.388449 Si / 1000 Ang^3
#
#
#
# Elastic Constant Matrix: (Units=GPa)
#
#
# Indices 1 2 3 4 5 6 
#
# 1 111.4803 49.5113 28.7784 -6.9794 13.5029 0.4156
# 2 49.5113 150.4613 53.1895 4.4217 9.5085 20.7986
# 3 28.7784 53.1895 104.0186 -12.7521 11.8395 -3.5675
# 4 -6.9794 4.4217 -12.7521 41.0268 1.4630 8.1796
# 5 13.5029 9.5085 11.8395 1.4630 21.6525 1.1697
# 6 0.4156 20.7986 -3.5675 8.1796 1.1697 32.9177
#
#
#
# Elastic Compliance Matrix: (Units=1/GPa)
#
#
# Indices 1 2 3 4 5 6 
#
# 1 0.011463 -0.003586 -0.000387 0.002064 -0.005597 0.001765
# 2 -0.003586 0.010501 -0.004942 -0.001979 0.000821 -0.006662
# 3 -0.000387 -0.004942 0.013501 0.004107 -0.005451 0.003764
# 4 0.002064 -0.001979 0.004107 0.027359 -0.004244 -0.004978
# 5 -0.005597 0.000821 -0.005451 -0.004244 0.052682 -0.001856
# 6 0.001765 -0.006662 0.003764 -0.004978 -0.001856 0.036277
#
#
# Mechanical properties :
#
#
# Convention : Reuss Voigt Hill
#
# Bulk Modulus (GPa) = 56.70690 69.87987 63.29339
# Shear Modulus (GPa) = 28.49147 34.75146 31.62146
#
# Velocity S-wave (km/s) = 3.74228 4.13300 3.94248
# Velocity P-wave (km/s) = 6.82250 7.55806 7.19968
#
# Compressibility (1/GPa) = 0.01763454
#
# Stress axis : x y z
#
# Youngs Moduli (GPa) = 87.23349 95.23326 74.06996
#
# Poissons Ratio (x) = 0.34154 0.02867
# Poissons Ratio (y) = 0.31285 0.36603
# Poissons Ratio (z) = 0.03376 0.47062
#
# Static dielectric constant tensor:
#      x y z
#    x 2.136580 0.092230 0.093280 
#    y 0.092230 1.819760 0.012540 
#    z 0.093280 0.012540 1.718500 
# 
# From -- ./inp_files/364048.got.cif
#   From: 2010.05.17/outbox.cif.g08.bks.cpg/sg2_183_cif.got.tgz:364048.got - 2010.06.03 11:33:40.
