data_PCOD9099987
_publ_section_title
;
Structure prediction by ZEFSAII (Michael W. Deem and Ramdas Pophale) SiO2 
 PCOD9099987
Probable space group: P -1
;
_chemical_formula_sum "Si O2"
_cell_formula_units_Z 16
_cell_length_a 7.676234
_cell_length_b 13.260390
_cell_length_c 8.126921
_cell_angle_alpha 101.666592
_cell_angle_beta 88.443113
_cell_angle_gamma 131.063176
_cell_volume 604.553709
_symmetry_space_group_name_H-M "P -1"
_symmetry_group_IT_number 2
_symmetry_cell_setting 'triclinic'
loop_
_space_group_symop_operation_xyz
x,y,z
-x,-y,-z
loop_
_atom_site_type_symbol
_atom_site_label
_atom_site_fract_x
_atom_site_fract_y
_atom_site_fract_z
Si Si1 0.806468 0.727985 0.999576
Si Si2 0.805759 0.903427 0.283772
Si Si3 0.402194 0.836066 0.760523
Si Si4 0.682183 0.512756 0.159459
Si Si5 0.872144 0.350200 0.610516
Si Si6 0.607288 0.142146 0.858608
Si Si7 0.519218 0.375805 0.610645
Si Si8 0.216565 0.193810 0.307164
O O1 0.524589 0.638845 0.954829
O O2 0.897697 0.796517 0.843734
O O3 0.913385 0.847864 0.168843
O O4 0.820459 0.620048 0.039924
O O5 0.638491 0.895164 0.157907
O O6 0.631647 0.783875 0.379014
O O7 0.002892 0.063081 0.373880
O O8 0.216923 0.740004 0.585447
O O9 0.599655 0.824353 0.744833
O O10 0.538379 0.996685 0.781786
O O11 0.303433 0.805016 0.939632
O O12 0.540561 0.554200 0.249212
O O13 0.858796 0.541720 0.301920
O O14 0.754453 0.244887 0.735290
O O15 0.775059 0.429126 0.623993
O O16 0.381601 0.343351 0.436109
#
# Coordination Sequence:
#
# PCOD9099987 Si02
#       8
#     2   2   2   2   2   2   2   2
#     4  10  22  40  63  91 123 162 220 261 305 384
#     4  10  20  37  62  89 126 164 201 258 327 378
#     4  10  22  36  59  96 133 157 210 264 313 389
#     4  10  23  44  66  84 127 173 212 262 311 380
#     4  10  22  42  65  90 128 173 205 265 325 360
#     4  10  21  36  59  94 134 159 212 257 312 400
#     4   9  22  40  63  98 124 159 218 253 316 393
#     4  11  21  37  66  91 129 162 201 273 322 368
#
# _framework density 26.465802
#
# number of rings (size 3 to 8) (size 9 to 14) (size 15 to 20)
#    0.000    2.000    1.250    1.125    5.250    1.500 
#    0.000   12.500    2.750    0.000    0.000    0.000 
#    0.000    0.000    0.000    0.000    0.000    0.000 
#
# Total GULP energy -89429.868686 kJ/mol
# GULP energy per Si atom -5589.366793 kJ/mol
# Density = 2.640557 g / cm^3
# Si number density = 26.465802 Si / 1000 Ang^3
#
#
#
# Elastic Constant Matrix: (Units=GPa)
#
#
# Indices 1 2 3 4 5 6 
#
# 1 68.5782 20.9426 36.4306 21.1329 27.7644 9.3208
# 2 20.9426 100.9113 21.4082 -18.9280 4.4688 11.0712
# 3 36.4306 21.4082 126.6404 4.4677 19.8343 14.4918
# 4 21.1329 -18.9280 4.4677 49.4897 -2.0169 5.7981
# 5 27.7644 4.4688 19.8343 -2.0169 46.5398 9.5085
# 6 9.3208 11.0712 14.4918 5.7981 9.5085 23.1596
#
#
#
# Elastic Compliance Matrix: (Units=1/GPa)
#
#
# Indices 1 2 3 4 5 6 
#
# 1 0.032031 -0.008905 -0.004954 -0.018142 -0.018258 0.006503
# 2 -0.008905 0.014440 -0.000269 0.010580 0.006204 -0.008347
# 3 -0.004954 -0.000269 0.009847 0.001621 -0.000259 -0.004339
# 4 -0.018142 0.010580 0.001621 0.033873 0.013171 -0.012658
# 5 -0.018258 0.006204 -0.000259 0.013171 0.035159 -0.013188
# 6 0.006503 -0.008347 -0.004339 -0.012658 -0.013188 0.055850
#
#
# Mechanical properties :
#
#
# Convention : Reuss Voigt Hill
#
# Bulk Modulus (GPa) = 35.63397 50.41032 43.02215
# Shear Modulus (GPa) = 22.85077 38.32771 30.58924
#
# Velocity S-wave (km/s) = 2.94157 3.80965 3.40340
# Velocity P-wave (km/s) = 5.00305 6.19999 5.63340
#
# Compressibility (1/GPa) = 0.02806311
#
# Stress axis : x y z
#
# Youngs Moduli (GPa) = 31.21933 69.24999 101.55617
#
# Poissons Ratio (x) = 0.61664 0.50309
# Poissons Ratio (y) = 0.27800 0.02735
# Poissons Ratio (z) = 0.15465 0.01865
#
# Static dielectric constant tensor:
#      x y z
#    x 2.077340 0.028190 0.013690 
#    y 0.028190 2.077750 -0.062920 
#    z 0.013690 -0.062920 2.169620 
# 
# From -- ./inp_files/207852.got.cif
#   From: 2010.05.17/outbox.cif.g08.bks.cpg/sg2_104_cif.got.tgz:207852.got - 2010.06.03 11:33:40.
