data_PCOD9099890
_publ_section_title
;
Structure prediction by ZEFSAII (Michael W. Deem and Ramdas Pophale) SiO2 
 PCOD9099890
Probable space group: P -1
;
_chemical_formula_sum "Si O2"
_cell_formula_units_Z 14
_cell_length_a 10.092543
_cell_length_b 15.210455
_cell_length_c 7.012786
_cell_angle_alpha 125.279295
_cell_angle_beta 44.256601
_cell_angle_gamma 117.121365
_cell_volume 611.629906
_symmetry_space_group_name_H-M "P -1"
_symmetry_group_IT_number 2
_symmetry_cell_setting 'triclinic'
loop_
_space_group_symop_operation_xyz
x,y,z
-x,-y,-z
loop_
_atom_site_type_symbol
_atom_site_label
_atom_site_fract_x
_atom_site_fract_y
_atom_site_fract_z
Si Si1 0.107515 0.450062 0.578636
Si Si2 0.979370 0.263681 0.222969
Si Si3 0.856113 0.635423 0.154533
Si Si4 0.564246 0.399750 0.430854
Si Si5 0.290996 0.133370 0.889298
Si Si6 0.636117 0.243231 0.827579
Si Si7 0.514155 0.013638 0.779484
O O1 0.091014 0.374617 0.319941
O O2 0.123068 0.371314 0.646833
O O3 0.280954 0.542635 0.515472
O O4 0.653763 0.320150 0.088402
O O5 0.777492 0.266817 0.536593
O O6 0.006898 0.274633 0.981967
O O7 0.087734 0.165494 0.074386
O O8 0.922315 0.517019 0.883369
O O9 0.636864 0.652098 0.349290
O O10 0.500000 0.500000 0.500000
O O11 0.419650 0.237423 0.965530
O O12 0.318285 0.044891 0.916966
O O13 0.404782 0.086542 0.536189
O O14 0.652095 0.120085 0.723999
O O15 0.500000 0.000000 0.000000
#
# Coordination Sequence:
#
# PCOD9099890 Si02
#       7
#     2   2   2   2   2   2   2
#     4  10  22  40  54  89 133 160 207 252 286 352
#     4  12  23  37  63  93 123 161 203 252 301 360
#     4  10  22  37  59  83 123 167 206 246 294 348
#     4  10  20  37  62  85 123 169 202 244 293 356
#     4   9  22  41  62  89 120 151 201 254 304 364
#     4  10  22  40  62  92 125 156 204 251 304 363
#     4   9  21  45  67  84 122 156 196 259 310 363
#
# _framework density 22.889658000000001
#
# number of rings (size 3 to 8) (size 9 to 14) (size 15 to 20)
#    0.857    1.143    0.000    4.714    2.000    2.286 
#    2.571    0.714    0.000    2.571    0.000    0.000 
#    0.000    0.000    0.000    0.000    0.000    0.000 
#
# Total GULP energy -78103.925198 kJ/mol
# GULP energy per Si atom -5578.851800 kJ/mol
# Density = 2.283756 g / cm^3
# Si number density = 22.889658 Si / 1000 Ang^3
#
#
#
# Elastic Constant Matrix: (Units=GPa)
#
#
# Indices 1 2 3 4 5 6 
#
# 1 51.1632 12.8924 27.6599 -2.0061 5.0538 -10.0077
# 2 12.8924 48.5711 26.4159 -2.4192 6.1212 -1.5769
# 3 27.6599 26.4159 93.7513 -15.2493 -1.0893 -15.9830
# 4 -2.0061 -2.4192 -15.2493 41.4958 -3.9218 4.4465
# 5 5.0538 6.1212 -1.0893 -3.9218 40.6395 -1.2685
# 6 -10.0077 -1.5769 -15.9830 4.4465 -1.2685 30.4078
#
#
#
# Elastic Compliance Matrix: (Units=1/GPa)
#
#
# Indices 1 2 3 4 5 6 
#
# 1 0.024680 -0.002884 -0.005969 -0.001972 -0.002829 0.005006
# 2 -0.002884 0.025584 -0.007190 -0.001299 -0.003918 -0.003375
# 3 -0.005969 -0.007190 0.016245 0.004937 0.002912 0.005601
# 4 -0.001972 -0.001299 0.004937 0.026226 0.003047 -0.001829
# 5 -0.002829 -0.003918 0.002912 0.003047 0.025953 0.001033
# 6 0.005006 -0.003375 0.005601 -0.001829 0.001033 0.037613
#
#
# Mechanical properties :
#
#
# Convention : Reuss Voigt Hill
#
# Bulk Modulus (GPa) = 29.05002 36.38021 32.71512
# Shear Modulus (GPa) = 25.01723 30.94313 27.98018
#
# Velocity S-wave (km/s) = 3.30956 3.68073 3.50007
# Velocity P-wave (km/s) = 5.22716 5.83026 5.53692
#
# Compressibility (1/GPa) = 0.03442338
#
# Stress axis : x y z
#
# Youngs Moduli (GPa) = 40.51806 39.08745 61.55608
#
# Poissons Ratio (x) = 0.11272 0.36745
# Poissons Ratio (y) = 0.11684 0.44259
# Poissons Ratio (z) = 0.24186 0.28104
#
# Static dielectric constant tensor:
#      x y z
#    x 1.944660 0.011420 -0.029340 
#    y 0.011420 1.875770 -0.043920 
#    z -0.029340 -0.043920 1.849440 
# 
# From -- ./inp_files/44827.got.cif
#   From: 2010.05.17/outbox.cif.g08.bks.cpg/sg2_23_cif.got.tgz:44827.got - 2010.06.03 11:33:40.
