data_PCOD9099340
_publ_section_title
;
Structure prediction by ZEFSAII (Michael W. Deem and Ramdas Pophale) SiO2 
 PCOD9099340
Probable space group: P -1
;
_chemical_formula_sum "Si O2"
_cell_formula_units_Z 16
_cell_length_a 5.767127
_cell_length_b 7.049739
_cell_length_c 17.073182
_cell_angle_alpha 95.707435
_cell_angle_beta 80.110258
_cell_angle_gamma 116.929442
_cell_volume 609.488972
_symmetry_space_group_name_H-M "P -1"
_symmetry_group_IT_number 2
_symmetry_cell_setting 'triclinic'
loop_
_space_group_symop_operation_xyz
x,y,z
-x,-y,-z
loop_
_atom_site_type_symbol
_atom_site_label
_atom_site_fract_x
_atom_site_fract_y
_atom_site_fract_z
Si Si1 0.392026 0.775272 0.311199
Si Si2 0.586157 0.818311 0.052814
Si Si3 0.914155 0.048694 0.590326
Si Si4 0.931297 0.304294 0.823621
Si Si5 0.937333 0.681231 0.676622
Si Si6 0.262102 0.560692 0.937515
Si Si7 0.229868 0.503426 0.550678
Si Si8 0.884223 0.047332 0.182401
O O1 0.152137 0.714309 0.261230
O O2 0.643154 0.911526 0.250128
O O3 0.347092 0.914950 0.387103
O O4 0.325520 0.538372 0.332415
O O5 0.320469 0.725267 0.113833
O O6 0.682063 0.638416 0.052570
O O7 0.785276 0.029391 0.097173
O O8 0.507009 0.218107 0.034056
O O9 0.131940 0.287524 0.596815
O O10 0.907515 0.873480 0.643441
O O11 0.000000 0.000000 0.500000
O O12 0.182256 0.513195 0.849154
O O13 0.959766 0.092369 0.832191
O O14 0.186897 0.660538 0.622350
O O15 0.963460 0.735535 0.770128
O O16 0.000000 0.500000 0.000000
O O17 0.500000 0.500000 0.500000
O O18 0.000000 0.500000 0.500000
#
# Coordination Sequence:
#
# PCOD9099340 Si02
#       8
#     2   2   2   2   2   2   2   2
#     4  10  23  40  59  90 123 160 218 263 324 395
#     4   8  15  27  51  86 122 159 208 253 307 380
#     4  11  23  43  66  91 125 164 217 270 337 399
#     4   9  16  33  53  84 122 160 209 256 312 384
#     4  11  24  43  65  92 125 170 213 274 332 393
#     4   8  13  24  50  86 121 161 205 250 309 371
#     4  11  26  46  70 101 130 169 223 275 340 411
#     4  10  20  37  60  85 123 166 208 263 320 389
#
# _framework density 26.251498999999999
#
# number of rings (size 3 to 8) (size 9 to 14) (size 15 to 20)
#    0.000    2.250    2.500    0.000    1.750    2.500 
#    2.250    0.000    0.000    0.750    0.000   78.750 
#    0.000    0.000    0.000    0.000    0.000    0.000 
#
# Total GULP energy -89163.888854 kJ/mol
# GULP energy per Si atom -5572.743053 kJ/mol
# Density = 2.619175 g / cm^3
# Si number density = 26.251499 Si / 1000 Ang^3
#
#
#
# Elastic Constant Matrix: (Units=GPa)
#
#
# Indices 1 2 3 4 5 6 
#
# 1 88.5111 21.5156 35.6146 19.9109 -14.0270 -18.1304
# 2 21.5156 103.6081 8.9734 17.7065 -7.1309 -12.2132
# 3 35.6146 8.9734 87.0830 33.2913 -9.9471 -9.6065
# 4 19.9109 17.7065 33.2913 56.3970 -4.6795 3.5075
# 5 -14.0270 -7.1309 -9.9471 -4.6795 62.8613 8.6186
# 6 -18.1304 -12.2132 -9.6065 3.5075 8.6186 45.1510
#
#
#
# Elastic Compliance Matrix: (Units=1/GPa)
#
#
# Indices 1 2 3 4 5 6 
#
# 1 0.015245 -0.001723 -0.004461 -0.002351 0.001700 0.004565
# 2 -0.001723 0.010886 0.001369 -0.003756 0.000410 0.002758
# 3 -0.004461 0.001369 0.016999 -0.008993 0.000805 0.002741
# 4 -0.002351 -0.003756 -0.008993 0.025445 0.000331 -0.005913
# 5 0.001700 0.000410 0.000805 0.000331 0.016797 -0.002267
# 6 0.004565 0.002758 0.002741 -0.005913 -0.002267 0.026202
#
#
# Mechanical properties :
#
#
# Convention : Reuss Voigt Hill
#
# Bulk Modulus (GPa) = 29.84898 45.71216 37.78057
# Shear Modulus (GPa) = 37.77342 47.08844 42.43093
#
# Velocity S-wave (km/s) = 3.79741 4.23985 4.02471
# Velocity P-wave (km/s) = 5.53373 6.43579 6.00173
#
# Compressibility (1/GPa) = 0.03350198
#
# Stress axis : x y z
#
# Youngs Moduli (GPa) = 65.59559 91.86139 58.82749
#
# Poissons Ratio (x) = 0.15824 0.26242
# Poissons Ratio (y) = 0.11300 -0.08056
# Poissons Ratio (z) = 0.29261 -0.12580
#
# Static dielectric constant tensor:
#      x y z
#    x 2.181250 0.026080 0.073350 
#    y 0.026080 2.259510 0.035270 
#    z 0.073350 0.035270 2.124670 
# 
# From -- ./inp_files/603316.got.cif
#   From: 2010.05.17/outbox.cif.g08.bks.cpg/sg2_302_cif.got.tgz:603316.got - 2010.06.03 11:33:40.
