data_PCOD9099144
_publ_section_title
;
Structure prediction by ZEFSAII (Michael W. Deem and Ramdas Pophale) SiO2 
 PCOD9099144
Probable space group: P -1
;
_chemical_formula_sum "Si O2"
_cell_formula_units_Z 16
_cell_length_a 19.839187
_cell_length_b 27.259783
_cell_length_c 14.558808
_cell_angle_alpha 18.248050
_cell_angle_beta 162.662900
_cell_angle_gamma 163.047017
_cell_volume 620.404316
_symmetry_space_group_name_H-M "P -1"
_symmetry_group_IT_number 2
_symmetry_cell_setting 'triclinic'
loop_
_space_group_symop_operation_xyz
x,y,z
-x,-y,-z
loop_
_atom_site_type_symbol
_atom_site_label
_atom_site_fract_x
_atom_site_fract_y
_atom_site_fract_z
Si Si1 0.635480 0.666358 0.493334
Si Si2 0.729857 0.780626 0.602637
Si Si3 0.597252 0.816273 0.886756
Si Si4 0.913971 0.711041 0.590864
Si Si5 0.236566 0.382503 0.678127
Si Si6 0.344587 0.805581 0.760001
Si Si7 0.693185 0.723536 0.857674
Si Si8 0.493618 0.998929 0.883013
O O1 0.779329 0.701558 0.715029
O O2 0.823466 0.669750 0.652757
O O3 0.335491 0.479984 0.436867
O O4 0.557446 0.807679 0.101213
O O5 0.425433 0.602820 0.543511
O O6 0.844642 0.803107 0.814851
O O7 0.724458 0.955655 0.245763
O O8 0.381777 0.736202 0.831810
O O9 0.604183 0.992337 0.544040
O O10 0.858865 0.858753 0.208793
O O11 0.598376 0.694660 0.020612
O O12 0.231720 0.820663 0.814212
O O13 0.960622 0.327584 0.367365
O O14 0.140605 0.268594 0.851370
O O15 0.531554 0.826016 0.484363
O O16 0.500000 0.500000 0.000000
O O17 0.500000 0.000000 0.000000
#
# Coordination Sequence:
#
# PCOD9099144 Si02
#       8
#     2   2   2   2   2   2   2   2
#     4  10  21  36  58  91 122 157 190 249 308 358
#     4  10  21  37  58  86 117 151 204 247 294 364
#     4  10  21  36  53  88 121 153 199 250 298 363
#     4  10  20  37  59  86 125 156 194 245 306 358
#     4  11  20  36  61  81 114 163 197 245 310 349
#     4  10  22  34  54  89 121 151 198 250 298 364
#     4   9  21  39  60  80 114 158 205 250 294 362
#     4  10  21  37  59  87 116 154 201 251 290 362
#
# _framework density 25.789635000000001
#
# number of rings (size 3 to 8) (size 9 to 14) (size 15 to 20)
#    0.000    2.000    1.250    1.875    3.500    1.000 
#    0.000    2.500    5.500    2.250    0.000    0.000 
#    0.000    0.000    0.000    0.000    0.000    0.000 
#
# Total GULP energy -89169.328609 kJ/mol
# GULP energy per Si atom -5573.083038 kJ/mol
# Density = 2.573094 g / cm^3
# Si number density = 25.789635 Si / 1000 Ang^3
#
#
#
# Elastic Constant Matrix: (Units=GPa)
#
#
# Indices 1 2 3 4 5 6 
#
# 1 93.5413 18.2932 3.3402 5.7648 -8.2171 -22.8640
# 2 18.2932 108.3524 23.5912 -9.0420 -3.0371 9.0343
# 3 3.3402 23.5912 98.5237 -12.1343 -15.2361 5.3082
# 4 5.7648 -9.0420 -12.1343 22.3460 2.8417 -0.2248
# 5 -8.2171 -3.0371 -15.2361 2.8417 47.9620 1.3766
# 6 -22.8640 9.0343 5.3082 -0.2248 1.3766 32.7534
#
#
#
# Elastic Compliance Matrix: (Units=1/GPa)
#
#
# Indices 1 2 3 4 5 6 
#
# 1 0.014742 -0.003723 -0.000602 -0.005792 0.002118 0.011286
# 2 -0.003723 0.011043 -0.001775 0.004490 -0.000616 -0.005300
# 3 -0.000602 -0.001775 0.011881 0.005451 0.003292 -0.001957
# 4 -0.005792 0.004490 0.005451 0.051199 -0.001845 -0.005736
# 5 0.002118 -0.000616 0.003292 -0.001845 0.022324 0.000164
# 6 0.011286 -0.005300 -0.001957 -0.005736 0.000164 0.040143
#
#
# Mechanical properties :
#
#
# Convention : Reuss Voigt Hill
#
# Bulk Modulus (GPa) = 39.26737 43.42963 41.34850
# Shear Modulus (GPa) = 29.06636 37.62514 33.34575
#
# Velocity S-wave (km/s) = 3.36081 3.82373 3.59972
# Velocity P-wave (km/s) = 5.50628 6.03084 5.77452
#
# Compressibility (1/GPa) = 0.02546644
#
# Stress axis : x y z
#
# Youngs Moduli (GPa) = 67.83491 90.55133 84.16752
#
# Poissons Ratio (x) = 0.33710 0.05070
# Poissons Ratio (y) = 0.25253 0.14938
# Poissons Ratio (z) = 0.04086 0.16071
#
# Static dielectric constant tensor:
#      x y z
#    x 2.197110 -0.081760 0.049960 
#    y -0.081760 2.098680 -0.081280 
#    z 0.049960 -0.081280 2.114840 
# 
# From -- ./inp_files/255349.got.cif
#   From: 2010.05.17/outbox.cif.g08.bks.cpg/sg2_128_cif.got.tgz:255349.got - 2010.06.03 11:33:40.
