data_PCOD9099593
_publ_section_title
;
Structure prediction by ZEFSAII (Michael W. Deem and Ramdas Pophale) SiO2 
 PCOD9099593
Probable space group: P -1
;
_chemical_formula_sum "Si O2"
_cell_formula_units_Z 14
_cell_length_a 19.507758
_cell_length_b 15.774201
_cell_length_c 6.382349
_cell_angle_alpha 129.455257
_cell_angle_beta 123.482954
_cell_angle_gamma 23.230539
_cell_volume 594.759550
_symmetry_space_group_name_H-M "P -1"
_symmetry_group_IT_number 2
_symmetry_cell_setting 'triclinic'
loop_
_space_group_symop_operation_xyz
x,y,z
-x,-y,-z
loop_
_atom_site_type_symbol
_atom_site_label
_atom_site_fract_x
_atom_site_fract_y
_atom_site_fract_z
Si Si1 0.052268 0.014676 0.915924
Si Si2 0.428290 0.608770 0.817977
Si Si3 0.637773 0.703562 0.439203
Si Si4 0.454588 0.848552 0.742829
Si Si5 0.274897 0.175255 0.336768
Si Si6 0.792710 0.942414 0.715201
Si Si7 0.308222 0.564116 0.189545
O O1 0.100135 0.810239 0.236299
O O2 0.244449 0.759467 0.747106
O O3 0.073306 0.116488 0.190181
O O4 0.000000 0.000000 0.000000
O O5 0.345505 0.829292 0.011248
O O6 0.608218 0.414656 0.687577
O O7 0.500000 0.500000 0.000000
O O8 0.600101 0.740178 0.679541
O O9 0.766011 0.648777 0.492142
O O10 0.675307 0.541411 0.145950
O O11 0.447320 0.963677 0.439990
O O12 0.316886 0.956503 0.519440
O O13 0.570253 0.628713 0.727597
O O14 0.340471 0.054922 0.033214
O O15 0.153110 0.230207 0.336365
#
# Coordination Sequence:
#
# PCOD9099593 Si02
#       7
#     2   2   2   2   2   2   2
#     4  10  20  35  59  82 103 148 183 220 276 325
#     4  10  18  36  59  78 106 141 179 224 269 318
#     4   9  17  29  51  84 107 144 183 217 265 325
#     4  10  16  31  56  82 110 143 180 222 274 313
#     4   9  16  30  54  77 112 143 180 222 266 317
#     4   9  19  35  54  81 110 141 182 224 269 322
#     4  11  19  36  58  79 116 142 177 229 268 320
#
# _framework density 23.538923
#
# number of rings (size 3 to 8) (size 9 to 14) (size 15 to 20)
#    0.857    1.429    5.714    0.429    0.000    1.143 
#    0.000    6.429    0.000    6.857    0.000    0.000 
#    0.000    0.000    0.000    0.000    0.000    0.000 
#
# Total GULP energy -77948.987629 kJ/mol
# GULP energy per Si atom -5567.784831 kJ/mol
# Density = 2.348535 g / cm^3
# Si number density = 23.538923 Si / 1000 Ang^3
#
#
#
# Elastic Constant Matrix: (Units=GPa)
#
#
# Indices 1 2 3 4 5 6 
#
# 1 205.5847 47.2026 41.6245 -16.6858 2.2174 -11.8808
# 2 47.2026 76.8250 30.0123 -10.0025 7.1723 -20.9765
# 3 41.6245 30.0123 55.4840 -14.3190 -1.0127 -0.9454
# 4 -16.6858 -10.0025 -14.3190 32.6798 0.6539 4.4627
# 5 2.2174 7.1723 -1.0127 0.6539 34.0872 1.1320
# 6 -11.8808 -20.9765 -0.9454 4.4627 1.1320 37.1800
#
#
#
# Elastic Compliance Matrix: (Units=1/GPa)
#
#
# Indices 1 2 3 4 5 6 
#
# 1 0.006125 -0.002296 -0.003085 0.001010 -0.000042 0.000463
# 2 -0.002296 0.022011 -0.010178 -0.000379 -0.005163 0.011629
# 3 -0.003085 -0.010178 0.027967 0.008473 0.003247 -0.007133
# 4 0.001010 -0.000379 0.008473 0.035250 -0.000281 -0.003898
# 5 -0.000042 -0.005163 0.003247 -0.000281 0.030652 -0.003743
# 6 0.000463 0.011629 -0.007133 -0.003898 -0.003743 0.034005
#
#
# Mechanical properties :
#
#
# Convention : Reuss Voigt Hill
#
# Bulk Modulus (GPa) = 40.02300 63.95249 51.98775
# Shear Modulus (GPa) = 25.58093 35.39302 30.48697
#
# Velocity S-wave (km/s) = 3.30017 3.88183 3.60276
# Velocity P-wave (km/s) = 5.61794 6.87890 6.28015
#
# Compressibility (1/GPa) = 0.02498563
#
# Stress axis : x y z
#
# Youngs Moduli (GPa) = 163.25721 45.43151 35.75592
#
# Poissons Ratio (x) = 0.10432 0.11032
# Poissons Ratio (y) = 0.37488 0.36391
# Poissons Ratio (z) = 0.50370 0.46238
#
# Static dielectric constant tensor:
#      x y z
#    x 2.080450 -0.073840 -0.043970 
#    y -0.073840 1.961160 0.095750 
#    z -0.043970 0.095750 2.104520 
# 
# From -- ./inp_files/110366.got.cif
#   From: 2010.05.17/outbox.cif.g08.bks.cpg/sg2_56_cif.got.tgz:110366.got - 2010.06.03 11:33:40.
