data_PCOD9099228
_publ_section_title
;
Structure prediction by ZEFSAII (Michael W. Deem and Ramdas Pophale) SiO2 
 PCOD9099228
Probable space group: P -1
;
_chemical_formula_sum "Si O2"
_cell_formula_units_Z 14
_cell_length_a 24.316763
_cell_length_b 7.211673
_cell_length_c 21.079122
_cell_angle_alpha 36.735712
_cell_angle_beta 164.359203
_cell_angle_gamma 145.401950
_cell_volume 564.967634
_symmetry_space_group_name_H-M "P -1"
_symmetry_group_IT_number 2
_symmetry_cell_setting 'triclinic'
loop_
_space_group_symop_operation_xyz
x,y,z
-x,-y,-z
loop_
_atom_site_type_symbol
_atom_site_label
_atom_site_fract_x
_atom_site_fract_y
_atom_site_fract_z
Si Si1 0.962542 0.156679 0.087643
Si Si2 0.129076 0.689099 0.676617
Si Si3 0.206150 0.074247 0.165013
Si Si4 0.378475 0.450212 0.530822
Si Si5 0.308685 0.136849 0.017977
Si Si6 0.321534 0.326651 0.646451
Si Si7 0.153173 0.904592 0.782342
O O1 0.802874 0.111689 0.981912
O O2 0.195181 0.168069 0.368614
O O3 0.858988 0.903138 0.986867
O O4 0.000000 0.500000 0.000000
O O5 0.295879 0.968406 0.743761
O O6 0.861469 0.660592 0.236326
O O7 0.908135 0.775159 0.398725
O O8 0.195243 0.741788 0.809343
O O9 0.291950 0.764984 0.352487
O O10 0.402231 0.402822 0.304927
O O11 0.000000 0.000000 0.000000
O O12 0.394963 0.363446 0.645743
O O13 0.322041 0.996953 0.001610
O O14 0.523753 0.393202 0.214451
O O15 0.073477 0.321653 0.377506
#
# Coordination Sequence:
#
# PCOD9099228 Si02
#       7
#     2   2   2   2   2   2   2
#     4  10  21  38  60  87 117 159 205 250 315 366
#     4   9  21  40  57  89 126 153 209 254 294 377
#     4  10  22  39  63  89 116 160 209 250 307 371
#     4  10  20  40  63  82 127 159 194 262 311 357
#     4  12  20  37  67  82 119 170 199 246 317 364
#     4  10  20  37  59  91 117 159 202 246 313 368
#     4   9  21  39  57  88 124 156 203 255 300 363
#
# _framework density 24.780182
#
# number of rings (size 3 to 8) (size 9 to 14) (size 15 to 20)
#    0.857    1.143    2.857    0.857    0.000    2.286 
#    0.000    0.000    9.429    0.000    0.000    0.000 
#    0.000    0.000    0.000    0.000    0.000    0.000 
#
# Total GULP energy -78290.406075 kJ/mol
# GULP energy per Si atom -5592.171862 kJ/mol
# Density = 2.472378 g / cm^3
# Si number density = 24.780182 Si / 1000 Ang^3
#
#
#
# Elastic Constant Matrix: (Units=GPa)
#
#
# Indices 1 2 3 4 5 6 
#
# 1 162.7198 34.1172 35.7760 2.0799 -15.4493 17.8008
# 2 34.1172 73.1483 10.4564 -8.1281 5.9146 21.6650
# 3 35.7760 10.4564 72.5257 16.3706 -9.4380 6.0330
# 4 2.0799 -8.1281 16.3706 38.2668 0.0586 6.8357
# 5 -15.4493 5.9146 -9.4380 0.0586 49.5022 0.5744
# 6 17.8008 21.6650 6.0330 6.8357 0.5744 39.3252
#
#
#
# Elastic Compliance Matrix: (Units=1/GPa)
#
#
# Indices 1 2 3 4 5 6 
#
# 1 0.007811 -0.002812 -0.003167 0.000623 0.002188 -0.001641
# 2 -0.002812 0.019513 -0.002686 0.007288 -0.003610 -0.010279
# 3 -0.003167 -0.002686 0.017838 -0.008316 0.002725 0.001582
# 4 0.000623 0.007288 -0.008316 0.032759 -0.002200 -0.008683
# 5 0.002188 -0.003610 0.002725 -0.002200 0.021830 0.000644
# 6 -0.001641 -0.010279 0.001582 -0.008683 0.000644 0.033092
#
#
# Mechanical properties :
#
#
# Convention : Reuss Voigt Hill
#
# Bulk Modulus (GPa) = 35.93072 52.12145 44.02608
# Shear Modulus (GPa) = 31.35810 40.62179 35.98995
#
# Velocity S-wave (km/s) = 3.56118 4.05320 3.81513
# Velocity P-wave (km/s) = 5.60719 6.55620 6.10018
#
# Compressibility (1/GPa) = 0.02783134
#
# Stress axis : x y z
#
# Youngs Moduli (GPa) = 128.02984 51.24892 56.06092
#
# Poissons Ratio (x) = 0.14412 0.17753
# Poissons Ratio (y) = 0.36003 0.15058
# Poissons Ratio (z) = 0.40544 0.13765
#
# Static dielectric constant tensor:
#      x y z
#    x 1.899850 -0.049580 -0.023390 
#    y -0.049580 2.022320 -0.014280 
#    z -0.023390 -0.014280 2.059650 
# 
# From -- ./inp_files/577048.got.cif
#   From: 2010.05.17/outbox.cif.g08.bks.cpg/sg2_289_cif.got.tgz:577048.got - 2010.06.03 11:33:40.
