data_PCOD9099965
_publ_section_title
;
Structure prediction by ZEFSAII (Michael W. Deem and Ramdas Pophale) SiO2 
 PCOD9099965
Probable space group: P -1
;
_chemical_formula_sum "Si O2"
_cell_formula_units_Z 16
_cell_length_a 9.301970
_cell_length_b 17.043639
_cell_length_c 8.768018
_cell_angle_alpha 41.043932
_cell_angle_beta 112.056039
_cell_angle_gamma 129.742861
_cell_volume 686.007160
_symmetry_space_group_name_H-M "P -1"
_symmetry_group_IT_number 2
_symmetry_cell_setting 'triclinic'
loop_
_space_group_symop_operation_xyz
x,y,z
-x,-y,-z
loop_
_atom_site_type_symbol
_atom_site_label
_atom_site_fract_x
_atom_site_fract_y
_atom_site_fract_z
Si Si1 0.061364 0.689899 0.422031
Si Si2 0.287044 0.955648 0.804361
Si Si3 0.923117 0.333740 0.190016
Si Si4 0.548715 0.194028 0.031508
Si Si5 0.945323 0.051208 0.049373
Si Si6 0.263264 0.596086 0.453117
Si Si7 0.143320 0.331859 0.017359
Si Si8 0.742772 0.869670 0.730310
O O1 0.114146 0.728031 0.563577
O O2 0.232550 0.708166 0.365170
O O3 0.903873 0.518294 0.566303
O O4 0.979336 0.781474 0.206739
O O5 0.449563 0.933155 0.865496
O O6 0.263873 0.012356 0.873495
O O7 0.076448 0.795207 0.939456
O O8 0.296494 0.055781 0.526871
O O9 0.733214 0.259641 0.120935
O O10 0.092919 0.341869 0.156355
O O11 0.000000 0.500000 0.000000
O O12 0.383556 0.155792 0.136485
O O13 0.569706 0.304157 0.747457
O O14 0.044138 0.029688 0.263317
O O15 0.000000 0.000000 0.000000
O O16 0.241261 0.483811 0.738170
O O17 0.268790 0.270553 0.131025
#
# Coordination Sequence:
#
# PCOD9099965 Si02
#       8
#     2   2   2   2   2   2   2   2
#     4  11  19  35  62  90 116 146 208 244 283 353
#     4  10  20  41  61  82 115 162 205 233 285 368
#     4  11  20  34  62  89 112 149 200 241 284 355
#     4  11  23  39  61  86 120 161 194 243 301 358
#     4  11  23  38  62  92 114 155 202 254 292 338
#     4  11  18  37  64  89 116 155 198 243 293 353
#     4  10  20  37  62  89 111 155 199 250 289 348
#     4  11  24  41  57  87 123 158 196 241 308 351
#
# _framework density 23.323374000000001
#
# number of rings (size 3 to 8) (size 9 to 14) (size 15 to 20)
#    0.000    1.250    6.250    3.375    5.250    0.500 
#    0.000    2.500    0.000    0.000    0.000    0.000 
#    0.000    0.000    0.000    0.000    0.000    0.000 
#
# Total GULP energy -89172.286112 kJ/mol
# GULP energy per Si atom -5573.267882 kJ/mol
# Density = 2.327029 g / cm^3
# Si number density = 23.323374 Si / 1000 Ang^3
#
#
#
# Elastic Constant Matrix: (Units=GPa)
#
#
# Indices 1 2 3 4 5 6 
#
# 1 151.0611 45.5759 51.5137 -4.2761 -14.0359 -54.3344
# 2 45.5759 71.7448 25.6912 13.3258 -2.2260 -31.8899
# 3 51.5137 25.6912 122.1922 3.8911 -5.6047 -20.1541
# 4 -4.2761 13.3258 3.8911 27.6781 -13.0567 3.1767
# 5 -14.0359 -2.2260 -5.6047 -13.0567 39.3082 10.0387
# 6 -54.3344 -31.8899 -20.1541 3.1767 10.0387 51.0120
#
#
#
# Elastic Compliance Matrix: (Units=1/GPa)
#
#
# Indices 1 2 3 4 5 6 
#
# 1 0.012281 -0.003531 -0.002981 0.004400 0.002965 0.008838
# 2 -0.003531 0.027364 -0.001440 -0.020499 -0.010860 0.016191
# 3 -0.002981 -0.001440 0.009755 -0.001178 -0.000115 -0.000126
# 4 0.004400 -0.020499 -0.001178 0.060490 0.024735 -0.017228
# 5 0.002965 -0.010860 -0.000115 0.024735 0.037290 -0.012555
# 6 0.008838 0.016191 -0.000126 -0.017228 -0.012555 0.042632
#
#
# Mechanical properties :
#
#
# Convention : Reuss Voigt Hill
#
# Bulk Modulus (GPa) = 29.85446 65.61775 47.73611
# Shear Modulus (GPa) = 23.05419 38.41413 30.73416
#
# Velocity S-wave (km/s) = 3.14739 4.06276 3.63401
# Velocity P-wave (km/s) = 5.10256 7.08540 6.17410
#
# Compressibility (1/GPa) = 0.03349584
#
# Stress axis : x y z
#
# Youngs Moduli (GPa) = 81.42897 36.54461 102.51173
#
# Poissons Ratio (x) = 0.12903 0.30563
# Poissons Ratio (y) = 0.28750 0.14759
# Poissons Ratio (z) = 0.24277 0.05262
#
# Static dielectric constant tensor:
#      x y z
#    x 1.920550 0.006580 0.000110 
#    y 0.006580 2.030140 0.077820 
#    z 0.000110 0.077820 1.963470 
# 
# From -- ./inp_files/207706.got.cif
#   From: 2010.05.17/outbox.cif.g08.bks.cpg/sg2_104_cif.got.tgz:207706.got - 2010.06.03 11:33:40.
