data_PCOD9099943
_publ_section_title
;
Structure prediction by ZEFSAII (Michael W. Deem and Ramdas Pophale) SiO2 
 PCOD9099943
Probable space group: P -1
;
_chemical_formula_sum "Si O2"
_cell_formula_units_Z 16
_cell_length_a 19.823193
_cell_length_b 5.611966
_cell_length_c 23.224960
_cell_angle_alpha 75.741669
_cell_angle_beta 160.695481
_cell_angle_gamma 106.212124
_cell_volume 818.974808
_symmetry_space_group_name_H-M "P -1"
_symmetry_group_IT_number 2
_symmetry_cell_setting 'triclinic'
loop_
_space_group_symop_operation_xyz
x,y,z
-x,-y,-z
loop_
_atom_site_type_symbol
_atom_site_label
_atom_site_fract_x
_atom_site_fract_y
_atom_site_fract_z
Si Si1 0.041850 0.177111 0.366442
Si Si2 0.269403 0.364793 0.423240
Si Si3 0.213478 0.072831 0.632768
Si Si4 0.351507 0.545079 0.794065
Si Si5 0.929269 0.598569 0.856351
Si Si6 0.814970 0.612686 0.209975
Si Si7 0.562077 0.819337 0.610405
Si Si8 0.725211 0.205577 0.790646
O O1 0.922479 0.407395 0.274459
O O2 0.173824 0.257799 0.411491
O O3 0.910196 0.903898 0.265109
O O4 0.174985 0.139511 0.532205
O O5 0.103531 0.329987 0.239974
O O6 0.350923 0.657449 0.469715
O O7 0.490406 0.269382 0.595956
O O8 0.315134 0.820189 0.729819
O O9 0.324806 0.320513 0.739905
O O10 0.000000 0.000000 0.500000
O O11 0.195310 0.460185 0.726248
O O12 0.581840 0.577239 0.002053
O O13 0.735924 0.691508 0.726798
O O14 0.867195 0.312808 0.843764
O O15 0.143691 0.707155 0.052751
O O16 0.500000 0.000000 0.500000
O O17 0.676933 0.917565 0.755473
#
# Coordination Sequence:
#
# PCOD9099943 Si02
#       8
#     2   2   2   2   2   2   2   2
#     4  12  26  41  65  92 137 171 214 260 340 397
#     4  11  24  40  57  88 130 170 198 263 331 390
#     4  12  21  40  66  98 125 170 217 271 320 387
#     4  11  22  41  71  94 126 159 230 278 316 373
#     4  10  20  37  62  88 117 154 209 262 308 368
#     4  11  23  43  65  98 123 172 215 274 324 389
#     4  11  18  36  66  89 116 161 211 265 312 371
#     4  10  20  38  62  89 115 154 215 259 304 379
#
# _framework density 19.536619000000002
#
# number of rings (size 3 to 8) (size 9 to 14) (size 15 to 20)
#    0.000    1.000    5.000    3.000    1.750    2.000 
#    4.500    0.000    0.000    0.000    0.000    0.000 
#    0.000    0.000    0.000    0.000    0.000    0.000 
#
# Total GULP energy -89108.609390 kJ/mol
# GULP energy per Si atom -5569.288087 kJ/mol
# Density = 1.949215 g / cm^3
# Si number density = 19.536619 Si / 1000 Ang^3
#
#
#
# Elastic Constant Matrix: (Units=GPa)
#
#
# Indices 1 2 3 4 5 6 
#
# 1 120.0685 53.4336 45.0613 11.0364 -22.7095 20.6454
# 2 53.4336 125.2660 43.4029 13.9474 -7.7946 -5.8833
# 3 45.0613 43.4029 86.5454 5.5976 -25.4932 2.9041
# 4 11.0364 13.9474 5.5976 32.8021 -7.7979 -5.8554
# 5 -22.7095 -7.7946 -25.4932 -7.7979 29.3347 -1.5745
# 6 20.6454 -5.8833 2.9041 -5.8554 -1.5745 29.7426
#
#
#
# Elastic Compliance Matrix: (Units=1/GPa)
#
#
# Indices 1 2 3 4 5 6 
#
# 1 0.015256 -0.005378 -0.002717 -0.002877 0.006633 -0.011603
# 2 -0.005378 0.012261 -0.005050 -0.002877 -0.005749 0.005781
# 3 -0.002717 -0.005050 0.019522 0.003220 0.014396 0.000377
# 4 -0.002877 -0.002877 0.003220 0.036028 0.009852 0.008728
# 5 0.006633 -0.005749 0.014396 0.009852 0.052696 -0.002417
# 6 -0.011603 0.005781 0.000377 0.008728 -0.002417 0.044373
#
#
# Mechanical properties :
#
#
# Convention : Reuss Voigt Hill
#
# Bulk Modulus (GPa) = 48.19680 68.40839 58.30259
# Shear Modulus (GPa) = 23.43666 31.04135 27.23901
#
# Velocity S-wave (km/s) = 3.46732 3.99040 3.73802
# Velocity P-wave (km/s) = 6.38383 7.50484 6.96692
#
# Compressibility (1/GPa) = 0.02074827
#
# Stress axis : x y z
#
# Youngs Moduli (GPa) = 65.54962 81.55993 51.22552
#
# Poissons Ratio (x) = 0.43863 0.13917
# Poissons Ratio (y) = 0.35253 0.25869
# Poissons Ratio (z) = 0.17809 0.41188
#
# Static dielectric constant tensor:
#      x y z
#    x 1.605730 -0.143970 0.192590 
#    y -0.143970 1.747550 0.247290 
#    z 0.192590 0.247290 1.080650 
# 
# From -- ./inp_files/598996.got.cif
#   From: 2010.05.17/outbox.cif.g08.bks.cpg/sg2_300_cif.got.tgz:598996.got - 2010.06.03 11:33:40.
