data_PCOD9099445
_publ_section_title
;
Structure prediction by ZEFSAII (Michael W. Deem and Ramdas Pophale) SiO2 
 PCOD9099445
Probable space group: P -1
;
_chemical_formula_sum "Si O2"
_cell_formula_units_Z 16
_cell_length_a 8.416084
_cell_length_b 15.065322
_cell_length_c 9.430229
_cell_angle_alpha 77.341828
_cell_angle_beta 134.266048
_cell_angle_gamma 81.237197
_cell_volume 751.443841
_symmetry_space_group_name_H-M "P -1"
_symmetry_group_IT_number 2
_symmetry_cell_setting 'triclinic'
loop_
_space_group_symop_operation_xyz
x,y,z
-x,-y,-z
loop_
_atom_site_type_symbol
_atom_site_label
_atom_site_fract_x
_atom_site_fract_y
_atom_site_fract_z
Si Si1 0.779838 0.981670 0.695583
Si Si2 0.990953 0.699253 0.757726
Si Si3 0.023674 0.390836 0.516801
Si Si4 0.417170 0.770621 0.018876
Si Si5 0.274600 0.872741 0.605861
Si Si6 0.429356 0.821182 0.329891
Si Si7 0.841271 0.776519 0.914682
Si Si8 0.826056 0.270162 0.598860
O O1 0.846878 0.015062 0.574860
O O2 0.752736 0.070106 0.757476
O O3 0.500000 0.000000 0.500000
O O4 0.901225 0.867712 0.864515
O O5 0.996671 0.626248 0.658884
O O6 0.719718 0.794896 0.534058
O O7 0.964472 0.683040 0.915340
O O8 0.231602 0.719496 0.893256
O O9 0.296340 0.311478 0.768968
O O10 0.000000 0.500000 0.500000
O O11 0.814744 0.367341 0.474173
O O12 0.385823 0.817722 0.138258
O O13 0.337968 0.853605 0.816150
O O14 0.549007 0.816406 0.727594
O O15 0.133605 0.811939 0.471089
O O16 0.376078 0.737676 0.415890
O O17 0.949145 0.755816 0.145048
#
# Coordination Sequence:
#
# PCOD9099445 Si02
#       8
#     2   2   2   2   2   2   2   2
#     4   9  18  36  60  89 127 163 212 244 276 347
#     4  11  21  40  63  88 127 157 195 254 309 354
#     4  11  26  44  65  92 117 150 205 258 307 375
#     4  11  22  40  63  89 122 165 196 246 315 355
#     4  10  20  37  60  89 125 167 203 238 295 358
#     4  10  21  36  64  90 124 165 204 246 287 360
#     4  11  20  38  65  86 126 169 202 245 292 354
#     4  11  20  39  66  86 119 164 204 241 312 359
#
# _framework density 21.292342000000001
#
# number of rings (size 3 to 8) (size 9 to 14) (size 15 to 20)
#    0.000    1.500    7.500    0.000    0.000    2.500 
#    0.000    7.500    0.000    0.000    0.000    0.000 
#    0.000    0.000    0.000    0.000    0.000    0.000 
#
# Total GULP energy -89079.497265 kJ/mol
# GULP energy per Si atom -5567.468579 kJ/mol
# Density = 2.124388 g / cm^3
# Si number density = 21.292342 Si / 1000 Ang^3
#
#
#
# Elastic Constant Matrix: (Units=GPa)
#
#
# Indices 1 2 3 4 5 6 
#
# 1 85.3297 35.3075 33.2568 5.6325 -12.5979 3.1424
# 2 35.3075 93.0601 33.1162 17.1424 -16.4788 4.2219
# 3 33.2568 33.1162 92.0635 32.7486 -19.9659 -11.5460
# 4 5.6325 17.1424 32.7486 30.1396 7.7342 -1.0125
# 5 -12.5979 -16.4788 -19.9659 7.7342 25.8098 2.0998
# 6 3.1424 4.2219 -11.5460 -1.0125 2.0998 22.3331
#
#
#
# Elastic Compliance Matrix: (Units=1/GPa)
#
#
# Indices 1 2 3 4 5 6 
#
# 1 0.017011 -0.006592 -0.012846 0.017007 -0.010449 -0.006035
# 2 -0.006592 0.019307 0.011655 -0.029353 0.026967 -0.000563
# 3 -0.012846 0.011655 0.062222 -0.090308 0.074686 0.020656
# 4 0.017007 -0.029353 -0.090308 0.177844 -0.131714 -0.023085
# 5 -0.010449 0.026967 0.074686 -0.131714 0.146871 0.015203
# 6 -0.006035 -0.000563 0.020656 -0.023085 0.015203 0.053935
#
#
# Mechanical properties :
#
#
# Convention : Reuss Voigt Hill
#
# Bulk Modulus (GPa) = 12.05201 52.64604 32.34903
# Shear Modulus (GPa) = 9.60776 26.90802 18.25789
#
# Velocity S-wave (km/s) = 2.12652 3.55877 2.93146
# Velocity P-wave (km/s) = 3.42082 6.45488 5.16563
#
# Compressibility (1/GPa) = 0.08297369
#
# Stress axis : x y z
#
# Youngs Moduli (GPa) = 58.78707 51.79515 16.07156
#
# Poissons Ratio (x) = 0.34141 0.20646
# Poissons Ratio (y) = 0.38750 -0.18732
# Poissons Ratio (z) = 0.75520 -0.60369
#
# Static dielectric constant tensor:
#      x y z
#    x 1.871100 0.003400 -0.025020 
#    y 0.003400 1.772640 0.031470 
#    z -0.025020 0.031470 1.838760 
# 
# From -- ./inp_files/201082.got.cif
#   From: 2010.05.17/outbox.cif.g08.bks.cpg/sg2_101_cif.got.tgz:201082.got - 2010.06.03 11:33:40.
