data_PCOD9099596
_publ_section_title
;
Structure prediction by ZEFSAII (Michael W. Deem and Ramdas Pophale) SiO2 
 PCOD9099596
Probable space group: P -1
;
_chemical_formula_sum "Si O2"
_cell_formula_units_Z 14
_cell_length_a 11.419701
_cell_length_b 7.888474
_cell_length_c 10.211381
_cell_angle_alpha 46.107253
_cell_angle_beta 97.922769
_cell_angle_gamma 75.014539
_cell_volume 570.059469
_symmetry_space_group_name_H-M "P -1"
_symmetry_group_IT_number 2
_symmetry_cell_setting 'triclinic'
loop_
_space_group_symop_operation_xyz
x,y,z
-x,-y,-z
loop_
_atom_site_type_symbol
_atom_site_label
_atom_site_fract_x
_atom_site_fract_y
_atom_site_fract_z
Si Si1 0.907867 0.879895 0.502160
Si Si2 0.309134 0.084850 0.917541
Si Si3 0.862580 0.426879 0.828616
Si Si4 0.397996 0.813245 0.790955
Si Si5 0.566172 0.720389 0.550779
Si Si6 0.427590 0.408933 0.675277
Si Si7 0.032938 0.148240 0.765378
O O1 0.906264 0.655188 0.717531
O O2 0.963826 0.757072 0.431274
O O3 0.749776 0.102014 0.336035
O O4 0.000000 0.000000 0.500000
O O5 0.327300 0.347384 0.778656
O O6 0.157792 0.137128 0.874486
O O7 0.359802 0.953570 0.852629
O O8 0.421982 0.859935 0.148501
O O9 0.700482 0.562824 0.743919
O O10 0.902479 0.315512 0.745087
O O11 0.935318 0.162365 0.070806
O O12 0.461257 0.976369 0.637331
O O13 0.500000 0.500000 0.000000
O O14 0.446661 0.654140 0.598673
O O15 0.609296 0.578994 0.488371
#
# Coordination Sequence:
#
# PCOD9099596 Si02
#       7
#     2   2   2   2   2   2   2
#     4  10  22  40  58  82 118 155 192 242 283 343
#     4   9  17  32  54  77 111 141 174 229 285 336
#     4  10  20  37  61  86 114 150 191 235 291 343
#     4   9  19  37  54  73 107 155 190 225 284 338
#     4   9  17  32  54  78 115 137 178 237 281 334
#     4   9  16  29  51  81 105 136 173 224 288 322
#     4  10  20  37  62  85 114 150 191 233 293 342
#
# _framework density 24.558838999999999
#
# number of rings (size 3 to 8) (size 9 to 14) (size 15 to 20)
#    0.000    2.571    1.429    1.286    0.000    0.571 
#   10.286    0.714    0.000    0.000    0.000    0.000 
#    0.000    0.000    0.000    0.000    0.000    0.000 
#
# Total GULP energy -78304.838821 kJ/mol
# GULP energy per Si atom -5593.202773 kJ/mol
# Density = 2.450294 g / cm^3
# Si number density = 24.558839 Si / 1000 Ang^3
#
#
#
# Elastic Constant Matrix: (Units=GPa)
#
#
# Indices 1 2 3 4 5 6 
#
# 1 147.4779 43.9135 49.8476 -19.1545 -5.8196 29.9620
# 2 43.9135 63.1451 11.4307 -22.7474 1.9275 13.9259
# 3 49.8476 11.4307 90.3047 -24.6125 -19.2745 19.3979
# 4 -19.1545 -22.7474 -24.6125 37.1906 7.2093 -11.1837
# 5 -5.8196 1.9275 -19.2745 7.2093 42.6791 -9.0143
# 6 29.9620 13.9259 19.3979 -11.1837 -9.0143 55.1587
#
#
#
# Elastic Compliance Matrix: (Units=1/GPa)
#
#
# Indices 1 2 3 4 5 6 
#
# 1 0.010898 -0.007002 -0.005489 -0.003042 -0.000790 -0.002967
# 2 -0.007002 0.025856 0.004462 0.015239 -0.003041 -0.001701
# 3 -0.005489 0.004462 0.017708 0.010203 0.005010 -0.001485
# 4 -0.003042 0.015239 0.010203 0.042726 -0.003215 0.002354
# 5 -0.000790 -0.003041 0.005010 -0.003215 0.026939 0.003185
# 6 -0.002967 -0.001701 -0.001485 0.002354 0.003185 0.021691
#
#
# Mechanical properties :
#
#
# Convention : Reuss Voigt Hill
#
# Bulk Modulus (GPa) = 26.03992 56.81236 41.42614
# Shear Modulus (GPa) = 28.62407 40.05477 34.33942
#
# Velocity S-wave (km/s) = 3.41769 4.04291 3.74338
# Velocity P-wave (km/s) = 5.11862 6.70648 5.96561
#
# Compressibility (1/GPa) = 0.03840258
#
# Stress axis : x y z
#
# Youngs Moduli (GPa) = 91.76254 38.67540 56.47123
#
# Poissons Ratio (x) = 0.27082 0.31000
# Poissons Ratio (y) = 0.64256 -0.25199
# Poissons Ratio (z) = 0.50373 -0.17258
#
# Static dielectric constant tensor:
#      x y z
#    x 1.962500 0.000330 -0.055510 
#    y 0.000330 1.996130 -0.023760 
#    z -0.055510 -0.023760 1.958770 
# 
# From -- ./inp_files/279347.got.cif
#   From: 2010.05.17/outbox.cif.g08.bks.cpg/sg2_140_cif.got.tgz:279347.got - 2010.06.03 11:33:40.
