data_PCOD9099480
_publ_section_title
;
Structure prediction by ZEFSAII (Michael W. Deem and Ramdas Pophale) SiO2 
 PCOD9099480
Probable space group: P -1
;
_chemical_formula_sum "Si O2"
_cell_formula_units_Z 14
_cell_length_a 7.781265
_cell_length_b 15.096175
_cell_length_c 12.386944
_cell_angle_alpha 35.524789
_cell_angle_beta 139.786846
_cell_angle_gamma 133.969005
_cell_volume 535.497720
_symmetry_space_group_name_H-M "P -1"
_symmetry_group_IT_number 2
_symmetry_cell_setting 'triclinic'
loop_
_space_group_symop_operation_xyz
x,y,z
-x,-y,-z
loop_
_atom_site_type_symbol
_atom_site_label
_atom_site_fract_x
_atom_site_fract_y
_atom_site_fract_z
Si Si1 0.541321 0.111742 0.808010
Si Si2 0.139528 0.334337 0.635858
Si Si3 0.269699 0.543953 0.176770
Si Si4 0.006489 0.769814 0.544182
Si Si5 0.770130 0.658094 0.851038
Si Si6 0.085358 0.359249 0.822541
Si Si7 0.693797 0.982161 0.418738
O O1 0.275907 0.186587 0.597345
O O2 0.799916 0.244352 0.819749
O O3 0.527808 0.021180 0.777678
O O4 0.500000 0.000000 0.000000
O O5 0.449146 0.400520 0.683739
O O6 0.998251 0.208170 0.608409
O O7 0.970508 0.471282 0.403133
O O8 0.169482 0.292695 0.815636
O O9 0.057625 0.410092 0.271198
O O10 0.335975 0.470710 0.165414
O O11 0.093605 0.679214 0.954823
O O12 0.263729 0.876814 0.616035
O O13 0.650589 0.811212 0.620010
O O14 0.747602 0.631015 0.995956
O O15 0.000000 0.000000 0.500000
#
# Coordination Sequence:
#
# PCOD9099480 Si02
#       7
#     2   2   2   2   2   2   2
#     4  11  22  39  66  91 118 159 206 250 301 358
#     4  11  23  39  57  91 129 161 198 249 301 361
#     4  11  21  37  64  92 121 152 211 256 292 351
#     4  11  20  39  61  90 122 156 203 253 296 352
#     4  11  21  37  64  91 122 157 206 250 304 350
#     4  11  22  38  62  88 126 165 197 244 311 358
#     4  10  20  37  60  91 121 149 199 257 301 349
#
# _framework density 26.143902000000001
#
# number of rings (size 3 to 8) (size 9 to 14) (size 15 to 20)
#    0.000    1.143    5.714    3.000    0.000    0.571 
#    0.000    3.571    0.000    0.000    0.000    1.000 
#    0.000    0.000    0.000    0.000    0.000    0.000 
#
# Total GULP energy -78276.126060 kJ/mol
# GULP energy per Si atom -5591.151861 kJ/mol
# Density = 2.608440 g / cm^3
# Si number density = 26.143902 Si / 1000 Ang^3
#
#
#
# Elastic Constant Matrix: (Units=GPa)
#
#
# Indices 1 2 3 4 5 6 
#
# 1 60.8231 33.1476 18.9152 9.0262 -22.1046 -21.9790
# 2 33.1476 142.8339 30.8110 42.7946 -22.4026 -31.3722
# 3 18.9152 30.8110 99.4327 21.9044 -26.3623 -11.5198
# 4 9.0262 42.7946 21.9044 40.6046 -17.8865 -12.8633
# 5 -22.1046 -22.4026 -26.3623 -17.8865 37.5649 19.3632
# 6 -21.9790 -31.3722 -11.5198 -12.8633 19.3632 34.9646
#
#
#
# Elastic Compliance Matrix: (Units=1/GPa)
#
#
# Indices 1 2 3 4 5 6 
#
# 1 0.024721 -0.003991 -0.001256 0.006465 0.010058 0.008354
# 2 -0.003991 0.012289 -0.000963 -0.011476 -0.004493 0.006467
# 3 -0.001256 -0.000963 0.013033 -0.003216 0.007768 -0.002844
# 4 0.006465 -0.011476 -0.003216 0.043928 0.015462 0.000306
# 5 0.010058 -0.004493 0.007768 0.015462 0.052118 -0.018324
# 6 0.008354 0.006467 -0.002844 0.000306 -0.018324 0.048977
#
#
# Mechanical properties :
#
#
# Convention : Reuss Voigt Hill
#
# Bulk Modulus (GPa) = 26.57883 52.09302 39.33592
# Shear Modulus (GPa) = 22.72455 37.30787 30.01621
#
# Velocity S-wave (km/s) = 2.95144 3.78169 3.39206
# Velocity P-wave (km/s) = 4.66937 6.24796 5.51544
#
# Compressibility (1/GPa) = 0.03762393
#
# Stress axis : x y z
#
# Youngs Moduli (GPa) = 40.45119 81.37447 76.73029
#
# Poissons Ratio (x) = 0.32475 0.09637
# Poissons Ratio (y) = 0.16143 0.07386
# Poissons Ratio (z) = 0.05080 0.07834
#
# Static dielectric constant tensor:
#      x y z
#    x 2.170840 -0.142720 0.030540 
#    y -0.142720 2.199370 -0.210630 
#    z 0.030540 -0.210630 2.416600 
# 
# From -- ./inp_files/381052.got.cif
#   From: 2010.05.17/outbox.cif.g08.bks.cpg/sg2_191_cif.got.tgz:381052.got - 2010.06.03 11:33:40.
