data_PCOD9099683
_publ_section_title
;
Structure prediction by ZEFSAII (Michael W. Deem and Ramdas Pophale) SiO2 
 PCOD9099683
Probable space group: P -1
;
_chemical_formula_sum "Si O2"
_cell_formula_units_Z 16
_cell_length_a 23.803099
_cell_length_b 8.881918
_cell_length_c 18.812018
_cell_angle_alpha 144.376515
_cell_angle_beta 21.681108
_cell_angle_gamma 144.431525
_cell_volume 824.074791
_symmetry_space_group_name_H-M "P -1"
_symmetry_group_IT_number 2
_symmetry_cell_setting 'triclinic'
loop_
_space_group_symop_operation_xyz
x,y,z
-x,-y,-z
loop_
_atom_site_type_symbol
_atom_site_label
_atom_site_fract_x
_atom_site_fract_y
_atom_site_fract_z
Si Si1 0.688535 0.550416 0.170258
Si Si2 0.997170 0.894086 0.144303
Si Si3 0.059316 0.546076 0.065196
Si Si4 0.830317 0.553658 0.467878
Si Si5 0.677633 0.986525 0.769257
Si Si6 0.669810 0.135815 0.388980
Si Si7 0.324285 0.336163 0.496885
Si Si8 0.107440 0.511816 0.225658
O O1 0.502264 0.430323 0.350418
O O2 0.728387 0.870928 0.233654
O O3 0.774566 0.465226 0.103245
O O4 0.762854 0.444352 0.973239
O O5 0.810199 0.815943 0.349839
O O6 0.067500 0.751173 0.070031
O O7 0.012951 0.751322 0.996591
O O8 0.075265 0.207463 0.172328
O O9 0.958297 0.612049 0.274852
O O10 0.741348 0.784986 0.667982
O O11 0.700891 0.289704 0.488257
O O12 0.940324 0.533035 0.397566
O O13 0.678045 0.855517 0.641306
O O14 0.808710 0.269745 0.731295
O O15 0.500000 0.000000 0.000000
O O16 0.718441 0.395760 0.378537
O O17 0.500000 0.000000 0.500000
#
# Coordination Sequence:
#
# PCOD9099683 Si02
#       8
#     2   2   2   2   2   2   2   2
#     4  10  20  37  61  89 114 157 197 239 279 354
#     4  11  22  38  58  89 122 155 181 239 305 357
#     4  10  21  37  59  86 126 151 185 237 304 349
#     4  10  20  40  58  89 117 153 197 248 278 346
#     4  11  21  40  62  86 112 156 203 247 283 340
#     4   9  17  31  57  85 111 150 187 232 281 337
#     4  10  21  39  58  83 125 154 192 241 296 341
#     4  11  23  35  64  89 114 152 207 238 286 343
#
# _framework density 19.415713
#
# number of rings (size 3 to 8) (size 9 to 14) (size 15 to 20)
#    0.000    1.750    3.750    1.875    1.750    3.000 
#    0.000    1.250    0.000    1.500    0.000    0.000 
#    0.000    0.000    0.000    0.000    0.000    0.000 
#
# Total GULP energy -89111.832171 kJ/mol
# GULP energy per Si atom -5569.489511 kJ/mol
# Density = 1.937152 g / cm^3
# Si number density = 19.415713 Si / 1000 Ang^3
#
#
#
# Elastic Constant Matrix: (Units=GPa)
#
#
# Indices 1 2 3 4 5 6 
#
# 1 79.7266 42.3330 33.1461 -4.8963 -32.3589 10.6473
# 2 42.3330 105.5434 34.1406 2.0983 -14.3780 26.3127
# 3 33.1461 34.1406 104.6912 1.5466 -22.8648 10.0215
# 4 -4.8963 2.0983 1.5466 27.1077 1.8968 -2.6312
# 5 -32.3589 -14.3780 -22.8648 1.8968 38.1421 -0.7793
# 6 10.6473 26.3127 10.0215 -2.6312 -0.7793 24.8702
#
#
#
# Elastic Compliance Matrix: (Units=1/GPa)
#
#
# Indices 1 2 3 4 5 6 
#
# 1 0.023823 -0.006334 -0.001727 0.003547 0.016572 -0.001907
# 2 -0.006334 0.016128 -0.001996 -0.003590 -0.000597 -0.013946
# 3 -0.001727 -0.001996 0.012063 -0.001392 0.005042 -0.001998
# 4 0.003547 -0.003590 -0.001392 0.038625 -0.000959 0.006897
# 5 0.016572 -0.000597 0.005042 -0.000959 0.042974 -0.007249
# 6 -0.001907 -0.013946 -0.001998 0.006897 -0.007249 0.057088
#
#
# Mechanical properties :
#
#
# Convention : Reuss Voigt Hill
#
# Bulk Modulus (GPa) = 31.35000 56.57785 43.96392
# Shear Modulus (GPa) = 22.57865 30.04678 26.31272
#
# Velocity S-wave (km/s) = 3.41384 3.93816 3.68534
# Velocity P-wave (km/s) = 5.63213 7.06274 6.38761
#
# Compressibility (1/GPa) = 0.03189793
#
# Stress axis : x y z
#
# Youngs Moduli (GPa) = 41.97624 62.00439 82.89933
#
# Poissons Ratio (x) = 0.39273 0.14320
# Poissons Ratio (y) = 0.26588 0.16551
# Poissons Ratio (z) = 0.07251 0.12379
#
# Static dielectric constant tensor:
#      x y z
#    x 1.699530 0.010530 -0.009180 
#    y 0.010530 1.738560 -0.075810 
#    z -0.009180 -0.075810 1.791680 
# 
# From -- ./inp_files/296191.got.cif
#   From: 2010.05.17/outbox.cif.g08.bks.cpg/sg2_149_cif.got.tgz:296191.got - 2010.06.03 11:33:40.
