data_PCOD9099399
_publ_section_title
;
Structure prediction by ZEFSAII (Michael W. Deem and Ramdas Pophale) SiO2 
 PCOD9099399
Probable space group: P -1
;
_chemical_formula_sum "Si O2"
_cell_formula_units_Z 16
_cell_length_a 18.027040
_cell_length_b 5.924049
_cell_length_c 11.910708
_cell_angle_alpha 53.032236
_cell_angle_beta 132.036791
_cell_angle_gamma 129.901699
_cell_volume 690.994985
_symmetry_space_group_name_H-M "P -1"
_symmetry_group_IT_number 2
_symmetry_cell_setting 'triclinic'
loop_
_space_group_symop_operation_xyz
x,y,z
-x,-y,-z
loop_
_atom_site_type_symbol
_atom_site_label
_atom_site_fract_x
_atom_site_fract_y
_atom_site_fract_z
Si Si1 0.482097 0.648286 0.601812
Si Si2 0.633548 0.927377 0.208039
Si Si3 0.357833 0.576959 0.279591
Si Si4 0.941146 0.230979 0.866268
Si Si5 0.834817 0.943240 0.287323
Si Si6 0.160710 0.744130 0.022427
Si Si7 0.488545 0.154884 0.110567
Si Si8 0.052040 0.475618 0.440303
O O1 0.429896 0.437628 0.719575
O O2 0.391360 0.490611 0.459605
O O3 0.592289 0.598642 0.701547
O O4 0.500000 0.000000 0.500000
O O5 0.755697 0.981598 0.289253
O O6 0.600323 0.111295 0.215253
O O7 0.590096 0.017547 0.022193
O O8 0.234848 0.546593 0.153867
O O9 0.428207 0.944795 0.217218
O O10 0.847225 0.153055 0.888759
O O11 0.912095 0.261204 0.698054
O O12 0.037756 0.545863 0.915093
O O13 0.000000 0.000000 0.000000
O O14 0.849790 0.627073 0.406556
O O15 0.952721 0.203970 0.358188
O O16 0.797117 0.992602 0.109581
O O17 0.500000 0.500000 0.000000
O O18 0.000000 0.500000 0.500000
#
# Coordination Sequence:
#
# PCOD9099399 Si02
#       8
#     2   2   2   2   2   2   2   2
#     4  10  22  39  58  84 124 158 199 247 298 354
#     4  10  21  37  59  87 120 153 199 247 299 354
#     4  10  21  39  59  86 118 159 198 247 297 353
#     4  10  22  40  62  90 120 156 199 245 298 361
#     4  10  21  40  61  87 122 157 195 250 302 351
#     4  10  21  40  62  85 121 158 197 249 298 355
#     4  10  20  37  60  88 117 153 197 247 297 355
#     4  10  22  40  62  89 121 155 197 247 300 360
#
# _framework density 23.155014000000001
#
# number of rings (size 3 to 8) (size 9 to 14) (size 15 to 20)
#    0.000    2.000    1.250    1.500    1.750    3.000 
#    4.500    0.000    0.000    0.000    0.000    0.000 
#    0.000    0.000    0.000    0.000    0.000    0.000 
#
# Total GULP energy -89207.096163 kJ/mol
# GULP energy per Si atom -5575.443510 kJ/mol
# Density = 2.310231 g / cm^3
# Si number density = 23.155014 Si / 1000 Ang^3
#
#
#
# Elastic Constant Matrix: (Units=GPa)
#
#
# Indices 1 2 3 4 5 6 
#
# 1 116.4587 6.3217 67.9407 -10.1365 6.0680 -5.0414
# 2 6.3217 30.3251 13.3986 -20.4844 -1.3676 -2.3934
# 3 67.9407 13.3986 161.2862 -19.7079 -13.7062 -12.3028
# 4 -10.1365 -20.4844 -19.7079 38.3168 -4.8575 7.2508
# 5 6.0680 -1.3676 -13.7062 -4.8575 54.9931 0.3815
# 6 -5.0414 -2.3934 -12.3028 7.2508 0.3815 18.9520
#
#
#
# Elastic Compliance Matrix: (Units=1/GPa)
#
#
# Indices 1 2 3 4 5 6 
#
# 1 0.011736 -0.000298 -0.005154 0.000007 -0.002585 -0.000212
# 2 -0.000298 0.052912 -0.000767 0.029271 0.003779 -0.005170
# 3 -0.005154 -0.000767 0.009296 0.002746 0.003085 0.003454
# 4 0.000007 0.029271 0.002746 0.046197 0.005577 -0.012306
# 5 -0.002585 0.003779 0.003085 0.005577 0.019830 -0.000741
# 6 -0.000212 -0.005170 0.003454 -0.012306 -0.000741 0.059021
#
#
# Mechanical properties :
#
#
# Convention : Reuss Voigt Hill
#
# Bulk Modulus (GPa) = 16.25835 53.71021 34.98428
# Shear Modulus (GPa) = 21.55826 37.14631 29.35229
#
# Velocity S-wave (km/s) = 3.05461 4.00965 3.56426
# Velocity P-wave (km/s) = 4.41334 6.68451 5.66393
#
# Compressibility (1/GPa) = 0.06150685
#
# Stress axis : x y z
#
# Youngs Moduli (GPa) = 85.21026 18.89940 107.57342
#
# Poissons Ratio (x) = 0.00563 0.55441
# Poissons Ratio (y) = 0.02539 0.08246
# Poissons Ratio (z) = 0.43916 0.01449
#
# Static dielectric constant tensor:
#      x y z
#    x 1.902110 -0.015130 -0.031090 
#    y -0.015130 1.971270 0.020740 
#    z -0.031090 0.020740 1.849750 
# 
# From -- ./inp_files/81537.got.cif
#   From: 2010.05.17/outbox.cif.g08.bks.cpg/sg2_41_cif.got.tgz:81537.got - 2010.06.03 11:33:40.
