data_PCOD9099735
_publ_section_title
;
Structure prediction by ZEFSAII (Michael W. Deem and Ramdas Pophale) SiO2 
 PCOD9099735
Probable space group: P -1
;
_chemical_formula_sum "Si O2"
_cell_formula_units_Z 14
_cell_length_a 10.881071
_cell_length_b 9.481008
_cell_length_c 10.710885
_cell_angle_alpha 58.461729
_cell_angle_beta 72.205613
_cell_angle_gamma 44.093223
_cell_volume 650.711509
_symmetry_space_group_name_H-M "P -1"
_symmetry_group_IT_number 2
_symmetry_cell_setting 'triclinic'
loop_
_space_group_symop_operation_xyz
x,y,z
-x,-y,-z
loop_
_atom_site_type_symbol
_atom_site_label
_atom_site_fract_x
_atom_site_fract_y
_atom_site_fract_z
Si Si1 0.182267 0.729698 0.296380
Si Si2 0.402418 0.054422 0.695462
Si Si3 0.988012 0.594748 0.325725
Si Si4 0.782108 0.669610 0.849899
Si Si5 0.468495 0.747127 0.601575
Si Si6 0.988860 0.248569 0.142111
Si Si7 0.813463 0.255037 0.425111
O O1 0.372832 0.512711 0.280396
O O2 0.216886 0.654440 0.467402
O O3 0.042389 0.734447 0.270861
O O4 0.616326 0.078647 0.337079
O O5 0.570966 0.864751 0.816984
O O6 0.213464 0.242516 0.734002
O O7 0.454370 0.173913 0.546551
O O8 0.000000 0.500000 0.500000
O O9 0.134519 0.383726 0.289178
O O10 0.865629 0.741967 0.872351
O O11 0.866970 0.425368 0.987469
O O12 0.332073 0.751271 0.567673
O O13 0.099717 0.984948 0.201213
O O14 0.855114 0.341239 0.258457
O O15 0.000000 0.000000 0.500000
#
# Coordination Sequence:
#
# PCOD9099735 Si02
#       7
#     2   2   2   2   2   2   2
#     4  11  21  40  64  98 125 164 213 269 313 370
#     4  11  21  39  65  95 129 165 208 264 319 377
#     4  12  22  41  70  97 127 164 215 263 320 372
#     4  11  24  46  63  93 130 172 210 261 316 386
#     4  11  21  37  62  99 127 157 215 266 319 372
#     4  10  24  44  64  87 132 172 211 257 321 377
#     4  10  20  37  61  90 124 163 209 261 311 368
#
# _framework density 21.51491
#
# number of rings (size 3 to 8) (size 9 to 14) (size 15 to 20)
#    0.000    1.143    2.857    5.571    0.000    0.571 
#    2.571    2.857    0.000    0.000    0.000    0.000 
#    0.000    0.000    0.000    0.000    0.000    0.000 
#
# Total GULP energy -78219.449758 kJ/mol
# GULP energy per Si atom -5587.103554 kJ/mol
# Density = 2.146594 g / cm^3
# Si number density = 21.514910 Si / 1000 Ang^3
#
#
#
# Elastic Constant Matrix: (Units=GPa)
#
#
# Indices 1 2 3 4 5 6 
#
# 1 87.1329 39.5910 3.7714 -25.3434 14.0491 -21.0153
# 2 39.5910 93.1120 10.0038 -33.1324 -1.4182 -7.7860
# 3 3.7714 10.0038 56.1658 -24.1694 3.4359 -2.5649
# 4 -25.3434 -33.1324 -24.1694 33.6265 0.0720 0.8858
# 5 14.0491 -1.4182 3.4359 0.0720 20.8313 -11.4813
# 6 -21.0153 -7.7860 -2.5649 0.8858 -11.4813 42.1786
#
#
#
# Elastic Compliance Matrix: (Units=1/GPa)
#
#
# Indices 1 2 3 4 5 6 
#
# 1 0.021833 -0.002782 0.008615 0.019746 -0.012507 0.007069
# 2 -0.002782 0.018903 0.005498 0.020391 0.003875 0.003064
# 3 0.008615 0.005498 0.031915 0.034757 -0.008503 0.004203
# 4 0.019746 0.020391 0.034757 0.089443 -0.012170 0.010525
# 5 -0.012507 0.003875 -0.008503 -0.012170 0.064665 0.011825
# 6 0.007069 0.003064 0.004203 0.010525 0.011825 0.031050
#
#
# Mechanical properties :
#
#
# Convention : Reuss Voigt Hill
#
# Bulk Modulus (GPa) = 10.49180 38.12703 24.30941
# Shear Modulus (GPa) = 18.73229 31.53025 25.13127
#
# Velocity S-wave (km/s) = 2.95391 3.83235 3.42144
# Velocity P-wave (km/s) = 4.06463 6.11083 5.18958
#
# Compressibility (1/GPa) = 0.09531257
#
# Stress axis : x y z
#
# Youngs Moduli (GPa) = 45.80268 52.90155 31.33275
#
# Poissons Ratio (x) = 0.14716 -0.26992
# Poissons Ratio (y) = 0.12741 -0.17226
# Poissons Ratio (z) = -0.39458 -0.29084
#
# Static dielectric constant tensor:
#      x y z
#    x 1.686400 -0.093620 -0.036770 
#    y -0.093620 1.710180 0.015650 
#    z -0.036770 0.015650 1.819960 
# 
# From -- ./inp_files/425450.got.cif
#   From: 2010.05.17/outbox.cif.g08.bks.cpg/sg2_213_cif.got.tgz:425450.got - 2010.06.03 11:33:40.
