data_PCOD9099208
_publ_section_title
;
Structure prediction by ZEFSAII (Michael W. Deem and Ramdas Pophale) SiO2 
 PCOD9099208
Probable space group: P -1
;
_chemical_formula_sum "Si O2"
_cell_formula_units_Z 14
_cell_length_a 12.951286
_cell_length_b 15.653788
_cell_length_c 12.432138
_cell_angle_alpha 40.822641
_cell_angle_beta 49.120568
_cell_angle_gamma 26.483174
_cell_volume 732.490346
_symmetry_space_group_name_H-M "P -1"
_symmetry_group_IT_number 2
_symmetry_cell_setting 'triclinic'
loop_
_space_group_symop_operation_xyz
x,y,z
-x,-y,-z
loop_
_atom_site_type_symbol
_atom_site_label
_atom_site_fract_x
_atom_site_fract_y
_atom_site_fract_z
Si Si1 0.335454 0.482556 0.454217
Si Si2 0.572609 0.026275 0.753196
Si Si3 0.737818 0.413902 0.029765
Si Si4 0.766192 0.260508 0.924237
Si Si5 0.200072 0.743395 0.637602
Si Si6 0.183478 0.224455 0.962162
Si Si7 0.949892 0.380089 0.283652
O O1 0.453439 0.249708 0.578458
O O2 0.255750 0.616248 0.273377
O O3 0.547611 0.403787 0.431928
O O4 0.130497 0.619523 0.548937
O O5 0.366205 0.088528 0.869026
O O6 0.774515 0.824234 0.728578
O O7 0.704905 0.945950 0.854727
O O8 0.464105 0.653002 0.004558
O O9 0.791151 0.270998 0.225523
O O10 0.765718 0.331449 0.972080
O O11 0.931300 0.373940 0.954312
O O12 0.000000 0.000000 0.000000
O O13 0.147177 0.643096 0.718614
O O14 0.000000 0.000000 0.500000
O O15 0.158330 0.391677 0.864933
#
# Coordination Sequence:
#
# PCOD9099208 Si02
#       7
#     2   2   2   2   2   2   2
#     4  10  22  38  57  88 118 156 199 245 296 342
#     4  10  20  37  59  89 126 154 185 241 295 359
#     4  10  22  41  62  86 120 153 199 249 292 343
#     4  10  24  42  62  86 112 160 210 249 285 341
#     4  11  20  35  60  93 123 153 184 246 308 350
#     4  10  21  38  59  93 123 156 191 234 301 362
#     4  11  21  34  59  90 127 153 188 232 296 369
#
# _framework density 19.112879
#
# number of rings (size 3 to 8) (size 9 to 14) (size 15 to 20)
#    0.000    1.714    2.857    0.857    2.000    2.286 
#   12.857    2.857    0.000    5.143    0.000    0.000 
#    0.000    0.000    0.000    0.000    0.000    0.000 
#
# Total GULP energy -78088.711840 kJ/mol
# GULP energy per Si atom -5577.765131 kJ/mol
# Density = 1.906938 g / cm^3
# Si number density = 19.112879 Si / 1000 Ang^3
#
#
#
# Elastic Constant Matrix: (Units=GPa)
#
#
# Indices 1 2 3 4 5 6 
#
# 1 64.1649 36.1756 36.5255 -2.4302 7.1434 -19.7189
# 2 36.1756 168.6440 70.9790 12.7369 8.7427 -16.1703
# 3 36.5255 70.9790 102.9216 -0.0287 16.0117 -4.2288
# 4 -2.4302 12.7369 -0.0287 34.3086 -3.6517 0.3535
# 5 7.1434 8.7427 16.0117 -3.6517 25.1149 7.2590
# 6 -19.7189 -16.1703 -4.2288 0.3535 7.2590 25.1220
#
#
#
# Elastic Compliance Matrix: (Units=1/GPa)
#
#
# Indices 1 2 3 4 5 6 
#
# 1 0.028358 -0.000249 -0.007354 0.000781 -0.010042 0.023752
# 2 -0.000249 0.009330 -0.005898 -0.003699 -0.001486 0.005299
# 3 -0.007354 -0.005898 0.016946 0.001211 -0.004950 -0.005303
# 4 0.000781 -0.003699 0.001211 0.031244 0.005909 -0.003711
# 5 -0.010042 -0.001486 -0.004950 0.005909 0.054584 -0.025528
# 6 0.023752 0.005299 -0.005303 -0.003711 -0.025528 0.068396
#
#
# Mechanical properties :
#
#
# Convention : Reuss Voigt Hill
#
# Bulk Modulus (GPa) = 36.18943 69.23230 52.71087
# Shear Modulus (GPa) = 20.40231 29.71246 25.05738
#
# Velocity S-wave (km/s) = 3.27075 3.94709 3.62473
# Velocity P-wave (km/s) = 5.76536 7.55475 6.71988
#
# Compressibility (1/GPa) = 0.02763238
#
# Stress axis : x y z
#
# Youngs Moduli (GPa) = 35.26316 107.18215 59.01092
#
# Poissons Ratio (x) = 0.02669 0.43396
# Poissons Ratio (y) = 0.00878 0.34805
# Poissons Ratio (z) = 0.25932 0.63217
#
# Static dielectric constant tensor:
#      x y z
#    x 1.659060 -0.027880 -0.020370 
#    y -0.027880 1.693750 0.039750 
#    z -0.020370 0.039750 1.672800 
# 
# From -- ./inp_files/431804.got.cif
#   From: 2010.05.17/outbox.cif.g08.bks.cpg/sg2_216_cif.got.tgz:431804.got - 2010.06.03 11:33:40.
