data_PCOD9099605
_publ_section_title
;
Structure prediction by ZEFSAII (Michael W. Deem and Ramdas Pophale) SiO2 
 PCOD9099605
Probable space group: P -1
;
_chemical_formula_sum "Si O2"
_cell_formula_units_Z 16
_cell_length_a 5.125736
_cell_length_b 14.301134
_cell_length_c 15.236842
_cell_angle_alpha 48.008997
_cell_angle_beta 75.423099
_cell_angle_gamma 101.464987
_cell_volume 690.895965
_symmetry_space_group_name_H-M "P -1"
_symmetry_group_IT_number 2
_symmetry_cell_setting 'triclinic'
loop_
_space_group_symop_operation_xyz
x,y,z
-x,-y,-z
loop_
_atom_site_type_symbol
_atom_site_label
_atom_site_fract_x
_atom_site_fract_y
_atom_site_fract_z
Si Si1 0.171782 0.732912 0.463459
Si Si2 0.874111 0.064106 0.350639
Si Si3 0.822319 0.826939 0.112136
Si Si4 0.242887 0.226139 0.378290
Si Si5 0.279615 0.555442 0.698538
Si Si6 0.378911 0.541578 0.398434
Si Si7 0.697971 0.260414 0.924912
Si Si8 0.456713 0.053979 0.234267
O O1 0.360507 0.685855 0.541178
O O2 0.950861 0.754103 0.539024
O O3 0.975870 0.590789 0.507126
O O4 0.364678 0.893938 0.305519
O O5 0.051090 0.192213 0.326408
O O6 0.145172 0.060269 0.274131
O O7 0.633992 0.070746 0.300402
O O8 0.722872 0.913554 0.513949
O O9 0.538251 0.717470 0.270584
O O10 0.636118 0.792937 0.056830
O O11 0.096707 0.787920 0.120074
O O12 0.000000 0.000000 0.000000
O O13 0.578071 0.372398 0.265965
O O14 0.449096 0.477118 0.690011
O O15 0.913751 0.435600 0.804769
O O16 0.500000 0.500000 0.500000
O O17 0.661396 0.181469 0.069488
#
# Coordination Sequence:
#
# PCOD9099605 Si02
#       8
#     2   2   2   2   2   2   2   2
#     4  10  20  37  61  86 117 156 204 238 306 347
#     4  10  21  37  60  94 121 152 204 250 294 347
#     4  11  24  43  63  88 117 163 201 240 303 358
#     4   9  20  35  62  87 121 155 196 251 295 355
#     4  10  20  40  60  85 117 165 193 239 307 356
#     4  10  23  39  59  91 120 150 202 255 292 351
#     4  11  24  43  62  84 126 161 196 242 299 364
#     4  11  23  38  61  91 121 159 201 246 296 346
#
# _framework density 23.158337
#
# number of rings (size 3 to 8) (size 9 to 14) (size 15 to 20)
#    0.000    1.750    2.500    1.125    3.500    3.000 
#    0.000    1.250    0.000    0.000    0.000    0.000 
#    0.000    0.000    0.000    0.000    0.000    0.000 
#
# Total GULP energy -89344.751613 kJ/mol
# GULP energy per Si atom -5584.046976 kJ/mol
# Density = 2.310563 g / cm^3
# Si number density = 23.158337 Si / 1000 Ang^3
#
#
#
# Elastic Constant Matrix: (Units=GPa)
#
#
# Indices 1 2 3 4 5 6 
#
# 1 76.2406 12.2924 6.7727 -1.7888 5.2545 15.3857
# 2 12.2924 117.4078 20.8530 -22.0907 -3.4020 27.4819
# 3 6.7727 20.8530 95.0289 -8.7747 2.4366 7.7686
# 4 -1.7888 -22.0907 -8.7747 25.7321 5.4964 -4.2350
# 5 5.2545 -3.4020 2.4366 5.4964 31.2537 -2.0937
# 6 15.3857 27.4819 7.7686 -4.2350 -2.0937 37.2996
#
#
#
# Elastic Compliance Matrix: (Units=1/GPa)
#
#
# Indices 1 2 3 4 5 6 
#
# 1 0.014584 -0.000043 -0.000421 0.000466 -0.002908 -0.006007
# 2 -0.000043 0.012212 -0.001201 0.008937 -0.000661 -0.007752
# 3 -0.000421 -0.001201 0.011209 0.002916 -0.001516 -0.001030
# 4 0.000466 0.008937 0.002916 0.048913 -0.008088 -0.002285
# 5 -0.002908 -0.000661 -0.001516 -0.008088 0.034155 0.003001
# 6 -0.006007 -0.007752 -0.001030 -0.002285 0.003001 0.035123
#
#
# Mechanical properties :
#
#
# Convention : Reuss Voigt Hill
#
# Bulk Modulus (GPa) = 28.83871 40.94595 34.89233
# Shear Modulus (GPa) = 29.22539 35.44102 32.33321
#
# Velocity S-wave (km/s) = 3.55629 3.91625 3.74060
# Velocity P-wave (km/s) = 5.41690 6.17807 5.80997
#
# Compressibility (1/GPa) = 0.03467562
#
# Stress axis : x y z
#
# Youngs Moduli (GPa) = 68.56696 81.88657 89.21397
#
# Poissons Ratio (x) = 0.00349 0.03759
# Poissons Ratio (y) = 0.00292 0.10713
# Poissons Ratio (z) = 0.02889 0.09833
#
# Static dielectric constant tensor:
#      x y z
#    x 1.917050 -0.026860 -0.063190 
#    y -0.026860 1.950850 -0.020390 
#    z -0.063190 -0.020390 1.923330 
# 
# From -- ./inp_files/43350.got.cif
#   From: 2010.05.17/outbox.cif.g08.bks.cpg/sg2_22_cif.got.tgz:43350.got - 2010.06.03 11:33:40.
