data_PCOD9099299
_publ_section_title
;
Structure prediction by ZEFSAII (Michael W. Deem and Ramdas Pophale) SiO2 
 PCOD9099299
Probable space group: P -1
;
_chemical_formula_sum "Si O2"
_cell_formula_units_Z 16
_cell_length_a 25.233651
_cell_length_b 11.172567
_cell_length_c 11.783571
_cell_angle_alpha 140.828231
_cell_angle_beta 146.474766
_cell_angle_gamma 21.559210
_cell_volume 674.219583
_symmetry_space_group_name_H-M "P -1"
_symmetry_group_IT_number 2
_symmetry_cell_setting 'triclinic'
loop_
_space_group_symop_operation_xyz
x,y,z
-x,-y,-z
loop_
_atom_site_type_symbol
_atom_site_label
_atom_site_fract_x
_atom_site_fract_y
_atom_site_fract_z
Si Si1 0.260004 0.676709 0.638185
Si Si2 0.155147 0.255111 0.921140
Si Si3 0.385152 0.508707 0.998444
Si Si4 0.860276 0.479992 0.593367
Si Si5 0.871301 0.287019 0.888770
Si Si6 0.414232 0.891053 0.317915
Si Si7 0.640918 0.813969 0.022160
Si Si8 0.107009 0.698484 0.734747
O O1 0.331854 0.579225 0.823824
O O2 0.122973 0.733733 0.455444
O O3 0.400805 0.369227 0.582153
O O4 0.216137 0.967432 0.751116
O O5 0.992798 0.428339 0.819496
O O6 0.110173 0.520318 0.969655
O O7 0.294594 0.086249 0.137399
O O8 0.237659 0.661324 0.924531
O O9 0.555933 0.122866 0.033136
O O10 0.410044 0.684510 0.202469
O O11 0.882968 0.411926 0.450655
O O12 0.673288 0.840981 0.548593
O O13 0.694384 0.571593 0.845565
O O14 0.928393 0.064471 0.721738
O O15 0.000000 0.000000 0.000000
O O16 0.807763 0.570562 0.215110
O O17 0.500000 0.000000 0.000000
#
# Coordination Sequence:
#
# PCOD9099299 Si02
#       8
#     2   2   2   2   2   2   2   2
#     4  10  21  37  58  88 120 152 193 245 294 342
#     4  11  22  38  61  87 116 157 199 237 289 352
#     4   9  17  34  58  84 112 148 199 243 281 344
#     4  11  23  38  55  86 127 157 189 243 294 340
#     4  10  20  37  60  84 110 149 195 236 282 346
#     4  11  21  36  60  86 116 158 200 238 287 351
#     4   9  17  34  61  84 107 145 190 236 285 340
#     4   9  20  36  55  83 117 152 192 242 290 335
#
# _framework density 23.73114
#
# number of rings (size 3 to 8) (size 9 to 14) (size 15 to 20)
#    0.000    2.000    0.000    4.875    0.000    3.000 
#    0.000    6.875    0.000    6.000    0.000    0.000 
#    0.000    0.000    0.000    0.000    0.000    0.000 
#
# Total GULP energy -89292.934499 kJ/mol
# GULP energy per Si atom -5580.808406 kJ/mol
# Density = 2.367713 g / cm^3
# Si number density = 23.731140 Si / 1000 Ang^3
#
#
#
# Elastic Constant Matrix: (Units=GPa)
#
#
# Indices 1 2 3 4 5 6 
#
# 1 78.6019 45.2189 24.0352 2.6778 0.7096 -9.3702
# 2 45.2189 166.2334 26.5235 27.6511 -7.8745 -9.6416
# 3 24.0352 26.5235 45.8043 16.8247 -6.1481 -8.7458
# 4 2.6778 27.6511 16.8247 41.6679 -14.5608 -11.8373
# 5 0.7096 -7.8745 -6.1481 -14.5608 37.0331 10.4179
# 6 -9.3702 -9.6416 -8.7458 -11.8373 10.4179 57.7836
#
#
#
# Elastic Compliance Matrix: (Units=1/GPa)
#
#
# Indices 1 2 3 4 5 6 
#
# 1 0.017945 -0.004334 -0.008637 0.005421 -0.001188 0.002204
# 2 -0.004334 0.008103 -0.000687 -0.005001 -0.000147 -0.000453
# 3 -0.008637 -0.000687 0.031073 -0.011101 0.000586 0.000808
# 4 0.005421 -0.005001 -0.011101 0.036091 0.010071 0.003942
# 5 -0.001188 -0.000147 0.000586 0.010071 0.032137 -0.003859
# 6 0.002204 -0.000453 0.000808 0.003942 -0.003859 0.019214
#
#
# Mechanical properties :
#
#
# Convention : Reuss Voigt Hill
#
# Bulk Modulus (GPa) = 33.55117 53.57722 43.56420
# Shear Modulus (GPa) = 27.50073 40.28771 33.89422
#
# Velocity S-wave (km/s) = 3.40788 4.12475 3.78333
# Velocity P-wave (km/s) = 5.44551 6.73131 6.12226
#
# Compressibility (1/GPa) = 0.02980522
#
# Stress axis : x y z
#
# Youngs Moduli (GPa) = 55.72507 123.41491 32.18263
#
# Poissons Ratio (x) = 0.53483 0.27796
# Poissons Ratio (y) = 0.24149 0.02212
# Poissons Ratio (z) = 0.48129 0.08481
#
# Static dielectric constant tensor:
#      x y z
#    x 1.959480 -0.014040 -0.029720 
#    y -0.014040 1.990090 -0.023750 
#    z -0.029720 -0.023750 1.968630 
# 
# From -- ./inp_files/303496.got.cif
#   From: 2010.05.17/outbox.cif.g08.bks.cpg/sg2_152_cif.got.tgz:303496.got - 2010.06.03 11:33:40.
