data_PCOD9099063
_publ_section_title
;
Structure prediction by ZEFSAII (Michael W. Deem and Ramdas Pophale) SiO2 
 PCOD9099063
Probable space group: P -1
;
_chemical_formula_sum "Si O2"
_cell_formula_units_Z 16
_cell_length_a 28.242089
_cell_length_b 28.380433
_cell_length_c 12.266227
_cell_angle_alpha 153.528737
_cell_angle_beta 26.936207
_cell_angle_gamma 169.853068
_cell_volume 765.329146
_symmetry_space_group_name_H-M "P -1"
_symmetry_group_IT_number 2
_symmetry_cell_setting 'triclinic'
loop_
_space_group_symop_operation_xyz
x,y,z
-x,-y,-z
loop_
_atom_site_type_symbol
_atom_site_label
_atom_site_fract_x
_atom_site_fract_y
_atom_site_fract_z
Si Si1 0.752526 0.269918 0.612692
Si Si2 0.834950 0.549687 0.168211
Si Si3 0.706831 0.860286 0.622005
Si Si4 0.212591 0.626462 0.891835
Si Si5 0.665473 0.068478 0.592540
Si Si6 0.758591 0.474021 0.579512
Si Si7 0.803361 0.908319 0.763435
Si Si8 0.709053 0.616600 0.117663
O O1 0.759930 0.196745 0.547277
O O2 0.000000 0.500000 0.500000
O O3 0.500000 0.000000 0.500000
O O4 0.756499 0.388580 0.906085
O O5 0.561660 0.361226 0.351044
O O6 0.912608 0.559243 0.137959
O O7 0.063500 0.843241 0.268768
O O8 0.676754 0.841594 0.776949
O O9 0.767387 0.793361 0.337993
O O10 0.334319 0.658781 0.621483
O O11 0.397775 0.886169 0.110594
O O12 0.000000 0.500000 0.000000
O O13 0.919474 0.244150 0.488046
O O14 0.401734 0.750123 0.470554
O O15 0.681027 0.519277 0.866633
O O16 0.558506 0.640955 0.789765
O O17 0.000000 0.000000 0.500000
O O18 0.025361 0.178944 0.938751
#
# Coordination Sequence:
#
# PCOD9099063 Si02
#       8
#     2   2   2   2   2   2   2   2
#     4  11  23  38  56  86 122 150 186 238 294 355
#     4  11  24  39  62  87 117 161 197 234 301 361
#     4  11  22  39  58  87 124 159 195 236 284 358
#     4   9  22  44  65  86 114 154 203 252 301 361
#     4  10  22  38  60  86 115 152 196 242 296 358
#     4  11  22  38  62  87 113 149 198 255 297 332
#     4  10  20  37  59  83 119 163 197 233 283 342
#     4  11  22  37  60  92 122 156 204 244 282 343
#
# _framework density 20.906037999999999
#
# number of rings (size 3 to 8) (size 9 to 14) (size 15 to 20)
#    0.000    1.500    0.000    6.375    0.000   13.000 
#    0.000    1.250    0.000    0.000    0.000    0.000 
#    0.000    0.000    0.000    0.000    0.000    0.000 
#
# Total GULP energy -89331.864076 kJ/mol
# GULP energy per Si atom -5583.241505 kJ/mol
# Density = 2.085845 g / cm^3
# Si number density = 20.906038 Si / 1000 Ang^3
#
#
#
# Elastic Constant Matrix: (Units=GPa)
#
#
# Indices 1 2 3 4 5 6 
#
# 1 95.8669 25.2343 41.4792 2.7884 -3.3281 -4.8743
# 2 25.2343 144.1306 56.8443 24.5718 -0.5619 -4.7443
# 3 41.4792 56.8443 161.3578 24.1947 10.7389 -12.3358
# 4 2.7884 24.5718 24.1947 25.8541 -1.9642 -4.5733
# 5 -3.3281 -0.5619 10.7389 -1.9642 24.4878 1.5857
# 6 -4.8743 -4.7443 -12.3358 -4.5733 1.5857 27.9780
#
#
#
# Elastic Compliance Matrix: (Units=1/GPa)
#
#
# Indices 1 2 3 4 5 6 
#
# 1 0.012308 -0.001392 -0.003366 0.003543 0.003348 0.000814
# 2 -0.001392 0.009064 -0.001892 -0.006786 0.000348 -0.000669
# 3 -0.003366 -0.001892 0.009227 -0.006445 -0.005220 0.002403
# 4 0.003543 -0.006786 -0.006445 0.052151 0.007028 0.004752
# 5 0.003348 0.000348 -0.005220 0.007028 0.044348 -0.003024
# 6 0.000814 -0.000669 0.002403 0.004752 -0.003024 0.037778
#
#
# Mechanical properties :
#
#
# Convention : Reuss Voigt Hill
#
# Bulk Modulus (GPa) = 57.80366 72.05233 64.92799
# Shear Modulus (GPa) = 27.18238 34.18381 30.68310
#
# Velocity S-wave (km/s) = 3.60976 4.04804 3.83517
# Velocity P-wave (km/s) = 6.71440 7.50923 7.12291
#
# Compressibility (1/GPa) = 0.01729994
#
# Stress axis : x y z
#
# Youngs Moduli (GPa) = 81.24637 110.32284 108.38189
#
# Poissons Ratio (x) = 0.15354 0.36477
# Poissons Ratio (y) = 0.11308 0.20509
# Poissons Ratio (z) = 0.27344 0.20876
#
# Static dielectric constant tensor:
#      x y z
#    x 1.764610 0.036670 -0.000910 
#    y 0.036670 1.744690 -0.011620 
#    z -0.000910 -0.011620 1.860240 
# 
# From -- ./inp_files/477234.got.cif
#   From: 2010.05.17/outbox.cif.g08.bks.cpg/sg2_239_cif.got.tgz:477234.got - 2010.06.03 11:33:40.
