data_PCOD9099271
_publ_section_title
;
Structure prediction by ZEFSAII (Michael W. Deem and Ramdas Pophale) SiO2 
 PCOD9099271
Probable space group: P -1
;
_chemical_formula_sum "Si O2"
_cell_formula_units_Z 10
_cell_length_a 11.552796
_cell_length_b 8.865549
_cell_length_c 12.265776
_cell_angle_alpha 40.767888
_cell_angle_beta 145.265313
_cell_angle_gamma 114.166672
_cell_volume 383.235845
_symmetry_space_group_name_H-M "P -1"
_symmetry_group_IT_number 2
_symmetry_cell_setting 'triclinic'
loop_
_space_group_symop_operation_xyz
x,y,z
-x,-y,-z
loop_
_atom_site_type_symbol
_atom_site_label
_atom_site_fract_x
_atom_site_fract_y
_atom_site_fract_z
Si Si1 0.252978 0.279926 0.195404
Si Si2 0.958152 0.881261 0.680951
Si Si3 0.524502 0.002846 0.146653
Si Si4 0.938146 0.846265 0.203447
Si Si5 0.791700 0.387517 0.660170
O O1 0.175415 0.200373 0.289427
O O2 0.500000 0.000000 0.500000
O O3 0.214627 0.578559 0.019412
O O4 0.047666 0.349614 0.909461
O O5 0.757275 0.009531 0.358499
O O6 0.001820 0.084823 0.669805
O O7 0.595330 0.686803 0.396445
O O8 0.270958 0.208775 0.904288
O O9 0.500000 0.000000 0.000000
O O10 0.812130 0.128102 0.875840
O O11 0.186807 0.639019 0.439424
#
# Coordination Sequence:
#
# PCOD9099271 Si02
#       5
#     2   2   2   2   2
#     4   9  16  31  55  81 110 138 174 230 277 313
#     4   9  20  34  52  81 107 140 186 219 265 328
#     4  11  23  38  55  79 116 152 178 218 274 327
#     4  10  20  37  60  81 109 140 183 236 270 312
#     4   9  20  36  58  86 108 139 186 228 273 323
#
# _framework density 26.093592000000001
#
# number of rings (size 3 to 8) (size 9 to 14) (size 15 to 20)
#    0.000    2.400    0.000    3.000    0.000    6.400 
#    0.000    1.000    0.000    0.000    0.000    0.000 
#    0.000    0.000    0.000    0.000    0.000    0.000 
#
# Total GULP energy -55888.722142 kJ/mol
# GULP energy per Si atom -5588.872214 kJ/mol
# Density = 2.603420 g / cm^3
# Si number density = 26.093592 Si / 1000 Ang^3
#
#
#
# Elastic Constant Matrix: (Units=GPa)
#
#
# Indices 1 2 3 4 5 6 
#
# 1 82.0272 11.3211 33.3975 -6.6220 22.1828 -15.3762
# 2 11.3211 95.1873 30.7709 3.6304 3.0512 -23.0436
# 3 33.3975 30.7709 55.0474 5.0034 28.8685 -13.7825
# 4 -6.6220 3.6304 5.0034 38.2849 -14.8595 -2.6428
# 5 22.1828 3.0512 28.8685 -14.8595 44.5809 -11.5601
# 6 -15.3762 -23.0436 -13.7825 -2.6428 -11.5601 36.4306
#
#
#
# Elastic Compliance Matrix: (Units=1/GPa)
#
#
# Indices 1 2 3 4 5 6 
#
# 1 0.018015 0.003374 -0.013565 0.006252 0.003252 0.006092
# 2 0.003374 0.017323 -0.016354 0.006775 0.012768 0.010737
# 3 -0.013565 -0.016354 0.055467 -0.023479 -0.038184 -0.008905
# 4 0.006252 0.006775 -0.023479 0.041140 0.027904 0.009880
# 5 0.003252 0.012768 -0.038184 0.027904 0.057965 0.015420
# 6 0.006092 0.010737 -0.008905 0.009880 0.015420 0.039053
#
#
# Mechanical properties :
#
#
# Convention : Reuss Voigt Hill
#
# Bulk Modulus (GPa) = 26.51337 42.58235 34.54786
# Shear Modulus (GPa) = 16.97086 34.31078 25.64082
#
# Velocity S-wave (km/s) = 2.55303 3.63011 3.13812
# Velocity P-wave (km/s) = 4.34437 5.82449 5.13801
#
# Compressibility (1/GPa) = 0.03771682
#
# Stress axis : x y z
#
# Youngs Moduli (GPa) = 55.50802 57.72832 18.02879
#
# Poissons Ratio (x) = -0.19480 0.24456
# Poissons Ratio (y) = -0.18731 0.29483
# Poissons Ratio (z) = 0.75296 0.94406
#
# Static dielectric constant tensor:
#      x y z
#    x 2.074300 -0.037340 -0.034780 
#    y -0.037340 2.109620 -0.021460 
#    z -0.034780 -0.021460 2.171450 
# 
# From -- ./inp_files/18151.got.cif
#   From: 2010.05.17/outbox.cif.g08.bks.cpg/sg2_10_cif.got.tgz:18151.got - 2010.06.03 11:33:40.
