data_PCOD9099654
_publ_section_title
;
Structure prediction by ZEFSAII (Michael W. Deem and Ramdas Pophale) SiO2 
 PCOD9099654
Probable space group: P -1
;
_chemical_formula_sum "Si O2"
_cell_formula_units_Z 16
_cell_length_a 11.951551
_cell_length_b 16.929164
_cell_length_c 5.330551
_cell_angle_alpha 91.082049
_cell_angle_beta 73.340441
_cell_angle_gamma 138.920171
_cell_volume 644.786070
_symmetry_space_group_name_H-M "P -1"
_symmetry_group_IT_number 2
_symmetry_cell_setting 'triclinic'
loop_
_space_group_symop_operation_xyz
x,y,z
-x,-y,-z
loop_
_atom_site_type_symbol
_atom_site_label
_atom_site_fract_x
_atom_site_fract_y
_atom_site_fract_z
Si Si1 0.096182 0.837829 0.044989
Si Si2 0.273498 0.551509 0.096817
Si Si3 0.511916 0.081949 0.676937
Si Si4 0.066786 0.722464 0.531029
Si Si5 0.351484 0.262929 0.789927
Si Si6 0.618915 0.552750 0.177981
Si Si7 0.486933 0.216938 0.333947
Si Si8 0.866125 0.975648 0.773751
O O1 0.007490 0.739893 0.322909
O O2 0.047243 0.902626 0.144629
O O3 0.070833 0.781789 0.783448
O O4 0.323257 0.965367 0.944205
O O5 0.449095 0.637907 0.182241
O O6 0.074499 0.425918 0.343395
O O7 0.289979 0.484064 0.899501
O O8 0.320923 0.657028 0.922187
O O9 0.721142 0.192398 0.656577
O O10 0.501788 0.159881 0.538173
O O11 0.500000 0.000000 0.500000
O O12 0.270131 0.306975 0.881328
O O13 0.405848 0.258641 0.483411
O O14 0.208854 0.124942 0.981699
O O15 0.500000 0.500000 0.500000
O O16 0.500000 0.500000 0.000000
O O17 0.322706 0.099582 0.256144
O O18 0.000000 0.000000 0.500000
#
# Coordination Sequence:
#
# PCOD9099654 Si02
#       8
#     2   2   2   2   2   2   2   2
#     4  11  24  46  68 101 139 180 230 289 344 409
#     4  10  24  41  65  99 136 175 232 276 340 406
#     4  10  22  46  72  97 132 185 233 281 355 402
#     4  11  26  43  72 101 135 183 235 292 333 408
#     4  10  22  41  64  96 134 184 217 281 342 410
#     4  10  20  37  61  87 126 177 216 255 327 403
#     4  11  22  44  70  93 142 180 222 289 346 408
#     4  11  25  41  66 103 136 178 230 283 345 411
#
# _framework density 24.814433999999999
#
# number of rings (size 3 to 8) (size 9 to 14) (size 15 to 20)
#    0.000    1.500    2.500    1.875    3.500    3.000 
#    0.000    0.625    0.000    0.000    0.000    0.000 
#    0.000    0.000    0.000    0.000    0.000    0.000 
#
# Total GULP energy -89349.972054 kJ/mol
# GULP energy per Si atom -5584.373253 kJ/mol
# Density = 2.475796 g / cm^3
# Si number density = 24.814434 Si / 1000 Ang^3
#
#
#
# Elastic Constant Matrix: (Units=GPa)
#
#
# Indices 1 2 3 4 5 6 
#
# 1 42.1609 33.8900 12.0749 -6.4751 8.8225 -7.1590
# 2 33.8900 165.9317 48.9142 -15.9305 -0.3987 15.7041
# 3 12.0749 48.9142 114.6151 -14.2367 6.6702 5.9455
# 4 -6.4751 -15.9305 -14.2367 58.5279 -5.9715 -4.7567
# 5 8.8225 -0.3987 6.6702 -5.9715 38.1480 -3.6803
# 6 -7.1590 15.7041 5.9455 -4.7567 -3.6803 34.5547
#
#
#
# Elastic Compliance Matrix: (Units=1/GPa)
#
#
# Indices 1 2 3 4 5 6 
#
# 1 0.033075 -0.007473 -0.000216 0.001711 -0.006473 0.009832
# 2 -0.007473 0.008904 -0.002787 0.000728 0.001959 -0.004807
# 3 -0.000216 -0.002787 0.010242 0.001507 -0.001583 -0.000502
# 4 0.001711 0.000728 0.001507 0.018297 0.002458 0.002545
# 5 -0.006473 0.001959 -0.001583 0.002458 0.028530 0.001418
# 6 0.009832 -0.004807 -0.000502 0.002545 0.001418 0.033749
#
#
# Mechanical properties :
#
#
# Convention : Reuss Voigt Hill
#
# Bulk Modulus (GPa) = 31.98089 56.94066 44.46078
# Shear Modulus (GPa) = 30.45600 41.43469 35.94534
#
# Velocity S-wave (km/s) = 3.50716 4.09073 3.81013
# Velocity P-wave (km/s) = 5.41444 6.73116 6.10838
#
# Compressibility (1/GPa) = 0.03126867
#
# Stress axis : x y z
#
# Youngs Moduli (GPa) = 30.23474 112.30964 97.63520
#
# Poissons Ratio (x) = 0.83933 0.02107
# Poissons Ratio (y) = 0.22595 0.27209
# Poissons Ratio (z) = 0.00653 0.31299
#
# Static dielectric constant tensor:
#      x y z
#    x 2.035800 0.021820 -0.005380 
#    y 0.021820 1.962250 0.012490 
#    z -0.005380 0.012490 1.886270 
# 
# From -- ./inp_files/99732.got.cif
#   From: 2010.05.17/outbox.cif.g08.bks.cpg/sg2_50_cif.got.tgz:99732.got - 2010.06.03 11:33:40.
