data_PCOD9099686
_publ_section_title
;
Structure prediction by ZEFSAII (Michael W. Deem and Ramdas Pophale) SiO2 
 PCOD9099686
Probable space group: P -1
;
_chemical_formula_sum "Si O2"
_cell_formula_units_Z 16
_cell_length_a 9.781453
_cell_length_b 7.521798
_cell_length_c 16.813027
_cell_angle_alpha 118.642386
_cell_angle_beta 131.904440
_cell_angle_gamma 88.850968
_cell_volume 717.667154
_symmetry_space_group_name_H-M "P -1"
_symmetry_group_IT_number 2
_symmetry_cell_setting 'triclinic'
loop_
_space_group_symop_operation_xyz
x,y,z
-x,-y,-z
loop_
_atom_site_type_symbol
_atom_site_label
_atom_site_fract_x
_atom_site_fract_y
_atom_site_fract_z
Si Si1 0.921593 0.013848 0.598858
Si Si2 0.700046 0.700508 0.290418
Si Si3 0.365662 0.117034 0.395217
Si Si4 0.498877 0.336441 0.249244
Si Si5 0.365315 0.863826 0.182731
Si Si6 0.096405 0.417223 0.450852
Si Si7 0.199594 0.458575 0.334340
Si Si8 0.945696 0.733391 0.924461
O O1 0.798130 0.873457 0.441945
O O2 0.769661 0.017433 0.609648
O O3 0.006821 0.851790 0.638195
O O4 0.122273 0.228378 0.690705
O O5 0.622139 0.447024 0.240418
O O6 0.508285 0.742516 0.198424
O O7 0.257152 0.255768 0.338887
O O8 0.588651 0.314956 0.549657
O O9 0.390833 0.961751 0.303414
O O10 0.659460 0.483194 0.412234
O O11 0.297820 0.377687 0.174076
O O12 0.437630 0.079595 0.196170
O O13 0.120387 0.718054 0.041801
O O14 0.093911 0.499768 0.379678
O O15 0.000000 0.500000 0.500000
O O16 0.053290 0.368233 0.183086
O O17 0.000000 0.000000 0.000000
#
# Coordination Sequence:
#
# PCOD9099686 Si02
#       8
#     2   2   2   2   2   2   2   2
#     4   9  20  34  54  82 123 153 182 244 308 331
#     4  10  21  37  57  85 121 156 191 246 290 358
#     4  10  18  33  61  89 115 148 196 251 291 346
#     4  10  19  37  59  85 118 155 190 244 302 342
#     4  11  21  36  64  91 113 156 206 234 293 360
#     4  10  18  30  58  90 117 150 199 243 293 353
#     4  10  16  31  56  90 118 148 193 250 295 339
#     4  10  19  34  58  88 116 154 199 236 298 353
#
# _framework density 22.294456
#
# number of rings (size 3 to 8) (size 9 to 14) (size 15 to 20)
#    0.000    2.000    3.750    3.000    0.000    1.000 
#    0.000    0.000    2.750    3.750    0.000    0.000 
#    0.000    0.000    0.000    0.000    0.000    0.000 
#
# Total GULP energy -89322.992997 kJ/mol
# GULP energy per Si atom -5582.687062 kJ/mol
# Density = 2.224371 g / cm^3
# Si number density = 22.294456 Si / 1000 Ang^3
#
#
#
# Elastic Constant Matrix: (Units=GPa)
#
#
# Indices 1 2 3 4 5 6 
#
# 1 127.6247 64.7457 28.1149 3.3482 -0.5168 30.9534
# 2 64.7457 102.9370 15.9867 -1.2156 14.3743 18.8183
# 3 28.1149 15.9867 93.9964 -6.4531 4.7385 11.9459
# 4 3.3482 -1.2156 -6.4531 11.6836 -4.1993 9.1212
# 5 -0.5168 14.3743 4.7385 -4.1993 22.5339 -1.4494
# 6 30.9534 18.8183 11.9459 9.1212 -1.4494 44.2675
#
#
#
# Elastic Compliance Matrix: (Units=1/GPa)
#
#
# Indices 1 2 3 4 5 6 
#
# 1 0.013800 -0.008116 -0.002331 0.000184 0.005669 -0.005422
# 2 -0.008116 0.016689 0.000606 0.002473 -0.010656 -0.002442
# 3 -0.002331 0.000606 0.012557 0.010454 -0.001404 -0.004216
# 4 0.000184 0.002473 0.010454 0.119484 0.016689 -0.028074
# 5 0.005669 -0.010656 -0.001404 0.016689 0.054665 -0.000704
# 6 -0.005422 -0.002442 -0.004216 -0.028074 -0.000704 0.034319
#
#
# Mechanical properties :
#
#
# Convention : Reuss Voigt Hill
#
# Bulk Modulus (GPa) = 42.80072 60.25030 51.52551
# Shear Modulus (GPa) = 17.92228 30.07772 24.00000
#
# Velocity S-wave (km/s) = 2.83837 3.67701 3.28457
# Velocity P-wave (km/s) = 5.47553 6.71645 6.12748
#
# Compressibility (1/GPa) = 0.02336410
#
# Stress axis : x y z
#
# Youngs Moduli (GPa) = 72.46619 59.92040 79.63576
#
# Poissons Ratio (x) = 0.48631 0.18565
# Poissons Ratio (y) = 0.58813 -0.04829
# Poissons Ratio (z) = 0.16894 -0.03634
#
# Static dielectric constant tensor:
#      x y z
#    x 1.877100 0.002520 0.027830 
#    y 0.002520 1.890100 -0.004340 
#    z 0.027830 -0.004340 1.801390 
# 
# From -- ./inp_files/495655.got.cif
#   From: 2010.05.17/outbox.cif.g08.bks.cpg/sg2_248_cif.got.tgz:495655.got - 2010.06.03 11:33:40.
