data_PCOD9099861
_publ_section_title
;
Structure prediction by ZEFSAII (Michael W. Deem and Ramdas Pophale) SiO2 
 PCOD9099861
Probable space group: P -1
;
_chemical_formula_sum "Si O2"
_cell_formula_units_Z 16
_cell_length_a 11.425680
_cell_length_b 16.299933
_cell_length_c 8.522609
_cell_angle_alpha 115.307769
_cell_angle_beta 46.662233
_cell_angle_gamma 83.231749
_cell_volume 814.320500
_symmetry_space_group_name_H-M "P -1"
_symmetry_group_IT_number 2
_symmetry_cell_setting 'triclinic'
loop_
_space_group_symop_operation_xyz
x,y,z
-x,-y,-z
loop_
_atom_site_type_symbol
_atom_site_label
_atom_site_fract_x
_atom_site_fract_y
_atom_site_fract_z
Si Si1 0.834858 0.821744 0.396129
Si Si2 0.465199 0.947207 0.342297
Si Si3 0.097883 0.195380 0.309653
Si Si4 0.088356 0.003723 0.178660
Si Si5 0.507190 0.790910 0.730358
Si Si6 0.213547 0.764603 0.811738
Si Si7 0.647458 0.187883 0.779690
Si Si8 0.677642 0.363740 0.721138
O O1 0.879384 0.822250 0.538967
O O2 0.712014 0.768279 0.460104
O O3 0.676325 0.949981 0.569497
O O4 0.051454 0.760874 0.056748
O O5 0.373630 0.879115 0.393772
O O6 0.500000 0.000000 0.500000
O O7 0.690396 0.845995 0.987250
O O8 0.896495 0.321902 0.552099
O O9 0.071305 0.103864 0.183384
O O10 0.314505 0.927016 0.986026
O O11 0.095993 0.902987 0.007750
O O12 0.881975 0.086092 0.540616
O O13 0.419433 0.729100 0.682714
O O14 0.503689 0.775915 0.906911
O O15 0.280625 0.688977 0.533744
O O16 0.624482 0.296235 0.824174
O O17 0.500000 0.500000 0.000000
#
# Coordination Sequence:
#
# PCOD9099861 Si02
#       8
#     2   2   2   2   2   2   2   2
#     4  12  21  38  64 103 144 163 200 257 330 413
#     4  12  22  32  59 105 142 167 194 249 333 409
#     4  11  22  37  63  93 131 172 211 254 321 391
#     4   9  19  31  59  92 130 159 200 247 318 392
#     4  10  20  37  62 102 132 168 201 254 328 402
#     4  10  22  39  65  92 127 168 210 265 327 389
#     4  11  21  37  63  91 133 168 215 256 324 384
#     4  11  27  48  64  84 122 177 231 279 320 363
#
# _framework density 19.648284
#
# number of rings (size 3 to 8) (size 9 to 14) (size 15 to 20)
#    0.750    0.500    3.750    3.750    3.500    1.000 
#    0.000    3.125    0.000    1.500    0.000    0.000 
#    0.000    0.000    0.000    0.000    0.000    0.000 
#
# Total GULP energy -89106.214355 kJ/mol
# GULP energy per Si atom -5569.138397 kJ/mol
# Density = 1.960356 g / cm^3
# Si number density = 19.648284 Si / 1000 Ang^3
#
#
#
# Elastic Constant Matrix: (Units=GPa)
#
#
# Indices 1 2 3 4 5 6 
#
# 1 119.0710 42.5661 48.9019 -1.6898 -8.3043 -1.3855
# 2 42.5661 65.6343 57.4190 0.0932 -4.9156 8.6108
# 3 48.9019 57.4190 99.2009 -0.0818 -3.4271 -2.0002
# 4 -1.6898 0.0932 -0.0818 24.0225 10.5753 -14.7272
# 5 -8.3043 -4.9156 -3.4271 10.5753 13.5147 -9.7211
# 6 -1.3855 8.6108 -2.0002 -14.7272 -9.7211 28.3378
#
#
#
# Elastic Compliance Matrix: (Units=1/GPa)
#
#
# Indices 1 2 3 4 5 6 
#
# 1 0.012061 -0.006226 -0.001953 0.000662 0.008054 0.005450
# 2 -0.006226 0.040046 -0.020479 -0.014072 0.001708 -0.020646
# 3 -0.001953 -0.020479 0.023128 0.007049 -0.000110 0.011385
# 4 0.000662 -0.014072 0.007049 0.080008 -0.042701 0.031737
# 5 0.008054 0.001708 -0.000110 -0.042701 0.128631 0.021801
# 6 0.005450 -0.020646 0.011385 0.031737 0.021801 0.066605
#
#
# Mechanical properties :
#
#
# Convention : Reuss Voigt Hill
#
# Bulk Modulus (GPa) = 55.80665 64.63114 60.21889
# Shear Modulus (GPa) = 12.08411 22.17629 17.13020
#
# Velocity S-wave (km/s) = 2.48265 3.36320 2.95590
# Velocity P-wave (km/s) = 6.05661 6.93159 6.50882
#
# Compressibility (1/GPa) = 0.01791901
#
# Stress axis : x y z
#
# Youngs Moduli (GPa) = 82.91432 24.97141 43.23702
#
# Poissons Ratio (x) = 0.15547 0.08444
# Poissons Ratio (y) = 0.51623 0.88544
# Poissons Ratio (z) = 0.16193 0.51139
#
# Static dielectric constant tensor:
#      x y z
#    x 1.789150 0.024120 -0.029630 
#    y 0.024120 1.712480 -0.049800 
#    z -0.029630 -0.049800 1.685250 
# 
# From -- ./inp_files/279674.got.cif
#   From: 2010.05.17/outbox.cif.g08.bks.cpg/sg2_140_cif.got.tgz:279674.got - 2010.06.03 11:33:40.
