data_PCOD9099283
_publ_section_title
;
Structure prediction by ZEFSAII (Michael W. Deem and Ramdas Pophale) SiO2 
 PCOD9099283
Probable space group: P -1
;
_chemical_formula_sum "Si O2"
_cell_formula_units_Z 14
_cell_length_a 13.624009
_cell_length_b 11.911580
_cell_length_c 22.779259
_cell_angle_alpha 28.425684
_cell_angle_beta 19.874140
_cell_angle_gamma 35.467072
_cell_volume 596.399206
_symmetry_space_group_name_H-M "P -1"
_symmetry_group_IT_number 2
_symmetry_cell_setting 'triclinic'
loop_
_space_group_symop_operation_xyz
x,y,z
-x,-y,-z
loop_
_atom_site_type_symbol
_atom_site_label
_atom_site_fract_x
_atom_site_fract_y
_atom_site_fract_z
Si Si1 0.557631 0.539972 0.542465
Si Si2 0.222192 0.186956 0.406334
Si Si3 0.198464 0.111539 0.132329
Si Si4 0.247877 0.168422 0.951522
Si Si5 0.115596 0.742666 0.603991
Si Si6 0.139705 0.975679 0.868398
Si Si7 0.476882 0.333430 0.978749
O O1 0.298796 0.642733 0.602257
O O2 0.706160 0.346048 0.509447
O O3 0.786320 0.762360 0.318746
O O4 0.455990 0.407559 0.719557
O O5 0.257645 0.469732 0.254759
O O6 0.124280 0.024553 0.480288
O O7 0.556844 0.136796 0.247717
O O8 0.020291 0.071031 0.625022
O O9 0.085173 0.165185 0.106657
O O10 0.303492 0.328314 0.016234
O O11 0.500000 0.000000 0.000000
O O12 0.413101 0.929350 0.960302
O O13 0.059191 0.170279 0.998330
O O14 0.781956 0.641861 0.840620
O O15 0.000000 0.000000 0.000000
#
# Coordination Sequence:
#
# PCOD9099283 Si02
#       7
#     2   2   2   2   2   2   2
#     4  10  20  37  60  82 117 156 191 241 290 337
#     4  10  20  38  63  86 117 156 192 238 293 340
#     4   9  22  40  58  85 118 154 196 238 287 344
#     4  11  23  37  58  88 116 152 196 237 288 344
#     4   9  19  38  60  83 113 155 194 236 292 347
#     4  11  23  40  62  88 118 154 195 237 288 349
#     4  10  21  38  61  86 116 151 193 242 290 345
#
# _framework density 23.474208999999998
#
# number of rings (size 3 to 8) (size 9 to 14) (size 15 to 20)
#    0.000    2.000    0.000    4.286    0.000    8.000 
#    0.000   16.429    0.000    0.000    0.000    0.000 
#    0.000    0.000    0.000    0.000    0.000    0.000 
#
# Total GULP energy -78214.915842 kJ/mol
# GULP energy per Si atom -5586.779703 kJ/mol
# Density = 2.342078 g / cm^3
# Si number density = 23.474209 Si / 1000 Ang^3
#
#
#
# Elastic Constant Matrix: (Units=GPa)
#
#
# Indices 1 2 3 4 5 6 
#
# 1 57.3465 7.6794 13.5412 1.1833 -0.3686 1.3221
# 2 7.6794 68.5218 31.4877 -1.9851 5.2223 -10.1753
# 3 13.5412 31.4877 144.5664 -18.0658 7.5593 5.0976
# 4 1.1833 -1.9851 -18.0658 53.7573 0.6146 1.3916
# 5 -0.3686 5.2223 7.5593 0.6146 24.0669 0.9804
# 6 1.3221 -10.1753 5.0976 1.3916 0.9804 22.1035
#
#
#
# Elastic Compliance Matrix: (Units=1/GPa)
#
#
# Indices 1 2 3 4 5 6 
#
# 1 0.018069 -0.001705 -0.001444 -0.000920 0.001186 -0.001527
# 2 -0.001705 0.018326 -0.004123 -0.000887 -0.003079 0.009682
# 3 -0.001444 -0.004123 0.008536 0.002868 -0.001724 -0.003884
# 4 -0.000920 -0.000887 0.002868 0.019624 -0.001134 -0.002200
# 5 0.001186 -0.003079 -0.001724 -0.001134 0.042927 -0.002924
# 6 -0.001527 0.009682 -0.003884 -0.002200 -0.002924 0.050954
#
#
# Mechanical properties :
#
#
# Convention : Reuss Voigt Hill
#
# Bulk Modulus (GPa) = 32.90939 41.76126 37.33532
# Shear Modulus (GPa) = 27.30604 34.50064 30.90334
#
# Velocity S-wave (km/s) = 3.41432 3.83786 3.63227
# Velocity P-wave (km/s) = 5.43997 6.12109 5.79056
#
# Compressibility (1/GPa) = 0.03038647
#
# Stress axis : x y z
#
# Youngs Moduli (GPa) = 55.34331 54.56604 117.14934
#
# Poissons Ratio (x) = 0.09305 0.16919
# Poissons Ratio (y) = 0.09437 0.48302
# Poissons Ratio (z) = 0.07993 0.22498
#
# Static dielectric constant tensor:
#      x y z
#    x 2.126900 -0.123710 -0.076870 
#    y -0.123710 1.957500 -0.021270 
#    z -0.076870 -0.021270 1.985800 
# 
# From -- ./inp_files/390712.got.cif
#   From: 2010.05.17/outbox.cif.g08.bks.cpg/sg2_196_cif.got.tgz:390712.got - 2010.06.03 11:33:40.
