data_PCOD9099736
_publ_section_title
;
Structure prediction by ZEFSAII (Michael W. Deem and Ramdas Pophale) SiO2 
 PCOD9099736
Probable space group: P -1
;
_chemical_formula_sum "Si O2"
_cell_formula_units_Z 14
_cell_length_a 10.439019
_cell_length_b 7.942624
_cell_length_c 11.323669
_cell_angle_alpha 37.433826
_cell_angle_beta 104.409942
_cell_angle_gamma 110.791984
_cell_volume 532.626917
_symmetry_space_group_name_H-M "P -1"
_symmetry_group_IT_number 2
_symmetry_cell_setting 'triclinic'
loop_
_space_group_symop_operation_xyz
x,y,z
-x,-y,-z
loop_
_atom_site_type_symbol
_atom_site_label
_atom_site_fract_x
_atom_site_fract_y
_atom_site_fract_z
Si Si1 0.374235 0.141893 0.873512
Si Si2 0.810642 0.507041 0.024818
Si Si3 0.199387 0.240142 0.366817
Si Si4 0.011534 0.253276 0.541288
Si Si5 0.063200 0.864970 0.979014
Si Si6 0.607764 0.764402 0.932184
Si Si7 0.405126 0.110955 0.642445
O O1 0.393111 0.350773 0.870338
O O2 0.382788 0.258693 0.678927
O O3 0.500000 0.000000 0.000000
O O4 0.226576 0.933880 0.993403
O O5 0.753864 0.769808 0.912102
O O6 0.802505 0.550958 0.859236
O O7 0.709721 0.199322 0.202041
O O8 0.955601 0.559853 0.093491
O O9 0.875056 0.680455 0.575799
O O10 0.352786 0.249347 0.440907
O O11 0.121309 0.929176 0.462855
O O12 0.053291 0.028779 0.762918
O O13 0.000000 0.500000 0.500000
O O14 0.000000 0.000000 0.000000
O O15 0.550332 0.034899 0.734202
O O16 0.500000 0.500000 0.000000
#
# Coordination Sequence:
#
# PCOD9099736 Si02
#       7
#     2   2   2   2   2   2   2
#     4  10  20  37  61  90 125 164 211 259 318 383
#     4  10  22  38  62  97 127 162 217 263 314 384
#     4  10  22  42  58  91 132 163 218 260 317 391
#     4  10  23  40  58  88 133 166 205 272 321 375
#     4  11  21  36  63  96 123 162 218 260 316 387
#     4   9  19  37  61  92 125 168 213 260 319 381
#     4  10  21  39  66  87 128 178 201 266 330 370
#
# _framework density 26.284814999999998
#
# number of rings (size 3 to 8) (size 9 to 14) (size 15 to 20)
#    0.000    2.000    2.857    0.000    2.000    2.286 
#    0.000    0.000    0.000   13.714    0.000    0.000 
#    0.000    0.000    0.000    0.000    0.000    0.000 
#
# Total GULP energy -78074.210886 kJ/mol
# GULP energy per Si atom -5576.729349 kJ/mol
# Density = 2.622499 g / cm^3
# Si number density = 26.284815 Si / 1000 Ang^3
#
#
#
# Elastic Constant Matrix: (Units=GPa)
#
#
# Indices 1 2 3 4 5 6 
#
# 1 150.7906 26.4855 31.2785 28.4145 6.5090 -0.4010
# 2 26.4855 151.3795 23.8323 36.2198 0.8252 -13.2173
# 3 31.2785 23.8323 75.7794 22.6169 -8.0195 12.6400
# 4 28.4145 36.2198 22.6169 45.6333 1.7641 -1.0675
# 5 6.5090 0.8252 -8.0195 1.7641 33.3496 14.9441
# 6 -0.4010 -13.2173 12.6400 -1.0675 14.9441 45.8144
#
#
#
# Elastic Compliance Matrix: (Units=1/GPa)
#
#
# Indices 1 2 3 4 5 6 
#
# 1 0.007996 0.000042 -0.002876 -0.003436 -0.002844 0.001723
# 2 0.000042 0.008575 -0.001750 -0.005812 -0.001872 0.003432
# 3 -0.002876 -0.001750 0.019688 -0.007180 0.009914 -0.009363
# 4 -0.003436 -0.005812 -0.007180 0.032417 -0.003617 0.002209
# 5 -0.002844 -0.001872 0.009914 -0.003617 0.040615 -0.016633
# 6 0.001723 0.003432 -0.009363 0.002209 -0.016633 0.030892
#
#
# Mechanical properties :
#
#
# Convention : Reuss Voigt Hill
#
# Bulk Modulus (GPa) = 36.91459 60.12691 48.52075
# Shear Modulus (GPa) = 31.56952 44.71634 38.14293
#
# Velocity S-wave (km/s) = 3.46938 4.12906 3.81351
# Velocity P-wave (km/s) = 5.48848 6.75700 6.15550
#
# Compressibility (1/GPa) = 0.02708956
#
# Stress axis : x y z
#
# Youngs Moduli (GPa) = 125.06514 116.62485 50.79322
#
# Poissons Ratio (x) = -0.00490 0.14610
# Poissons Ratio (y) = -0.00525 0.08888
# Poissons Ratio (z) = 0.35973 0.20408
#
# Static dielectric constant tensor:
#      x y z
#    x 2.348240 -0.018840 0.056890 
#    y -0.018840 2.102680 -0.104440 
#    z 0.056890 -0.104440 2.023230 
# 
# From -- ./inp_files/416345.got.cif
#   From: 2010.05.17/outbox.cif.g08.bks.cpg/sg2_209_cif.got.tgz:416345.got - 2010.06.03 11:33:40.
