data_PCOD9099304
_publ_section_title
;
Structure prediction by ZEFSAII (Michael W. Deem and Ramdas Pophale) SiO2 
 PCOD9099304
Probable space group: P -1
;
_chemical_formula_sum "Si O2"
_cell_formula_units_Z 14
_cell_length_a 11.707677
_cell_length_b 8.595012
_cell_length_c 10.472982
_cell_angle_alpha 42.099099
_cell_angle_beta 113.324260
_cell_angle_gamma 126.499212
_cell_volume 565.936031
_symmetry_space_group_name_H-M "P -1"
_symmetry_group_IT_number 2
_symmetry_cell_setting 'triclinic'
loop_
_space_group_symop_operation_xyz
x,y,z
-x,-y,-z
loop_
_atom_site_type_symbol
_atom_site_label
_atom_site_fract_x
_atom_site_fract_y
_atom_site_fract_z
Si Si1 0.578224 0.334520 0.236494
Si Si2 0.838017 0.944447 0.966109
Si Si3 0.979069 0.235071 0.218209
Si Si4 0.279140 0.915913 0.926588
Si Si5 0.444245 0.657165 0.070555
Si Si6 0.783724 0.277198 0.527272
Si Si7 0.972363 0.737228 0.488430
O O1 0.461512 0.398958 0.209924
O O2 0.638855 0.192370 0.442259
O O3 0.720575 0.631595 0.105061
O O4 0.537184 0.229265 0.136922
O O5 0.815928 0.087440 0.993714
O O6 0.797576 0.076603 0.751650
O O7 0.000000 0.000000 0.000000
O O8 0.045933 0.287393 0.354526
O O9 0.027267 0.042372 0.289991
O O10 0.805199 0.059025 0.247697
O O11 0.000000 0.500000 0.000000
O O12 0.309134 0.671496 0.059065
O O13 0.429990 0.161574 0.885462
O O14 0.831046 0.544576 0.466657
O O15 0.909631 0.346122 0.440560
#
# Coordination Sequence:
#
# PCOD9099304 Si02
#       7
#     2   2   2   2   2   2   2
#     4  10  21  40  63  85 118 161 203 249 299 352
#     4  11  22  37  61  92 123 156 195 247 310 366
#     4  11  22  38  60  89 121 154 195 249 309 365
#     4  10  20  37  60  84 116 158 201 248 298 350
#     4   9  20  39  61  83 113 162 211 246 289 351
#     4  11  21  37  59  88 123 158 196 244 300 365
#     4  10  22  35  55  88 123 158 192 235 305 375
#
# _framework density 24.737779
#
# number of rings (size 3 to 8) (size 9 to 14) (size 15 to 20)
#    0.000    1.714    0.000    6.000    0.000    3.429 
#    0.000    7.857    0.000    6.857    0.000    0.000 
#    0.000    0.000    0.000    0.000    0.000    0.000 
#
# Total GULP energy -78222.246955 kJ/mol
# GULP energy per Si atom -5587.303354 kJ/mol
# Density = 2.468147 g / cm^3
# Si number density = 24.737779 Si / 1000 Ang^3
#
#
#
# Elastic Constant Matrix: (Units=GPa)
#
#
# Indices 1 2 3 4 5 6 
#
# 1 110.1987 11.3295 8.5282 -2.7949 25.3069 -10.3479
# 2 11.3295 111.6519 25.7248 0.6884 1.8593 6.9330
# 3 8.5282 25.7248 114.4319 6.8988 23.6793 -10.9848
# 4 -2.7949 0.6884 6.8988 45.5228 3.1733 7.1731
# 5 25.3069 1.8593 23.6793 3.1733 29.7033 3.9716
# 6 -10.3479 6.9330 -10.9848 7.1731 3.9716 30.1493
#
#
#
# Elastic Compliance Matrix: (Units=1/GPa)
#
#
# Indices 1 2 3 4 5 6 
#
# 1 0.013302 -0.002417 0.003469 0.000061 -0.015071 0.008356
# 2 -0.002417 0.010313 -0.003748 0.000765 0.005044 -0.005413
# 3 0.003469 -0.003748 0.013321 -0.002218 -0.014350 0.009324
# 4 0.000061 0.000765 -0.002218 0.023319 0.000048 -0.006517
# 5 -0.015071 0.005044 -0.014350 0.000048 0.060234 -0.019507
# 6 0.008356 -0.005413 0.009324 -0.006517 -0.019507 0.044798
#
#
# Mechanical properties :
#
#
# Convention : Reuss Voigt Hill
#
# Bulk Modulus (GPa) = 31.70178 47.49416 39.59797
# Shear Modulus (GPa) = 27.59492 40.45507 34.02499
#
# Velocity S-wave (km/s) = 3.34353 4.04834 3.71270
# Velocity P-wave (km/s) = 5.26769 6.41037 5.86691
#
# Compressibility (1/GPa) = 0.03154397
#
# Stress axis : x y z
#
# Youngs Moduli (GPa) = 75.17769 96.96927 75.06957
#
# Poissons Ratio (x) = 0.23441 -0.26043
# Poissons Ratio (y) = 0.18173 0.28132
# Poissons Ratio (z) = -0.26080 0.36339
#
# Static dielectric constant tensor:
#      x y z
#    x 1.965150 0.044930 -0.039850 
#    y 0.044930 2.035350 -0.060580 
#    z -0.039850 -0.060580 2.003790 
# 
# From -- ./inp_files/416211.got.cif
#   From: 2010.05.17/outbox.cif.g08.bks.cpg/sg2_209_cif.got.tgz:416211.got - 2010.06.03 11:33:40.
