data_PCOD9099503
_publ_section_title
;
Structure prediction by ZEFSAII (Michael W. Deem and Ramdas Pophale) SiO2 
 PCOD9099503
Probable space group: P -1
;
_chemical_formula_sum "Si O2"
_cell_formula_units_Z 16
_cell_length_a 15.433147
_cell_length_b 7.957022
_cell_length_c 10.005485
_cell_angle_alpha 83.178398
_cell_angle_beta 61.358824
_cell_angle_gamma 51.713559
_cell_volume 817.608197
_symmetry_space_group_name_H-M "P -1"
_symmetry_group_IT_number 2
_symmetry_cell_setting 'triclinic'
loop_
_space_group_symop_operation_xyz
x,y,z
-x,-y,-z
loop_
_atom_site_type_symbol
_atom_site_label
_atom_site_fract_x
_atom_site_fract_y
_atom_site_fract_z
Si Si1 0.309952 0.037195 0.981082
Si Si2 0.035432 0.111534 0.752395
Si Si3 0.135811 0.483376 0.568882
Si Si4 0.212245 0.422427 0.224342
Si Si5 0.432720 0.435711 0.148302
Si Si6 0.880482 0.723082 0.140218
Si Si7 0.894559 0.967942 0.739934
Si Si8 0.229662 0.751112 0.455753
O O1 0.239357 0.148379 0.882928
O O2 0.458827 0.824184 0.875186
O O3 0.278829 0.222769 0.089416
O O4 0.234947 0.960526 0.107896
O O5 0.071279 0.143365 0.866995
O O6 0.926147 0.358087 0.748865
O O7 0.171352 0.942797 0.588804
O O8 0.969458 0.003023 0.786314
O O9 0.183922 0.375990 0.396725
O O10 0.150763 0.336931 0.692005
O O11 0.208814 0.580722 0.532716
O O12 0.986475 0.709607 0.656907
O O13 0.312263 0.467749 0.168261
O O14 0.373511 0.597102 0.306005
O O15 0.500000 0.500000 0.000000
O O16 0.000000 0.500000 0.000000
O O17 0.861805 0.109252 0.618126
#
# Coordination Sequence:
#
# PCOD9099503 Si02
#       8
#     2   2   2   2   2   2   2   2
#     4  12  25  40  58  93 132 161 198 242 312 369
#     4  11  20  37  63  92 118 155 206 251 312 344
#     4  10  20  37  60  92 120 155 200 253 307 350
#     4  11  21  38  66  92 119 157 208 255 302 347
#     4  11  22  40  64  91 123 157 206 257 294 353
#     4  12  25  39  56  92 134 160 190 248 315 375
#     4  11  18  36  63  90 123 147 202 263 297 344
#     4  10  20  38  62  94 115 153 208 258 297 344
#
# _framework density 19.569275000000001
#
# number of rings (size 3 to 8) (size 9 to 14) (size 15 to 20)
#    0.000    1.000    7.500    1.125    1.750    1.500 
#    0.000    3.125    0.000    0.000    0.000    0.000 
#    0.000    0.000    0.000    0.000    0.000    0.000 
#
# Total GULP energy -89275.103000 kJ/mol
# GULP energy per Si atom -5579.693937 kJ/mol
# Density = 1.952473 g / cm^3
# Si number density = 19.569275 Si / 1000 Ang^3
#
#
#
# Elastic Constant Matrix: (Units=GPa)
#
#
# Indices 1 2 3 4 5 6 
#
# 1 67.8567 24.2641 39.3755 7.5727 19.4489 8.2436
# 2 24.2641 78.5077 33.2289 26.6059 15.2749 -9.0237
# 3 39.3755 33.2289 90.1340 25.2764 8.0124 -4.7615
# 4 7.5727 26.6059 25.2764 49.1889 4.4571 -5.7850
# 5 19.4489 15.2749 8.0124 4.4571 36.8485 2.6957
# 6 8.2436 -9.0237 -4.7615 -5.7850 2.6957 26.3778
#
#
#
# Elastic Compliance Matrix: (Units=1/GPa)
#
#
# Indices 1 2 3 4 5 6 
#
# 1 0.025597 -0.003911 -0.010311 0.003197 -0.009336 -0.009544
# 2 -0.003911 0.019160 -0.002551 -0.007275 -0.004899 0.006221
# 3 -0.010311 -0.002551 0.018222 -0.006201 0.002997 0.003973
# 4 0.003197 -0.007275 -0.006201 0.027192 -0.000717 0.001430
# 5 -0.009336 -0.004899 0.002997 -0.000717 0.033664 -0.001815
# 6 -0.009544 0.006221 0.003973 0.001430 -0.001815 0.044238
#
#
# Mechanical properties :
#
#
# Convention : Reuss Voigt Hill
#
# Bulk Modulus (GPa) = 33.97551 47.80395 40.88973
# Shear Modulus (GPa) = 23.64863 31.79169 27.72016
#
# Velocity S-wave (km/s) = 3.48006 4.03497 3.76774
# Velocity P-wave (km/s) = 5.79199 6.79625 6.31412
#
# Compressibility (1/GPa) = 0.02943296
#
# Stress axis : x y z
#
# Youngs Moduli (GPa) = 39.06689 52.19337 54.87932
#
# Poissons Ratio (x) = 0.20412 0.56587
# Poissons Ratio (y) = 0.15279 0.13998
# Poissons Ratio (z) = 0.40283 0.13313
#
# Static dielectric constant tensor:
#      x y z
#    x 1.702850 0.032010 -0.013510 
#    y 0.032010 1.712630 0.004770 
#    z -0.013510 0.004770 1.705770 
# 
# From -- ./inp_files/179070.got.cif
#   From: 2010.05.17/outbox.cif.g08.bks.cpg/sg2_90_cif.got.tgz:179070.got - 2010.06.03 11:33:40.
