data_PCOD9099783
_publ_section_title
;
Structure prediction by ZEFSAII (Michael W. Deem and Ramdas Pophale) SiO2 
 PCOD9099783
Probable space group: P -1
;
_chemical_formula_sum "Si O2"
_cell_formula_units_Z 14
_cell_length_a 7.922650
_cell_length_b 8.933618
_cell_length_c 10.140055
_cell_angle_alpha 76.545651
_cell_angle_beta 110.848051
_cell_angle_gamma 127.945430
_cell_volume 528.821100
_symmetry_space_group_name_H-M "P -1"
_symmetry_group_IT_number 2
_symmetry_cell_setting 'triclinic'
loop_
_space_group_symop_operation_xyz
x,y,z
-x,-y,-z
loop_
_atom_site_type_symbol
_atom_site_label
_atom_site_fract_x
_atom_site_fract_y
_atom_site_fract_z
Si Si1 0.708738 0.634539 0.317938
Si Si2 0.779049 0.806944 0.923092
Si Si3 0.131089 0.076264 0.366978
Si Si4 0.253517 0.661729 0.513213
Si Si5 0.287460 0.543005 0.921479
Si Si6 0.491453 0.186637 0.677556
Si Si7 0.804049 0.196416 0.265386
O O1 0.657724 0.468854 0.436172
O O2 0.727746 0.556790 0.201339
O O3 0.509880 0.655815 0.276726
O O4 0.935024 0.848736 0.353619
O O5 0.755539 0.855352 0.757798
O O6 0.551093 0.719377 0.960259
O O7 0.798040 0.630158 0.967984
O O8 0.000000 0.000000 0.000000
O O9 0.306762 0.121094 0.520556
O O10 0.011403 0.182536 0.334621
O O11 0.299032 0.754200 0.363910
O O12 0.293693 0.788729 0.624410
O O13 0.000000 0.500000 0.500000
O O14 0.158238 0.637788 0.848924
O O15 0.400030 0.015361 0.787861
#
# Coordination Sequence:
#
# PCOD9099783 Si02
#       7
#     2   2   2   2   2   2   2
#     4  10  20  37  61  92 126 163 211 256 316 389
#     4  11  23  44  71  89 125 172 222 261 315 379
#     4  11  21  39  67  92 128 173 207 261 323 378
#     4  11  21  33  53  85 129 168 207 251 307 376
#     4  10  23  43  68  96 124 168 217 267 314 373
#     4  11  22  38  62  94 135 168 206 254 325 390
#     4  10  22  39  60  96 129 157 208 266 320 380
#
# _framework density 26.473981999999999
#
# number of rings (size 3 to 8) (size 9 to 14) (size 15 to 20)
#    0.000    1.429    1.429    6.000    0.000    2.857 
#    0.000    0.714    0.000    0.000    0.000    0.000 
#    0.000    0.000    0.000    0.000    0.000    0.000 
#
# Total GULP energy -78245.744456 kJ/mol
# GULP energy per Si atom -5588.981747 kJ/mol
# Density = 2.641373 g / cm^3
# Si number density = 26.473982 Si / 1000 Ang^3
#
#
#
# Elastic Constant Matrix: (Units=GPa)
#
#
# Indices 1 2 3 4 5 6 
#
# 1 94.7135 48.4073 5.5859 2.7618 4.4772 -10.9602
# 2 48.4073 163.4620 37.5401 -8.3132 18.4307 -3.8984
# 3 5.5859 37.5401 69.8267 -10.1579 -0.1324 5.1023
# 4 2.7618 -8.3132 -10.1579 40.4768 -4.3522 4.5439
# 5 4.4772 18.4307 -0.1324 -4.3522 30.7872 -10.6041
# 6 -10.9602 -3.8984 5.1023 4.5439 -10.6041 51.7753
#
#
#
# Elastic Compliance Matrix: (Units=1/GPa)
#
#
# Indices 1 2 3 4 5 6 
#
# 1 0.012961 -0.004185 0.000763 -0.001721 0.001338 0.002778
# 2 -0.004185 0.008918 -0.004320 0.000596 -0.004960 -0.000857
# 3 0.000763 -0.004320 0.017272 0.003855 0.002512 -0.001690
# 4 -0.001721 0.000596 0.003855 0.026490 0.002811 -0.002448
# 5 0.001338 -0.004960 0.002512 0.002811 0.038154 0.007230
# 6 0.002778 -0.000857 -0.001690 -0.002448 0.007230 0.021700
#
#
# Mechanical properties :
#
#
# Convention : Reuss Voigt Hill
#
# Bulk Modulus (GPa) = 42.25614 56.78542 49.52078
# Shear Modulus (GPa) = 33.58671 40.37244 36.97958
#
# Velocity S-wave (km/s) = 3.56570 3.90934 3.74147
# Velocity P-wave (km/s) = 5.74006 6.47096 6.11644
#
# Compressibility (1/GPa) = 0.02366520
#
# Stress axis : x y z
#
# Youngs Moduli (GPa) = 77.15608 112.12948 57.89834
#
# Poissons Ratio (x) = 0.46930 -0.04415
# Poissons Ratio (y) = 0.32293 0.25011
# Poissons Ratio (z) = -0.05883 0.48439
#
# Static dielectric constant tensor:
#      x y z
#    x 2.003620 0.144500 0.087500 
#    y 0.144500 2.149530 0.052130 
#    z 0.087500 0.052130 2.176410 
# 
# From -- ./inp_files/326695.got.cif
#   From: 2010.05.17/outbox.cif.g08.bks.cpg/sg2_164_cif.got.tgz:326695.got - 2010.06.03 11:33:40.
