data_PCOD9099466
_publ_section_title
;
Structure prediction by ZEFSAII (Michael W. Deem and Ramdas Pophale) SiO2 
 PCOD9099466
Probable space group: P -1
;
_chemical_formula_sum "Si O2"
_cell_formula_units_Z 15
_cell_length_a 14.062141
_cell_length_b 16.028641
_cell_length_c 14.058282
_cell_angle_alpha 42.984221
_cell_angle_beta 20.108525
_cell_angle_gamma 40.245422
_cell_volume 702.257121
_symmetry_space_group_name_H-M "P -1"
_symmetry_group_IT_number 2
_symmetry_cell_setting 'triclinic'
loop_
_space_group_symop_operation_xyz
x,y,z
-x,-y,-z
loop_
_atom_site_type_symbol
_atom_site_label
_atom_site_fract_x
_atom_site_fract_y
_atom_site_fract_z
Si Si1 0.311826 0.401190 0.621077
Si Si2 0.207805 0.135039 0.370664
Si Si3 0.363398 0.734927 0.088953
Si Si4 0.777328 0.137534 0.476887
Si Si5 0.281576 0.550791 0.950295
Si Si6 0.173912 0.594836 0.221760
Si Si7 0.000000 0.500000 0.000000
Si Si8 0.308842 0.201530 0.005350
O O1 0.549837 0.265875 0.537369
O O2 0.429723 0.436495 0.381146
O O3 0.244322 0.505401 0.681466
O O4 0.975962 0.403870 0.922989
O O5 0.272404 0.171515 0.173319
O O6 0.884025 0.219830 0.636335
O O7 0.218616 0.987116 0.482269
O O8 0.458339 0.164951 0.173603
O O9 0.616125 0.600647 0.992214
O O10 0.183606 0.707723 0.189979
O O11 0.091624 0.151847 0.185581
O O12 0.635363 0.133142 0.717512
O O13 0.145162 0.628805 0.108861
O O14 0.000000 0.500000 0.500000
O O15 0.500000 0.500000 0.000000
O O16 0.791429 0.645267 0.045782
#
# Coordination Sequence:
#
# PCOD9099466 Si02
#       8
#     2   2   2   2   2   2   1   2
#     4  11  23  37  59  85 120 159 195 241 292 351
#     4  12  23  38  60  84 118 157 204 242 285 354
#     4  11  22  36  61  91 116 146 188 252 304 346
#     4  11  24  40  56  81 118 165 203 237 284 345
#     4  11  21  38  61  89 118 151 193 237 308 367
#     4  10  20  37  60  90 124 149 184 244 310 368
#     4  10  22  36  56  88 120 146 190 246 294 338
#     4  11  22  38  59  83 118 157 198 246 296 346
#
# _framework density 21.359698999999999
#
# number of rings (size 3 to 8) (size 9 to 14) (size 15 to 20)
#    0.000    1.067    0.000    9.600    0.000    5.867 
#    0.000    0.000    0.000    4.800    0.000    0.000 
#    0.000    0.000    0.000    0.000    0.000    0.000 
#
# Total GULP energy -83504.314229 kJ/mol
# GULP energy per Si atom -5566.954282 kJ/mol
# Density = 2.131108 g / cm^3
# Si number density = 21.359699 Si / 1000 Ang^3
#
#
#
# Elastic Constant Matrix: (Units=GPa)
#
#
# Indices 1 2 3 4 5 6 
#
# 1 32.5423 10.1453 18.6206 3.2420 -4.2221 15.8906
# 2 10.1453 47.7617 1.9087 -3.2563 6.9938 11.1138
# 3 18.6206 1.9087 103.2215 -3.6453 -2.9811 13.3068
# 4 3.2420 -3.2563 -3.6453 18.9188 6.4547 -3.7006
# 5 -4.2221 6.9938 -2.9811 6.4547 36.8992 1.8874
# 6 15.8906 11.1138 13.3068 -3.7006 1.8874 23.9485
#
#
#
# Elastic Compliance Matrix: (Units=1/GPa)
#
#
# Indices 1 2 3 4 5 6 
#
# 1 0.058919 -0.007321 -0.006171 -0.024528 0.013821 -0.037147
# 2 -0.007321 0.025285 0.001720 0.006888 -0.006375 -0.006265
# 3 -0.006171 0.001720 0.011172 0.003240 -0.000575 -0.002365
# 4 -0.024528 0.006888 0.003240 0.069292 -0.017165 0.023338
# 5 0.013821 -0.006375 -0.000575 -0.017165 0.033419 -0.011179
# 6 -0.037147 -0.006265 -0.002365 0.023338 -0.011179 0.075113
#
#
# Mechanical properties :
#
#
# Convention : Reuss Voigt Hill
#
# Bulk Modulus (GPa) = 13.92162 27.20831 20.56497
# Shear Modulus (GPa) = 15.59147 26.14335 20.86741
#
# Velocity S-wave (km/s) = 2.70469 3.50231 3.12901
# Velocity P-wave (km/s) = 4.03555 5.39636 4.76478
#
# Compressibility (1/GPa) = 0.07183070
#
# Stress axis : x y z
#
# Youngs Moduli (GPa) = 16.97245 39.54975 89.50893
#
# Poissons Ratio (x) = 0.28954 0.55240
# Poissons Ratio (y) = 0.12425 -0.15394
# Poissons Ratio (z) = 0.10475 -0.06802
#
# Static dielectric constant tensor:
#      x y z
#    x 2.051560 0.177090 -0.032240 
#    y 0.177090 1.768470 0.002020 
#    z -0.032240 0.002020 1.733780 
# 
# From -- ./inp_files/439265.got.cif
#   From: 2010.05.17/outbox.cif.g08.bks.cpg/sg2_220_cif.got.tgz:439265.got - 2010.06.03 11:33:40.
