data_PCOD9099303
_publ_section_title
;
Structure prediction by ZEFSAII (Michael W. Deem and Ramdas Pophale) SiO2 
 PCOD9099303
Probable space group: P -1
;
_chemical_formula_sum "Si O2"
_cell_formula_units_Z 16
_cell_length_a 8.214678
_cell_length_b 8.168370
_cell_length_c 16.440903
_cell_angle_alpha 130.955398
_cell_angle_beta 79.035209
_cell_angle_gamma 121.620256
_cell_volume 688.972796
_symmetry_space_group_name_H-M "P -1"
_symmetry_group_IT_number 2
_symmetry_cell_setting 'triclinic'
loop_
_space_group_symop_operation_xyz
x,y,z
-x,-y,-z
loop_
_atom_site_type_symbol
_atom_site_label
_atom_site_fract_x
_atom_site_fract_y
_atom_site_fract_z
Si Si1 0.185743 0.305296 0.457596
Si Si2 0.213433 0.682570 0.783235
Si Si3 0.912007 0.556430 0.907207
Si Si4 0.118133 0.406965 0.326991
Si Si5 0.414856 0.736342 0.287091
Si Si6 0.496411 0.198120 0.325878
Si Si7 0.187960 0.181809 0.677258
Si Si8 0.968413 0.125546 0.842076
O O1 0.152367 0.444689 0.431324
O O2 0.292835 0.172480 0.362119
O O3 0.338464 0.506770 0.572221
O O4 0.970301 0.087477 0.436924
O O5 0.441217 0.843153 0.783519
O O6 0.162170 0.398161 0.712691
O O7 0.110705 0.715230 0.883905
O O8 0.095672 0.693452 0.720901
O O9 0.724765 0.460686 0.835135
O O10 0.892639 0.300186 0.865972
O O11 0.930214 0.731668 0.037359
O O12 0.260502 0.668619 0.351228
O O13 0.159072 0.181239 0.226437
O O14 0.586349 0.722152 0.308414
O O15 0.509458 0.011191 0.326546
O O16 0.119249 0.144625 0.765965
#
# Coordination Sequence:
#
# PCOD9099303 Si02
#       8
#     2   2   2   2   2   2   2   2
#     4  10  22  39  60  82 111 149 188 236 287 332
#     4  10  21  36  57  82 114 148 187 231 279 331
#     4   9  20  38  61  87 115 148 184 233 284 333
#     4  10  20  37  60  84 114 149 186 233 279 334
#     4  11  22  35  57  85 117 152 188 229 277 335
#     4  11  22  38  59  84 112 147 190 235 284 337
#     4  10  21  38  57  83 116 150 189 233 279 333
#     4   9  18  38  63  84 115 149 186 232 283 331
#
# _framework density 23.222978999999999
#
# number of rings (size 3 to 8) (size 9 to 14) (size 15 to 20)
#    0.000    2.000    0.000    5.250    0.000    5.500 
#    0.000    2.500    0.000    9.750    0.000    0.000 
#    0.000    0.000    0.000    0.000    0.000    0.000 
#
# Total GULP energy -89225.126398 kJ/mol
# GULP energy per Si atom -5576.570400 kJ/mol
# Density = 2.317012 g / cm^3
# Si number density = 23.222979 Si / 1000 Ang^3
#
#
#
# Elastic Constant Matrix: (Units=GPa)
#
#
# Indices 1 2 3 4 5 6 
#
# 1 89.5431 0.0606 15.0895 -4.2037 6.8576 2.5991
# 2 0.0606 80.8275 -6.0041 -7.4178 -9.2231 4.2752
# 3 15.0895 -6.0041 52.4110 -4.0764 -0.5881 10.3034
# 4 -4.2037 -7.4178 -4.0764 24.7469 -2.8071 3.5676
# 5 6.8576 -9.2231 -0.5881 -2.8071 21.0195 -7.9425
# 6 2.5991 4.2752 10.3034 3.5676 -7.9425 37.5129
#
#
#
# Elastic Compliance Matrix: (Units=1/GPa)
#
#
# Indices 1 2 3 4 5 6 
#
# 1 0.012156 -0.000648 -0.003377 0.000926 -0.004559 -0.000894
# 2 -0.000648 0.013880 0.002538 0.005411 0.006584 -0.001355
# 3 -0.003377 0.002538 0.021974 0.004841 0.001088 -0.006321
# 4 0.000926 0.005411 0.004841 0.044405 0.006285 -0.004903
# 5 -0.004559 0.006584 0.001088 0.006285 0.056868 0.010709
# 6 -0.000894 -0.001355 -0.006321 -0.004903 0.010709 0.031344
#
#
# Mechanical properties :
#
#
# Convention : Reuss Voigt Hill
#
# Bulk Modulus (GPa) = 22.20466 26.78595 24.49531
# Shear Modulus (GPa) = 25.17440 30.89824 28.03632
#
# Velocity S-wave (km/s) = 3.29603 3.65156 3.47834
# Velocity P-wave (km/s) = 4.90585 5.41644 5.16746
#
# Compressibility (1/GPa) = 0.04503559
#
# Stress axis : x y z
#
# Youngs Moduli (GPa) = 82.26421 72.04366 45.50751
#
# Poissons Ratio (x) = 0.04668 0.15370
# Poissons Ratio (y) = 0.05330 -0.11548
# Poissons Ratio (z) = 0.27784 -0.18282
#
# Static dielectric constant tensor:
#      x y z
#    x 1.944530 0.027980 -0.000060 
#    y 0.027980 1.864830 -0.006310 
#    z -0.000060 -0.006310 1.893240 
# 
# From -- ./inp_files/556546.got.cif
#   From: 2010.05.17/outbox.cif.g08.bks.cpg/sg2_279_cif.got.tgz:556546.got - 2010.06.03 11:33:40.
