data_PCOD9099795
_publ_section_title
;
Structure prediction by ZEFSAII (Michael W. Deem and Ramdas Pophale) SiO2 
 PCOD9099795
Probable space group: P -1
;
_chemical_formula_sum "Si O2"
_cell_formula_units_Z 14
_cell_length_a 14.619844
_cell_length_b 14.777964
_cell_length_c 14.613903
_cell_angle_alpha 160.300549
_cell_angle_beta 39.791695
_cell_angle_gamma 142.416600
_cell_volume 645.307601
_symmetry_space_group_name_H-M "P -1"
_symmetry_group_IT_number 2
_symmetry_cell_setting 'triclinic'
loop_
_space_group_symop_operation_xyz
x,y,z
-x,-y,-z
loop_
_atom_site_type_symbol
_atom_site_label
_atom_site_fract_x
_atom_site_fract_y
_atom_site_fract_z
Si Si1 0.509896 0.796453 0.656741
Si Si2 0.304351 0.828358 0.384317
Si Si3 0.488179 0.642726 0.913822
Si Si4 0.154071 0.564615 0.995218
Si Si5 0.733047 0.647838 0.467331
Si Si6 0.920554 0.030245 0.432617
Si Si7 0.582426 0.386357 0.748419
O O1 0.625294 0.822584 0.678575
O O2 0.354433 0.573393 0.600079
O O3 0.487051 0.081840 0.906434
O O4 0.552546 0.629750 0.379637
O O5 0.359711 0.655655 0.097949
O O6 0.154560 0.890959 0.525435
O O7 0.289732 0.688841 0.363576
O O8 0.453051 0.106330 0.544887
O O9 0.618486 0.607001 0.846971
O O10 0.257487 0.531250 0.801186
O O11 0.120074 0.303179 0.842188
O O12 0.170075 0.856298 0.311314
O O13 0.000000 0.500000 0.000000
O O14 0.900869 0.825308 0.543701
O O15 0.500000 0.500000 0.000000
#
# Coordination Sequence:
#
# PCOD9099795 Si02
#       7
#     2   2   2   2   2   2   2
#     4  11  24  36  60  77 122 159 198 224 271 326
#     4  10  20  37  61  93 111 146 178 244 297 341
#     4  11  21  39  58  88 112 153 188 238 278 340
#     4  10  21  37  55  82 118 154 183 237 279 330
#     4  10  23  40  53  87 115 161 196 232 265 336
#     4  11  23  36  60  84 120 146 189 234 292 332
#     4   9  20  36  62  89 116 135 186 238 299 342
#
# _framework density 21.695080000000001
#
# number of rings (size 3 to 8) (size 9 to 14) (size 15 to 20)
#    0.000    1.714    1.429    3.429    4.000    8.000 
#    0.000    0.000    0.000    1.714    0.000    0.000 
#    0.000    0.000    0.000    0.000    0.000    0.000 
#
# Total GULP energy -78043.616663 kJ/mol
# GULP energy per Si atom -5574.544047 kJ/mol
# Density = 2.164570 g / cm^3
# Si number density = 21.695080 Si / 1000 Ang^3
#
#
#
# Elastic Constant Matrix: (Units=GPa)
#
#
# Indices 1 2 3 4 5 6 
#
# 1 183.4073 64.8460 36.4655 25.2647 -25.0974 -21.2481
# 2 64.8460 78.6463 24.6203 18.6764 -9.9741 -4.7734
# 3 36.4655 24.6203 90.1337 32.1578 1.8804 -0.6891
# 4 25.2647 18.6764 32.1578 28.2304 -6.6880 -9.8102
# 5 -25.0974 -9.9741 1.8804 -6.6880 42.1412 15.8616
# 6 -21.2481 -4.7734 -0.6891 -9.8102 15.8616 29.1503
#
#
#
# Elastic Compliance Matrix: (Units=1/GPa)
#
#
# Indices 1 2 3 4 5 6 
#
# 1 0.008786 -0.006185 -0.002137 0.000715 0.002360 0.004298
# 2 -0.006185 0.019812 0.000421 -0.009533 0.001450 -0.005252
# 3 -0.002137 0.000421 0.021106 -0.025941 -0.003236 -0.007959
# 4 0.000715 -0.009533 -0.025941 0.079514 0.003139 0.023398
# 5 0.002360 0.001450 -0.003236 0.003139 0.031458 -0.014180
# 6 0.004298 -0.005252 -0.007959 0.023398 -0.014180 0.051980
#
#
# Mechanical properties :
#
#
# Convention : Reuss Voigt Hill
#
# Bulk Modulus (GPa) = 29.49581 67.11674 48.30628
# Shear Modulus (GPa) = 20.85428 34.98810 27.92119
#
# Velocity S-wave (km/s) = 3.10376 4.02023 3.59135
# Velocity P-wave (km/s) = 5.14486 7.24936 6.28581
#
# Compressibility (1/GPa) = 0.03390311
#
# Stress axis : x y z
#
# Youngs Moduli (GPa) = 113.81179 50.47354 47.38033
#
# Poissons Ratio (x) = 0.31220 0.10124
# Poissons Ratio (y) = 0.70398 -0.01997
# Poissons Ratio (z) = 0.24319 -0.02127
#
# Static dielectric constant tensor:
#      x y z
#    x 1.924770 -0.042690 0.001230 
#    y -0.042690 1.803350 -0.015430 
#    z 0.001230 -0.015430 1.975580 
# 
# From -- ./inp_files/534663.got.cif
#   From: 2010.05.17/outbox.cif.g08.bks.cpg/sg2_268_cif.got.tgz:534663.got - 2010.06.03 11:33:40.
