data_PCOD9099485
_publ_section_title
;
Structure prediction by ZEFSAII (Michael W. Deem and Ramdas Pophale) SiO2 
 PCOD9099485
Probable space group: P -1
;
_chemical_formula_sum "Si O2"
_cell_formula_units_Z 12
_cell_length_a 9.210886
_cell_length_b 9.689988
_cell_length_c 10.679270
_cell_angle_alpha 55.423757
_cell_angle_beta 133.454335
_cell_angle_gamma 95.149387
_cell_volume 492.437456
_symmetry_space_group_name_H-M "P -1"
_symmetry_group_IT_number 2
_symmetry_cell_setting 'triclinic'
loop_
_space_group_symop_operation_xyz
x,y,z
-x,-y,-z
loop_
_atom_site_type_symbol
_atom_site_label
_atom_site_fract_x
_atom_site_fract_y
_atom_site_fract_z
Si Si1 0.390263 0.370378 0.465823
Si Si2 0.687088 0.910233 0.264881
Si Si3 0.267998 0.011848 0.259480
Si Si4 0.985067 0.645653 0.216563
Si Si5 0.638057 0.137282 0.362487
Si Si6 0.810769 0.409630 0.366935
O O1 0.500000 0.500000 0.500000
O O2 0.399271 0.217394 0.648803
O O3 0.113977 0.523698 0.230355
O O4 0.553672 0.216265 0.539106
O O5 0.303684 0.947909 0.698823
O O6 0.941357 0.770939 0.434532
O O7 0.500000 0.000000 0.000000
O O8 0.413693 0.124395 0.277722
O O9 0.179397 0.011541 0.347152
O O10 0.093413 0.134032 0.980748
O O11 0.800048 0.589923 0.192161
O O12 0.162583 0.574738 0.476397
O O13 0.631091 0.339771 0.265344
#
# Coordination Sequence:
#
# PCOD9099485 Si02
#       6
#     2   2   2   2   2   2
#     4  10  21  38  61  90 119 153 200 245 289 354
#     4  10  21  39  61  87 120 158 201 249 301 354
#     4  10  22  41  60  87 124 158 196 245 299 351
#     4  10  22  39  63  91 122 160 198 241 294 357
#     4  10  21  38  60  87 122 157 198 251 296 350
#     4  10  20  37  60  91 123 155 202 246 290 354
#
# _framework density 24.368576999999998
#
# number of rings (size 3 to 8) (size 9 to 14) (size 15 to 20)
#    0.000    2.000    0.000    3.500    0.000    4.667 
#    0.000   18.333    0.000    4.000    0.000    0.000 
#    0.000    0.000    0.000    0.000    0.000    0.000 
#
# Total GULP energy -66872.340955 kJ/mol
# GULP energy per Si atom -5572.695080 kJ/mol
# Density = 2.431311 g / cm^3
# Si number density = 24.368577 Si / 1000 Ang^3
#
#
#
# Elastic Constant Matrix: (Units=GPa)
#
#
# Indices 1 2 3 4 5 6 
#
# 1 76.9583 29.5064 20.6888 -4.1877 -5.1647 1.6436
# 2 29.5064 159.4836 19.5899 -5.1634 -13.2324 12.6603
# 3 20.6888 19.5899 50.6926 -9.7332 -13.7133 -11.6049
# 4 -4.1877 -5.1634 -9.7332 25.7397 -3.1602 -3.2006
# 5 -5.1647 -13.2324 -13.7133 -3.1602 25.6125 -7.4396
# 6 1.6436 12.6603 -11.6049 -3.2006 -7.4396 61.9576
#
#
#
# Elastic Compliance Matrix: (Units=1/GPa)
#
#
# Indices 1 2 3 4 5 6 
#
# 1 0.015411 -0.002128 -0.006500 -0.000806 -0.001999 -0.001473
# 2 -0.002128 0.007159 -0.001536 0.000593 0.002111 -0.001410
# 3 -0.006500 -0.001536 0.033858 0.015255 0.020845 0.010119
# 4 -0.000806 0.000593 0.015255 0.047493 0.016252 0.007162
# 5 -0.001999 0.002111 0.020845 0.016252 0.056122 0.011105
# 6 -0.001473 -0.001410 0.010119 0.007162 0.011105 0.020066
#
#
# Mechanical properties :
#
#
# Convention : Reuss Voigt Hill
#
# Bulk Modulus (GPa) = 27.70145 47.41163 37.55654
# Shear Modulus (GPa) = 23.53284 37.15191 30.34238
#
# Velocity S-wave (km/s) = 3.11095 3.90883 3.53249
# Velocity P-wave (km/s) = 4.92914 6.31428 5.66421
#
# Compressibility (1/GPa) = 0.03609919
#
# Stress axis : x y z
#
# Youngs Moduli (GPa) = 64.88999 139.68760 29.53536
#
# Poissons Ratio (x) = 0.29722 0.19198
# Poissons Ratio (y) = 0.13807 0.04537
# Poissons Ratio (z) = 0.42179 0.21458
#
# Static dielectric constant tensor:
#      x y z
#    x 2.023490 -0.089430 0.045580 
#    y -0.089430 2.066320 0.025540 
#    z 0.045580 0.025540 2.276940 
# 
# From -- ./inp_files/389192.got.cif
#   From: 2010.05.17/outbox.cif.g08.bks.cpg/sg2_195_cif.got.tgz:389192.got - 2010.06.03 11:33:40.
