data_PCOD9099881
_publ_section_title
;
Structure prediction by ZEFSAII (Michael W. Deem and Ramdas Pophale) SiO2 
 PCOD9099881
Probable space group: P -1
;
_chemical_formula_sum "Si O2"
_cell_formula_units_Z 16
_cell_length_a 14.975433
_cell_length_b 9.564614
_cell_length_c 17.445667
_cell_angle_alpha 111.843323
_cell_angle_beta 155.518780
_cell_angle_gamma 51.734404
_cell_volume 657.168617
_symmetry_space_group_name_H-M "P -1"
_symmetry_group_IT_number 2
_symmetry_cell_setting 'triclinic'
loop_
_space_group_symop_operation_xyz
x,y,z
-x,-y,-z
loop_
_atom_site_type_symbol
_atom_site_label
_atom_site_fract_x
_atom_site_fract_y
_atom_site_fract_z
Si Si1 0.770600 0.102757 0.637367
Si Si2 0.250814 0.823787 0.542325
Si Si3 0.334461 0.104352 0.707178
Si Si4 0.235965 0.661941 0.976425
Si Si5 0.972767 0.297107 0.868767
Si Si6 0.161564 0.574452 0.506360
Si Si7 0.007798 0.610396 0.934137
Si Si8 0.213073 0.225026 0.459158
O O1 0.622426 0.007015 0.499946
O O2 0.090280 0.898242 0.892398
O O3 0.823783 0.104035 0.589172
O O4 0.717493 0.295601 0.668872
O O5 0.106917 0.740466 0.440306
O O6 0.626295 0.610312 0.802014
O O7 0.191831 0.006645 0.580903
O O8 0.255556 0.194874 0.577274
O O9 0.157895 0.294169 0.670288
O O10 0.709512 0.901776 0.970476
O O11 0.584353 0.500009 0.247168
O O12 0.037857 0.683021 0.893776
O O13 0.145264 0.617904 0.819616
O O14 0.853687 0.522932 0.794421
O O15 0.095716 0.251007 0.042433
O O16 0.296496 0.353388 0.528127
#
# Coordination Sequence:
#
# PCOD9099881 Si02
#       8
#     2   2   2   2   2   2   2   2
#     4   9  20  36  57  86 122 146 191 243 282 345
#     4   9  20  38  58  84 117 150 194 241 288 337
#     4  10  20  38  58  86 120 152 193 235 288 343
#     4   9  21  39  59  89 114 152 191 239 286 345
#     4  10  20  37  62  84 116 155 192 238 292 336
#     4  11  20  37  64  83 118 159 186 238 286 340
#     4   9  20  38  63  83 112 154 196 236 291 347
#     4   9  21  37  56  88 120 149 196 231 287 347
#
# _framework density 24.346872000000001
#
# number of rings (size 3 to 8) (size 9 to 14) (size 15 to 20)
#    0.750    1.750    0.000    1.500    1.750    1.500 
#    4.500    1.250    0.000    0.000    0.000    0.000 
#    0.000    0.000    0.000    0.000    0.000    0.000 
#
# Total GULP energy -89168.681928 kJ/mol
# GULP energy per Si atom -5573.042620 kJ/mol
# Density = 2.429146 g / cm^3
# Si number density = 24.346872 Si / 1000 Ang^3
#
#
#
# Elastic Constant Matrix: (Units=GPa)
#
#
# Indices 1 2 3 4 5 6 
#
# 1 51.1413 32.7352 9.5809 -4.4678 -5.6308 25.2970
# 2 32.7352 147.7281 19.9402 16.0438 -3.2886 23.6996
# 3 9.5809 19.9402 63.1068 17.6014 -9.8918 5.4693
# 4 -4.4678 16.0438 17.6014 29.5341 10.8295 -10.7364
# 5 -5.6308 -3.2886 -9.8918 10.8295 31.7257 -11.4150
# 6 25.2970 23.6996 5.4693 -10.7364 -11.4150 22.2830
#
#
#
# Elastic Compliance Matrix: (Units=1/GPa)
#
#
# Indices 1 2 3 4 5 6 
#
# 1 0.053936 0.002160 0.000965 -0.017683 -0.012106 -0.078488
# 2 0.002160 0.011214 0.002109 -0.014903 -0.000801 -0.022488
# 3 0.000965 0.002109 0.025664 -0.026517 0.011498 -0.016524
# 4 -0.017683 -0.014903 -0.026517 0.088864 -0.015461 0.077330
# 5 -0.012106 -0.000801 0.011498 -0.015461 0.048679 0.029261
# 6 -0.078488 -0.022488 -0.016524 0.077330 0.029261 0.214204
#
#
# Mechanical properties :
#
#
# Convention : Reuss Voigt Hill
#
# Bulk Modulus (GPa) = 9.87329 42.94323 26.40826
# Shear Modulus (GPa) = 10.73301 30.02323 20.37812
#
# Velocity S-wave (km/s) = 2.10189 3.51543 2.89622
# Velocity P-wave (km/s) = 3.15510 5.84414 4.69620
#
# Compressibility (1/GPa) = 0.10128340
#
# Stress axis : x y z
#
# Youngs Moduli (GPa) = 18.54047 89.17194 38.96566
#
# Poissons Ratio (x) = -0.19265 -0.03762
# Poissons Ratio (y) = -0.04006 -0.08217
# Poissons Ratio (z) = -0.01790 -0.18805
#
# Static dielectric constant tensor:
#      x y z
#    x 1.917230 0.013490 0.076800 
#    y 0.013490 2.027640 -0.012560 
#    z 0.076800 -0.012560 2.059370 
# 
# From -- ./inp_files/572687.got.cif
#   From: 2010.05.17/outbox.cif.g08.bks.cpg/sg2_287_cif.got.tgz:572687.got - 2010.06.03 11:33:40.
