data_PCOD9099637
_publ_section_title
;
Structure prediction by ZEFSAII (Michael W. Deem and Ramdas Pophale) SiO2 
 PCOD9099637
Probable space group: P -1
;
_chemical_formula_sum "Si O2"
_cell_formula_units_Z 12
_cell_length_a 13.926730
_cell_length_b 14.611307
_cell_length_c 5.194883
_cell_angle_alpha 73.932483
_cell_angle_beta 96.438979
_cell_angle_gamma 148.396785
_cell_volume 516.035398
_symmetry_space_group_name_H-M "P -1"
_symmetry_group_IT_number 2
_symmetry_cell_setting 'triclinic'
loop_
_space_group_symop_operation_xyz
x,y,z
-x,-y,-z
loop_
_atom_site_type_symbol
_atom_site_label
_atom_site_fract_x
_atom_site_fract_y
_atom_site_fract_z
Si Si1 0.540031 0.232616 0.804959
Si Si2 0.017795 0.948515 0.297669
Si Si3 0.413311 0.279666 0.080054
Si Si4 0.375555 0.990221 0.447634
Si Si5 0.979813 0.550116 0.703888
Si Si6 0.353423 0.424784 0.707291
O O1 0.486640 0.294142 0.831935
O O2 0.449868 0.119968 0.600958
O O3 0.766461 0.411084 0.742725
O O4 0.439618 0.087659 0.117307
O O5 0.841824 0.729104 0.380842
O O6 0.000000 0.000000 0.500000
O O7 0.000000 0.000000 0.000000
O O8 0.217976 0.065801 0.272183
O O9 0.342077 0.328216 0.986363
O O10 0.574864 0.424684 0.228126
O O11 0.500000 0.000000 0.500000
O O12 0.155051 0.773273 0.575187
O O13 0.000000 0.500000 0.500000
O O14 0.000000 0.500000 0.000000
O O15 0.500000 0.500000 0.500000
#
# Coordination Sequence:
#
# PCOD9099637 Si02
#       6
#     2   2   2   2   2   2
#     4  12  26  43  67 103 136 166 226 280 314 396
#     4  10  20  37  61  87 119 167 208 252 316 379
#     4  10  24  40  61  98 128 168 216 272 317 373
#     4  12  24  44  70  95 132 177 216 267 339 394
#     4  12  23  43  71  96 129 177 219 262 336 399
#     4  10  20  40  66  85 129 174 212 255 325 385
#
# _framework density 23.254217000000001
#
# number of rings (size 3 to 8) (size 9 to 14) (size 15 to 20)
#    0.000    1.000    5.000    1.500    2.333    1.333 
#    3.000    0.000    0.000    0.000    0.000    0.000 
#    0.000    0.000    0.000    0.000    0.000    0.000 
#
# Total GULP energy -67053.791588 kJ/mol
# GULP energy per Si atom -5587.815966 kJ/mol
# Density = 2.320129 g / cm^3
# Si number density = 23.254217 Si / 1000 Ang^3
#
#
#
# Elastic Constant Matrix: (Units=GPa)
#
#
# Indices 1 2 3 4 5 6 
#
# 1 101.8818 69.8038 26.5937 1.7261 -25.2562 1.8631
# 2 69.8038 258.6200 52.1235 4.7559 -33.9219 18.2789
# 3 26.5937 52.1235 122.2541 10.8301 -12.5866 -3.8687
# 4 1.7261 4.7559 10.8301 53.5641 -6.9754 -15.2439
# 5 -25.2562 -33.9219 -12.5866 -6.9754 48.7040 -5.4631
# 6 1.8631 18.2789 -3.8687 -15.2439 -5.4631 44.2411
#
#
#
# Elastic Compliance Matrix: (Units=1/GPa)
#
#
# Indices 1 2 3 4 5 6 
#
# 1 0.013231 -0.002804 -0.001229 0.001137 0.004920 0.001493
# 2 -0.002804 0.005292 -0.001515 -0.000496 0.001524 -0.002184
# 3 -0.001229 -0.001515 0.009311 -0.001304 0.000653 0.001123
# 4 0.001137 -0.000496 -0.001304 0.021732 0.003918 0.008015
# 5 0.004920 0.001524 0.000653 0.003918 0.025290 0.003693
# 6 0.001493 -0.002184 0.001123 0.008015 0.003693 0.026759
#
#
# Mechanical properties :
#
#
# Convention : Reuss Voigt Hill
#
# Bulk Modulus (GPa) = 59.74541 86.64423 73.19482
# Shear Modulus (GPa) = 42.26911 51.58416 46.92663
#
# Velocity S-wave (km/s) = 4.26807 4.71496 4.49707
# Velocity P-wave (km/s) = 7.07366 8.18423 7.64913
#
# Compressibility (1/GPa) = 0.01673769
#
# Stress axis : x y z
#
# Youngs Moduli (GPa) = 75.58127 188.95502 107.39855
#
# Poissons Ratio (x) = 0.52991 0.13202
# Poissons Ratio (y) = 0.21196 0.16266
# Poissons Ratio (z) = 0.09291 0.28618
#
# Static dielectric constant tensor:
#      x y z
#    x 1.915590 -0.038990 0.106410 
#    y -0.038990 2.031740 -0.122570 
#    z 0.106410 -0.122570 1.931440 
# 
# From -- ./inp_files/97947.got.cif
#   From: 2010.05.17/outbox.cif.g08.bks.cpg/sg2_49_cif.got.tgz:97947.got - 2010.06.03 11:33:40.
