data_PCOD9099244
_publ_section_title
;
Structure prediction by ZEFSAII (Michael W. Deem and Ramdas Pophale) SiO2 
 PCOD9099244
Probable space group: P -1
;
_chemical_formula_sum "Si O2"
_cell_formula_units_Z 14
_cell_length_a 19.498145
_cell_length_b 5.644366
_cell_length_c 5.165691
_cell_angle_alpha 105.788500
_cell_angle_beta 79.246277
_cell_angle_gamma 106.749549
_cell_volume 520.227884
_symmetry_space_group_name_H-M "P -1"
_symmetry_group_IT_number 2
_symmetry_cell_setting 'triclinic'
loop_
_space_group_symop_operation_xyz
x,y,z
-x,-y,-z
loop_
_atom_site_type_symbol
_atom_site_label
_atom_site_fract_x
_atom_site_fract_y
_atom_site_fract_z
Si Si1 0.325696 0.191699 0.580166
Si Si2 0.089194 0.888931 0.023325
Si Si3 0.449321 0.478952 0.279806
Si Si4 0.795482 0.675812 0.530657
Si Si5 0.940625 0.712272 0.276956
Si Si6 0.247131 0.846334 0.919010
Si Si7 0.670314 0.405563 0.886328
O O1 0.385889 0.229966 0.328257
O O2 0.239532 0.148577 0.573803
O O3 0.317599 0.988916 0.749574
O O4 0.348871 0.464275 0.800112
O O5 0.026128 0.830897 0.269302
O O6 0.069665 0.595709 0.830601
O O7 0.173235 0.929643 0.052772
O O8 0.079908 0.114597 0.897775
O O9 0.500000 0.500000 0.500000
O O10 0.397507 0.658770 0.275670
O O11 0.500000 0.500000 0.000000
O O12 0.880085 0.733045 0.537253
O O13 0.781450 0.418034 0.292343
O O14 0.734899 0.618518 0.775369
O O15 0.284714 0.795874 0.142719
#
# Coordination Sequence:
#
# PCOD9099244 Si02
#       7
#     2   2   2   2   2   2   2
#     4  10  20  38  64  90 124 170 215 269 338 408
#     4   9  17  30  57  86 130 173 235 286 345 403
#     4  11  22  43  70  96 132 173 213 275 349 418
#     4   9  19  35  57  85 126 168 224 276 334 403
#     4   9  16  31  54  90 124 181 229 291 343 400
#     4  10  20  37  59  93 122 171 224 279 335 410
#     4  10  22  38  63  90 128 168 215 278 334 414
#
# _framework density 26.911282
#
# number of rings (size 3 to 8) (size 9 to 14) (size 15 to 20)
#    0.000    2.286    2.857    0.000    0.000    2.286 
#    0.000    2.143    0.000    0.857    0.000    0.000 
#    0.000    0.000    0.000    0.000    0.000    0.000 
#
# Total GULP energy -77939.674686 kJ/mol
# GULP energy per Si atom -5567.119620 kJ/mol
# Density = 2.685003 g / cm^3
# Si number density = 26.911282 Si / 1000 Ang^3
#
#
#
# Elastic Constant Matrix: (Units=GPa)
#
#
# Indices 1 2 3 4 5 6 
#
# 1 199.9550 29.5595 58.7930 -5.3402 -23.3564 10.0006
# 2 29.5595 69.5552 -7.4382 8.7657 -9.8620 -10.8293
# 3 58.7930 -7.4382 118.1534 -7.7524 -36.2048 -9.6704
# 4 -5.3402 8.7657 -7.7524 38.4595 -0.6670 1.4144
# 5 -23.3564 -9.8620 -36.2048 -0.6670 54.6046 -3.5784
# 6 10.0006 -10.8293 -9.6704 1.4144 -3.5784 32.5605
#
#
#
# Elastic Compliance Matrix: (Units=1/GPa)
#
#
# Indices 1 2 3 4 5 6 
#
# 1 0.007215 -0.004715 -0.004585 0.001329 -0.001138 -0.005329
# 2 -0.004715 0.020185 0.006184 -0.004298 0.006390 0.010887
# 3 -0.004585 0.006184 0.014855 0.000788 0.009598 0.008898
# 4 0.001329 -0.004298 0.000788 0.027433 0.000469 -0.002744
# 5 -0.001138 0.006390 0.009598 0.000469 0.025884 0.008150
# 6 -0.005329 0.010887 0.008898 -0.002744 0.008150 0.039627
#
#
# Mechanical properties :
#
#
# Convention : Reuss Voigt Hill
#
# Bulk Modulus (GPa) = 27.75967 61.05468 44.40718
# Shear Modulus (GPa) = 32.58593 45.57487 39.08040
#
# Velocity S-wave (km/s) = 3.48352 4.11971 3.81490
# Velocity P-wave (km/s) = 5.14952 6.73543 5.99515
#
# Compressibility (1/GPa) = 0.03602349
#
# Stress axis : x y z
#
# Youngs Moduli (GPa) = 138.59372 49.54172 67.31593
#
# Poissons Ratio (x) = 0.23360 0.30864
# Poissons Ratio (y) = 0.65349 -0.41629
# Poissons Ratio (z) = 0.63545 -0.30637
#
# Static dielectric constant tensor:
#      x y z
#    x 2.073790 -0.029230 0.087020 
#    y -0.029230 2.284350 0.124850 
#    z 0.087020 0.124850 2.242890 
# 
# From -- ./inp_files/11397.got.cif
#   From: 2010.05.17/outbox.cif.g08.bks.cpg/sg2_6_cif.got.tgz:11397.got - 2010.06.03 11:33:40.
