data_PCOD9099756
_publ_section_title
;
Structure prediction by ZEFSAII (Michael W. Deem and Ramdas Pophale) SiO2 
 PCOD9099756
Probable space group: P -1
;
_chemical_formula_sum "Si O2"
_cell_formula_units_Z 16
_cell_length_a 18.539833
_cell_length_b 21.366863
_cell_length_c 8.788857
_cell_angle_alpha 153.444246
_cell_angle_beta 142.198098
_cell_angle_gamma 26.294405
_cell_volume 688.282936
_symmetry_space_group_name_H-M "P -1"
_symmetry_group_IT_number 2
_symmetry_cell_setting 'triclinic'
loop_
_space_group_symop_operation_xyz
x,y,z
-x,-y,-z
loop_
_atom_site_type_symbol
_atom_site_label
_atom_site_fract_x
_atom_site_fract_y
_atom_site_fract_z
Si Si1 0.798239 0.719329 0.470736
Si Si2 0.890835 0.728197 0.321476
Si Si3 0.432660 0.343699 0.002455
Si Si4 0.957432 0.112625 0.024090
Si Si5 0.562847 0.669191 0.347586
Si Si6 0.172479 0.306642 0.185926
Si Si7 0.661416 0.267833 0.687703
Si Si8 0.256399 0.775737 0.587329
O O1 0.789929 0.810312 0.492874
O O2 0.782898 0.784487 0.765339
O O3 0.981631 0.504450 0.307276
O O4 0.663481 0.709041 0.209379
O O5 0.021080 0.743187 0.594247
O O6 0.808160 0.800484 0.171225
O O7 0.000000 0.500000 0.000000
O O8 0.298084 0.577202 0.253778
O O9 0.576456 0.286491 0.218395
O O10 0.510354 0.241689 0.746240
O O11 0.779364 0.212599 0.899077
O O12 0.096039 0.951803 0.789356
O O13 0.000000 0.000000 0.000000
O O14 0.719615 0.640875 0.549384
O O15 0.452506 0.765834 0.524000
O O16 0.584019 0.481977 0.977112
O O17 0.769370 0.151353 0.468055
#
# Coordination Sequence:
#
# PCOD9099756 Si02
#       8
#     2   2   2   2   2   2   2   2
#     4   9  18  34  62  90 124 155 209 264 301 379
#     4  10  22  39  62  93 121 165 212 258 311 385
#     4   9  19  37  63  95 123 167 210 260 321 376
#     4  12  26  42  60  93 134 163 209 269 320 376
#     4   9  18  35  63  92 128 155 221 259 308 380
#     4   9  18  34  57  95 119 161 204 262 311 362
#     4  10  20  37  61  91 123 173 203 264 315 382
#     4  10  22  38  61  92 128 166 211 261 320 381
#
# _framework density 23.246254
#
# number of rings (size 3 to 8) (size 9 to 14) (size 15 to 20)
#    0.000    2.250    0.000    2.625    5.250    2.000 
#    2.250    0.625    0.000    2.250    0.000    0.000 
#    0.000    0.000    0.000    0.000    0.000    0.000 
#
# Total GULP energy -89157.047376 kJ/mol
# GULP energy per Si atom -5572.315461 kJ/mol
# Density = 2.319334 g / cm^3
# Si number density = 23.246254 Si / 1000 Ang^3
#
#
#
# Elastic Constant Matrix: (Units=GPa)
#
#
# Indices 1 2 3 4 5 6 
#
# 1 121.5131 31.1795 -38.1072 3.1206 -29.4367 -6.0067
# 2 31.1795 39.4871 40.0053 -21.0629 10.3153 7.4189
# 3 -38.1072 40.0053 -155.0654 53.8634 -77.6268 -28.7937
# 4 3.1206 -21.0629 53.8634 20.1444 17.5236 -0.6799
# 5 -29.4367 10.3153 -77.6268 17.5236 11.0627 -20.2102
# 6 -6.0067 7.4189 -28.7937 -0.6799 -20.2102 32.3035
#
#
#
# Elastic Compliance Matrix: (Units=1/GPa)
#
#
# Indices 1 2 3 4 5 6 
#
# 1 0.008423 -0.002964 -0.003016 0.002231 0.001669 0.000650
# 2 -0.002964 0.023142 0.005532 0.005427 0.005195 0.002429
# 3 -0.003016 0.005532 0.003082 0.005712 -0.009033 -0.004615
# 4 0.002231 0.005427 0.005712 0.032351 0.008853 0.010479
# 5 0.001669 0.005195 -0.009033 0.008853 0.023773 0.006125
# 6 0.000650 0.002429 -0.004615 0.010479 0.006125 0.030458
#
#
# Mechanical properties :
#
#
# Convention : Reuss Voigt Hill
#
# Bulk Modulus (GPa) = 29.62801 8.01000 18.81901
# Shear Modulus (GPa) = 37.48807 10.89260 24.19033
#
# Velocity S-wave (km/s) = 4.02014 2.16701 3.22935
# Velocity P-wave (km/s) = 5.85847 3.11680 4.69234
#
# Compressibility (1/GPa) = 0.03375184
#
# Stress axis : x y z
#
# Youngs Moduli (GPa) = 118.71755 43.21199 324.42908
#
# Poissons Ratio (x) = 0.12808 0.97844
# Poissons Ratio (y) = 0.35187 -1.79474
# Poissons Ratio (z) = 0.35804 -0.23905
#
# Static dielectric constant tensor:
#      x y z
#    x 1.939690 0.040740 -0.091490 
#    y 0.040740 1.838720 0.053070 
#    z -0.091490 0.053070 1.970310 
# 
# From -- ./inp_files/338019.got.cif
#   From: 2010.05.17/outbox.cif.g08.bks.cpg/sg2_170_cif.got.tgz:338019.got - 2010.06.03 11:33:40.
