data_PCOD9099320
_publ_section_title
;
Structure prediction by ZEFSAII (Michael W. Deem and Ramdas Pophale) SiO2 
 PCOD9099320
Probable space group: P -1
;
_chemical_formula_sum "Si O2"
_cell_formula_units_Z 12
_cell_length_a 9.199611
_cell_length_b 11.778305
_cell_length_c 10.011026
_cell_angle_alpha 96.979698
_cell_angle_beta 102.748072
_cell_angle_gamma 27.081479
_cell_volume 474.756373
_symmetry_space_group_name_H-M "P -1"
_symmetry_group_IT_number 2
_symmetry_cell_setting 'triclinic'
loop_
_space_group_symop_operation_xyz
x,y,z
-x,-y,-z
loop_
_atom_site_type_symbol
_atom_site_label
_atom_site_fract_x
_atom_site_fract_y
_atom_site_fract_z
Si Si1 0.108881 0.973576 0.314352
Si Si2 0.710833 0.819442 0.705081
Si Si3 0.065522 0.127223 0.601178
Si Si4 0.210642 0.453844 0.964455
Si Si5 0.132636 0.537956 0.528842
Si Si6 0.161158 0.076070 0.076366
O O1 0.967274 0.131666 0.442261
O O2 0.495828 0.294909 0.625321
O O3 0.026734 0.091583 0.174414
O O4 0.013924 0.906138 0.302810
O O5 0.450960 0.897222 0.652827
O O6 0.603236 0.988986 0.813434
O O7 0.063243 0.543228 0.797809
O O8 0.829694 0.798905 0.591894
O O9 0.881679 0.375437 0.594698
O O10 0.107702 0.655425 0.007042
O O11 0.594804 0.163756 0.999302
O O12 0.000000 0.500000 0.000000
O O13 0.000000 0.500000 0.500000
#
# Coordination Sequence:
#
# PCOD9099320 Si02
#       6
#     2   2   2   2   2   2
#     4  11  21  35  51  79 124 151 189 221 284 338
#     4  10  21  33  57  81 114 144 200 229 284 322
#     4  11  22  33  50  85 115 159 185 228 273 341
#     4  10  21  37  63  86 105 139 197 250 294 335
#     4  12  20  34  54  80 116 157 195 229 272 334
#     4  10  20  37  60  85 111 150 188 241 288 339
#
# _framework density 25.276119999999999
#
# number of rings (size 3 to 8) (size 9 to 14) (size 15 to 20)
#    1.000    0.333    5.000    2.500    0.000    0.000 
#    0.000    0.000    0.000    2.000    0.000    0.000 
#    0.000    0.000    0.000    0.000    0.000    0.000 
#
# Total GULP energy -66906.453316 kJ/mol
# GULP energy per Si atom -5575.537776 kJ/mol
# Density = 2.521859 g / cm^3
# Si number density = 25.276120 Si / 1000 Ang^3
#
#
#
# Elastic Constant Matrix: (Units=GPa)
#
#
# Indices 1 2 3 4 5 6 
#
# 1 134.1856 38.4083 31.8693 -13.8524 -23.0548 31.7896
# 2 38.4083 159.5330 24.4313 -9.1550 -14.5734 19.2434
# 3 31.8693 24.4313 38.3293 -10.5729 -13.9718 7.6043
# 4 -13.8524 -9.1550 -10.5729 17.3658 7.7335 -13.5634
# 5 -23.0548 -14.5734 -13.9718 7.7335 39.2338 -12.7342
# 6 31.7896 19.2434 7.6043 -13.5634 -12.7342 38.9666
#
#
#
# Elastic Compliance Matrix: (Units=1/GPa)
#
#
# Indices 1 2 3 4 5 6 
#
# 1 0.011296 -0.000614 -0.007601 -0.002841 0.001712 -0.007858
# 2 -0.000614 0.007283 -0.003803 -0.001200 0.000366 -0.002651
# 3 -0.007601 -0.003803 0.041715 0.021650 0.007981 0.010083
# 4 -0.002841 -0.001200 0.021650 0.092561 -0.002930 0.029946
# 5 0.001712 0.000366 0.007981 -0.002930 0.032107 0.006337
# 6 -0.007858 -0.002651 0.010083 0.029946 0.006337 0.043910
#
#
# Mechanical properties :
#
#
# Convention : Reuss Voigt Hill
#
# Bulk Modulus (GPa) = 27.58098 57.94064 42.76081
# Shear Modulus (GPa) = 18.86834 34.93586 26.90210
#
# Velocity S-wave (km/s) = 2.73516 3.72179 3.26594
# Velocity P-wave (km/s) = 4.57278 6.43753 5.58355
#
# Compressibility (1/GPa) = 0.03625687
#
# Stress axis : x y z
#
# Youngs Moduli (GPa) = 88.52675 137.30633 23.97226
#
# Poissons Ratio (x) = 0.08434 0.18222
# Poissons Ratio (y) = 0.05438 0.09117
# Poissons Ratio (z) = 0.67291 0.52218
#
# Static dielectric constant tensor:
#      x y z
#    x 1.960630 0.082810 -0.022720 
#    y 0.082810 2.141180 0.079180 
#    z -0.022720 0.079180 2.264170 
# 
# From -- ./inp_files/382295.got.cif
#   From: 2010.05.17/outbox.cif.g08.bks.cpg/sg2_192_cif.got.tgz:382295.got - 2010.06.03 11:33:40.
