data_PCOD9099971
_publ_section_title
;
Structure prediction by ZEFSAII (Michael W. Deem and Ramdas Pophale) SiO2 
 PCOD9099971
Probable space group: P -1
;
_chemical_formula_sum "Si O2"
_cell_formula_units_Z 16
_cell_length_a 19.969562
_cell_length_b 8.976353
_cell_length_c 16.716446
_cell_angle_alpha 150.748267
_cell_angle_beta 33.165554
_cell_angle_gamma 136.915519
_cell_volume 801.019748
_symmetry_space_group_name_H-M "P -1"
_symmetry_group_IT_number 2
_symmetry_cell_setting 'triclinic'
loop_
_space_group_symop_operation_xyz
x,y,z
-x,-y,-z
loop_
_atom_site_type_symbol
_atom_site_label
_atom_site_fract_x
_atom_site_fract_y
_atom_site_fract_z
Si Si1 0.240279 0.581197 0.890481
Si Si2 0.000000 0.243797 0.027707
Si Si3 0.755688 0.191899 0.750784
Si Si4 0.500002 0.682581 0.001629
Si Si5 0.240277 0.418798 0.628962
Si Si6 0.000003 0.407131 0.290939
Si Si7 0.500000 0.413369 0.366033
Si Si8 0.244309 0.191903 0.262167
O O1 0.245840 0.500007 0.754164
O O2 0.371471 0.479811 0.748523
O O3 0.123849 0.413312 0.961149
O O4 0.228480 0.937807 0.089757
O O5 0.876156 0.413336 0.208854
O O6 0.000002 0.289633 0.144833
O O7 0.999996 0.929307 0.829000
O O8 0.627320 0.364582 0.941840
O O9 0.876350 0.402337 0.729325
O O10 0.771516 0.937816 0.546720
O O11 0.748437 0.999992 0.751557
O O12 0.500002 0.046511 0.189011
O O13 0.500000 0.500000 0.000000
O O14 0.627324 0.635416 0.803516
O O15 0.371468 0.520183 0.508536
O O16 0.876354 0.597659 0.517969
O O17 0.500000 0.500000 0.500000
#
# Coordination Sequence:
#
# PCOD9099971 Si02
#       8
#     2   2   2   2   2   2   2   2
#     4  10  20  37  62  89 119 159 202 250 300 363
#     4  11  22  39  56  87 126 152 208 255 305 346
#     4  11  21  41  66  90 122 167 206 239 304 375
#     4  10  23  39  62  96 127 150 198 265 304 349
#     4  10  20  37  62  89 119 159 202 250 300 363
#     4  11  24  38  60  88 123 164 200 260 299 359
#     4   8  18  35  58  84 114 157 191 232 300 364
#     4  11  21  41  66  90 122 167 206 239 304 375
#
# _framework density 19.974537999999999
#
# number of rings (size 3 to 8) (size 9 to 14) (size 15 to 20)
#    0.000    1.750    2.500    1.875    0.000    6.000 
#    0.000    1.875    0.000    3.000    0.000    0.000 
#    0.000    0.000    0.000    0.000    0.000    0.000 
#
# Total GULP energy -89084.767010 kJ/mol
# GULP energy per Si atom -5567.797938 kJ/mol
# Density = 1.992908 g / cm^3
# Si number density = 19.974538 Si / 1000 Ang^3
#
#
#
# Elastic Constant Matrix: (Units=GPa)
#
#
# Indices 1 2 3 4 5 6 
#
# 1 62.6475 26.4508 44.2935 -5.1775 -3.3074 35.3220
# 2 26.4508 64.1773 63.5574 -17.9917 -25.3293 33.5909
# 3 44.2935 63.5574 124.9438 -23.9140 -10.6183 39.6456
# 4 -5.1775 -17.9917 -23.9140 23.1150 12.9285 -7.3240
# 5 -3.3074 -25.3293 -10.6183 12.9285 40.5490 -11.9559
# 6 35.3220 33.5909 39.6456 -7.3240 -11.9559 30.6836
#
#
#
# Elastic Compliance Matrix: (Units=1/GPa)
#
#
# Indices 1 2 3 4 5 6 
#
# 1 0.066296 0.031589 -0.005843 0.005019 -0.009163 -0.105724
# 2 0.031589 0.075643 -0.019284 0.009691 0.016470 -0.085528
# 3 -0.005843 -0.019284 0.021789 0.011878 -0.011141 -0.001822
# 4 0.005019 0.009691 0.011878 0.067399 -0.018675 -0.022923
# 5 -0.009163 0.016470 -0.011141 -0.018675 0.042891 0.019167
# 6 -0.105724 -0.085528 -0.001822 -0.022923 0.019167 0.252279
#
#
# Mechanical properties :
#
#
# Convention : Reuss Voigt Hill
#
# Bulk Modulus (GPa) = 5.66081 57.81910 31.73995
# Shear Modulus (GPa) = 8.73732 26.70063 17.71898
#
# Velocity S-wave (km/s) = 2.09373 3.66010 2.98162
# Velocity P-wave (km/s) = 2.94706 6.84624 5.27049
#
# Compressibility (1/GPa) = 0.17665310
#
# Stress axis : x y z
#
# Youngs Moduli (GPa) = 15.08385 13.21994 45.89413
#
# Poissons Ratio (x) = -0.41761 0.26815
# Poissons Ratio (y) = -0.47649 0.88505
# Poissons Ratio (z) = 0.08813 0.25494
#
# Static dielectric constant tensor:
#      x y z
#    x 1.631130 0.126530 0.016150 
#    y 0.126530 1.563860 -0.065850 
#    z 0.016150 -0.065850 1.706960 
# 
# From -- ./inp_files/577654.got.cif
#   From: 2010.05.17/outbox.cif.g08.bks.cpg/sg2_289_cif.got.tgz:577654.got - 2010.06.03 11:33:40.
