data_PCOD9099978
_publ_section_title
;
Structure prediction by ZEFSAII (Michael W. Deem and Ramdas Pophale) SiO2 
 PCOD9099978
Probable space group: P -1
;
_chemical_formula_sum "Si O2"
_cell_formula_units_Z 16
_cell_length_a 17.377310
_cell_length_b 14.254581
_cell_length_c 7.320702
_cell_angle_alpha 71.528679
_cell_angle_beta 58.165030
_cell_angle_gamma 26.114281
_cell_volume 615.623104
_symmetry_space_group_name_H-M "P -1"
_symmetry_group_IT_number 2
_symmetry_cell_setting 'triclinic'
loop_
_space_group_symop_operation_xyz
x,y,z
-x,-y,-z
loop_
_atom_site_type_symbol
_atom_site_label
_atom_site_fract_x
_atom_site_fract_y
_atom_site_fract_z
Si Si1 0.897485 0.512325 0.357267
Si Si2 0.716120 0.766108 0.762694
Si Si3 0.365778 0.360767 0.895821
Si Si4 0.033644 0.236181 0.071339
Si Si5 0.234386 0.978221 0.601803
Si Si6 0.527298 0.418137 0.244203
Si Si7 0.777653 0.420067 0.704835
Si Si8 0.192862 0.879261 0.268110
O O1 0.103422 0.339195 0.324315
O O2 0.997610 0.382605 0.111883
O O3 0.799667 0.502619 0.526457
O O4 0.723637 0.753694 0.538366
O O5 0.754820 0.617796 0.888328
O O6 0.500000 0.000000 0.000000
O O7 0.597751 0.121808 0.661274
O O8 0.198858 0.568570 0.830655
O O9 0.376097 0.413577 0.032194
O O10 0.124311 0.061416 0.203380
O O11 0.178699 0.086005 0.799073
O O12 0.360606 0.753346 0.632291
O O13 0.014071 0.169327 0.653656
O O14 0.388533 0.654116 0.294808
O O15 0.351248 0.521292 0.306296
O O16 0.718428 0.243331 0.965775
O O17 0.000000 0.000000 0.500000
#
# Coordination Sequence:
#
# PCOD9099978 Si02
#       8
#     2   2   2   2   2   2   2   2
#     4  10  21  39  61  86 119 158 203 249 303 365
#     4  10  22  38  59  87 118 155 202 254 304 362
#     4  10  21  38  59  89 123 157 206 253 301 370
#     4  10  22  39  62  88 119 162 203 249 309 365
#     4  10  21  38  61  91 127 163 205 254 300 358
#     4  10  22  39  61  91 122 161 210 251 300 361
#     4  10  21  38  63  90 122 165 206 251 305 359
#     4  10  20  37  62  89 121 158 202 254 303 355
#
# _framework density 25.989926000000001
#
# number of rings (size 3 to 8) (size 9 to 14) (size 15 to 20)
#    0.000    2.000    0.000    3.000    0.000    9.500 
#    0.000   11.250    0.000   18.750    0.000    0.000 
#    0.000    0.000    0.000    0.000    0.000    0.000 
#
# Total GULP energy -89227.877363 kJ/mol
# GULP energy per Si atom -5576.742335 kJ/mol
# Density = 2.593077 g / cm^3
# Si number density = 25.989926 Si / 1000 Ang^3
#
#
#
# Elastic Constant Matrix: (Units=GPa)
#
#
# Indices 1 2 3 4 5 6 
#
# 1 94.1984 -4.2360 59.7753 -5.2702 12.0953 -5.3267
# 2 -4.2360 40.9742 5.3692 9.2424 20.8736 7.9404
# 3 59.7753 5.3692 176.9810 20.6893 17.5900 -4.1614
# 4 -5.2702 9.2424 20.6893 37.3962 3.8544 3.9980
# 5 12.0953 20.8736 17.5900 3.8544 66.8598 -7.0671
# 6 -5.3267 7.9404 -4.1614 3.9980 -7.0671 16.5446
#
#
#
# Elastic Compliance Matrix: (Units=1/GPa)
#
#
# Indices 1 2 3 4 5 6 
#
# 1 0.014662 0.002229 -0.005343 0.004671 -0.002186 0.000245
# 2 0.002229 0.037145 -0.000448 -0.004830 -0.013929 -0.022005
# 3 -0.005343 -0.000448 0.008180 -0.005278 -0.000574 0.001582
# 4 0.004671 -0.004830 -0.005278 0.032132 -0.000375 -0.005430
# 5 -0.002186 -0.013929 -0.000574 -0.000375 0.021469 0.015098
# 6 0.000245 -0.022005 0.001582 -0.005430 0.015098 0.079242
#
#
# Mechanical properties :
#
#
# Convention : Reuss Voigt Hill
#
# Bulk Modulus (GPa) = 18.91705 48.21894 33.56799
# Shear Modulus (GPa) = 22.98060 40.90979 31.94520
#
# Velocity S-wave (km/s) = 2.97680 3.97175 3.50971
# Velocity P-wave (km/s) = 4.37144 6.29494 5.41921
#
# Compressibility (1/GPa) = 0.05286236
#
# Stress axis : x y z
#
# Youngs Moduli (GPa) = 68.20205 26.92181 122.25450
#
# Poissons Ratio (x) = -0.06000 0.65318
# Poissons Ratio (y) = -0.15200 0.05476
# Poissons Ratio (z) = 0.36439 0.01206
#
# Static dielectric constant tensor:
#      x y z
#    x 2.084030 0.130180 0.114890 
#    y 0.130180 2.130430 0.031170 
#    z 0.114890 0.031170 2.172790 
# 
# From -- ./inp_files/335272.got.cif
#   From: 2010.05.17/outbox.cif.g08.bks.cpg/sg2_168_cif.got.tgz:335272.got - 2010.06.03 11:33:40.
