data_PCOD9099133
_publ_section_title
;
Structure prediction by ZEFSAII (Michael W. Deem and Ramdas Pophale) SiO2 
 PCOD9099133
Probable space group: P -1
;
_chemical_formula_sum "Si O2"
_cell_formula_units_Z 16
_cell_length_a 6.453292
_cell_length_b 22.654946
_cell_length_c 11.188242
_cell_angle_alpha 28.388737
_cell_angle_beta 89.720455
_cell_angle_gamma 87.367490
_cell_volume 774.702959
_symmetry_space_group_name_H-M "P -1"
_symmetry_group_IT_number 2
_symmetry_cell_setting 'triclinic'
loop_
_space_group_symop_operation_xyz
x,y,z
-x,-y,-z
loop_
_atom_site_type_symbol
_atom_site_label
_atom_site_fract_x
_atom_site_fract_y
_atom_site_fract_z
Si Si1 0.153279 0.990742 0.633067
Si Si2 0.061577 0.359017 0.383186
Si Si3 0.473613 0.217204 0.974781
Si Si4 0.085863 0.169728 0.923299
Si Si5 0.214357 0.611249 0.362632
Si Si6 0.086906 0.555894 0.213855
Si Si7 0.264588 0.263235 0.146700
Si Si8 0.679135 0.554390 0.979967
O O1 0.258694 0.117278 0.432258
O O2 0.339128 0.882135 0.808045
O O3 0.000000 0.000000 0.500000
O O4 0.024290 0.950204 0.821318
O O5 0.059322 0.229273 0.685203
O O6 0.172488 0.454440 0.300050
O O7 0.183523 0.362419 0.253745
O O8 0.834796 0.434423 0.232932
O O9 0.351411 0.263643 0.010865
O O10 0.321292 0.158030 0.988409
O O11 0.576798 0.330111 0.707498
O O12 0.968980 0.278914 0.811652
O O13 0.233930 0.577911 0.283394
O O14 0.118763 0.500499 0.628266
O O15 0.978917 0.683284 0.936241
O O16 0.383237 0.352477 0.075747
O O17 0.500000 0.500000 0.000000
#
# Coordination Sequence:
#
# PCOD9099133 Si02
#       8
#     2   2   2   2   2   2   2   2
#     4  11  22  39  57  87 126 153 192 243 292 358
#     4   9  21  40  60  83 115 154 197 241 291 343
#     4  11  21  34  58  89 118 155 192 236 302 357
#     4  10  20  37  59  86 118 155 188 243 299 344
#     4   9  18  31  50  84 120 147 181 232 292 361
#     4   9  17  34  52  80 119 148 185 236 292 345
#     4  11  21  36  57  86 118 155 200 235 288 352
#     4  10  23  42  61  86 117 157 199 244 285 342
#
# _framework density 20.653075999999999
#
# number of rings (size 3 to 8) (size 9 to 14) (size 15 to 20)
#    0.000    2.000    2.500    1.125    1.750    4.500 
#    2.250    0.625    0.000    1.500    0.000    0.000 
#    0.000    0.000    0.000    0.000    0.000    0.000 
#
# Total GULP energy -89178.005275 kJ/mol
# GULP energy per Si atom -5573.625330 kJ/mol
# Density = 2.060607 g / cm^3
# Si number density = 20.653076 Si / 1000 Ang^3
#
#
#
# Elastic Constant Matrix: (Units=GPa)
#
#
# Indices 1 2 3 4 5 6 
#
# 1 65.6565 4.7511 26.2090 3.6526 -0.0197 15.1542
# 2 4.7511 45.1367 4.7052 8.3202 1.0759 10.7753
# 3 26.2090 4.7052 87.6145 9.0722 -3.3096 0.7939
# 4 3.6526 8.3202 9.0722 30.4558 1.2792 0.2687
# 5 -0.0197 1.0759 -3.3096 1.2792 31.2647 0.9191
# 6 15.1542 10.7753 0.7939 0.2687 0.9191 24.2786
#
#
#
# Elastic Compliance Matrix: (Units=1/GPa)
#
#
# Indices 1 2 3 4 5 6 
#
# 1 0.020702 0.001887 -0.006071 -0.001060 -0.000253 -0.013539
# 2 0.001887 0.026421 -0.001160 -0.006970 -0.000370 -0.012775
# 3 -0.006071 -0.001160 0.013636 -0.003114 0.001494 0.003836
# 4 -0.001060 -0.006970 -0.003114 0.035832 -0.001660 0.003523
# 5 -0.000253 -0.000370 0.001494 -0.001660 0.032251 -0.000929
# 6 -0.013539 -0.012775 0.003836 0.003523 -0.000929 0.055180
#
#
# Mechanical properties :
#
#
# Convention : Reuss Voigt Hill
#
# Bulk Modulus (GPa) = 19.97165 29.97091 24.97128
# Shear Modulus (GPa) = 23.65196 28.04932 25.85064
#
# Velocity S-wave (km/s) = 3.38776 3.68926 3.54172
# Velocity P-wave (km/s) = 4.99936 5.71757 5.37049
#
# Compressibility (1/GPa) = 0.05007098
#
# Stress axis : x y z
#
# Youngs Moduli (GPa) = 48.30536 37.84924 73.33460
#
# Poissons Ratio (x) = -0.07144 0.44523
# Poissons Ratio (y) = -0.09117 0.08506
# Poissons Ratio (z) = 0.29327 0.04390
#
# Static dielectric constant tensor:
#      x y z
#    x 1.759610 0.009600 -0.007770 
#    y 0.009600 1.736950 0.030040 
#    z -0.007770 0.030040 1.792340 
# 
# From -- ./inp_files/370817.got.cif
#   From: 2010.05.17/outbox.cif.g08.bks.cpg/sg2_186_cif.got.tgz:370817.got - 2010.06.03 11:33:40.
