data_PCOD9099878
_publ_section_title
;
Structure prediction by ZEFSAII (Michael W. Deem and Ramdas Pophale) SiO2 
 PCOD9099878
Probable space group: P -1
;
_chemical_formula_sum "Si O2"
_cell_formula_units_Z 14
_cell_length_a 9.993507
_cell_length_b 14.733240
_cell_length_c 4.891797
_cell_angle_alpha 79.033714
_cell_angle_beta 111.396531
_cell_angle_gamma 96.870717
_cell_volume 657.370358
_symmetry_space_group_name_H-M "P -1"
_symmetry_group_IT_number 2
_symmetry_cell_setting 'triclinic'
loop_
_space_group_symop_operation_xyz
x,y,z
-x,-y,-z
loop_
_atom_site_type_symbol
_atom_site_label
_atom_site_fract_x
_atom_site_fract_y
_atom_site_fract_z
Si Si1 0.974341 0.901946 0.176185
Si Si2 0.109731 0.196933 0.337079
Si Si3 0.009814 0.590968 0.270463
Si Si4 0.416360 0.645677 0.830674
Si Si5 0.289931 0.543006 0.283729
Si Si6 0.161874 0.759869 0.616051
Si Si7 0.729624 0.644869 0.276369
O O1 0.874782 0.836643 0.938089
O O2 0.900030 0.893647 0.421261
O O3 0.124342 0.851969 0.370202
O O4 0.000000 0.000000 0.000000
O O5 0.209456 0.273225 0.524232
O O6 0.152548 0.376684 0.859274
O O7 0.946639 0.233174 0.213047
O O8 0.121229 0.567040 0.128338
O O9 0.095231 0.672731 0.448964
O O10 0.000000 0.500000 0.500000
O O11 0.377394 0.614649 0.511529
O O12 0.323469 0.732886 0.796391
O O13 0.359344 0.559911 0.031215
O O14 0.582211 0.665003 0.007459
O O15 0.294001 0.444836 0.492747
#
# Coordination Sequence:
#
# PCOD9099878 Si02
#       7
#     2   2   2   2   2   2   2
#     4  10  20  37  62  84 106 140 190 241 285 344
#     4   9  21  35  58  84 110 138 189 234 290 333
#     4   8  16  35  52  79 111 150 186 232 270 321
#     4  11  22  36  56  82 119 159 194 232 278 336
#     4  10  22  37  54  80 118 164 201 225 273 335
#     4   8  20  33  55  80 111 144 193 220 283 338
#     4  10  20  38  56  86 117 155 192 244 278 330
#
# _framework density 21.296975
#
# number of rings (size 3 to 8) (size 9 to 14) (size 15 to 20)
#    0.857    1.714    0.000    1.286    4.000    2.286 
#    2.571   10.000    0.000    1.714    0.000    0.000 
#    0.000    0.000    0.000    0.000    0.000    0.000 
#
# Total GULP energy -78111.235857 kJ/mol
# GULP energy per Si atom -5579.373990 kJ/mol
# Density = 2.124850 g / cm^3
# Si number density = 21.296975 Si / 1000 Ang^3
#
#
#
# Elastic Constant Matrix: (Units=GPa)
#
#
# Indices 1 2 3 4 5 6 
#
# 1 107.9856 13.5243 33.5762 14.4176 34.3158 13.4843
# 2 13.5243 59.5609 31.3964 -6.4657 12.7090 4.1226
# 3 33.5762 31.3964 103.4545 0.9220 10.5627 2.3433
# 4 14.4176 -6.4657 0.9220 43.5814 -3.5807 -0.5489
# 5 34.3158 12.7090 10.5627 -3.5807 40.6701 8.6675
# 6 13.4843 4.1226 2.3433 -0.5489 8.6675 13.6373
#
#
#
# Elastic Compliance Matrix: (Units=1/GPa)
#
#
# Indices 1 2 3 4 5 6 
#
# 1 0.015857 0.000849 -0.004001 -0.006074 -0.011380 -0.008260
# 2 0.000849 0.021419 -0.006228 0.002586 -0.004923 -0.003012
# 3 -0.004001 -0.006228 0.012639 0.000288 0.001482 0.002737
# 4 -0.006074 0.002586 0.000288 0.025856 0.006008 0.002397
# 5 -0.011380 -0.004923 0.001482 0.006008 0.038355 -0.011650
# 6 -0.008260 -0.003012 0.002737 0.002397 -0.011650 0.089437
#
#
# Mechanical properties :
#
#
# Convention : Reuss Voigt Hill
#
# Bulk Modulus (GPa) = 32.09736 47.55495 39.82616
# Shear Modulus (GPa) = 21.48606 32.41136 26.94871
#
# Velocity S-wave (km/s) = 3.17973 3.90536 3.56107
# Velocity P-wave (km/s) = 5.34649 6.53557 5.97070
#
# Compressibility (1/GPa) = 0.03115521
#
# Stress axis : x y z
#
# Youngs Moduli (GPa) = 63.06356 46.68664 79.12101
#
# Poissons Ratio (x) = -0.03964 0.31656
# Poissons Ratio (y) = -0.05354 0.49278
# Poissons Ratio (z) = 0.25231 0.29077
#
# Static dielectric constant tensor:
#      x y z
#    x 1.854620 -0.016880 0.013110 
#    y -0.016880 1.782970 -0.010730 
#    z 0.013110 -0.010730 1.819620 
# 
# From -- ./inp_files/62405.got.cif
#   From: 2010.05.17/outbox.cif.g08.bks.cpg/sg2_32_cif.got.tgz:62405.got - 2010.06.03 11:33:40.
