data_PCOD9099352
_publ_section_title
;
Structure prediction by ZEFSAII (Michael W. Deem and Ramdas Pophale) SiO2 
 PCOD9099352
Probable space group: P -1
;
_chemical_formula_sum "Si O2"
_cell_formula_units_Z 16
_cell_length_a 9.842690
_cell_length_b 15.307232
_cell_length_c 19.338839
_cell_angle_alpha 166.388011
_cell_angle_beta 104.940258
_cell_angle_gamma 73.485795
_cell_volume 655.230240
_symmetry_space_group_name_H-M "P -1"
_symmetry_group_IT_number 2
_symmetry_cell_setting 'triclinic'
loop_
_space_group_symop_operation_xyz
x,y,z
-x,-y,-z
loop_
_atom_site_type_symbol
_atom_site_label
_atom_site_fract_x
_atom_site_fract_y
_atom_site_fract_z
Si Si1 0.577841 0.955513 0.901636
Si Si2 0.403418 0.040751 0.685436
Si Si3 0.339469 0.928226 0.749978
Si Si4 0.117515 0.043019 0.105141
Si Si5 0.387243 0.938807 0.378924
Si Si6 0.913515 0.011492 0.664246
Si Si7 0.114642 0.083242 0.634153
Si Si8 0.962097 0.094431 0.257814
O O1 0.456818 0.104784 0.944985
O O2 0.626912 0.508185 0.560331
O O3 0.725715 0.106127 0.018694
O O4 0.500000 0.000000 0.000000
O O5 0.553575 0.916622 0.573906
O O6 0.280539 0.933469 0.535914
O O7 0.372705 0.939098 0.681449
O O8 0.391585 0.491875 0.032276
O O9 0.176063 0.077808 0.864904
O O10 0.105931 0.493581 0.460552
O O11 0.058609 0.896380 0.056438
O O12 0.000000 0.000000 0.000000
O O13 0.219961 0.092922 0.476662
O O14 0.500000 0.000000 0.500000
O O15 0.059367 0.917477 0.569656
O O16 0.894407 0.466575 0.017022
O O17 0.936703 0.866391 0.633220
O O18 0.000000 0.000000 0.500000
#
# Coordination Sequence:
#
# PCOD9099352 Si02
#       8
#     2   2   2   2   2   2   2   2
#     4  10  22  40  62  88 117 155 199 242 294 357
#     4  10  21  39  59  84 120 155 197 244 294 350
#     4  10  21  40  62  85 120 156 194 248 297 348
#     4  10  22  40  61  88 122 154 193 245 297 356
#     4  10  22  39  57  84 122 157 196 244 294 349
#     4  10  21  37  59  88 116 155 195 243 296 350
#     4  10  20  37  60  86 118 151 195 245 292 350
#     4  10  21  40  61  87 122 154 192 247 299 351
#
# _framework density 24.418897999999999
#
# number of rings (size 3 to 8) (size 9 to 14) (size 15 to 20)
#    0.000    2.000    1.250    1.500    1.750    3.000 
#    4.500    0.000    0.000    0.000    0.000    0.000 
#    0.000    0.000    0.000    0.000    0.000    0.000 
#
# Total GULP energy -89340.050904 kJ/mol
# GULP energy per Si atom -5583.753182 kJ/mol
# Density = 2.436332 g / cm^3
# Si number density = 24.418898 Si / 1000 Ang^3
#
#
#
# Elastic Constant Matrix: (Units=GPa)
#
#
# Indices 1 2 3 4 5 6 
#
# 1 191.3078 62.9244 31.6608 -17.4822 12.7476 -4.2670
# 2 62.9244 127.0392 9.2688 -22.2098 8.8484 4.0387
# 3 31.6608 9.2688 49.3135 2.8137 10.6358 -7.6244
# 4 -17.4822 -22.2098 2.8137 43.4312 -6.6766 5.3595
# 5 12.7476 8.8484 10.6358 -6.6766 32.0934 -10.3501
# 6 -4.2670 4.0387 -7.6244 5.3595 -10.3501 42.0509
#
#
#
# Elastic Compliance Matrix: (Units=1/GPa)
#
#
# Indices 1 2 3 4 5 6 
#
# 1 0.006995 -0.002880 -0.003964 0.001548 -0.000354 -0.000017
# 2 -0.002880 0.010216 -0.000346 0.004144 -0.001409 -0.002211
# 3 -0.003964 -0.000346 0.025080 -0.004805 -0.006622 0.003161
# 4 0.001548 0.004144 -0.004805 0.027181 0.004360 -0.003503
# 5 -0.000354 -0.001409 -0.006622 0.004360 0.037209 0.007501
# 6 -0.000017 -0.002211 0.003161 -0.003503 0.007501 0.026857
#
#
# Mechanical properties :
#
#
# Convention : Reuss Voigt Hill
#
# Bulk Modulus (GPa) = 35.82762 63.92983 49.87872
# Shear Modulus (GPa) = 31.80238 41.10222 36.45230
#
# Velocity S-wave (km/s) = 3.61275 4.10715 3.86786
# Velocity P-wave (km/s) = 5.66626 6.98061 6.35749
#
# Compressibility (1/GPa) = 0.02791142
#
# Stress axis : x y z
#
# Youngs Moduli (GPa) = 142.95700 97.88495 39.87305
#
# Poissons Ratio (x) = 0.28189 0.15807
# Poissons Ratio (y) = 0.41169 0.01378
# Poissons Ratio (z) = 0.56672 0.03383
#
# Static dielectric constant tensor:
#      x y z
#    x 1.930570 0.030370 0.019160 
#    y 0.030370 1.938460 0.008570 
#    z 0.019160 0.008570 2.007530 
# 
# From -- ./inp_files/227268.got.cif
#   From: 2010.05.17/outbox.cif.g08.bks.cpg/sg2_114_cif.got.tgz:227268.got - 2010.06.03 11:33:40.
