data_PCOD9099657
_publ_section_title
;
Structure prediction by ZEFSAII (Michael W. Deem and Ramdas Pophale) SiO2 
 PCOD9099657
Probable space group: P -1
;
_chemical_formula_sum "Si O2"
_cell_formula_units_Z 16
_cell_length_a 11.535114
_cell_length_b 7.626335
_cell_length_c 8.666537
_cell_angle_alpha 102.289152
_cell_angle_beta 102.480561
_cell_angle_gamma 75.156894
_cell_volume 709.457342
_symmetry_space_group_name_H-M "P -1"
_symmetry_group_IT_number 2
_symmetry_cell_setting 'triclinic'
loop_
_space_group_symop_operation_xyz
x,y,z
-x,-y,-z
loop_
_atom_site_type_symbol
_atom_site_label
_atom_site_fract_x
_atom_site_fract_y
_atom_site_fract_z
Si Si1 0.717655 0.079515 0.741528
Si Si2 0.252647 0.251356 0.723495
Si Si3 0.845149 0.364701 0.359601
Si Si4 0.318953 0.551172 0.370268
Si Si5 0.917236 0.911792 0.568931
Si Si6 0.355198 0.728130 0.922481
Si Si7 0.413408 0.196088 0.484642
Si Si8 0.631718 0.647155 0.957153
O O1 0.655680 0.253296 0.644387
O O2 0.857256 0.037856 0.717138
O O3 0.684433 0.883558 0.661481
O O4 0.684466 0.141769 0.916939
O O5 0.166489 0.449682 0.707305
O O6 0.189021 0.115985 0.583707
O O7 0.370969 0.254990 0.655743
O O8 0.297498 0.221206 0.904937
O O9 0.786888 0.410758 0.522980
O O10 0.752267 0.253814 0.230779
O O11 0.986489 0.267651 0.381975
O O12 0.421634 0.384363 0.440084
O O13 0.294837 0.454331 0.185584
O O14 0.000000 0.000000 0.500000
O O15 0.370360 0.521656 0.957366
O O16 0.489438 0.738822 0.901059
O O17 0.500000 0.000000 0.500000
#
# Coordination Sequence:
#
# PCOD9099657 Si02
#       8
#     2   2   2   2   2   2   2   2
#     4  10  21  39  59  83 119 156 195 249 293 350
#     4   9  20  38  61  83 120 155 195 248 296 350
#     4  10  20  37  61  88 114 159 203 240 297 349
#     4  10  21  38  60  85 120 157 198 239 295 355
#     4  11  21  38  60  85 116 154 205 250 290 345
#     4   9  19  35  61  88 121 152 194 243 297 361
#     4  10  21  36  57  89 118 153 198 240 295 362
#     4   9  18  37  60  89 119 155 192 240 300 357
#
# _framework density 22.552447000000001
#
# number of rings (size 3 to 8) (size 9 to 14) (size 15 to 20)
#    0.000    2.250    1.250    1.125    0.000    5.500 
#    2.250    1.875    2.750    0.000    0.000    0.000 
#    0.000    0.000    0.000    0.000    0.000    0.000 
#
# Total GULP energy -89098.819888 kJ/mol
# GULP energy per Si atom -5568.676243 kJ/mol
# Density = 2.250112 g / cm^3
# Si number density = 22.552447 Si / 1000 Ang^3
#
#
#
# Elastic Constant Matrix: (Units=GPa)
#
#
# Indices 1 2 3 4 5 6 
#
# 1 45.7976 15.7797 43.2797 7.3652 -4.2811 -8.4488
# 2 15.7797 102.3605 13.4234 -0.9341 -8.7478 -8.7213
# 3 43.2797 13.4234 129.7484 27.5534 -11.0832 -9.7938
# 4 7.3652 -0.9341 27.5534 32.7100 -6.1054 -0.7289
# 5 -4.2811 -8.7478 -11.0832 -6.1054 22.6589 6.7527
# 6 -8.4488 -8.7213 -9.7938 -0.7289 6.7527 38.7666
#
#
#
# Elastic Compliance Matrix: (Units=1/GPa)
#
#
# Indices 1 2 3 4 5 6 
#
# 1 0.033884 -0.003519 -0.011040 0.001441 -0.001171 0.004035
# 2 -0.003519 0.010720 0.000091 0.001730 0.003668 0.001061
# 3 -0.011040 0.000091 0.013373 -0.008375 0.002093 0.000471
# 4 0.001441 0.001730 -0.008375 0.038782 0.007907 -0.002061
# 5 -0.001171 0.003668 0.002093 0.007907 0.050745 -0.007592
# 6 0.004035 0.001061 0.000471 -0.002061 -0.007592 0.028316
#
#
# Mechanical properties :
#
#
# Convention : Reuss Voigt Hill
#
# Bulk Modulus (GPa) = 34.43433 46.98578 40.71006
# Shear Modulus (GPa) = 23.31704 32.52200 27.91952
#
# Velocity S-wave (km/s) = 3.21892 3.80157 3.52231
# Velocity P-wave (km/s) = 5.39602 6.33628 5.88496
#
# Compressibility (1/GPa) = 0.02904078
#
# Stress axis : x y z
#
# Youngs Moduli (GPa) = 29.51275 93.28692 74.77563
#
# Poissons Ratio (x) = 0.32826 0.82551
# Poissons Ratio (y) = 0.10385 -0.00678
# Poissons Ratio (z) = 0.32582 -0.00846
#
# Static dielectric constant tensor:
#      x y z
#    x 1.952090 0.001300 0.050100 
#    y 0.001300 1.785710 -0.032500 
#    z 0.050100 -0.032500 1.877470 
# 
# From -- ./inp_files/245093.got.cif
#   From: 2010.05.17/outbox.cif.g08.bks.cpg/sg2_123_cif.got.tgz:245093.got - 2010.06.03 11:33:40.
