data_PCOD9099558
_publ_section_title
;
Structure prediction by ZEFSAII (Michael W. Deem and Ramdas Pophale) SiO2 
 PCOD9099558
Probable space group: P -1
;
_chemical_formula_sum "Si O2"
_cell_formula_units_Z 16
_cell_length_a 11.414276
_cell_length_b 8.869013
_cell_length_c 19.913757
_cell_angle_alpha 57.604784
_cell_angle_beta 31.359990
_cell_angle_gamma 69.538633
_cell_volume 858.720344
_symmetry_space_group_name_H-M "P -1"
_symmetry_group_IT_number 2
_symmetry_cell_setting 'triclinic'
loop_
_space_group_symop_operation_xyz
x,y,z
-x,-y,-z
loop_
_atom_site_type_symbol
_atom_site_label
_atom_site_fract_x
_atom_site_fract_y
_atom_site_fract_z
Si Si1 0.924510 0.386655 0.132416
Si Si2 0.614014 0.010948 0.185216
Si Si3 0.670806 0.676549 0.407362
Si Si4 0.744787 0.843874 0.928992
Si Si5 0.368832 0.946072 0.182237
Si Si6 0.495429 0.958618 0.616982
Si Si7 0.097108 0.174422 0.622044
Si Si8 0.901851 0.719710 0.148153
O O1 0.723234 0.206222 0.257327
O O2 0.840656 0.517439 0.195212
O O3 0.143287 0.324060 0.071523
O O4 0.000000 0.500000 0.000000
O O5 0.497248 0.032588 0.308037
O O6 0.442488 0.987520 0.212162
O O7 0.728977 0.836485 0.175827
O O8 0.836531 0.181286 0.024420
O O9 0.500000 0.500000 0.500000
O O10 0.769654 0.656172 0.437931
O O11 0.873017 0.725401 0.240777
O O12 0.546814 0.845921 0.432273
O O13 0.638036 0.869968 0.901741
O O14 0.559090 0.862047 0.071399
O O15 0.958537 0.025892 0.779783
O O16 0.113146 0.812424 0.327255
O O17 0.722038 0.914090 0.484628
#
# Coordination Sequence:
#
# PCOD9099558 Si02
#       8
#     2   2   2   2   2   2   2   2
#     4  12  21  37  61  92 121 149 194 251 295 347
#     4  10  20  38  57  88 116 158 196 243 296 340
#     4  11  22  35  59  88 118 150 196 250 298 344
#     4   9  20  35  62  87 110 159 198 233 293 350
#     4   9  19  37  62  82 116 162 199 234 290 361
#     4  11  22  36  58  88 119 153 196 245 297 346
#     4  10  20  37  61  82 118 156 189 241 293 354
#     4  10  22  34  61  86 120 148 198 252 291 345
#
# _framework density 18.632376000000001
#
# number of rings (size 3 to 8) (size 9 to 14) (size 15 to 20)
#    0.750    1.000    2.500    2.625    3.500    0.500 
#    0.000    0.625    2.750   10.500    0.000    0.000 
#    0.000    0.000    0.000    0.000    0.000    0.000 
#
# Total GULP energy -89193.605540 kJ/mol
# GULP energy per Si atom -5574.600346 kJ/mol
# Density = 1.858997 g / cm^3
# Si number density = 18.632376 Si / 1000 Ang^3
#
#
#
# Elastic Constant Matrix: (Units=GPa)
#
#
# Indices 1 2 3 4 5 6 
#
# 1 148.6661 52.3899 33.5824 12.1011 -3.7876 26.8115
# 2 52.3899 94.9513 31.2954 1.6069 -13.1316 13.9009
# 3 33.5824 31.2954 76.6216 17.4077 -13.3321 8.2116
# 4 12.1011 1.6069 17.4077 28.1497 2.0879 1.7558
# 5 -3.7876 -13.1316 -13.3321 2.0879 19.0089 0.0361
# 6 26.8115 13.9009 8.2116 1.7558 0.0361 21.8384
#
#
#
# Elastic Compliance Matrix: (Units=1/GPa)
#
#
# Indices 1 2 3 4 5 6 
#
# 1 0.010345 -0.003978 -0.001590 -0.002541 -0.001505 -0.009364
# 2 -0.003978 0.015375 -0.003515 0.002719 0.007072 -0.003812
# 3 -0.001590 -0.003515 0.020622 -0.012681 0.013116 -0.002566
# 4 -0.002541 0.002719 -0.012681 0.045069 -0.012477 0.002554
# 5 -0.001505 0.007072 0.013116 -0.012477 0.067775 -0.006694
# 6 -0.009364 -0.003812 -0.002566 0.002554 -0.006694 0.060484
#
#
# Mechanical properties :
#
#
# Convention : Reuss Voigt Hill
#
# Bulk Modulus (GPa) = 35.49242 61.64160 48.56701
# Shear Modulus (GPa) = 20.22418 27.33081 23.77749
#
# Velocity S-wave (km/s) = 3.29816 3.83410 3.57618
# Velocity P-wave (km/s) = 5.79603 7.26328 6.57074
#
# Compressibility (1/GPa) = 0.02817503
#
# Stress axis : x y z
#
# Youngs Moduli (GPa) = 96.66768 65.03985 48.49133
#
# Poissons Ratio (x) = 0.25872 0.07712
# Poissons Ratio (y) = 0.38454 0.17046
# Poissons Ratio (z) = 0.15374 0.22863
#
# Static dielectric constant tensor:
#      x y z
#    x 1.661400 -0.000470 0.004250 
#    y -0.000470 1.634950 -0.024070 
#    z 0.004250 -0.024070 1.679740 
# 
# From -- ./inp_files/593144.got.cif
#   From: 2010.05.17/outbox.cif.g08.bks.cpg/sg2_297_cif.got.tgz:593144.got - 2010.06.03 11:33:40.
