data_PCOD9099142
_publ_section_title
;
Structure prediction by ZEFSAII (Michael W. Deem and Ramdas Pophale) SiO2 
 PCOD9099142
Probable space group: P -1
;
_chemical_formula_sum "Si O2"
_cell_formula_units_Z 14
_cell_length_a 11.837361
_cell_length_b 11.995431
_cell_length_c 11.390971
_cell_angle_alpha 139.523415
_cell_angle_beta 96.628978
_cell_angle_gamma 115.378574
_cell_volume 624.524384
_symmetry_space_group_name_H-M "P -1"
_symmetry_group_IT_number 2
_symmetry_cell_setting 'triclinic'
loop_
_space_group_symop_operation_xyz
x,y,z
-x,-y,-z
loop_
_atom_site_type_symbol
_atom_site_label
_atom_site_fract_x
_atom_site_fract_y
_atom_site_fract_z
Si Si1 0.255959 0.652155 0.966844
Si Si2 0.406807 0.458767 0.574249
Si Si3 0.263545 0.913958 0.771631
Si Si4 0.434264 0.174212 0.517637
Si Si5 0.837958 0.142351 0.546998
Si Si6 0.848742 0.545645 0.471111
Si Si7 0.315141 0.393000 0.920854
O O1 0.223944 0.597590 0.781273
O O2 0.294842 0.516682 0.922733
O O3 0.051217 0.467428 0.842812
O O4 0.415539 0.981223 0.284526
O O5 0.500000 0.500000 0.500000
O O6 0.372717 0.261443 0.501669
O O7 0.220324 0.344234 0.431610
O O8 0.555962 0.768418 0.901999
O O9 0.254081 0.904941 0.622816
O O10 0.246155 0.700398 0.646395
O O11 0.074064 0.784896 0.689950
O O12 0.292280 0.977521 0.453267
O O13 0.637024 0.462880 0.832753
O O14 0.848454 0.947026 0.374184
O O15 0.500000 0.500000 0.000000
#
# Coordination Sequence:
#
# PCOD9099142 Si02
#       7
#     2   2   2   2   2   2   2
#     4  11  22  39  65  94 125 169 212 259 325 379
#     4  12  25  44  66  94 130 172 220 266 329 385
#     4  10  22  43  67  98 125 171 221 260 328 382
#     4  11  23  40  61  96 132 160 211 269 316 382
#     4  10  21  40  65  92 127 168 208 261 321 388
#     4  10  23  43  69  92 130 172 219 271 313 390
#     4  10  20  37  59  86 123 161 204 258 310 371
#
# _framework density 22.417061
#
# number of rings (size 3 to 8) (size 9 to 14) (size 15 to 20)
#    0.000    1.429    1.429    4.286    2.000    1.714 
#    2.571    0.000    0.000    0.000    0.000    0.000 
#    0.000    0.000    0.000    0.000    0.000    0.000 
#
# Total GULP energy -78339.251045 kJ/mol
# GULP energy per Si atom -5595.660789 kJ/mol
# Density = 2.236604 g / cm^3
# Si number density = 22.417061 Si / 1000 Ang^3
#
#
#
# Elastic Constant Matrix: (Units=GPa)
#
#
# Indices 1 2 3 4 5 6 
#
# 1 59.5477 25.0687 -4.4232 3.8877 13.7565 -11.9710
# 2 25.0687 121.4079 -26.2388 2.5219 6.3447 -26.0764
# 3 -4.4232 -26.2388 59.3810 5.8393 3.7954 -4.3598
# 4 3.8877 2.5219 5.8393 22.8831 -6.0399 -1.7757
# 5 13.7565 6.3447 3.7954 -6.0399 17.1080 2.1135
# 6 -11.9710 -26.0764 -4.3598 -1.7757 2.1135 45.8721
#
#
#
# Elastic Compliance Matrix: (Units=1/GPa)
#
#
# Indices 1 2 3 4 5 6 
#
# 1 0.026103 -0.001073 0.004923 -0.012088 -0.026870 0.007440
# 2 -0.001073 0.011935 0.006620 -0.004214 -0.007424 0.007313
# 3 0.004923 0.006620 0.022823 -0.011115 -0.016332 0.007539
# 4 -0.012088 -0.004214 -0.011115 0.057801 0.034893 -0.005977
# 5 -0.026870 -0.007424 -0.016332 0.034893 0.100739 -0.016075
# 6 0.007440 0.007313 0.007539 -0.005977 -0.016075 0.029124
#
#
# Mechanical properties :
#
#
# Convention : Reuss Voigt Hill
#
# Bulk Modulus (GPa) = 12.22498 25.46111 18.84305
# Shear Modulus (GPa) = 19.61931 33.56796 26.59364
#
# Velocity S-wave (km/s) = 2.96158 3.87386 3.44803
# Velocity P-wave (km/s) = 4.14245 5.60282 4.92704
#
# Compressibility (1/GPa) = 0.08179972
#
# Stress axis : x y z
#
# Youngs Moduli (GPa) = 38.31017 83.78776 43.81636
#
# Poissons Ratio (x) = 0.08987 -0.21570
# Poissons Ratio (y) = 0.04109 -0.29005
# Poissons Ratio (z) = -0.18859 -0.55464
#
# Static dielectric constant tensor:
#      x y z
#    x 1.855870 0.025380 -0.002460 
#    y 0.025380 1.809620 0.018560 
#    z -0.002460 0.018560 1.848460 
# 
# From -- ./inp_files/357099.got.cif
#   From: 2010.05.17/outbox.cif.g08.bks.cpg/sg2_179_cif.got.tgz:357099.got - 2010.06.03 11:33:40.
