data_PCOD9099096
_publ_section_title
;
Structure prediction by ZEFSAII (Michael W. Deem and Ramdas Pophale) SiO2 
 PCOD9099096
Probable space group: P -1
;
_chemical_formula_sum "Si O2"
_cell_formula_units_Z 16
_cell_length_a 21.895119
_cell_length_b 7.700868
_cell_length_c 8.733474
_cell_angle_alpha 106.785624
_cell_angle_beta 144.426106
_cell_angle_gamma 58.452715
_cell_volume 701.731987
_symmetry_space_group_name_H-M "P -1"
_symmetry_group_IT_number 2
_symmetry_cell_setting 'triclinic'
loop_
_space_group_symop_operation_xyz
x,y,z
-x,-y,-z
loop_
_atom_site_type_symbol
_atom_site_label
_atom_site_fract_x
_atom_site_fract_y
_atom_site_fract_z
Si Si1 0.507020 0.721227 0.073800
Si Si2 0.193163 0.754755 0.920409
Si Si3 0.142748 0.538931 0.327708
Si Si4 0.650959 0.773166 0.139387
Si Si5 0.031153 0.248431 0.709856
Si Si6 0.722800 0.571925 0.717540
Si Si7 0.285649 0.757061 0.797602
Si Si8 0.774872 0.785792 0.108969
O O1 0.568204 0.686082 0.020442
O O2 0.609975 0.628531 0.391501
O O3 0.401348 0.677075 0.900084
O O4 0.436789 0.978867 0.002911
O O5 0.294226 0.691111 0.976499
O O6 0.078755 0.750370 0.607723
O O7 0.133487 0.005080 0.897235
O O8 0.246246 0.607780 0.139286
O O9 0.244185 0.304720 0.536807
O O10 0.158243 0.519687 0.173515
O O11 0.192250 0.697085 0.516846
O O12 0.023100 0.625116 0.210028
O O13 0.733218 0.687149 0.133183
O O14 0.095320 0.326512 0.741032
O O15 0.693325 0.785941 0.801014
O O16 0.236249 0.006572 0.784937
#
# Coordination Sequence:
#
# PCOD9099096 Si02
#       8
#     2   2   2   2   2   2   2   2
#     4   9  20  39  57  81 117 149 180 233 278 322
#     4   9  19  37  59  85 110 145 189 230 275 333
#     4  10  21  38  58  85 113 145 189 231 271 334
#     4   9  19  36  59  79 109 152 189 214 271 344
#     4   9  19  38  59  77 113 153 184 224 277 338
#     4  11  23  35  54  87 119 140 184 240 278 316
#     4   9  19  38  61  80 109 154 192 214 272 350
#     4  10  20  37  59  85 110 146 191 229 274 334
#
# _framework density 22.800727999999999
#
# number of rings (size 3 to 8) (size 9 to 14) (size 15 to 20)
#    0.000    2.500    0.000    2.250    0.000    7.500 
#    0.000   17.500    0.000    0.000    0.000    0.000 
#    0.000    0.000    0.000    0.000    0.000    0.000 
#
# Total GULP energy -89091.032596 kJ/mol
# GULP energy per Si atom -5568.189537 kJ/mol
# Density = 2.274883 g / cm^3
# Si number density = 22.800728 Si / 1000 Ang^3
#
#
#
# Elastic Constant Matrix: (Units=GPa)
#
#
# Indices 1 2 3 4 5 6 
#
# 1 224.5838 34.2948 29.9478 -17.6141 4.1278 19.0628
# 2 34.2948 77.3577 38.7011 -15.9038 -8.0191 7.5235
# 3 29.9478 38.7011 46.0509 -11.9743 -8.5354 12.2914
# 4 -17.6141 -15.9038 -11.9743 30.8648 3.0427 6.2285
# 5 4.1278 -8.0191 -8.5354 3.0427 38.6279 2.7139
# 6 19.0628 7.5235 12.2914 6.2285 2.7139 44.6902
#
#
#
# Elastic Compliance Matrix: (Units=1/GPa)
#
#
# Indices 1 2 3 4 5 6 
#
# 1 0.005180 -0.000891 -0.001752 0.002302 -0.001179 -0.001827
# 2 -0.000891 0.023101 -0.017824 0.004270 0.000562 0.000764
# 3 -0.001752 -0.017824 0.043708 0.008137 0.006191 -0.009784
# 4 0.002302 0.004270 0.008137 0.041029 -0.000115 -0.009650
# 5 -0.001179 0.000562 0.006191 -0.000115 0.027716 -0.002962
# 6 -0.001827 0.000764 -0.009784 -0.009650 -0.002962 0.027243
#
#
# Mechanical properties :
#
#
# Convention : Reuss Voigt Hill
#
# Bulk Modulus (GPa) = 32.20060 61.54220 46.87140
# Shear Modulus (GPa) = 22.80379 39.17314 30.98846
#
# Velocity S-wave (km/s) = 3.16592 4.14945 3.69060
# Velocity P-wave (km/s) = 5.24570 7.07158 6.22594
#
# Compressibility (1/GPa) = 0.03105533
#
# Stress axis : x y z
#
# Youngs Moduli (GPa) = 193.06427 43.28825 22.87894
#
# Poissons Ratio (x) = 0.03857 0.04008
# Poissons Ratio (y) = 0.17204 0.40779
# Poissons Ratio (z) = 0.33821 0.77156
#
# Static dielectric constant tensor:
#      x y z
#    x 1.907100 -0.019920 0.054310 
#    y -0.019920 1.975870 0.003660 
#    z 0.054310 0.003660 1.829730 
# 
# From -- ./inp_files/341116.got.cif
#   From: 2010.05.17/outbox.cif.g08.bks.cpg/sg2_171_cif.got.tgz:341116.got - 2010.06.03 11:33:40.
