data_PCOD9099717
_publ_section_title
;
Structure prediction by ZEFSAII (Michael W. Deem and Ramdas Pophale) SiO2 
 PCOD9099717
Probable space group: P -1
;
_chemical_formula_sum "Si O2"
_cell_formula_units_Z 16
_cell_length_a 13.726041
_cell_length_b 10.745561
_cell_length_c 13.774700
_cell_angle_alpha 149.392158
_cell_angle_beta 50.592409
_cell_angle_gamma 137.005035
_cell_volume 705.344784
_symmetry_space_group_name_H-M "P -1"
_symmetry_group_IT_number 2
_symmetry_cell_setting 'triclinic'
loop_
_space_group_symop_operation_xyz
x,y,z
-x,-y,-z
loop_
_atom_site_type_symbol
_atom_site_label
_atom_site_fract_x
_atom_site_fract_y
_atom_site_fract_z
Si Si1 0.679354 0.072495 0.060950
Si Si2 0.686454 0.740384 0.655106
Si Si3 0.315984 0.718101 0.427070
Si Si4 0.474413 0.493772 0.898651
Si Si5 0.207479 0.119658 0.710984
Si Si6 0.171724 0.629026 0.649570
Si Si7 0.967394 0.793184 0.791576
Si Si8 0.360363 0.405741 0.622148
O O1 0.800619 0.205852 0.156574
O O2 0.632523 0.306135 0.224324
O O3 0.718219 0.979231 0.872538
O O4 0.555933 0.795238 0.000991
O O5 0.802719 0.632146 0.521075
O O6 0.522326 0.498191 0.617435
O O7 0.678082 0.789841 0.579189
O O8 0.459737 0.700925 0.312819
O O9 0.293112 0.791174 0.600502
O O10 0.194542 0.402254 0.267876
O O11 0.272754 0.906195 0.514715
O O12 0.310110 0.352280 0.878327
O O13 0.500000 0.500000 0.000000
O O14 0.239309 0.271860 0.690232
O O15 0.057062 0.961310 0.753873
O O16 0.033318 0.598041 0.660103
O O17 0.000000 0.000000 0.000000
#
# Coordination Sequence:
#
# PCOD9099717 Si02
#       8
#     2   2   2   2   2   2   2   2
#     4  11  21  38  62  92 139 168 208 264 327 385
#     4  10  20  37  61  89 132 171 208 260 325 385
#     4  11  22  42  64  91 132 171 206 267 335 386
#     4  12  23  36  63 103 131 164 213 271 323 380
#     4  11  22  39  62  96 133 163 218 270 314 391
#     4  10  20  37  64  90 116 169 216 253 316 388
#     4  11  24  43  66  95 127 177 214 266 337 393
#     4  10  22  38  60  96 130 178 213 258 327 383
#
# _framework density 22.683941000000001
#
# number of rings (size 3 to 8) (size 9 to 14) (size 15 to 20)
#    0.000    1.250    2.500    5.250    0.000    4.000 
#    2.250    0.000    0.000   18.750    0.000    0.000 
#    0.000    0.000    0.000    0.000    0.000    0.000 
#
# Total GULP energy -89397.426030 kJ/mol
# GULP energy per Si atom -5587.339127 kJ/mol
# Density = 2.263231 g / cm^3
# Si number density = 22.683941 Si / 1000 Ang^3
#
#
#
# Elastic Constant Matrix: (Units=GPa)
#
#
# Indices 1 2 3 4 5 6 
#
# 1 66.6494 17.5770 21.7520 -8.1518 13.6583 -9.3235
# 2 17.5770 76.1128 22.7694 -0.1373 7.4762 -12.4966
# 3 21.7520 22.7694 112.4612 -14.1637 26.6303 -15.3646
# 4 -8.1518 -0.1373 -14.1637 32.1682 -11.7682 3.6282
# 5 13.6583 7.4762 26.6303 -11.7682 46.5043 -1.3074
# 6 -9.3235 -12.4966 -15.3646 3.6282 -1.3074 39.6050
#
#
#
# Elastic Compliance Matrix: (Units=1/GPa)
#
#
# Indices 1 2 3 4 5 6 
#
# 1 0.017507 -0.002917 -0.001423 0.002367 -0.003193 0.002326
# 2 -0.002917 0.015087 -0.002110 -0.002301 -0.000846 0.003438
# 3 -0.001423 -0.002110 0.011545 0.002486 -0.005138 0.003081
# 4 0.002367 -0.002301 0.002486 0.035662 0.007213 -0.002233
# 5 -0.003193 -0.000846 -0.005138 0.007213 0.027267 -0.002773
# 6 0.002326 0.003438 0.003081 -0.002233 -0.002773 0.028190
#
#
# Mechanical properties :
#
#
# Convention : Reuss Voigt Hill
#
# Bulk Modulus (GPa) = 32.01284 42.15781 37.08532
# Shear Modulus (GPa) = 31.53147 36.53051 34.03099
#
# Velocity S-wave (km/s) = 3.73236 4.01735 3.87747
# Velocity P-wave (km/s) = 5.71990 6.33593 6.03578
#
# Compressibility (1/GPa) = 0.03123746
#
# Stress axis : x y z
#
# Youngs Moduli (GPa) = 57.11968 66.28353 86.61595
#
# Poissons Ratio (x) = 0.19336 0.12330
# Poissons Ratio (y) = 0.16663 0.18277
# Poissons Ratio (z) = 0.08131 0.13986
#
# Static dielectric constant tensor:
#      x y z
#    x 1.876900 -0.008270 -0.011990 
#    y -0.008270 1.853610 0.009480 
#    z -0.011990 0.009480 1.898930 
# 
# From -- ./inp_files/532796.got.cif
#   From: 2010.05.17/outbox.cif.g08.bks.cpg/sg2_267_cif.got.tgz:532796.got - 2010.06.03 11:33:40.
