data_PCOD9099329
_publ_section_title
;
Structure prediction by ZEFSAII (Michael W. Deem and Ramdas Pophale) SiO2 
 PCOD9099329
Probable space group: P -1
;
_chemical_formula_sum "Si O2"
_cell_formula_units_Z 16
_cell_length_a 11.139414
_cell_length_b 9.042755
_cell_length_c 14.657848
_cell_angle_alpha 55.205537
_cell_angle_beta 98.287448
_cell_angle_gamma 139.534755
_cell_volume 660.206733
_symmetry_space_group_name_H-M "P -1"
_symmetry_group_IT_number 2
_symmetry_cell_setting 'triclinic'
loop_
_space_group_symop_operation_xyz
x,y,z
-x,-y,-z
loop_
_atom_site_type_symbol
_atom_site_label
_atom_site_fract_x
_atom_site_fract_y
_atom_site_fract_z
Si Si1 0.015582 0.135742 0.043843
Si Si2 0.188020 0.786093 0.494587
Si Si3 0.349184 0.578240 0.064998
Si Si4 0.501065 0.770216 0.280423
Si Si5 0.437810 0.978584 0.614355
Si Si6 0.265087 0.310223 0.650749
Si Si7 0.224948 0.798404 0.022618
Si Si8 0.153385 0.158442 0.351559
O O1 0.956609 0.272253 0.969900
O O2 0.257851 0.419911 0.012958
O O3 0.855338 0.863633 0.203108
O O4 0.000000 0.000000 0.000000
O O5 0.418790 0.020644 0.388711
O O6 0.000000 0.500000 0.500000
O O7 0.216492 0.718616 0.619885
O O8 0.165318 0.967565 0.450277
O O9 0.316817 0.379230 0.203859
O O10 0.598999 0.953143 0.965176
O O11 0.187777 0.539215 0.100459
O O12 0.560289 0.979257 0.293471
O O13 0.588070 0.682877 0.349464
O O14 0.251417 0.421678 0.342311
O O15 0.639058 0.996371 0.127355
O O16 0.590712 0.332548 0.469019
O O17 0.082938 0.094489 0.627621
#
# Coordination Sequence:
#
# PCOD9099329 Si02
#       8
#     2   2   2   2   2   2   2   2
#     4  10  21  37  59  89 116 156 197 239 294 347
#     4  11  23  40  58  83 120 161 190 243 293 346
#     4   9  19  38  61  84 114 153 195 242 292 344
#     4  10  21  38  60  92 112 154 198 240 288 347
#     4  11  23  39  61  86 119 156 198 235 293 356
#     4  10  20  37  60  85 117 153 195 240 286 347
#     4   9  19  39  62  83 122 150 191 248 292 336
#     4  10  20  37  62  83 118 154 193 242 295 342
#
# _framework density 24.234832999999998
#
# number of rings (size 3 to 8) (size 9 to 14) (size 15 to 20)
#    0.000    2.000    2.500    0.750    0.000    2.000 
#    4.500    7.500    0.000    0.000    0.000    0.000 
#    0.000    0.000    0.000    0.000    0.000    0.000 
#
# Total GULP energy -89429.905000 kJ/mol
# GULP energy per Si atom -5589.369062 kJ/mol
# Density = 2.417967 g / cm^3
# Si number density = 24.234833 Si / 1000 Ang^3
#
#
#
# Elastic Constant Matrix: (Units=GPa)
#
#
# Indices 1 2 3 4 5 6 
#
# 1 65.0405 22.8231 22.6059 14.3308 6.9386 13.4977
# 2 22.8231 191.4840 22.9618 40.0025 -19.9892 16.0517
# 3 22.6059 22.9618 56.1829 7.9889 3.7775 -3.8799
# 4 14.3308 40.0025 7.9889 37.6622 -6.0906 1.8412
# 5 6.9386 -19.9892 3.7775 -6.0906 21.3990 12.1607
# 6 13.4977 16.0517 -3.8799 1.8412 12.1607 33.3897
#
#
#
# Elastic Compliance Matrix: (Units=1/GPa)
#
#
# Indices 1 2 3 4 5 6 
#
# 1 0.021702 0.000327 -0.008355 -0.006767 -0.002230 -0.008716
# 2 0.000327 0.009170 -0.004471 -0.006398 0.012739 -0.009347
# 3 -0.008355 -0.004471 0.024840 -0.000172 -0.013477 0.013332
# 4 -0.006767 -0.006398 -0.000172 0.036814 0.005786 0.001654
# 5 -0.002230 0.012739 -0.013477 0.005786 0.085015 -0.038071
# 6 -0.008716 -0.009347 0.013332 0.001654 -0.038071 0.053290
#
#
# Mechanical properties :
#
#
# Convention : Reuss Voigt Hill
#
# Bulk Modulus (GPa) = 32.56119 49.94323 41.25221
# Shear Modulus (GPa) = 18.79224 34.77796 26.78510
#
# Velocity S-wave (km/s) = 2.78766 3.79230 3.32811
# Velocity P-wave (km/s) = 4.88122 6.31096 5.64156
#
# Compressibility (1/GPa) = 0.03071141
#
# Stress axis : x y z
#
# Youngs Moduli (GPa) = 46.07846 109.05551 40.25825
#
# Poissons Ratio (x) = -0.03565 0.33638
# Poissons Ratio (y) = -0.01506 0.18001
# Poissons Ratio (z) = 0.38501 0.48763
#
# Static dielectric constant tensor:
#      x y z
#    x 1.929470 0.013670 -0.003800 
#    y 0.013670 1.981150 -0.005380 
#    z -0.003800 -0.005380 1.993030 
# 
# From -- ./inp_files/315767.got.cif
#   From: 2010.05.17/outbox.cif.g08.bks.cpg/sg2_158_cif.got.tgz:315767.got - 2010.06.03 11:33:40.
