data_PCOD9099064
_publ_section_title
;
Structure prediction by ZEFSAII (Michael W. Deem and Ramdas Pophale) SiO2 
 PCOD9099064
Probable space group: P -1
;
_chemical_formula_sum "Si O2"
_cell_formula_units_Z 16
_cell_length_a 8.276059
_cell_length_b 6.632259
_cell_length_c 22.918502
_cell_angle_alpha 98.418608
_cell_angle_beta 121.768397
_cell_angle_gamma 122.892766
_cell_volume 714.651043
_symmetry_space_group_name_H-M "P -1"
_symmetry_group_IT_number 2
_symmetry_cell_setting 'triclinic'
loop_
_space_group_symop_operation_xyz
x,y,z
-x,-y,-z
loop_
_atom_site_type_symbol
_atom_site_label
_atom_site_fract_x
_atom_site_fract_y
_atom_site_fract_z
Si Si1 0.772521 0.743617 0.350617
Si Si2 0.471412 0.029918 0.719902
Si Si3 0.316831 0.955979 0.412715
Si Si4 0.888885 0.790388 0.027280
Si Si5 0.748329 0.456047 0.433891
Si Si6 0.596153 0.892390 0.058633
Si Si7 0.487078 0.761301 0.807032
Si Si8 0.014815 0.513111 0.775310
O O1 0.715173 0.932989 0.336887
O O2 0.777575 0.695329 0.418188
O O3 0.547359 0.455660 0.252493
O O4 0.059553 0.874750 0.387274
O O5 0.800187 0.320531 0.780640
O O6 0.395237 0.776568 0.656166
O O7 0.385521 0.888627 0.761459
O O8 0.188951 0.695665 0.328717
O O9 0.500000 0.000000 0.500000
O O10 0.526589 0.278998 0.435500
O O11 0.755619 0.852465 0.047685
O O12 0.662779 0.426605 0.971060
O O13 0.187819 0.942269 0.110687
O O14 0.000000 0.000000 0.000000
O O15 0.000000 0.500000 0.500000
O O16 0.814239 0.150729 0.159185
O O17 0.500000 0.000000 0.000000
O O18 0.279158 0.569352 0.814545
#
# Coordination Sequence:
#
# PCOD9099064 Si02
#       8
#     2   2   2   2   2   2   2   2
#     4  10  21  38  62  88 118 166 212 264 324 387
#     4  10  22  39  61  90 122 167 217 266 324 390
#     4  10  20  39  64  90 129 169 214 272 328 389
#     4  11  25  43  69 102 135 179 219 274 341 404
#     4  10  20  37  59  83 122 160 205 266 326 379
#     4  11  24  43  68 101 139 174 226 275 332 405
#     4  10  22  40  62  89 129 165 212 264 325 387
#     4  10  22  39  63  92 127 171 215 268 328 384
#
# _framework density 22.388551
#
# number of rings (size 3 to 8) (size 9 to 14) (size 15 to 20)
#    0.000    1.750    1.250    2.250    0.000    6.500 
#    0.000    4.375    0.000    0.000    0.000    0.000 
#    0.000    0.000    0.000    0.000    0.000    0.000 
#
# Total GULP energy -89083.724633 kJ/mol
# GULP energy per Si atom -5567.732790 kJ/mol
# Density = 2.233759 g / cm^3
# Si number density = 22.388551 Si / 1000 Ang^3
#
#
#
# Elastic Constant Matrix: (Units=GPa)
#
#
# Indices 1 2 3 4 5 6 
#
# 1 42.5632 19.2397 17.1300 -3.4912 -1.8959 15.9721
# 2 19.2397 93.7712 32.5299 -6.8477 -4.8165 6.7400
# 3 17.1300 32.5299 46.8591 18.3916 3.4658 9.5786
# 4 -3.4912 -6.8477 18.3916 46.0214 -1.3600 4.5694
# 5 -1.8959 -4.8165 3.4658 -1.3600 32.4672 2.7108
# 6 15.9721 6.7400 9.5786 4.5694 2.7108 41.8118
#
#
#
# Elastic Compliance Matrix: (Units=1/GPa)
#
#
# Indices 1 2 3 4 5 6 
#
# 1 0.034580 -0.000469 -0.014073 0.009436 0.004787 -0.011251
# 2 -0.000469 0.016974 -0.015331 0.008780 0.004520 -0.000297
# 3 -0.014073 -0.015331 0.046466 -0.022205 -0.009004 0.000213
# 4 0.009436 0.008780 -0.022205 0.033193 0.005944 -0.003946
# 5 0.004787 0.004520 -0.009004 0.005944 0.033236 -0.003299
# 6 -0.011251 -0.000297 0.000213 -0.003946 -0.003299 0.028859
#
#
# Mechanical properties :
#
#
# Convention : Reuss Voigt Hill
#
# Bulk Modulus (GPa) = 26.12846 35.66583 30.89714
# Shear Modulus (GPa) = 18.81036 31.67967 25.24502
#
# Velocity S-wave (km/s) = 2.90173 3.76572 3.36160
# Velocity P-wave (km/s) = 4.78774 5.90530 5.37564
#
# Compressibility (1/GPa) = 0.03827244
#
# Stress axis : x y z
#
# Youngs Moduli (GPa) = 28.91869 58.91452 21.52119
#
# Poissons Ratio (x) = 0.02765 0.30286
# Poissons Ratio (y) = 0.01357 0.32995
# Poissons Ratio (z) = 0.40697 0.90323
#
# Static dielectric constant tensor:
#      x y z
#    x 1.744140 -0.040560 0.037120 
#    y -0.040560 1.789840 0.044800 
#    z 0.037120 0.044800 1.894860 
# 
# From -- ./inp_files/605874.got.cif
#   From: 2010.05.17/outbox.cif.g08.bks.cpg/sg2_303_cif.got.tgz:605874.got - 2010.06.03 11:33:40.
