data_PCOD9099031
_publ_section_title
;
Structure prediction by ZEFSAII (Michael W. Deem and Ramdas Pophale) SiO2 
 PCOD9099031
Probable space group: P -1
;
_chemical_formula_sum "Si O2"
_cell_formula_units_Z 16
_cell_length_a 6.853650
_cell_length_b 8.976355
_cell_length_c 16.266277
_cell_angle_alpha 87.072414
_cell_angle_beta 120.884052
_cell_angle_gamma 56.691367
_cell_volume 635.713149
_symmetry_space_group_name_H-M "P -1"
_symmetry_group_IT_number 2
_symmetry_cell_setting 'triclinic'
loop_
_space_group_symop_operation_xyz
x,y,z
-x,-y,-z
loop_
_atom_site_type_symbol
_atom_site_label
_atom_site_fract_x
_atom_site_fract_y
_atom_site_fract_z
Si Si1 0.634504 0.991940 0.629559
Si Si2 0.904481 0.658937 0.405319
Si Si3 0.442715 0.287522 0.448481
Si Si4 0.606147 0.281630 0.813757
Si Si5 0.625016 0.597974 0.744218
Si Si6 0.335200 0.270914 0.088379
Si Si7 0.059274 0.133213 0.125102
Si Si8 0.691836 0.569166 0.080457
O O1 0.286999 0.134108 0.589963
O O2 0.652377 0.132396 0.572498
O O3 0.716538 0.805008 0.603469
O O4 0.837165 0.913088 0.756063
O O5 0.651147 0.701929 0.288674
O O6 0.000000 0.500000 0.500000
O O7 0.216280 0.519480 0.423410
O O8 0.551811 0.288078 0.381534
O O9 0.645436 0.414756 0.768642
O O10 0.493463 0.362507 0.878114
O O11 0.911873 0.049368 0.888957
O O12 0.497902 0.725523 0.798004
O O13 0.971831 0.510803 0.817641
O O14 0.283738 0.125067 0.110745
O O15 0.454448 0.254809 0.024203
O O16 0.000000 0.500000 0.000000
O O17 0.784585 0.370626 0.065172
#
# Coordination Sequence:
#
# PCOD9099031 Si02
#       8
#     2   2   2   2   2   2   2   2
#     4   9  16  27  55  79  96 142 184 207 260 324
#     4   9  18  32  50  76 104 140 175 211 263 318
#     4  10  16  31  54  74 104 144 172 216 269 309
#     4  11  21  33  59  82 108 143 183 223 269 318
#     4  10  19  35  55  85 109 137 188 223 261 328
#     4   8  17  35  57  76 108 145 177 222 274 321
#     4   9  17  35  53  82 108 138 184 221 261 333
#     4  10  20  40  58  74 111 151 172 223 285 311
#
# _framework density 25.168585
#
# number of rings (size 3 to 8) (size 9 to 14) (size 15 to 20)
#    0.000    2.750    3.750    0.000    0.000    1.000 
#    0.000   15.000    0.000   10.500    0.000    0.000 
#    0.000    0.000    0.000    0.000    0.000    0.000 
#
# Total GULP energy -89232.678965 kJ/mol
# GULP energy per Si atom -5577.042435 kJ/mol
# Density = 2.511130 g / cm^3
# Si number density = 25.168585 Si / 1000 Ang^3
#
#
#
# Elastic Constant Matrix: (Units=GPa)
#
#
# Indices 1 2 3 4 5 6 
#
# 1 61.3836 41.6919 42.7098 -14.6010 -20.1187 -1.1211
# 2 41.6919 92.2083 22.9317 -12.1042 -18.7391 -1.9962
# 3 42.7098 22.9317 175.6439 -6.5753 -44.9077 -3.2457
# 4 -14.6010 -12.1042 -6.5753 37.3430 4.5609 -11.5410
# 5 -20.1187 -18.7391 -44.9077 4.5609 43.3073 -9.2073
# 6 -1.1211 -1.9962 -3.2457 -11.5410 -9.2073 30.0787
#
#
#
# Elastic Compliance Matrix: (Units=1/GPa)
#
#
# Indices 1 2 3 4 5 6 
#
# 1 0.030016 -0.010221 -0.004196 0.008548 0.005310 0.004893
# 2 -0.010221 0.016277 0.001610 0.001943 0.004390 0.002962
# 3 -0.004196 0.001610 0.008792 0.000534 0.008603 0.003737
# 4 0.008548 0.001943 0.000534 0.035016 0.004964 0.015460
# 5 0.005310 0.004390 0.008603 0.004964 0.039106 0.015293
# 6 0.004893 0.002962 0.003737 0.015460 0.015293 0.044641
#
#
# Mechanical properties :
#
#
# Convention : Reuss Voigt Hill
#
# Bulk Modulus (GPa) = 33.93190 60.43360 47.18275
# Shear Modulus (GPa) = 23.89075 36.93930 30.41503
#
# Velocity S-wave (km/s) = 3.08430 3.83518 3.48005
# Velocity P-wave (km/s) = 5.11810 6.60872 5.91059
#
# Compressibility (1/GPa) = 0.02947079
#
# Stress axis : x y z
#
# Youngs Moduli (GPa) = 33.31600 61.43585 113.74034
#
# Poissons Ratio (x) = 0.62792 0.47727
# Poissons Ratio (y) = 0.34052 -0.18312
# Poissons Ratio (z) = 0.13980 -0.09891
#
# Static dielectric constant tensor:
#      x y z
#    x 2.203010 -0.040430 0.081820 
#    y -0.040430 2.009180 0.010420 
#    z 0.081820 0.010420 2.041720 
# 
# From -- ./inp_files/555273.got.cif
#   From: 2010.05.17/outbox.cif.g08.bks.cpg/sg2_278_cif.got.tgz:555273.got - 2010.06.03 11:33:40.
