data_PCOD9099631
_publ_section_title
;
Structure prediction by ZEFSAII (Michael W. Deem and Ramdas Pophale) SiO2 
 PCOD9099631
Probable space group: P -1
;
_chemical_formula_sum "Si O2"
_cell_formula_units_Z 16
_cell_length_a 12.573036
_cell_length_b 5.892267
_cell_length_c 11.120419
_cell_angle_alpha 63.647592
_cell_angle_beta 74.512510
_cell_angle_gamma 82.961237
_cell_volume 711.414991
_symmetry_space_group_name_H-M "P -1"
_symmetry_group_IT_number 2
_symmetry_cell_setting 'triclinic'
loop_
_space_group_symop_operation_xyz
x,y,z
-x,-y,-z
loop_
_atom_site_type_symbol
_atom_site_label
_atom_site_fract_x
_atom_site_fract_y
_atom_site_fract_z
Si Si1 0.309384 0.736434 0.951604
Si Si2 0.733051 0.694892 0.261295
Si Si3 0.447678 0.672533 0.713067
Si Si4 0.348502 0.161625 0.507858
Si Si5 0.177329 0.927591 0.442090
Si Si6 0.983907 0.590738 0.620945
Si Si7 0.176237 0.832636 0.187651
Si Si8 0.120909 0.388115 0.973687
O O1 0.420045 0.645772 0.869684
O O2 0.211391 0.569819 0.964066
O O3 0.292416 0.024596 0.846866
O O4 0.282581 0.742417 0.099683
O O5 0.635269 0.512397 0.288637
O O6 0.732614 0.704561 0.403454
O O7 0.843789 0.627315 0.172505
O O8 0.570829 0.648616 0.630826
O O9 0.415887 0.960610 0.616711
O O10 0.283643 0.995587 0.470278
O O11 0.106364 0.185955 0.395159
O O12 0.200922 0.839388 0.320303
O O13 0.098587 0.730326 0.580931
O O14 0.926572 0.355684 0.758966
O O15 0.000000 0.500000 0.500000
O O16 0.137422 0.111037 0.091802
O O17 0.000000 0.500000 0.000000
#
# Coordination Sequence:
#
# PCOD9099631 Si02
#       8
#     2   2   2   2   2   2   2   2
#     4   9  19  38  56  84 113 154 190 241 294 349
#     4   9  19  36  56  84 118 152 191 241 297 352
#     4   9  19  38  60  87 118 150 192 250 299 351
#     4  10  20  37  61  87 118 152 194 247 301 346
#     4  10  21  39  56  89 118 158 201 240 285 354
#     4   9  20  40  54  81 117 163 198 233 288 340
#     4  10  20  38  61  79 120 161 194 241 294 347
#     4  10  21  39  56  87 117 153 203 245 291 351
#
# _framework density 22.490389
#
# number of rings (size 3 to 8) (size 9 to 14) (size 15 to 20)
#    0.000    2.500    0.000    1.125    0.000    4.000 
#   38.250    0.625    0.000   10.500    0.000    0.000 
#    0.000    0.000    0.000    0.000    0.000    0.000 
#
# Total GULP energy -89329.145416 kJ/mol
# GULP energy per Si atom -5583.071588 kJ/mol
# Density = 2.243920 g / cm^3
# Si number density = 22.490389 Si / 1000 Ang^3
#
#
#
# Elastic Constant Matrix: (Units=GPa)
#
#
# Indices 1 2 3 4 5 6 
#
# 1 29.0983 1.7229 39.5089 8.6921 -13.3819 7.2424
# 2 1.7229 86.3327 53.9407 1.4583 -12.0858 5.1570
# 3 39.5089 53.9407 160.6376 25.3511 -27.2349 5.4723
# 4 8.6921 1.4583 25.3511 55.7670 3.6785 -1.4043
# 5 -13.3819 -12.0858 -27.2349 3.6785 32.7965 -7.2760
# 6 7.2424 5.1570 5.4723 -1.4043 -7.2760 19.5453
#
#
#
# Elastic Compliance Matrix: (Units=1/GPa)
#
#
# Indices 1 2 3 4 5 6 
#
# 1 0.071236 0.013165 -0.017939 -0.004789 0.015227 -0.019523
# 2 0.013165 0.017413 -0.008473 0.000977 0.003361 -0.005779
# 3 -0.017939 -0.008473 0.014394 -0.003591 0.003198 0.005785
# 4 -0.004789 0.000977 -0.003591 0.020757 -0.006555 0.001573
# 5 0.015227 0.003361 0.003198 -0.006555 0.043145 0.008166
# 6 -0.019523 -0.005779 0.005785 0.001573 0.008166 0.061455
#
#
# Mechanical properties :
#
#
# Convention : Reuss Voigt Hill
#
# Bulk Modulus (GPa) = 13.06326 51.82374 32.44350
# Shear Modulus (GPa) = 17.83105 33.68152 25.75628
#
# Velocity S-wave (km/s) = 2.81878 3.87408 3.38777
# Velocity P-wave (km/s) = 4.05154 6.56536 5.45522
#
# Compressibility (1/GPa) = 0.07655059
#
# Stress axis : x y z
#
# Youngs Moduli (GPa) = 14.03789 57.42717 69.47285
#
# Poissons Ratio (x) = -0.75605 1.24627
# Poissons Ratio (y) = -0.18481 0.58862
# Poissons Ratio (z) = 0.25182 0.48656
#
# Static dielectric constant tensor:
#      x y z
#    x 1.845290 -0.045850 0.002960 
#    y -0.045850 1.832860 0.034660 
#    z 0.002960 0.034660 1.878660 
# 
# From -- ./inp_files/410205.got.cif
#   From: 2010.05.17/outbox.cif.g08.bks.cpg/sg2_206_cif.got.tgz:410205.got - 2010.06.03 11:33:40.
