data_PCOD9099751
_publ_section_title
;
Structure prediction by ZEFSAII (Michael W. Deem and Ramdas Pophale) SiO2 
 PCOD9099751
Probable space group: P -1
;
_chemical_formula_sum "Si O2"
_cell_formula_units_Z 16
_cell_length_a 9.293675
_cell_length_b 8.246655
_cell_length_c 21.342414
_cell_angle_alpha 144.462046
_cell_angle_beta 49.082840
_cell_angle_gamma 121.043634
_cell_volume 717.884557
_symmetry_space_group_name_H-M "P -1"
_symmetry_group_IT_number 2
_symmetry_cell_setting 'triclinic'
loop_
_space_group_symop_operation_xyz
x,y,z
-x,-y,-z
loop_
_atom_site_type_symbol
_atom_site_label
_atom_site_fract_x
_atom_site_fract_y
_atom_site_fract_z
Si Si1 0.047450 0.400918 0.883533
Si Si2 0.943962 0.712212 0.390367
Si Si3 0.464735 0.764648 0.986454
Si Si4 0.475854 0.137667 0.482492
Si Si5 0.538282 0.541011 0.229354
Si Si6 0.117261 0.752279 0.635840
Si Si7 0.223966 0.590439 0.156169
Si Si8 0.723000 0.877539 0.752917
O O1 0.240990 0.535100 0.844847
O O2 0.900120 0.462251 0.887594
O O3 0.110336 0.070830 0.762883
O O4 0.000000 0.500000 0.000000
O O5 0.731127 0.722828 0.424940
O O6 0.942253 0.468869 0.365644
O O7 0.089911 0.630173 0.267439
O O8 0.000000 0.000000 0.500000
O O9 0.464883 0.506557 0.859248
O O10 0.626826 0.669109 0.958876
O O11 0.500000 0.000000 0.000000
O O12 0.286530 0.908201 0.117315
O O13 0.666908 0.306759 0.468175
O O14 0.500000 0.000000 0.500000
O O15 0.477961 0.861707 0.353319
O O16 0.411003 0.360935 0.257042
O O17 0.937769 0.764447 0.643069
O O18 0.323509 0.891763 0.214339
#
# Coordination Sequence:
#
# PCOD9099751 Si02
#       8
#     2   2   2   2   2   2   2   2
#     4  10  22  43  66  93 132 169 207 266 329 388
#     4  12  24  42  65  91 126 171 218 269 318 374
#     4  10  20  38  62  90 126 164 204 258 315 378
#     4  11  23  41  62  88 124 166 212 266 320 374
#     4  10  20  38  62  88 120 164 211 260 317 379
#     4  10  22  41  63  91 126 165 211 266 321 380
#     4  11  23  40  62  94 127 167 215 261 320 391
#     4  10  20  37  61  91 122 158 205 264 314 374
#
# _framework density 22.287707999999999
#
# number of rings (size 3 to 8) (size 9 to 14) (size 15 to 20)
#    0.000    1.500    0.000    7.500    0.000    2.000 
#    0.000   18.750    0.000    0.000    0.000    0.000 
#    0.000    0.000    0.000    0.000    0.000    0.000 
#
# Total GULP energy -89068.956848 kJ/mol
# GULP energy per Si atom -5566.809803 kJ/mol
# Density = 2.223698 g / cm^3
# Si number density = 22.287708 Si / 1000 Ang^3
#
#
#
# Elastic Constant Matrix: (Units=GPa)
#
#
# Indices 1 2 3 4 5 6 
#
# 1 91.4541 22.3709 -0.0571 5.9589 -25.4336 -2.8491
# 2 22.3709 124.7006 -0.4487 -18.7013 -15.7324 4.1028
# 3 -0.0571 -0.4487 54.9522 -5.9835 -7.6727 10.0735
# 4 5.9589 -18.7013 -5.9835 28.5525 5.2792 -12.7553
# 5 -25.4336 -15.7324 -7.6727 5.2792 40.7563 -4.6034
# 6 -2.8491 4.1028 10.0735 -12.7553 -4.6034 35.7949
#
#
#
# Elastic Compliance Matrix: (Units=1/GPa)
#
#
# Indices 1 2 3 4 5 6 
#
# 1 0.014409 -0.002353 0.000548 -0.005965 0.008993 0.000293
# 2 -0.002353 0.009703 0.000868 0.007290 0.001639 0.001265
# 3 0.000548 0.000868 0.019740 0.001927 0.003640 -0.004456
# 4 -0.005965 0.007290 0.001927 0.049100 -0.005214 0.014973
# 5 0.008993 0.001639 0.003640 -0.005214 0.032345 0.001805
# 6 0.000293 0.001265 -0.004456 0.014973 0.001805 0.034637
#
#
# Mechanical properties :
#
#
# Convention : Reuss Voigt Hill
#
# Bulk Modulus (GPa) = 23.82197 34.98190 29.40193
# Shear Modulus (GPa) = 28.44128 37.63685 33.03906
#
# Velocity S-wave (km/s) = 3.57613 4.11382 3.85436
# Velocity P-wave (km/s) = 5.26908 6.18824 5.74706
#
# Compressibility (1/GPa) = 0.04197805
#
# Stress axis : x y z
#
# Youngs Moduli (GPa) = 69.40145 103.06254 50.65788
#
# Poissons Ratio (x) = 0.24247 -0.02777
# Poissons Ratio (y) = 0.16328 -0.04395
# Poissons Ratio (z) = -0.03804 -0.08941
#
# Static dielectric constant tensor:
#      x y z
#    x -1.343810 5.048300 -6.737430 
#    y 5.048300 -5.534550 10.081090 
#    z -6.737430 10.081090 -12.007810 
# 
# From -- ./inp_files/587590.got.cif
#   From: 2010.05.17/outbox.cif.g08.bks.cpg/sg2_294_cif.got.tgz:587590.got - 2010.06.03 11:33:40.
