data_PCOD9099749
_publ_section_title
;
Structure prediction by ZEFSAII (Michael W. Deem and Ramdas Pophale) SiO2 
 PCOD9099749
Probable space group: P -1
;
_chemical_formula_sum "Si O2"
_cell_formula_units_Z 14
_cell_length_a 23.573418
_cell_length_b 11.512436
_cell_length_c 8.882586
_cell_angle_alpha 139.091596
_cell_angle_beta 148.973405
_cell_angle_gamma 30.755310
_cell_volume 633.677317
_symmetry_space_group_name_H-M "P -1"
_symmetry_group_IT_number 2
_symmetry_cell_setting 'triclinic'
loop_
_space_group_symop_operation_xyz
x,y,z
-x,-y,-z
loop_
_atom_site_type_symbol
_atom_site_label
_atom_site_fract_x
_atom_site_fract_y
_atom_site_fract_z
Si Si1 0.193472 0.538837 0.071038
Si Si2 0.208170 0.315522 0.197533
Si Si3 0.358849 0.528051 0.200641
Si Si4 0.097787 0.032516 0.097805
Si Si5 0.971385 0.813922 0.239067
Si Si6 0.723535 0.855619 0.285182
Si Si7 0.574860 0.872162 0.246366
O O1 0.209081 0.412303 0.134708
O O2 0.332855 0.491059 0.277403
O O3 0.171184 0.415441 0.767197
O O4 0.064620 0.806805 0.060719
O O5 0.356440 0.163953 0.472638
O O6 0.110539 0.549587 0.304403
O O7 0.139990 0.186262 0.913719
O O8 0.500000 0.500000 0.500000
O O9 0.204983 0.765868 0.047093
O O10 0.384243 0.353330 0.962550
O O11 0.185974 0.061511 0.443412
O O12 0.084547 0.148754 0.022617
O O13 0.000000 0.000000 0.500000
O O14 0.643522 0.938257 0.345321
O O15 0.593934 0.959687 0.978713
#
# Coordination Sequence:
#
# PCOD9099749 Si02
#       7
#     2   2   2   2   2   2   2
#     4  10  24  39  60  94 129 166 210 264 328 372
#     4  10  21  41  61  91 133 165 212 269 318 385
#     4  11  22  40  64  93 126 167 216 264 317 382
#     4  11  20  40  64  92 126 160 215 266 311 380
#     4  10  21  38  63  93 127 174 213 256 326 387
#     4  10  20  37  61  91 121 165 210 255 311 382
#     4  10  20  38  64  88 123 170 213 251 321 383
#
# _framework density 22.093264000000001
#
# number of rings (size 3 to 8) (size 9 to 14) (size 15 to 20)
#    0.000    1.714    2.857    1.714    0.000    0.571 
#    7.714    0.714    0.000    0.000    0.000    0.000 
#    0.000    0.000    0.000    0.000    0.000    0.000 
#
# Total GULP energy -77964.766648 kJ/mol
# GULP energy per Si atom -5568.911903 kJ/mol
# Density = 2.204298 g / cm^3
# Si number density = 22.093264 Si / 1000 Ang^3
#
#
#
# Elastic Constant Matrix: (Units=GPa)
#
#
# Indices 1 2 3 4 5 6 
#
# 1 110.8005 25.2291 39.3792 -7.1731 22.2264 -0.0480
# 2 25.2291 112.1914 28.6058 3.1971 10.5050 -6.3563
# 3 39.3792 28.6058 97.1473 -5.7702 28.1140 1.6069
# 4 -7.1731 3.1971 -5.7702 30.0309 8.4776 -0.8710
# 5 22.2264 10.5050 28.1140 8.4776 30.7531 -3.2687
# 6 -0.0480 -6.3563 1.6069 -0.8710 -3.2687 34.1229
#
#
#
# Elastic Compliance Matrix: (Units=1/GPa)
#
#
# Indices 1 2 3 4 5 6 
#
# 1 0.011930 -0.001685 -0.001754 0.004892 -0.007881 -0.000844
# 2 -0.001685 0.010076 -0.002796 -0.002286 0.001181 0.002061
# 3 -0.001754 -0.002796 0.016772 0.007379 -0.015420 -0.002602
# 4 0.004892 -0.002286 0.007379 0.042088 -0.021287 -0.001731
# 5 -0.007881 0.001181 -0.015420 -0.021287 0.058411 0.005987
# 6 -0.000844 0.002061 -0.002602 -0.001731 0.005987 0.030340
#
#
# Mechanical properties :
#
#
# Convention : Reuss Voigt Hill
#
# Bulk Modulus (GPa) = 38.01069 56.28525 47.14797
# Shear Modulus (GPa) = 26.19778 34.10971 30.15375
#
# Velocity S-wave (km/s) = 3.44725 3.93351 3.69838
# Velocity P-wave (km/s) = 5.75211 6.79422 6.29477
#
# Compressibility (1/GPa) = 0.02630839
#
# Stress axis : x y z
#
# Youngs Moduli (GPa) = 83.82502 99.24208 59.62358
#
# Poissons Ratio (x) = 0.16719 0.10460
# Poissons Ratio (y) = 0.14122 0.16669
# Poissons Ratio (z) = 0.14706 0.27745
#
# Static dielectric constant tensor:
#      x y z
#    x 1.867820 0.041950 0.041280 
#    y 0.041950 1.924330 0.023650 
#    z 0.041280 0.023650 1.823670 
# 
# From -- ./inp_files/194655.got.cif
#   From: 2010.05.17/outbox.cif.g08.bks.cpg/sg2_98_cif.got.tgz:194655.got - 2010.06.03 11:33:40.
