data_PCOD9099831
_publ_section_title
;
Structure prediction by ZEFSAII (Michael W. Deem and Ramdas Pophale) SiO2 
 PCOD9099831
Probable space group: P -1
;
_chemical_formula_sum "Si O2"
_cell_formula_units_Z 16
_cell_length_a 16.398418
_cell_length_b 9.377173
_cell_length_c 12.680940
_cell_angle_alpha 153.653945
_cell_angle_beta 129.773432
_cell_angle_gamma 46.951602
_cell_volume 630.028378
_symmetry_space_group_name_H-M "P -1"
_symmetry_group_IT_number 2
_symmetry_cell_setting 'triclinic'
loop_
_space_group_symop_operation_xyz
x,y,z
-x,-y,-z
loop_
_atom_site_type_symbol
_atom_site_label
_atom_site_fract_x
_atom_site_fract_y
_atom_site_fract_z
Si Si1 0.559110 0.015994 0.332271
Si Si2 0.867955 0.292184 0.896541
Si Si3 0.580340 0.019975 0.984707
Si Si4 0.284964 0.125157 0.442051
Si Si5 0.746472 0.278367 0.586732
Si Si6 0.075324 0.738153 0.693605
Si Si7 0.057287 0.149406 0.741095
Si Si8 0.672143 0.533458 0.487958
O O1 0.665245 0.053413 0.381813
O O2 0.449588 0.347473 0.476764
O O3 0.499565 0.823846 0.078041
O O4 0.607078 0.934627 0.434913
O O5 0.848811 0.166457 0.677913
O O6 0.773720 0.168380 0.793816
O O7 0.858573 0.684196 0.141346
O O8 0.992866 0.088516 0.907887
O O9 0.665661 0.640774 0.801234
O O10 0.660235 0.243070 0.211428
O O11 0.500000 0.000000 0.000000
O O12 0.197192 0.478311 0.647727
O O13 0.310505 0.174014 0.374228
O O14 0.764193 0.385040 0.554361
O O15 0.000000 0.500000 0.500000
O O16 0.089537 0.863286 0.669501
O O17 0.000000 0.000000 0.500000
O O18 0.000000 0.500000 0.000000
#
# Coordination Sequence:
#
# PCOD9099831 Si02
#       8
#     2   2   2   2   2   2   2   2
#     4  10  20  39  61  87 134 174 219 276 334 411
#     4   9  21  43  67  94 137 173 227 277 340 414
#     4  11  19  35  62  93 124 169 223 277 337 394
#     4  10  22  38  64  96 136 180 221 280 346 404
#     4  10  20  37  61  96 125 172 221 273 332 405
#     4   9  20  43  68  97 135 172 222 286 344 408
#     4  10  22  44  75 101 130 182 233 286 348 416
#     4  11  21  36  63  91 134 170 222 282 337 403
#
# _framework density 25.395679999999999
#
# number of rings (size 3 to 8) (size 9 to 14) (size 15 to 20)
#    0.000    2.000    2.500    1.125    1.750    2.500 
#    0.000    6.875   13.750    0.000    0.000    0.000 
#    0.000    0.000    0.000    0.000    0.000    0.000 
#
# Total GULP energy -89109.826249 kJ/mol
# GULP energy per Si atom -5569.364141 kJ/mol
# Density = 2.533788 g / cm^3
# Si number density = 25.395680 Si / 1000 Ang^3
#
#
#
# Elastic Constant Matrix: (Units=GPa)
#
#
# Indices 1 2 3 4 5 6 
#
# 1 95.3895 17.8290 31.8802 0.2851 19.6928 15.4533
# 2 17.8290 99.4344 27.2148 6.2409 16.5827 1.7530
# 3 31.8802 27.2148 79.6430 -5.4601 24.5470 14.1428
# 4 0.2851 6.2409 -5.4601 31.9847 -1.4419 4.6630
# 5 19.6928 16.5827 24.5470 -1.4419 29.3824 10.1882
# 6 15.4533 1.7530 14.1428 4.6630 10.1882 60.9489
#
#
#
# Elastic Compliance Matrix: (Units=1/GPa)
#
#
# Indices 1 2 3 4 5 6 
#
# 1 0.012981 -0.000530 -0.003151 -0.000549 -0.005231 -0.001628
# 2 -0.000530 0.011895 -0.002924 -0.003239 -0.004590 0.001486
# 3 -0.003151 -0.002924 0.018832 0.003588 -0.011136 -0.001900
# 4 -0.000549 -0.003239 0.003588 0.033112 0.002027 -0.003472
# 5 -0.005231 -0.004590 -0.011136 0.002027 0.051149 -0.004663
# 6 -0.001628 0.001486 -0.001900 -0.003472 -0.004663 0.018263
#
#
# Mechanical properties :
#
#
# Convention : Reuss Voigt Hill
#
# Bulk Modulus (GPa) = 32.78897 47.59054 40.18976
# Shear Modulus (GPa) = 29.47974 37.63271 33.55623
#
# Velocity S-wave (km/s) = 3.41077 3.85366 3.63896
# Velocity P-wave (km/s) = 5.33389 6.21138 5.78929
#
# Compressibility (1/GPa) = 0.03049806
#
# Stress axis : x y z
#
# Youngs Moduli (GPa) = 77.03655 84.07211 53.10050
#
# Poissons Ratio (x) = 0.04452 0.16734
# Poissons Ratio (y) = 0.04079 0.15526
# Poissons Ratio (z) = 0.24278 0.24581
#
# Static dielectric constant tensor:
#      x y z
#    x 2.351670 -0.019010 -0.038960 
#    y -0.019010 2.036850 -0.003770 
#    z -0.038960 -0.003770 2.109070 
# 
# From -- ./inp_files/462630.got.cif
#   From: 2010.05.17/outbox.cif.g08.bks.cpg/sg2_232_cif.got.tgz:462630.got - 2010.06.03 11:33:40.
