data_PCOD9099115
_publ_section_title
;
Structure prediction by ZEFSAII (Michael W. Deem and Ramdas Pophale) SiO2 
 PCOD9099115
Probable space group: P -1
;
_chemical_formula_sum "Si O2"
_cell_formula_units_Z 16
_cell_length_a 15.364158
_cell_length_b 8.412703
_cell_length_c 18.934211
_cell_angle_alpha 66.581163
_cell_angle_beta 21.272824
_cell_angle_gamma 79.075271
_cell_volume 684.073577
_symmetry_space_group_name_H-M "P -1"
_symmetry_group_IT_number 2
_symmetry_cell_setting 'triclinic'
loop_
_space_group_symop_operation_xyz
x,y,z
-x,-y,-z
loop_
_atom_site_type_symbol
_atom_site_label
_atom_site_fract_x
_atom_site_fract_y
_atom_site_fract_z
Si Si1 0.539742 0.296341 0.073534
Si Si2 0.480177 0.941531 0.270005
Si Si3 0.098535 0.261690 0.812977
Si Si4 0.312552 0.589102 0.215963
Si Si5 0.887929 0.267535 0.107726
Si Si6 0.004554 0.592160 0.778692
Si Si7 0.728762 0.918359 0.400546
Si Si8 0.292943 0.207714 0.987749
O O1 0.618727 0.300601 0.931443
O O2 0.830629 0.451463 0.868416
O O3 0.411944 0.077662 0.246991
O O4 0.353728 0.397861 0.206043
O O5 0.241630 0.813778 0.530699
O O6 0.786923 0.093131 0.046823
O O7 0.510678 0.784391 0.225077
O O8 0.141384 0.483512 0.732802
O O9 0.300390 0.234298 0.613277
O O10 0.088419 0.234916 0.909463
O O11 0.000000 0.500000 0.500000
O O12 0.546131 0.748207 0.067689
O O13 0.819709 0.127093 0.252552
O O14 0.582957 0.177416 0.315641
O O15 0.000000 0.500000 0.000000
O O16 0.783461 0.618464 0.986750
O O17 0.992604 0.987276 0.241502
#
# Coordination Sequence:
#
# PCOD9099115 Si02
#       8
#     2   2   2   2   2   2   2   2
#     4   9  21  38  56  87 121 155 201 246 294 353
#     4  10  21  38  61  87 119 156 198 247 297 351
#     4  10  22  38  60  89 120 155 197 243 296 356
#     4  10  20  38  62  88 123 160 199 247 297 351
#     4  11  23  40  64  91 121 156 198 246 298 358
#     4  10  20  37  59  85 119 158 199 246 295 347
#     4  10  23  41  61  91 124 155 197 247 298 356
#     4  10  21  38  61  87 118 158 200 241 294 355
#
# _framework density 23.389295000000001
#
# number of rings (size 3 to 8) (size 9 to 14) (size 15 to 20)
#    0.000    2.000    0.000    2.625    0.000    6.000 
#    0.000   17.500    0.000    0.000    0.000    0.000 
#    0.000    0.000    0.000    0.000    0.000    0.000 
#
# Total GULP energy -89449.229713 kJ/mol
# GULP energy per Si atom -5590.576857 kJ/mol
# Density = 2.333606 g / cm^3
# Si number density = 23.389295 Si / 1000 Ang^3
#
#
#
# Elastic Constant Matrix: (Units=GPa)
#
#
# Indices 1 2 3 4 5 6 
#
# 1 83.2094 26.6166 26.8640 -7.2071 -3.9867 19.7524
# 2 26.6166 107.0948 33.5216 0.8492 18.5627 7.1179
# 3 26.8640 33.5216 75.4943 7.2133 5.2028 -0.7472
# 4 -7.2071 0.8492 7.2133 33.6767 3.1125 11.6538
# 5 -3.9867 18.5627 5.2028 3.1125 29.0748 -2.4458
# 6 19.7524 7.1179 -0.7472 11.6538 -2.4458 44.6575
#
#
#
# Elastic Compliance Matrix: (Units=1/GPa)
#
#
# Indices 1 2 3 4 5 6 
#
# 1 0.018104 -0.002509 -0.006466 0.008354 0.003531 -0.009702
# 2 -0.002509 0.012853 -0.004416 0.001467 -0.008071 -0.001838
# 3 -0.006466 -0.004416 0.018254 -0.007158 -0.000085 0.005732
# 4 0.008354 0.001467 -0.007158 0.038258 -0.003803 -0.014240
# 5 0.003531 -0.008071 -0.000085 -0.003803 0.040701 0.002945
# 6 -0.009702 -0.001838 0.005732 -0.014240 0.002945 0.030950
#
#
# Mechanical properties :
#
#
# Convention : Reuss Voigt Hill
#
# Bulk Modulus (GPa) = 44.58480 48.86697 46.72589
# Shear Modulus (GPa) = 25.85609 33.40156 29.62882
#
# Velocity S-wave (km/s) = 3.32846 3.78308 3.56303
# Velocity P-wave (km/s) = 5.82022 6.32618 6.07847
#
# Compressibility (1/GPa) = 0.02242917
#
# Stress axis : x y z
#
# Youngs Moduli (GPa) = 55.23740 77.80333 54.78177
#
# Poissons Ratio (x) = 0.19521 0.35419
# Poissons Ratio (y) = 0.13859 0.24194
# Poissons Ratio (z) = 0.35714 0.34361
#
# Static dielectric constant tensor:
#      x y z
#    x 1.912930 0.002840 -0.008940 
#    y 0.002840 1.894210 0.008610 
#    z -0.008940 0.008610 1.851110 
# 
# From -- ./inp_files/599487.got.cif
#   From: 2010.05.17/outbox.cif.g08.bks.cpg/sg2_300_cif.got.tgz:599487.got - 2010.06.03 11:33:40.
