data_PCOD9099730
_publ_section_title
;
Structure prediction by ZEFSAII (Michael W. Deem and Ramdas Pophale) SiO2 
 PCOD9099730
Probable space group: P -1
;
_chemical_formula_sum "Si O2"
_cell_formula_units_Z 16
_cell_length_a 10.944726
_cell_length_b 11.737405
_cell_length_c 9.266998
_cell_angle_alpha 116.293917
_cell_angle_beta 133.666332
_cell_angle_gamma 64.194628
_cell_volume 756.510186
_symmetry_space_group_name_H-M "P -1"
_symmetry_group_IT_number 2
_symmetry_cell_setting 'triclinic'
loop_
_space_group_symop_operation_xyz
x,y,z
-x,-y,-z
loop_
_atom_site_type_symbol
_atom_site_label
_atom_site_fract_x
_atom_site_fract_y
_atom_site_fract_z
Si Si1 0.672665 0.554364 0.319261
Si Si2 0.785010 0.570940 0.938892
Si Si3 0.601014 0.054923 0.810575
Si Si4 0.515677 0.318844 0.042741
Si Si5 0.054110 0.388119 0.205833
Si Si6 0.411175 0.620286 0.397906
Si Si7 0.317038 0.901755 0.435560
Si Si8 0.032329 0.105712 0.970838
O O1 0.614248 0.618200 0.155600
O O2 0.833750 0.592686 0.551914
O O3 0.513899 0.607017 0.325648
O O4 0.666504 0.402085 0.220466
O O5 0.836630 0.628392 0.864417
O O6 0.767431 0.423368 0.800732
O O7 0.609356 0.653597 0.905573
O O8 0.927296 0.527625 0.153975
O O9 0.590375 0.172890 0.978039
O O10 0.632762 0.101523 0.697764
O O11 0.417990 0.009045 0.635886
O O12 0.763072 0.939896 0.917646
O O13 0.993403 0.250714 0.087747
O O14 0.500000 0.500000 0.500000
O O15 0.391549 0.768111 0.504668
O O16 0.110801 0.909839 0.274536
O O17 0.000000 0.000000 0.000000
#
# Coordination Sequence:
#
# PCOD9099730 Si02
#       8
#     2   2   2   2   2   2   2   2
#     4  10  21  35  63  88 121 163 197 266 309 369
#     4  10  23  37  62  88 124 159 196 272 311 371
#     4  10  21  38  60  87 125 168 203 254 304 378
#     4  10  22  39  56  93 127 158 207 253 324 364
#     4  11  21  41  61  92 120 156 217 253 313 372
#     4  11  18  34  61  91 114 154 208 256 308 360
#     4  10  20  37  61  90 122 163 212 254 306 359
#     4  10  22  35  62  94 117 161 211 262 291 367
#
# _framework density 21.149749
#
# number of rings (size 3 to 8) (size 9 to 14) (size 15 to 20)
#    0.000    1.750    3.750    0.750    3.500    0.500 
#    2.250    0.625    0.000    0.750    0.000    0.000 
#    0.000    0.000    0.000    0.000    0.000    0.000 
#
# Total GULP energy -89071.887384 kJ/mol
# GULP energy per Si atom -5566.992962 kJ/mol
# Density = 2.110161 g / cm^3
# Si number density = 21.149749 Si / 1000 Ang^3
#
#
#
# Elastic Constant Matrix: (Units=GPa)
#
#
# Indices 1 2 3 4 5 6 
#
# 1 28.3600 4.7173 10.9108 -5.5483 -1.8317 -0.9632
# 2 4.7173 97.6408 36.1875 4.7989 2.0795 0.3031
# 3 10.9108 36.1875 98.2506 2.8414 24.0371 0.3789
# 4 -5.5483 4.7989 2.8414 32.0213 4.4957 -1.5788
# 5 -1.8317 2.0795 24.0371 4.4957 28.6579 1.2743
# 6 -0.9632 0.3031 0.3789 -1.5788 1.2743 20.6684
#
#
#
# Elastic Compliance Matrix: (Units=1/GPa)
#
#
# Indices 1 2 3 4 5 6 
#
# 1 0.039420 -0.000096 -0.006145 0.006570 0.006559 0.002049
# 2 -0.000096 0.012269 -0.005424 -0.001957 0.003981 -0.000480
# 3 -0.006145 -0.005424 0.016184 0.000243 -0.013627 0.000355
# 4 0.006570 -0.001957 0.000243 0.033505 -0.005040 0.003200
# 5 0.006559 0.003981 -0.013627 -0.005040 0.047370 -0.002808
# 6 0.002049 -0.000480 0.000355 0.003200 -0.002808 0.048897
#
#
# Mechanical properties :
#
#
# Convention : Reuss Voigt Hill
#
# Bulk Modulus (GPa) = 22.45014 36.43141 29.44077
# Shear Modulus (GPa) = 21.20249 27.76524 24.48386
#
# Velocity S-wave (km/s) = 3.16965 3.62718 3.40611
# Velocity P-wave (km/s) = 4.90240 5.89956 5.42394
#
# Compressibility (1/GPa) = 0.04454315
#
# Stress axis : x y z
#
# Youngs Moduli (GPa) = 25.36814 81.50400 61.79059
#
# Poissons Ratio (x) = 0.00783 0.37968
# Poissons Ratio (y) = 0.00244 0.33515
# Poissons Ratio (z) = 0.15588 0.44207
#
# Static dielectric constant tensor:
#      x y z
#    x 1.987500 -0.174780 0.087650 
#    y -0.174780 1.914050 -0.066130 
#    z 0.087650 -0.066130 1.884940 
# 
# From -- ./inp_files/260353.got.cif
#   From: 2010.05.17/outbox.cif.g08.bks.cpg/sg2_131_cif.got.tgz:260353.got - 2010.06.03 11:33:40.
