data_PCOD9099626
_publ_section_title
;
Structure prediction by ZEFSAII (Michael W. Deem and Ramdas Pophale) SiO2 
 PCOD9099626
Probable space group: P -1
;
_chemical_formula_sum "Si O2"
_cell_formula_units_Z 14
_cell_length_a 14.065975
_cell_length_b 9.619576
_cell_length_c 9.328925
_cell_angle_alpha 43.985363
_cell_angle_beta 132.619823
_cell_angle_gamma 114.673194
_cell_volume 639.036261
_symmetry_space_group_name_H-M "P -1"
_symmetry_group_IT_number 2
_symmetry_cell_setting 'triclinic'
loop_
_space_group_symop_operation_xyz
x,y,z
-x,-y,-z
loop_
_atom_site_type_symbol
_atom_site_label
_atom_site_fract_x
_atom_site_fract_y
_atom_site_fract_z
Si Si1 0.771318 0.915908 0.467188
Si Si2 0.671542 0.802669 0.144726
Si Si3 0.345151 0.564860 0.760685
Si Si4 0.886617 0.938921 0.059234
Si Si5 0.577664 0.033382 0.410275
Si Si6 0.875818 0.325818 0.334530
Si Si7 0.963124 0.718693 0.013876
O O1 0.707960 0.860162 0.297144
O O2 0.902695 0.777740 0.752908
O O3 0.673047 0.881543 0.523309
O O4 0.806490 0.146714 0.323382
O O5 0.688317 0.562706 0.313708
O O6 0.766361 0.894058 0.063418
O O7 0.527388 0.880224 0.882096
O O8 0.334107 0.803117 0.564838
O O9 0.240868 0.538511 0.798219
O O10 0.500000 0.500000 0.000000
O O11 0.014786 0.799949 0.360014
O O12 0.883829 0.852780 0.960152
O O13 0.906627 0.173801 0.920361
O O14 0.500000 0.000000 0.500000
O O15 0.950452 0.486195 0.206061
#
# Coordination Sequence:
#
# PCOD9099626 Si02
#       7
#     2   2   2   2   2   2   2
#     4  10  23  39  60  88 124 156 185 248 310 342
#     4  11  21  40  58  87 125 150 191 249 302 348
#     4   9  20  36  62  85 112 154 196 242 294 342
#     4  10  21  36  64  87 115 159 204 244 286 340
#     4  10  21  40  64  87 113 154 203 243 288 355
#     4  10  20  39  62  85 121 157 200 242 287 351
#     4  10  20  37  61  87 115 157 204 240 279 355
#
# _framework density 21.907990000000002
#
# number of rings (size 3 to 8) (size 9 to 14) (size 15 to 20)
#    0.000    2.000    1.429    1.714    2.000    3.429 
#    2.571    2.143    0.000    0.000    0.000    0.000 
#    0.000    0.000    0.000    0.000    0.000    0.000 
#
# Total GULP energy -78011.032124 kJ/mol
# GULP energy per Si atom -5572.216580 kJ/mol
# Density = 2.185813 g / cm^3
# Si number density = 21.907990 Si / 1000 Ang^3
#
#
#
# Elastic Constant Matrix: (Units=GPa)
#
#
# Indices 1 2 3 4 5 6 
#
# 1 45.6205 19.7970 -3.1298 1.1672 5.1207 15.0979
# 2 19.7970 148.2038 56.3328 21.1690 -14.4776 1.7460
# 3 -3.1298 56.3328 82.4078 16.4634 0.1650 -2.0964
# 4 1.1672 21.1690 16.4634 41.3090 3.2559 -11.0816
# 5 5.1207 -14.4776 0.1650 3.2559 29.3333 -0.3872
# 6 15.0979 1.7460 -2.0964 -11.0816 -0.3872 31.0162
#
#
#
# Elastic Compliance Matrix: (Units=1/GPa)
#
#
# Indices 1 2 3 4 5 6 
#
# 1 0.031577 -0.006692 0.006081 -0.003477 -0.008674 -0.015934
# 2 -0.006692 0.011672 -0.007612 -0.003043 0.007324 0.001090
# 3 0.006081 -0.007612 0.018297 -0.003948 -0.004520 -0.002762
# 4 -0.003477 -0.003043 -0.003948 0.031169 -0.004165 0.012681
# 5 -0.008674 0.007324 -0.004520 -0.004165 0.039741 0.002512
# 6 -0.015934 0.001090 -0.002762 0.012681 0.002512 0.044311
#
#
# Mechanical properties :
#
#
# Convention : Reuss Voigt Hill
#
# Bulk Modulus (GPa) = 22.17369 46.91467 34.54418
# Shear Modulus (GPa) = 24.00992 33.88052 28.94522
#
# Velocity S-wave (km/s) = 3.31410 3.93681 3.63880
# Velocity P-wave (km/s) = 4.97871 6.49042 5.78416
#
# Compressibility (1/GPa) = 0.04509849
#
# Stress axis : x y z
#
# Youngs Moduli (GPa) = 31.66861 85.67430 54.65501
#
# Poissons Ratio (x) = 0.57336 -0.33234
# Poissons Ratio (y) = 0.21194 0.41603
# Poissons Ratio (z) = -0.19257 0.65215
#
# Static dielectric constant tensor:
#      x y z
#    x 1.884100 0.013990 0.017750 
#    y 0.013990 1.798570 -0.042240 
#    z 0.017750 -0.042240 1.844780 
# 
# From -- ./inp_files/188141.got.cif
#   From: 2010.05.17/outbox.cif.g08.bks.cpg/sg2_95_cif.got.tgz:188141.got - 2010.06.03 11:33:40.
