data_PCOD9099199
_publ_section_title
;
Structure prediction by ZEFSAII (Michael W. Deem and Ramdas Pophale) SiO2 
 PCOD9099199
Probable space group: P -1
;
_chemical_formula_sum "Si O2"
_cell_formula_units_Z 16
_cell_length_a 29.375947
_cell_length_b 11.085784
_cell_length_c 10.218044
_cell_angle_alpha 140.104777
_cell_angle_beta 154.773807
_cell_angle_gamma 34.190435
_cell_volume 794.447939
_symmetry_space_group_name_H-M "P -1"
_symmetry_group_IT_number 2
_symmetry_cell_setting 'triclinic'
loop_
_space_group_symop_operation_xyz
x,y,z
-x,-y,-z
loop_
_atom_site_type_symbol
_atom_site_label
_atom_site_fract_x
_atom_site_fract_y
_atom_site_fract_z
Si Si1 0.230691 0.611780 0.800320
Si Si2 0.486021 0.184061 0.717796
Si Si3 0.029925 0.351335 0.784866
Si Si4 0.878437 0.067219 0.451327
Si Si5 0.691294 0.230214 0.611936
Si Si6 0.913778 0.815370 0.921713
Si Si7 0.543076 0.807720 0.053971
Si Si8 0.694280 0.324495 0.407155
O O1 0.200627 0.789888 0.758259
O O2 0.323309 0.381748 0.790102
O O3 0.103815 0.623827 0.519426
O O4 0.287663 0.659346 0.115489
O O5 0.467300 0.121054 0.763185
O O6 0.374172 0.422445 0.594897
O O7 0.500000 0.000000 0.500000
O O8 0.602586 0.226428 0.058499
O O9 0.000621 0.593474 0.887859
O O10 0.099758 0.173060 0.709060
O O11 0.096817 0.258409 0.020517
O O12 0.811045 0.187702 0.506864
O O13 0.009017 0.058570 0.768656
O O14 0.723292 0.298831 0.614944
O O15 0.782574 0.974031 0.653232
O O16 0.552025 0.282890 0.284173
O O17 0.500000 0.000000 0.000000
#
# Coordination Sequence:
#
# PCOD9099199 Si02
#       8
#     2   2   2   2   2   2   2   2
#     4  11  20  39  61  89 122 158 206 250 302 357
#     4  10  23  45  62  86 126 166 201 245 305 365
#     4  10  20  37  63  86 121 160 199 255 301 347
#     4  11  20  40  63  87 117 165 209 239 297 365
#     4  11  22  40  60  90 128 160 195 259 311 348
#     4  10  20  37  59  89 121 155 202 253 301 350
#     4  11  24  38  62  97 121 153 209 256 300 366
#     4  10  24  41  62  88 126 163 203 247 298 372
#
# _framework density 20.139769000000001
#
# number of rings (size 3 to 8) (size 9 to 14) (size 15 to 20)
#    0.000    1.500    3.750    1.875    1.750    2.500 
#    2.250    0.625    0.000    0.000    0.000    0.000 
#    0.000    0.000    0.000    0.000    0.000    0.000 
#
# Total GULP energy -89387.319165 kJ/mol
# GULP energy per Si atom -5586.707448 kJ/mol
# Density = 2.009393 g / cm^3
# Si number density = 20.139769 Si / 1000 Ang^3
#
#
#
# Elastic Constant Matrix: (Units=GPa)
#
#
# Indices 1 2 3 4 5 6 
#
# 1 86.0661 25.4590 26.4161 6.0401 -23.0644 -12.1353
# 2 25.4590 114.0580 12.1291 10.5955 -1.8160 -8.7532
# 3 26.4161 12.1291 48.3486 6.2774 -14.7352 -7.3303
# 4 6.0401 10.5955 6.2774 37.5303 -5.0864 -1.3400
# 5 -23.0644 -1.8160 -14.7352 -5.0864 18.8946 -0.0896
# 6 -12.1353 -8.7532 -7.3303 -1.3400 -0.0896 27.8025
#
#
#
# Elastic Compliance Matrix: (Units=1/GPa)
#
#
# Indices 1 2 3 4 5 6 
#
# 1 0.020599 -0.003553 -0.002284 0.001515 0.023466 0.007419
# 2 -0.003553 0.009980 -0.001723 -0.002658 -0.005432 0.000992
# 3 -0.002284 -0.001723 0.029482 -0.001178 0.019751 0.006241
# 4 0.001515 -0.002658 -0.001178 0.028514 0.008355 0.000915
# 5 0.023466 -0.005432 0.019751 0.008355 0.098768 0.014460
# 6 0.007419 0.000992 0.006241 0.000915 0.014460 0.041255
#
#
# Mechanical properties :
#
#
# Convention : Reuss Voigt Hill
#
# Bulk Modulus (GPa) = 22.25052 41.83122 32.04087
# Shear Modulus (GPa) = 19.32767 29.14337 24.23552
#
# Velocity S-wave (km/s) = 3.10123 3.80815 3.47272
# Velocity P-wave (km/s) = 4.88830 6.33652 5.65893
#
# Compressibility (1/GPa) = 0.04494278
#
# Stress axis : x y z
#
# Youngs Moduli (GPa) = 48.54591 100.19782 33.91953
#
# Poissons Ratio (x) = 0.35599 0.07746
# Poissons Ratio (y) = 0.17248 0.05843
# Poissons Ratio (z) = 0.11086 0.17260
#
# Static dielectric constant tensor:
#      x y z
#    x 1.694740 0.001190 0.012450 
#    y 0.001190 1.712380 0.013570 
#    z 0.012450 0.013570 1.721970 
# 
# From -- ./inp_files/259243.got.cif
#   From: 2010.05.17/outbox.cif.g08.bks.cpg/sg2_130_cif.got.tgz:259243.got - 2010.06.03 11:33:40.
