data_PCOD9099845
_publ_section_title
;
Structure prediction by ZEFSAII (Michael W. Deem and Ramdas Pophale) SiO2 
 PCOD9099845
Probable space group: P -1
;
_chemical_formula_sum "Si O2"
_cell_formula_units_Z 13
_cell_length_a 7.881248
_cell_length_b 9.895512
_cell_length_c 21.365663
_cell_angle_alpha 21.379084
_cell_angle_beta 59.877616
_cell_angle_gamma 62.731907
_cell_volume 525.171849
_symmetry_space_group_name_H-M "P -1"
_symmetry_group_IT_number 2
_symmetry_cell_setting 'triclinic'
loop_
_space_group_symop_operation_xyz
x,y,z
-x,-y,-z
loop_
_atom_site_type_symbol
_atom_site_label
_atom_site_fract_x
_atom_site_fract_y
_atom_site_fract_z
Si Si1 0.874609 0.973461 0.969329
Si Si2 0.686591 0.264745 0.350274
Si Si3 0.970837 0.181480 0.591766
Si Si4 0.789533 0.408203 0.995446
Si Si5 0.193370 0.851255 0.492402
Si Si6 0.491031 0.480675 0.114165
Si Si7 0.500000 0.000000 0.000000
O O1 0.684919 0.670554 0.143436
O O2 0.022678 0.821890 0.957532
O O3 0.728128 0.271636 0.843384
O O4 0.000000 0.000000 0.000000
O O5 0.726165 0.377967 0.366026
O O6 0.500000 0.000000 0.500000
O O7 0.848834 0.043370 0.376494
O O8 0.000000 0.500000 0.500000
O O9 0.866926 0.330676 0.483656
O O10 0.847387 0.844246 0.792329
O O11 0.637168 0.356143 0.988997
O O12 0.683811 0.310611 0.121319
O O13 0.356783 0.156823 0.309714
O O14 0.000000 0.000000 0.500000
O O15 0.553369 0.819654 0.999362
#
# Coordination Sequence:
#
# PCOD9099845 Si02
#       7
#     2   2   2   2   2   2   1
#     4  11  23  43  65  96 131 170 222 274 325 389
#     4  10  21  40  63  88 128 165 211 270 323 385
#     4   9  19  37  62  90 124 167 210 258 323 384
#     4   9  20  40  61  88 141 169 200 282 331 370
#     4   9  19  36  62  85 125 168 206 257 326 382
#     4  10  20  37  61  98 124 167 217 262 327 391
#     4  12  24  36  70  96 120 172 230 256 326 398
#
# _framework density 24.753803000000001
#
# number of rings (size 3 to 8) (size 9 to 14) (size 15 to 20)
#    0.000    2.154    1.538    1.846    0.000    4.308 
#    2.769    0.769    0.000    0.000    0.000    0.000 
#    0.000    0.000    0.000    0.000    0.000    0.000 
#
# Total GULP energy -72404.303916 kJ/mol
# GULP energy per Si atom -5569.561840 kJ/mol
# Density = 2.469746 g / cm^3
# Si number density = 24.753803 Si / 1000 Ang^3
#
#
#
# Elastic Constant Matrix: (Units=GPa)
#
#
# Indices 1 2 3 4 5 6 
#
# 1 120.1169 79.8823 34.4653 -3.8811 -18.0382 10.8624
# 2 79.8823 193.9408 71.2824 9.9722 -9.0107 17.0244
# 3 34.4653 71.2824 114.0767 16.4459 -22.5105 9.0196
# 4 -3.8811 9.9722 16.4459 37.6347 -4.9122 -18.5062
# 5 -18.0382 -9.0107 -22.5105 -4.9122 30.4516 2.5720
# 6 10.8624 17.0244 9.0196 -18.5062 2.5720 53.4053
#
#
#
# Elastic Compliance Matrix: (Units=1/GPa)
#
#
# Indices 1 2 3 4 5 6 
#
# 1 0.012895 -0.005251 0.000247 0.003443 0.006834 -0.000127
# 2 -0.005251 0.009001 -0.004326 -0.002384 -0.003885 -0.001710
# 3 0.000247 -0.004326 0.014194 -0.005571 0.008750 -0.003421
# 4 0.003443 -0.002384 -0.005571 0.037007 0.002026 0.013727
# 5 0.006834 -0.003885 0.008750 0.002026 0.042785 -0.002988
# 6 -0.000127 -0.001710 -0.003421 0.013727 -0.002988 0.024774
#
#
# Mechanical properties :
#
#
# Convention : Reuss Voigt Hill
#
# Bulk Modulus (GPa) = 57.36483 88.82160 73.09322
# Shear Modulus (GPa) = 30.28014 40.46527 35.37270
#
# Velocity S-wave (km/s) = 3.50130 4.04754 3.78429
# Velocity P-wave (km/s) = 6.29046 7.60285 6.97758
#
# Compressibility (1/GPa) = 0.01743228
#
# Stress axis : x y z
#
# Youngs Moduli (GPa) = 77.54902 111.09908 70.44995
#
# Poissons Ratio (x) = 0.58333 -0.01741
# Poissons Ratio (y) = 0.40718 0.30475
# Poissons Ratio (z) = -0.01917 0.48058
#
# Static dielectric constant tensor:
#      x y z
#    x 2.369140 -0.028450 0.036140 
#    y -0.028450 2.013200 -0.055300 
#    z 0.036140 -0.055300 2.157530 
# 
# From -- ./inp_files/146993.got.cif
#   From: 2010.05.17/outbox.cif.g08.bks.cpg/sg2_74_cif.got.tgz:146993.got - 2010.06.03 11:33:40.
