data_PCOD9099091
_publ_section_title
;
Structure prediction by ZEFSAII (Michael W. Deem and Ramdas Pophale) SiO2 
 PCOD9099091
Probable space group: P -1
;
_chemical_formula_sum "Si O2"
_cell_formula_units_Z 12
_cell_length_a 6.788343
_cell_length_b 9.661101
_cell_length_c 13.860912
_cell_angle_alpha 45.473471
_cell_angle_beta 43.146186
_cell_angle_gamma 68.710190
_cell_volume 422.122853
_symmetry_space_group_name_H-M "P -1"
_symmetry_group_IT_number 2
_symmetry_cell_setting 'triclinic'
loop_
_space_group_symop_operation_xyz
x,y,z
-x,-y,-z
loop_
_atom_site_type_symbol
_atom_site_label
_atom_site_fract_x
_atom_site_fract_y
_atom_site_fract_z
Si Si1 0.328293 0.502494 0.958918
Si Si2 0.326094 0.787168 0.070646
Si Si3 0.859352 0.638007 0.144699
Si Si4 0.125408 0.066515 0.732016
Si Si5 0.161143 0.137660 0.466298
Si Si6 0.410945 0.776261 0.344229
O O1 0.430666 0.334578 0.944228
O O2 0.978404 0.479914 0.117296
O O3 0.507772 0.725201 0.746941
O O4 0.500000 0.500000 0.000000
O O5 0.145648 0.832952 0.203939
O O6 0.057172 0.662811 0.158632
O O7 0.478500 0.997506 0.854935
O O8 0.999116 0.856535 0.937450
O O9 0.531284 0.627352 0.306721
O O10 0.421247 0.190995 0.627085
O O11 0.172275 0.041904 0.614116
O O12 0.944918 0.279091 0.490282
O O13 0.000000 0.000000 0.500000
#
# Coordination Sequence:
#
# PCOD9099091 Si02
#       6
#     2   2   2   2   2   2
#     4  10  20  37  59  84 121 158 187 237 301 346
#     4   8  16  35  62  85 116 157 186 229 300 350
#     4   8  16  34  60  83 113 153 186 227 288 347
#     4   9  19  37  61  86 119 154 192 240 290 344
#     4  12  24  35  60  92 115 150 203 247 282 337
#     4   9  19  39  64  88 112 151 201 238 279 347
#
# _framework density 28.427745000000002
#
# number of rings (size 3 to 8) (size 9 to 14) (size 15 to 20)
#    0.000    2.667    0.000    5.000    0.000    6.000 
#    0.000    7.500    0.000   40.000    0.000    0.000 
#    0.000    0.000    0.000    0.000    0.000    0.000 
#
# Total GULP energy -67239.771950 kJ/mol
# GULP energy per Si atom -5603.314329 kJ/mol
# Density = 2.836304 g / cm^3
# Si number density = 28.427745 Si / 1000 Ang^3
#
#
#
# Elastic Constant Matrix: (Units=GPa)
#
#
# Indices 1 2 3 4 5 6 
#
# 1 121.3429 47.1167 21.9402 24.9309 2.8564 11.0154
# 2 47.1167 178.6160 36.6499 38.6301 3.2236 -36.8031
# 3 21.9402 36.6499 108.0243 6.6256 24.7112 8.5565
# 4 24.9309 38.6301 6.6256 55.9426 -5.3849 -2.8270
# 5 2.8564 3.2236 24.7112 -5.3849 49.7010 28.0729
# 6 11.0154 -36.8031 8.5565 -2.8270 28.0729 56.5832
#
#
#
# Elastic Compliance Matrix: (Units=1/GPa)
#
#
# Indices 1 2 3 4 5 6 
#
# 1 0.010661 -0.003314 -0.001172 -0.002308 0.003181 -0.005748
# 2 -0.003314 0.010271 -0.001942 -0.005434 -0.005904 0.010277
# 3 -0.001172 -0.001942 0.011405 -0.000015 -0.005446 -0.000058
# 4 -0.002308 -0.005434 -0.000015 0.022963 0.005660 -0.004744
# 5 0.003181 -0.005904 -0.005446 0.005660 0.035477 -0.020954
# 6 -0.005748 0.010277 -0.000058 -0.004744 -0.020954 0.035644
#
#
# Mechanical properties :
#
#
# Convention : Reuss Voigt Hill
#
# Bulk Modulus (GPa) = 51.33100 68.82187 60.07643
# Shear Modulus (GPa) = 34.30051 52.59713 43.44882
#
# Velocity S-wave (km/s) = 3.47736 4.30607 3.91371
# Velocity P-wave (km/s) = 5.84967 6.99892 6.44994
#
# Compressibility (1/GPa) = 0.01948141
#
# Stress axis : x y z
#
# Youngs Moduli (GPa) = 93.80017 97.36618 87.67879
#
# Poissons Ratio (x) = 0.32271 0.10274
# Poissons Ratio (y) = 0.31089 0.17023
# Poissons Ratio (z) = 0.10991 0.18904
#
# Static dielectric constant tensor:
#      x y z
#    x 2.200260 0.017420 0.044480 
#    y 0.017420 2.307570 0.016920 
#    z 0.044480 0.016920 2.129590 
# 
# From -- ./inp_files/497377.got.cif
#   From: 2010.05.17/outbox.cif.g08.bks.cpg/sg2_249_cif.got.tgz:497377.got - 2010.06.03 11:33:40.
