data_PCOD9099264
_publ_section_title
;
Structure prediction by ZEFSAII (Michael W. Deem and Ramdas Pophale) SiO2 
 PCOD9099264
Probable space group: P -1
;
_chemical_formula_sum "Si O2"
_cell_formula_units_Z 14
_cell_length_a 11.050695
_cell_length_b 14.777084
_cell_length_c 9.296055
_cell_angle_alpha 101.432699
_cell_angle_beta 106.039852
_cell_angle_gamma 26.825058
_cell_volume 654.259470
_symmetry_space_group_name_H-M "P -1"
_symmetry_group_IT_number 2
_symmetry_cell_setting 'triclinic'
loop_
_space_group_symop_operation_xyz
x,y,z
-x,-y,-z
loop_
_atom_site_type_symbol
_atom_site_label
_atom_site_fract_x
_atom_site_fract_y
_atom_site_fract_z
Si Si1 0.972989 0.708431 0.594344
Si Si2 0.099485 0.311194 0.863112
Si Si3 0.567634 0.530021 0.153673
Si Si4 0.730424 0.288610 0.591646
Si Si5 0.091475 0.524091 0.836042
Si Si6 0.306650 0.017576 0.659713
Si Si7 0.392243 0.362193 0.381312
O O1 0.146389 0.673323 0.727492
O O2 0.918450 0.668619 0.685375
O O3 0.187125 0.518958 0.495716
O O4 0.732725 0.907859 0.484347
O O5 0.789241 0.486011 0.764749
O O6 0.158468 0.372210 0.827097
O O7 0.300478 0.101976 0.803534
O O8 0.073511 0.340766 0.032823
O O9 0.342853 0.676201 0.252804
O O10 0.639143 0.584772 0.127906
O O11 0.500000 0.500000 0.000000
O O12 0.500000 0.500000 0.500000
O O13 0.673516 0.229900 0.472682
O O14 0.018474 0.150277 0.625987
O O15 0.533040 0.791564 0.671338
#
# Coordination Sequence:
#
# PCOD9099264 Si02
#       7
#     2   2   2   2   2   2   2
#     4   8  19  36  54  79 113 137 177 225 267 315
#     4  10  20  37  60  76 110 145 183 221 272 324
#     4   9  17  30  58  79 103 141 177 215 270 324
#     4  11  17  34  55  80 110 141 178 225 263 319
#     4   9  19  37  57  80 109 146 178 226 273 314
#     4  11  20  35  57  83 108 145 181 222 271 316
#     4  10  21  34  55  85 108 143 182 222 267 323
#
# _framework density 21.398239
#
# number of rings (size 3 to 8) (size 9 to 14) (size 15 to 20)
#    0.857    1.429    4.286    1.286    0.000    2.286 
#    0.000    7.143    0.000    2.571    0.000    0.000 
#    0.000    0.000    0.000    0.000    0.000    0.000 
#
# Total GULP energy -78012.937547 kJ/mol
# GULP energy per Si atom -5572.352682 kJ/mol
# Density = 2.134954 g / cm^3
# Si number density = 21.398239 Si / 1000 Ang^3
#
#
#
# Elastic Constant Matrix: (Units=GPa)
#
#
# Indices 1 2 3 4 5 6 
#
# 1 113.9616 2.8428 24.3046 7.7521 -0.2800 1.1672
# 2 2.8428 79.7033 24.8608 5.0195 6.5253 24.1001
# 3 24.3046 24.8608 87.3515 12.5486 2.4661 9.7195
# 4 7.7521 5.0195 12.5486 7.3723 14.6322 18.7576
# 5 -0.2800 6.5253 2.4661 14.6322 38.3762 -3.7188
# 6 1.1672 24.1001 9.7195 18.7576 -3.7188 27.0808
#
#
#
# Elastic Compliance Matrix: (Units=1/GPa)
#
#
# Indices 1 2 3 4 5 6 
#
# 1 0.009236 0.001218 -0.002985 0.002438 -0.001095 -0.002249
# 2 0.001218 0.013704 -0.002042 -0.016447 0.004124 0.000443
# 3 -0.002985 -0.002042 0.012968 0.004844 -0.002982 -0.006473
# 4 0.002438 -0.016447 0.004844 -0.051906 0.027382 0.052506
# 5 -0.001095 0.004124 -0.002982 0.027382 0.013190 -0.019707
# 6 -0.002249 0.000443 -0.006473 0.052506 -0.019707 -0.000122
#
#
# Mechanical properties :
#
#
# Convention : Reuss Voigt Hill
#
# Bulk Modulus (GPa) = 35.34885 42.78142 39.06514
# Shear Modulus (GPa) = 354.10460 29.83307 191.96884
#
# Velocity S-wave (km/s) = 12.87798 3.73793 9.48194
# Velocity P-wave (km/s) = 15.41682 6.21819 11.75466
#
# Compressibility (1/GPa) = 0.02828946
#
# Stress axis : x y z
#
# Youngs Moduli (GPa) = 108.27515 72.96948 77.11028
#
# Poissons Ratio (x) = -0.08888 0.23020
# Poissons Ratio (y) = -0.13189 0.15748
# Poissons Ratio (z) = 0.32324 0.14902
#
# Static dielectric constant tensor:
#      x y z
#    x 1.879620 -0.018840 0.034770 
#    y -0.018840 1.795530 -0.008690 
#    z 0.034770 -0.008690 1.793780 
# 
# From -- ./inp_files/273775.got.cif
#   From: 2010.05.17/outbox.cif.g08.bks.cpg/sg2_137_cif.got.tgz:273775.got - 2010.06.03 11:33:40.
