data_PCOD9099614
_publ_section_title
;
Structure prediction by ZEFSAII (Michael W. Deem and Ramdas Pophale) SiO2 
 PCOD9099614
Probable space group: P -1
;
_chemical_formula_sum "Si O2"
_cell_formula_units_Z 14
_cell_length_a 13.207134
_cell_length_b 7.760007
_cell_length_c 13.676506
_cell_angle_alpha 119.761737
_cell_angle_beta 148.041516
_cell_angle_gamma 78.895123
_cell_volume 558.725867
_symmetry_space_group_name_H-M "P -1"
_symmetry_group_IT_number 2
_symmetry_cell_setting 'triclinic'
loop_
_space_group_symop_operation_xyz
x,y,z
-x,-y,-z
loop_
_atom_site_type_symbol
_atom_site_label
_atom_site_fract_x
_atom_site_fract_y
_atom_site_fract_z
Si Si1 0.108650 0.758147 0.535474
Si Si2 0.564837 0.828509 0.196988
Si Si3 0.213148 0.739432 0.214459
Si Si4 0.261415 0.477275 0.688131
Si Si5 0.007870 0.587194 0.804630
Si Si6 0.046297 0.028699 0.929234
Si Si7 0.466556 0.769722 0.604931
O O1 0.259910 0.640105 0.647503
O O2 0.961606 0.600396 0.281099
O O3 0.975922 0.705823 0.512353
O O4 0.238819 0.013003 0.674107
O O5 0.619416 0.671627 0.267504
O O6 0.526094 0.013759 0.273723
O O7 0.375850 0.654054 0.921288
O O8 0.428143 0.782779 0.460728
O O9 0.000000 0.500000 0.000000
O O10 0.195748 0.714301 0.076498
O O11 0.133695 0.911523 0.239055
O O12 0.761681 0.450874 0.610784
O O13 0.018122 0.789417 0.803994
O O14 0.302879 0.218774 0.180474
O O15 0.000000 0.000000 0.000000
#
# Coordination Sequence:
#
# PCOD9099614 Si02
#       7
#     2   2   2   2   2   2   2
#     4  10  20  37  61  86 121 154 197 248 302 348
#     4  10  21  38  59  86 122 153 201 246 295 365
#     4   9  20  37  59  85 118 153 194 239 291 359
#     4  10  21  36  61  88 115 159 196 248 301 356
#     4   9  20  36  57  85 118 151 197 241 288 361
#     4  10  21  36  58  84 115 155 197 241 290 354
#     4  10  21  39  60  83 122 158 190 250 298 344
#
# _framework density 25.057009000000001
#
# number of rings (size 3 to 8) (size 9 to 14) (size 15 to 20)
#    0.000    2.286    0.000    1.714    2.000    7.429 
#    0.000    1.429   34.571    0.000    0.000    0.000 
#    0.000    0.000    0.000    0.000    0.000    0.000 
#
# Total GULP energy -78171.113995 kJ/mol
# GULP energy per Si atom -5583.651000 kJ/mol
# Density = 2.499998 g / cm^3
# Si number density = 25.057009 Si / 1000 Ang^3
#
#
#
# Elastic Constant Matrix: (Units=GPa)
#
#
# Indices 1 2 3 4 5 6 
#
# 1 56.1860 -8.8483 23.4165 4.3557 8.3946 4.6515
# 2 -8.8483 82.5068 20.9617 5.0565 -1.5353 5.0188
# 3 23.4165 20.9617 90.1343 8.7329 8.6925 1.6054
# 4 4.3557 5.0565 8.7329 36.5150 6.3639 -0.2194
# 5 8.3946 -1.5353 8.6925 6.3639 34.3653 5.1930
# 6 4.6515 5.0188 1.6054 -0.2194 5.1930 23.7793
#
#
#
# Elastic Compliance Matrix: (Units=1/GPa)
#
#
# Indices 1 2 3 4 5 6 
#
# 1 0.021898 0.004205 -0.006208 -0.001259 -0.002728 -0.004168
# 2 0.004205 0.014026 -0.004271 -0.001721 0.001581 -0.003856
# 3 -0.006208 -0.004271 0.014039 -0.001638 -0.002168 0.001626
# 4 -0.001259 -0.001721 -0.001638 0.029059 -0.005052 0.002092
# 5 -0.002728 0.001581 -0.002168 -0.005052 0.032342 -0.006763
# 6 -0.004168 -0.003856 0.001626 0.002092 -0.006763 0.045069
#
#
# Mechanical properties :
#
#
# Convention : Reuss Voigt Hill
#
# Bulk Modulus (GPa) = 26.72675 33.32078 30.02377
# Shear Modulus (GPa) = 27.55540 31.81840 29.68690
#
# Velocity S-wave (km/s) = 3.31978 3.56735 3.44579
# Velocity P-wave (km/s) = 5.03827 5.50407 5.27631
#
# Compressibility (1/GPa) = 0.03741570
#
# Stress axis : x y z
#
# Youngs Moduli (GPa) = 45.66693 71.29688 71.22776
#
# Poissons Ratio (x) = -0.29983 0.44215
# Poissons Ratio (y) = -0.19205 0.30425
# Poissons Ratio (z) = 0.28348 0.30454
#
# Static dielectric constant tensor:
#      x y z
#    x 2.105860 -0.001930 -0.003100 
#    y -0.001930 2.023510 -0.026940 
#    z -0.003100 -0.026940 2.014370 
# 
# From -- ./inp_files/529022.got.cif
#   From: 2010.05.17/outbox.cif.g08.bks.cpg/sg2_265_cif.got.tgz:529022.got - 2010.06.03 11:33:40.
