data_PCOD9099113
_publ_section_title
;
Structure prediction by ZEFSAII (Michael W. Deem and Ramdas Pophale) SiO2 
 PCOD9099113
Probable space group: P -1
;
_chemical_formula_sum "Si O2"
_cell_formula_units_Z 16
_cell_length_a 22.417471
_cell_length_b 12.531463
_cell_length_c 8.709979
_cell_angle_alpha 81.817794
_cell_angle_beta 66.212592
_cell_angle_gamma 26.776067
_cell_volume 856.432661
_symmetry_space_group_name_H-M "P -1"
_symmetry_group_IT_number 2
_symmetry_cell_setting 'triclinic'
loop_
_space_group_symop_operation_xyz
x,y,z
-x,-y,-z
loop_
_atom_site_type_symbol
_atom_site_label
_atom_site_fract_x
_atom_site_fract_y
_atom_site_fract_z
Si Si1 0.181033 0.634503 0.031271
Si Si2 0.879638 0.689452 0.438368
Si Si3 0.635187 0.462897 0.516208
Si Si4 0.031715 0.241218 0.292526
Si Si5 0.937536 0.837233 0.356519
Si Si6 0.107931 0.756354 0.718720
Si Si7 0.405035 0.659381 0.906107
Si Si8 0.511656 0.696629 0.258681
O O1 0.151737 0.671643 0.870274
O O2 0.369333 0.390104 0.911604
O O3 0.111922 0.629692 0.175439
O O4 0.057920 0.915084 0.169446
O O5 0.915135 0.754103 0.321816
O O6 0.000000 0.500000 0.500000
O O7 0.928479 0.509668 0.328779
O O8 0.684893 0.984407 0.629306
O O9 0.740626 0.404731 0.479402
O O10 0.497592 0.615594 0.732501
O O11 0.548047 0.631848 0.415207
O O12 0.783092 0.148570 0.398711
O O13 0.070313 0.162124 0.450171
O O14 0.931576 0.292462 0.318351
O O15 0.209319 0.978293 0.074986
O O16 0.432224 0.504962 0.822626
O O17 0.500000 0.500000 0.000000
#
# Coordination Sequence:
#
# PCOD9099113 Si02
#       8
#     2   2   2   2   2   2   2   2
#     4   9  19  35  60  86 113 148 196 235 285 342
#     4  10  22  41  56  81 121 160 186 230 294 351
#     4  10  21  36  61  89 114 146 197 240 285 338
#     4  11  22  37  57  85 121 153 187 237 294 334
#     4  10  20  37  59  85 119 153 188 236 289 341
#     4   9  19  36  56  88 119 146 186 244 289 333
#     4  12  21  35  56  91 113 144 195 246 275 330
#     4  11  21  39  63  84 111 156 196 233 286 344
#
# _framework density 18.682145999999999
#
# number of rings (size 3 to 8) (size 9 to 14) (size 15 to 20)
#    0.000    1.750    3.750    1.875    0.000    3.000 
#    0.000    8.750    0.000    0.000    0.000    0.000 
#    0.000    0.000    0.000    0.000    0.000    0.000 
#
# Total GULP energy -89276.127463 kJ/mol
# GULP energy per Si atom -5579.757966 kJ/mol
# Density = 1.863962 g / cm^3
# Si number density = 18.682146 Si / 1000 Ang^3
#
#
#
# Elastic Constant Matrix: (Units=GPa)
#
#
# Indices 1 2 3 4 5 6 
#
# 1 209.8438 26.4887 105.5348 5.3181 -24.1979 25.1082
# 2 26.4887 48.6469 28.2436 17.2932 -16.2367 -0.5622
# 3 105.5348 28.2436 143.4833 9.3334 -39.8614 13.2247
# 4 5.3181 17.2932 9.3334 21.7891 -3.3912 0.4828
# 5 -24.1979 -16.2367 -39.8614 -3.3912 42.6141 4.0443
# 6 25.1082 -0.5622 13.2247 0.4828 4.0443 27.8522
#
#
#
# Elastic Compliance Matrix: (Units=1/GPa)
#
#
# Indices 1 2 3 4 5 6 
#
# 1 0.008283 -0.002404 -0.005529 0.002245 -0.000748 -0.004821
# 2 -0.002404 0.034214 -0.001329 -0.024783 0.008197 0.002728
# 3 -0.005529 -0.001329 0.014565 -0.002184 0.010127 -0.003391
# 4 0.002245 -0.024783 -0.002184 0.065241 -0.004837 -0.001915
# 5 -0.000748 0.008197 0.010127 -0.004837 0.036119 -0.009130
# 6 -0.004821 0.002728 -0.003391 -0.001915 -0.009130 0.043274
#
#
# Mechanical properties :
#
#
# Convention : Reuss Voigt Hill
#
# Bulk Modulus (GPa) = 25.94677 80.27868 53.11273
# Shear Modulus (GPa) = 21.45312 34.56487 28.00899
#
# Velocity S-wave (km/s) = 3.39237 4.30601 3.87620
# Velocity P-wave (km/s) = 5.40952 8.23325 6.96596
#
# Compressibility (1/GPa) = 0.03854044
#
# Stress axis : x y z
#
# Youngs Moduli (GPa) = 120.72913 29.22764 68.65541
#
# Poissons Ratio (x) = 0.07025 0.37957
# Poissons Ratio (y) = 0.29018 0.09124
# Poissons Ratio (z) = 0.66746 0.03884
#
# Static dielectric constant tensor:
#      x y z
#    x 1.640210 -0.003300 -0.034250 
#    y -0.003300 1.637170 -0.016650 
#    z -0.034250 -0.016650 1.641020 
# 
# From -- ./inp_files/257217.got.cif
#   From: 2010.05.17/outbox.cif.g08.bks.cpg/sg2_129_cif.got.tgz:257217.got - 2010.06.03 11:33:40.
