data_PCOD9099173
_publ_section_title
;
Structure prediction by ZEFSAII (Michael W. Deem and Ramdas Pophale) SiO2 
 PCOD9099173
Probable space group: P -1
;
_chemical_formula_sum "Si O2"
_cell_formula_units_Z 14
_cell_length_a 8.861288
_cell_length_b 10.813502
_cell_length_c 24.451033
_cell_angle_alpha 28.795814
_cell_angle_beta 144.568881
_cell_angle_gamma 127.110714
_cell_volume 600.655358
_symmetry_space_group_name_H-M "P -1"
_symmetry_group_IT_number 2
_symmetry_cell_setting 'triclinic'
loop_
_space_group_symop_operation_xyz
x,y,z
-x,-y,-z
loop_
_atom_site_type_symbol
_atom_site_label
_atom_site_fract_x
_atom_site_fract_y
_atom_site_fract_z
Si Si1 0.547139 0.986611 0.584585
Si Si2 0.720266 0.639903 0.072849
Si Si3 0.145862 0.552805 0.577733
Si Si4 0.679977 0.190885 0.317996
Si Si5 0.687919 0.370835 0.740125
Si Si6 0.874499 0.142079 0.227316
Si Si7 0.618632 0.696985 0.426686
O O1 0.378464 0.310673 0.424277
O O2 0.500000 0.000000 0.500000
O O3 0.466862 0.774919 0.679374
O O4 0.981398 0.108864 0.590517
O O5 0.678671 0.457906 0.181521
O O6 0.807331 0.427173 0.129481
O O7 0.971053 0.748887 0.109196
O O8 0.405870 0.859380 0.881970
O O9 0.481350 0.420990 0.713365
O O10 0.000000 0.500000 0.500000
O O11 0.956800 0.511449 0.586852
O O12 0.571332 0.990235 0.328008
O O13 0.000000 0.000000 0.500000
O O14 0.560161 0.237004 0.708124
O O15 0.878204 0.906063 0.723906
O O16 0.500000 0.500000 0.500000
#
# Coordination Sequence:
#
# PCOD9099173 Si02
#       7
#     2   2   2   2   2   2   2
#     4  11  20  36  60  88 117 155 206 252 296 354
#     4  11  21  38  60  92 122 160 199 247 317 351
#     4   9  20  36  61  88 114 159 200 244 297 352
#     4  12  22  35  62  93 120 158 205 253 301 361
#     4  10  20  37  59  88 118 156 202 246 297 360
#     4  10  21  36  61  87 129 155 197 257 297 372
#     4  11  20  36  56  91 121 151 202 258 296 345
#
# _framework density 23.307876
#
# number of rings (size 3 to 8) (size 9 to 14) (size 15 to 20)
#    0.000    1.429    5.714    0.000    2.000    0.571 
#    0.000    2.857    0.000    0.857    0.000    0.000 
#    0.000    0.000    0.000    0.000    0.000    0.000 
#
# Total GULP energy -78102.799571 kJ/mol
# GULP energy per Si atom -5578.771398 kJ/mol
# Density = 2.325483 g / cm^3
# Si number density = 23.307876 Si / 1000 Ang^3
#
#
#
# Elastic Constant Matrix: (Units=GPa)
#
#
# Indices 1 2 3 4 5 6 
#
# 1 158.5562 30.2746 56.0541 12.4702 11.8144 50.6422
# 2 30.2746 95.5092 29.1614 19.6806 -10.1924 15.1378
# 3 56.0541 29.1614 107.1741 29.8833 22.3687 21.7364
# 4 12.4702 19.6806 29.8833 32.5845 10.5383 -2.3412
# 5 11.8144 -10.1924 22.3687 10.5383 37.9690 10.5210
# 6 50.6422 15.1378 21.7364 -2.3412 10.5210 53.1394
#
#
#
# Elastic Compliance Matrix: (Units=1/GPa)
#
#
# Indices 1 2 3 4 5 6 
#
# 1 0.010419 -0.000301 -0.003395 -0.001863 0.001650 -0.008864
# 2 -0.000301 0.015427 -0.001831 -0.011189 0.010037 -0.005839
# 3 -0.003395 -0.001831 0.016230 -0.010923 -0.005325 -0.002309
# 4 -0.001863 -0.011189 -0.010923 0.054130 -0.015116 0.014808
# 5 0.001650 0.010037 -0.005325 -0.015116 0.038788 -0.010599
# 6 -0.008864 -0.005839 -0.002309 0.014808 -0.010599 0.032624
#
#
# Mechanical properties :
#
#
# Convention : Reuss Voigt Hill
#
# Bulk Modulus (GPa) = 32.23558 65.80221 49.01889
# Shear Modulus (GPa) = 26.45330 41.12187 33.78759
#
# Velocity S-wave (km/s) = 3.37256 4.20490 3.81152
# Velocity P-wave (km/s) = 5.38757 7.20194 6.35979
#
# Compressibility (1/GPa) = 0.03102163
#
# Stress axis : x y z
#
# Youngs Moduli (GPa) = 95.97629 64.82249 61.61589
#
# Poissons Ratio (x) = 0.01954 0.20917
# Poissons Ratio (y) = 0.02893 0.11281
# Poissons Ratio (z) = 0.32582 0.11868
#
# Static dielectric constant tensor:
#      x y z
#    x 2.021090 0.061460 -0.004710 
#    y 0.061460 2.027000 0.028230 
#    z -0.004710 0.028230 1.912300 
# 
# From -- ./inp_files/607552.got.cif
#   From: 2010.05.17/outbox.cif.g08.bks.cpg/sg2_304_cif.got.tgz:607552.got - 2010.06.03 11:33:40.
