data_PCOD9099450
_publ_section_title
;
Structure prediction by ZEFSAII (Michael W. Deem and Ramdas Pophale) SiO2 
 PCOD9099450
Probable space group: P -1
;
_chemical_formula_sum "Si O2"
_cell_formula_units_Z 14
_cell_length_a 11.190185
_cell_length_b 7.137833
_cell_length_c 9.286397
_cell_angle_alpha 105.954580
_cell_angle_beta 61.398278
_cell_angle_gamma 81.639159
_cell_volume 591.469347
_symmetry_space_group_name_H-M "P -1"
_symmetry_group_IT_number 2
_symmetry_cell_setting 'triclinic'
loop_
_space_group_symop_operation_xyz
x,y,z
-x,-y,-z
loop_
_atom_site_type_symbol
_atom_site_label
_atom_site_fract_x
_atom_site_fract_y
_atom_site_fract_z
Si Si1 0.799480 0.985432 0.991881
Si Si2 0.838635 0.348021 0.603064
Si Si3 0.165885 0.239507 0.476463
Si Si4 0.400909 0.878609 0.101150
Si Si5 0.688008 0.605568 0.997686
Si Si6 0.870132 0.132249 0.262614
Si Si7 0.150590 0.459513 0.820866
O O1 0.795355 0.019083 0.172731
O O2 0.772008 0.768107 0.937711
O O3 0.681424 0.154563 0.002408
O O4 0.957707 0.981280 0.850696
O O5 0.817274 0.561670 0.574760
O O6 0.807634 0.198843 0.470167
O O7 0.004420 0.249658 0.533402
O O8 0.748135 0.413287 0.814032
O O9 0.175445 0.280969 0.649443
O O10 0.281700 0.037382 0.302787
O O11 0.518773 0.705092 0.086588
O O12 0.500000 0.000000 0.000000
O O13 0.729261 0.570678 0.133038
O O14 0.861312 0.338462 0.222236
O O15 0.000000 0.500000 0.000000
#
# Coordination Sequence:
#
# PCOD9099450 Si02
#       7
#     2   2   2   2   2   2   2
#     4  10  18  34  55  83 105 144 175 233 265 315
#     4  10  16  31  55  83  97 142 185 222 251 323
#     4  10  17  30  54  79 109 134 185 220 262 309
#     4  10  19  33  55  83 106 143 182 225 256 328
#     4  11  20  35  60  79 110 139 190 216 267 318
#     4  10  20  32  58  81 111 134 183 227 279 298
#     4  11  20  33  54  86 108 141 179 231 263 321
#
# _framework density 23.669862999999999
#
# number of rings (size 3 to 8) (size 9 to 14) (size 15 to 20)
#    0.000    1.714    7.143    0.857    0.000    0.571 
#    0.000    1.429    3.143    3.429    0.000    0.000 
#    0.000    0.000    0.000    0.000    0.000    0.000 
#
# Total GULP energy -78332.430597 kJ/mol
# GULP energy per Si atom -5595.173614 kJ/mol
# Density = 2.361599 g / cm^3
# Si number density = 23.669863 Si / 1000 Ang^3
#
#
#
# Elastic Constant Matrix: (Units=GPa)
#
#
# Indices 1 2 3 4 5 6 
#
# 1 174.2276 38.5119 81.0066 14.8743 32.5594 -40.0672
# 2 38.5119 51.2279 32.3051 -8.1797 4.6738 -6.7341
# 3 81.0066 32.3051 172.4518 22.0972 37.9521 -15.7332
# 4 14.8743 -8.1797 22.0972 45.9882 -0.7589 3.3113
# 5 32.5594 4.6738 37.9521 -0.7589 52.7149 5.0674
# 6 -40.0672 -6.7341 -15.7332 3.3113 5.0674 45.9943
#
#
#
# Elastic Compliance Matrix: (Units=1/GPa)
#
#
# Indices 1 2 3 4 5 6 
#
# 1 0.011948 -0.007188 -0.001099 -0.005461 -0.007005 0.010145
# 2 -0.007188 0.028574 -0.005172 0.010377 0.006288 -0.005287
# 3 -0.001099 -0.005172 0.009556 -0.005445 -0.006073 0.002616
# 4 -0.005461 0.010377 -0.005445 0.028673 0.007555 -0.007997
# 5 -0.007005 0.006288 -0.006073 0.007555 0.028269 -0.010917
# 6 0.010145 -0.005287 0.002616 -0.007997 -0.010917 0.032478
#
#
# Mechanical properties :
#
#
# Convention : Reuss Voigt Hill
#
# Bulk Modulus (GPa) = 43.17734 77.95053 60.56394
# Shear Modulus (GPa) = 28.71285 45.34506 37.02896
#
# Velocity S-wave (km/s) = 3.48667 4.38165 3.95953
# Velocity P-wave (km/s) = 5.87284 7.65522 6.82249
#
# Compressibility (1/GPa) = 0.02316029
#
# Stress axis : x y z
#
# Youngs Moduli (GPa) = 83.69813 34.99642 104.64084
#
# Poissons Ratio (x) = 0.25157 0.11498
# Poissons Ratio (y) = 0.60165 0.54120
# Poissons Ratio (z) = 0.09197 0.18100
#
# Static dielectric constant tensor:
#      x y z
#    x 1.876260 0.048770 0.033760 
#    y 0.048770 2.024750 -0.000610 
#    z 0.033760 -0.000610 1.867080 
# 
# From -- ./inp_files/240189.got.cif
#   From: 2010.05.17/outbox.cif.g08.bks.cpg/sg2_121_cif.got.tgz:240189.got - 2010.06.03 11:33:40.
