data_PCOD9099577
_publ_section_title
;
Structure prediction by ZEFSAII (Michael W. Deem and Ramdas Pophale) SiO2 
 PCOD9099577
Probable space group: P -1
;
_chemical_formula_sum "Si O2"
_cell_formula_units_Z 14
_cell_length_a 8.004666
_cell_length_b 14.359804
_cell_length_c 12.436321
_cell_angle_alpha 152.829768
_cell_angle_beta 64.632908
_cell_angle_gamma 112.358615
_cell_volume 589.820976
_symmetry_space_group_name_H-M "P -1"
_symmetry_group_IT_number 2
_symmetry_cell_setting 'triclinic'
loop_
_space_group_symop_operation_xyz
x,y,z
-x,-y,-z
loop_
_atom_site_type_symbol
_atom_site_label
_atom_site_fract_x
_atom_site_fract_y
_atom_site_fract_z
Si Si1 0.956609 0.531314 0.184988
Si Si2 0.465404 0.989018 0.293191
Si Si3 0.890965 0.807570 0.786422
Si Si4 0.865753 0.820139 0.315731
Si Si5 0.628861 0.727521 0.592644
Si Si6 0.612097 0.575021 0.759202
Si Si7 0.219336 0.733776 0.462111
O O1 0.125579 0.682929 0.323574
O O2 0.868680 0.627377 0.199644
O O3 0.792160 0.571811 0.354699
O O4 0.038145 0.302587 0.934009
O O5 0.332690 0.072987 0.510538
O O6 0.401357 0.108012 0.324956
O O7 0.671647 0.057141 0.339554
O O8 0.471889 0.753893 0.016318
O O9 0.709412 0.837467 0.789464
O O10 0.801541 0.676545 0.771141
O O11 0.052988 0.715918 0.574593
O O12 0.000000 0.000000 0.000000
O O13 0.000000 0.000000 0.500000
O O14 0.452043 0.579391 0.477151
O O15 0.637925 0.438405 0.717214
#
# Coordination Sequence:
#
# PCOD9099577 Si02
#       7
#     2   2   2   2   2   2   2
#     4   9  20  39  59  83 115 149 185 241 280 334
#     4  10  21  38  58  85 116 149 187 240 281 341
#     4  11  21  40  59  84 117 152 192 241 280 331
#     4  10  20  37  61  85 110 147 195 230 284 344
#     4   9  21  39  59  83 115 154 192 231 285 335
#     4  11  21  38  59  84 116 156 192 229 282 343
#     4  10  22  40  57  83 118 150 189 236 290 330
#
# _framework density 23.736015999999999
#
# number of rings (size 3 to 8) (size 9 to 14) (size 15 to 20)
#    0.000    2.000    1.429    1.714    0.000    3.429 
#   10.286    1.429    0.000    0.000    0.000    0.000 
#    0.000    0.000    0.000    0.000    0.000    0.000 
#
# Total GULP energy -78005.072968 kJ/mol
# GULP energy per Si atom -5571.790926 kJ/mol
# Density = 2.368199 g / cm^3
# Si number density = 23.736016 Si / 1000 Ang^3
#
#
#
# Elastic Constant Matrix: (Units=GPa)
#
#
# Indices 1 2 3 4 5 6 
#
# 1 78.9907 3.5275 27.0411 9.2827 15.2484 9.6887
# 2 3.5275 27.5780 3.2553 6.3953 -1.7931 14.5288
# 3 27.0411 3.2553 97.2262 9.9087 -4.0076 -1.5410
# 4 9.2827 6.3953 9.9087 25.4404 14.1057 3.6337
# 5 15.2484 -1.7931 -4.0076 14.1057 41.3475 2.2888
# 6 9.6887 14.5288 -1.5410 3.6337 2.2888 31.6296
#
#
#
# Elastic Compliance Matrix: (Units=1/GPa)
#
#
# Indices 1 2 3 4 5 6 
#
# 1 0.016075 0.000830 -0.004815 -0.000126 -0.006034 -0.005089
# 2 0.000830 0.052345 -0.000547 -0.014430 0.008121 -0.023255
# 3 -0.004815 -0.000547 0.012505 -0.006068 0.004886 0.002679
# 4 -0.000126 -0.014430 -0.006068 0.056532 -0.020529 0.001362
# 5 -0.006034 0.008121 0.004886 -0.020529 0.034338 -0.001770
# 6 -0.005089 -0.023255 0.002679 0.001362 -0.001770 0.043959
#
#
# Mechanical properties :
#
#
# Convention : Reuss Voigt Hill
#
# Bulk Modulus (GPa) = 13.91575 30.16031 22.03803
# Shear Modulus (GPa) = 20.09881 31.01488 25.55684
#
# Velocity S-wave (km/s) = 2.91308 3.61870 3.28489
# Velocity P-wave (km/s) = 4.14610 5.49491 4.86745
#
# Compressibility (1/GPa) = 0.07186103
#
# Stress axis : x y z
#
# Youngs Moduli (GPa) = 62.20888 19.10407 79.96752
#
# Poissons Ratio (x) = -0.01586 0.38506
# Poissons Ratio (y) = -0.05163 0.04372
# Poissons Ratio (z) = 0.29955 0.01044
#
# Static dielectric constant tensor:
#      x y z
#    x 1.969500 -0.024700 0.025780 
#    y -0.024700 1.950680 -0.109640 
#    z 0.025780 -0.109640 2.036080 
# 
# From -- ./inp_files/32887.got.cif
#   From: 2010.05.17/outbox.cif.g08.bks.cpg/sg2_17_cif.got.tgz:32887.got - 2010.06.03 11:33:40.
