data_PCOD9099932
_publ_section_title
;
Structure prediction by ZEFSAII (Michael W. Deem and Ramdas Pophale) SiO2 
 PCOD9099932
Probable space group: P -1
;
_chemical_formula_sum "Si O2"
_cell_formula_units_Z 15
_cell_length_a 21.201321
_cell_length_b 6.862324
_cell_length_c 9.637069
_cell_angle_alpha 95.747453
_cell_angle_beta 131.672951
_cell_angle_gamma 47.831574
_cell_volume 605.741618
_symmetry_space_group_name_H-M "P -1"
_symmetry_group_IT_number 2
_symmetry_cell_setting 'triclinic'
loop_
_space_group_symop_operation_xyz
x,y,z
-x,-y,-z
loop_
_atom_site_type_symbol
_atom_site_label
_atom_site_fract_x
_atom_site_fract_y
_atom_site_fract_z
Si Si1 0.209547 0.251998 0.010388
Si Si2 0.124716 0.848487 0.570542
Si Si3 0.040145 0.959251 0.897459
Si Si4 0.403104 0.978513 0.500919
Si Si5 0.000000 0.500000 0.500000
Si Si6 0.470631 0.727709 0.152214
Si Si7 0.554977 0.669410 0.977236
Si Si8 0.333130 0.557810 0.344528
O O1 0.282305 0.073315 0.254045
O O2 0.345452 0.043365 0.092752
O O3 0.118450 0.619829 0.927042
O O4 0.110712 0.289788 0.783157
O O5 0.290789 0.518291 0.837574
O O6 0.000000 0.000000 0.500000
O O7 0.099191 0.770490 0.386789
O O8 0.089383 0.145853 0.535604
O O9 0.165888 0.884350 0.078968
O O10 0.000000 0.000000 0.000000
O O11 0.556844 0.619381 0.634604
O O12 0.363683 0.272426 0.414694
O O13 0.430531 0.936467 0.700575
O O14 0.505572 0.789022 0.072500
O O15 0.611290 0.437653 0.436018
O O16 0.418527 0.614761 0.017158
#
# Coordination Sequence:
#
# PCOD9099932 Si02
#       8
#     2   2   2   2   1   2   2   2
#     4   9  19  38  63  87 121 176 205 253 340 374
#     4  11  23  40  67  96 126 175 221 258 325 390
#     4  10  20  37  62  87 125 165 210 263 312 385
#     4   9  19  35  59  89 121 154 209 267 309 380
#     4  10  20  42  64  86 132 170 210 266 314 388
#     4  10  21  37  61  90 128 167 204 261 327 376
#     4  11  22  38  59  97 128 161 218 263 313 385
#     4   9  18  36  57  87 117 163 204 255 333 362
#
# _framework density 24.763033
#
# number of rings (size 3 to 8) (size 9 to 14) (size 15 to 20)
#    0.000    2.133    1.333    2.400    0.000    4.800 
#    2.400    5.333    0.000    2.400    0.000    0.000 
#    0.000    0.000    0.000    0.000    0.000    0.000 
#
# Total GULP energy -83546.327211 kJ/mol
# GULP energy per Si atom -5569.755147 kJ/mol
# Density = 2.470667 g / cm^3
# Si number density = 24.763033 Si / 1000 Ang^3
#
#
#
# Elastic Constant Matrix: (Units=GPa)
#
#
# Indices 1 2 3 4 5 6 
#
# 1 56.2545 15.6915 54.3886 11.8037 -7.2835 -8.6626
# 2 15.6915 77.9890 36.8929 16.4827 5.8485 -8.7620
# 3 54.3886 36.8929 233.6268 40.8832 3.9209 -11.6388
# 4 11.8037 16.4827 40.8832 45.2912 -1.6859 -7.4007
# 5 -7.2835 5.8485 3.9209 -1.6859 44.0645 13.2751
# 6 -8.6626 -8.7620 -11.6388 -7.4007 13.2751 19.2080
#
#
#
# Elastic Compliance Matrix: (Units=1/GPa)
#
#
# Indices 1 2 3 4 5 6 
#
# 1 0.024572 -0.002231 -0.005195 -0.000037 0.003460 0.004511
# 2 -0.002231 0.015597 -0.000925 -0.003193 -0.004774 0.007617
# 3 -0.005195 -0.000925 0.006406 -0.004037 -0.001678 0.000721
# 4 -0.000037 -0.003193 -0.004037 0.028041 -0.000284 0.007081
# 5 0.003460 -0.004774 -0.001678 -0.000284 0.031022 -0.023183
# 6 0.004511 0.007617 0.000721 0.007081 -0.023183 0.076758
#
#
# Mechanical properties :
#
#
# Convention : Reuss Voigt Hill
#
# Bulk Modulus (GPa) = 33.47577 64.64627 49.06102
# Shear Modulus (GPa) = 23.91689 39.10590 31.51139
#
# Velocity S-wave (km/s) = 3.11115 3.97823 3.57111
# Velocity P-wave (km/s) = 5.14330 6.87491 6.07116
#
# Compressibility (1/GPa) = 0.02987235
#
# Stress axis : x y z
#
# Youngs Moduli (GPa) = 40.69751 64.11286 156.09614
#
# Poissons Ratio (x) = 0.14305 0.81090
# Poissons Ratio (y) = 0.09081 0.14444
# Poissons Ratio (z) = 0.21142 0.05933
#
# Static dielectric constant tensor:
#      x y z
#    x 2.075430 0.096940 -0.007930 
#    y 0.096940 1.971720 0.005850 
#    z -0.007930 0.005850 2.047190 
# 
# From -- ./inp_files/352267.got.cif
#   From: 2010.05.17/outbox.cif.g08.bks.cpg/sg2_177_cif.got.tgz:352267.got - 2010.06.03 11:33:40.
