data_PCOD9099034
_publ_section_title
;
Structure prediction by ZEFSAII (Michael W. Deem and Ramdas Pophale) SiO2 
 PCOD9099034
Probable space group: P -1
;
_chemical_formula_sum "Si O2"
_cell_formula_units_Z 16
_cell_length_a 12.084432
_cell_length_b 8.887210
_cell_length_c 8.553080
_cell_angle_alpha 62.670592
_cell_angle_beta 55.564525
_cell_angle_gamma 79.430398
_cell_volume 669.395653
_symmetry_space_group_name_H-M "P -1"
_symmetry_group_IT_number 2
_symmetry_cell_setting 'triclinic'
loop_
_space_group_symop_operation_xyz
x,y,z
-x,-y,-z
loop_
_atom_site_type_symbol
_atom_site_label
_atom_site_fract_x
_atom_site_fract_y
_atom_site_fract_z
Si Si1 0.472038 0.152593 0.059183
Si Si2 0.136058 0.416333 0.389150
Si Si3 0.828022 0.941395 0.598815
Si Si4 0.432438 0.484729 0.729345
Si Si5 0.815807 0.392050 0.034873
Si Si6 0.919996 0.722569 0.201689
Si Si7 0.935255 0.993588 0.820018
Si Si8 0.417113 0.835158 0.714705
O O1 0.329270 0.099441 0.284980
O O2 0.581385 0.160315 0.103237
O O3 0.462531 0.322600 0.884492
O O4 0.500000 0.000000 0.000000
O O5 0.116395 0.243448 0.384462
O O6 0.184008 0.370507 0.546650
O O7 0.000000 0.500000 0.500000
O O8 0.217444 0.543366 0.144953
O O9 0.847216 0.010421 0.727097
O O10 0.924669 0.054338 0.349313
O O11 0.500000 0.500000 0.500000
O O12 0.268886 0.491828 0.843740
O O13 0.477755 0.661619 0.697802
O O14 0.735946 0.204722 0.204733
O O15 0.975688 0.392831 0.908787
O O16 0.868547 0.846539 0.055834
O O17 0.017925 0.846754 0.181613
O O18 0.500000 0.000000 0.500000
#
# Coordination Sequence:
#
# PCOD9099034 Si02
#       8
#     2   2   2   2   2   2   2   2
#     4  12  25  40  64  94 130 176 222 261 322 390
#     4   9  17  37  61  84 114 165 195 254 314 382
#     4  10  20  37  59  81 130 158 204 256 315 364
#     4  10  22  42  63  88 132 167 219 272 314 382
#     4   9  20  36  65  81 129 155 207 260 323 366
#     4   9  18  35  62  89 119 152 213 245 327 377
#     4   9  20  35  56  92 118 157 197 268 306 382
#     4  10  23  41  64  92 124 171 219 267 325 379
#
# _framework density 23.902158
#
# number of rings (size 3 to 8) (size 9 to 14) (size 15 to 20)
#    0.750    1.500    1.250    1.125    3.500    0.000 
#    0.000    3.750    2.750    0.000    0.000    0.000 
#    0.000    0.000    0.000    0.000    0.000    0.000 
#
# Total GULP energy -89187.313720 kJ/mol
# GULP energy per Si atom -5574.207108 kJ/mol
# Density = 2.384776 g / cm^3
# Si number density = 23.902158 Si / 1000 Ang^3
#
#
#
# Elastic Constant Matrix: (Units=GPa)
#
#
# Indices 1 2 3 4 5 6 
#
# 1 35.6747 9.2742 -8.2842 0.4608 7.3859 -1.5378
# 2 9.2742 108.9624 7.4072 15.7748 5.2570 2.8815
# 3 -8.2842 7.4072 106.9629 5.0998 5.0341 -5.4538
# 4 0.4608 15.7748 5.0998 45.2317 0.1920 -1.8621
# 5 7.3859 5.2570 5.0341 0.1920 30.7051 3.3839
# 6 -1.5378 2.8815 -5.4538 -1.8621 3.3839 23.8188
#
#
#
# Elastic Compliance Matrix: (Units=1/GPa)
#
#
# Indices 1 2 3 4 5 6 
#
# 1 0.031313 -0.002672 0.003185 0.000463 -0.008069 0.004257
# 2 -0.002672 0.010040 -0.000791 -0.003453 -0.000734 -0.001734
# 3 0.003185 -0.000791 0.009955 -0.000749 -0.002576 0.002888
# 4 0.000463 -0.003453 -0.000749 0.023477 0.000227 0.002079
# 5 -0.008069 -0.000734 -0.002576 0.000227 0.035725 -0.006080
# 6 0.004257 -0.001734 0.002888 0.002079 -0.006080 0.044156
#
#
# Mechanical properties :
#
#
# Convention : Reuss Voigt Hill
#
# Bulk Modulus (GPa) = 19.70407 29.82160 24.76283
# Shear Modulus (GPa) = 29.04602 36.16463 32.60532
#
# Velocity S-wave (km/s) = 3.48976 3.89399 3.69740
# Velocity P-wave (km/s) = 4.94969 5.72024 5.34886
#
# Compressibility (1/GPa) = 0.05075095
#
# Stress axis : x y z
#
# Youngs Moduli (GPa) = 31.93520 99.60250 100.45465
#
# Poissons Ratio (x) = 0.26614 -0.31994
# Poissons Ratio (y) = 0.08533 0.07951
# Poissons Ratio (z) = -0.10171 0.07883
#
# Static dielectric constant tensor:
#      x y z
#    x 1.952820 0.012110 -0.021830 
#    y 0.012110 1.930640 -0.031910 
#    z -0.021830 -0.031910 1.952500 
# 
# From -- ./inp_files/294735.got.cif
#   From: 2010.05.17/outbox.cif.g08.bks.cpg/sg2_148_cif.got.tgz:294735.got - 2010.06.03 11:33:40.
