data_PCOD9099802
_publ_section_title
;
Structure prediction by ZEFSAII (Michael W. Deem and Ramdas Pophale) SiO2 
 PCOD9099802
Probable space group: P -1
;
_chemical_formula_sum "Si O2"
_cell_formula_units_Z 15
_cell_length_a 11.431343
_cell_length_b 16.059245
_cell_length_c 10.181523
_cell_angle_alpha 30.240081
_cell_angle_beta 129.937913
_cell_angle_gamma 134.845358
_cell_volume 664.606572
_symmetry_space_group_name_H-M "P -1"
_symmetry_group_IT_number 2
_symmetry_cell_setting 'triclinic'
loop_
_space_group_symop_operation_xyz
x,y,z
-x,-y,-z
loop_
_atom_site_type_symbol
_atom_site_label
_atom_site_fract_x
_atom_site_fract_y
_atom_site_fract_z
Si Si1 0.328110 0.875676 0.980906
Si Si2 0.319981 0.496863 0.393584
Si Si3 0.931587 0.691109 0.321695
Si Si4 0.500000 0.500000 0.000000
Si Si5 0.589226 0.908479 0.504488
Si Si6 0.988286 0.668146 0.115257
Si Si7 0.736493 0.102585 0.594480
Si Si8 0.741547 0.481483 0.979445
O O1 0.333213 0.685674 0.205157
O O2 0.166810 0.827569 0.020855
O O3 0.500000 0.000000 0.000000
O O4 0.308813 0.970611 0.704870
O O5 0.500000 0.500000 0.500000
O O6 0.210465 0.346965 0.621848
O O7 0.244435 0.479409 0.217319
O O8 0.982501 0.517113 0.599793
O O9 0.885507 0.689631 0.137172
O O10 0.097147 0.855651 0.260869
O O11 0.475250 0.297621 0.298973
O O12 0.424647 0.530581 0.050146
O O13 0.425723 0.950245 0.359260
O O14 0.695106 0.957559 0.647401
O O15 0.884496 0.638176 0.948941
O O16 0.754726 0.290212 0.280113
#
# Coordination Sequence:
#
# PCOD9099802 Si02
#       8
#     2   2   2   1   2   2   2   2
#     4  11  23  39  65  93 130 168 215 266 313 379
#     4  11  25  39  62  96 133 169 212 261 322 375
#     4   9  19  37  62  92 129 164 211 263 312 386
#     4  10  24  38  62  88 128 164 212 264 326 376
#     4  10  20  37  61  93 122 166 211 264 316 380
#     4   9  20  37  63  94 123 171 215 255 320 374
#     4   9  18  36  64  91 121 158 217 261 313 373
#     4  10  21  39  63  91 124 170 215 258 310 386
#
# _framework density 22.569745000000001
#
# number of rings (size 3 to 8) (size 9 to 14) (size 15 to 20)
#    0.000    2.133    1.333    0.800    5.600    3.733 
#    0.000    2.000    0.000    2.400    0.000    0.000 
#    0.000    0.000    0.000    0.000    0.000    0.000 
#
# Total GULP energy -83594.402557 kJ/mol
# GULP energy per Si atom -5572.960170 kJ/mol
# Density = 2.251837 g / cm^3
# Si number density = 22.569745 Si / 1000 Ang^3
#
#
#
# Elastic Constant Matrix: (Units=GPa)
#
#
# Indices 1 2 3 4 5 6 
#
# 1 98.7649 30.6536 19.9090 5.2686 -19.6494 -9.8189
# 2 30.6536 107.5268 12.9198 22.6682 -15.3846 0.9676
# 3 19.9090 12.9198 27.8568 -0.7885 -7.6850 -11.3817
# 4 5.2686 22.6682 -0.7885 25.3256 -3.9751 -6.6579
# 5 -19.6494 -15.3846 -7.6850 -3.9751 27.2906 -5.8890
# 6 -9.8189 0.9676 -11.3817 -6.6579 -5.8890 27.0234
#
#
#
# Elastic Compliance Matrix: (Units=1/GPa)
#
#
# Indices 1 2 3 4 5 6 
#
# 1 0.014068 -0.002901 -0.003406 0.002734 0.009333 0.006489
# 2 -0.002901 0.014363 -0.008971 -0.015063 -0.000699 -0.009210
# 3 -0.003406 -0.008971 0.064303 0.023886 0.022030 0.036853
# 4 0.002734 -0.015063 0.023886 0.063781 0.016145 0.030825
# 5 0.009333 -0.000699 0.022030 0.016145 0.057842 0.029278
# 6 0.006489 -0.009210 0.036853 0.030825 0.029278 0.069189
#
#
# Mechanical properties :
#
#
# Convention : Reuss Voigt Hill
#
# Bulk Modulus (GPa) = 16.08220 40.12369 28.10295
# Shear Modulus (GPa) = 14.93313 27.30563 21.11938
#
# Velocity S-wave (km/s) = 2.57503 3.48204 3.06230
# Velocity P-wave (km/s) = 3.99776 5.82944 4.99822
#
# Compressibility (1/GPa) = 0.06218054
#
# Stress axis : x y z
#
# Youngs Moduli (GPa) = 71.08362 69.62277 15.55134
#
# Poissons Ratio (x) = 0.20196 0.05296
# Poissons Ratio (y) = 0.20620 0.13950
# Poissons Ratio (z) = 0.24208 0.62455
#
# Static dielectric constant tensor:
#      x y z
#    x 1.859390 0.003310 0.020180 
#    y 0.003310 1.900660 -0.001490 
#    z 0.020180 -0.001490 1.862580 
# 
# From -- ./inp_files/266533.got.cif
#   From: 2010.05.17/outbox.cif.g08.bks.cpg/sg2_134_cif.got.tgz:266533.got - 2010.06.03 11:33:40.
