data_PCOD9099407
_publ_section_title
;
Structure prediction by ZEFSAII (Michael W. Deem and Ramdas Pophale) SiO2 
 PCOD9099407
Probable space group: P -1
;
_chemical_formula_sum "Si O2"
_cell_formula_units_Z 16
_cell_length_a 5.273821
_cell_length_b 16.363212
_cell_length_c 8.547589
_cell_angle_alpha 116.027903
_cell_angle_beta 64.101049
_cell_angle_gamma 105.767885
_cell_volume 593.315892
_symmetry_space_group_name_H-M "P -1"
_symmetry_group_IT_number 2
_symmetry_cell_setting 'triclinic'
loop_
_space_group_symop_operation_xyz
x,y,z
-x,-y,-z
loop_
_atom_site_type_symbol
_atom_site_label
_atom_site_fract_x
_atom_site_fract_y
_atom_site_fract_z
Si Si1 0.874626 0.337931 0.116628
Si Si2 0.109706 0.837952 0.859616
Si Si3 0.535771 0.103037 0.647775
Si Si4 0.267275 0.575059 0.468112
Si Si5 0.501419 0.564338 0.904491
Si Si6 0.237747 0.972658 0.163567
Si Si7 0.704495 0.849903 0.531001
Si Si8 0.966587 0.260220 0.501071
O O1 0.839287 0.231588 0.073725
O O2 0.686699 0.376690 0.338199
O O3 0.749847 0.374082 0.019908
O O4 0.200164 0.373353 0.100166
O O5 0.394602 0.858567 0.696964
O O6 0.927363 0.783354 0.728303
O O7 0.020666 0.923511 0.052286
O O8 0.630616 0.085652 0.783525
O O9 0.270595 0.136599 0.649268
O O10 0.757516 0.186938 0.593922
O O11 0.500000 0.000000 0.500000
O O12 0.503077 0.514002 0.293735
O O13 0.169100 0.649329 0.432904
O O14 0.000000 0.500000 0.500000
O O15 0.500000 0.500000 0.000000
O O16 0.132406 0.061868 0.350369
O O17 0.500000 0.000000 0.000000
O O18 0.764069 0.746501 0.467442
#
# Coordination Sequence:
#
# PCOD9099407 Si02
#       8
#     2   2   2   2   2   2   2   2
#     4  10  22  40  68  91 127 172 218 268 330 397
#     4   9  20  35  59  85 123 155 212 264 318 381
#     4   9  19  36  56  81 121 158 205 255 317 376
#     4   9  21  40  65  95 125 165 222 275 323 399
#     4  11  23  42  65  93 131 170 212 275 338 394
#     4   9  18  36  57  84 122 165 208 261 317 387
#     4   9  19  35  61  85 119 165 204 269 315 390
#     4  10  20  37  60  88 120 160 217 259 327 379
#
# _framework density 26.967085000000001
#
# number of rings (size 3 to 8) (size 9 to 14) (size 15 to 20)
#    0.000    2.500    0.000    1.500    5.250    3.500 
#    6.750    2.500    5.500    0.000    0.000    0.000 
#    0.000    0.000    0.000    0.000    0.000    0.000 
#
# Total GULP energy -89159.713906 kJ/mol
# GULP energy per Si atom -5572.482119 kJ/mol
# Density = 2.690571 g / cm^3
# Si number density = 26.967085 Si / 1000 Ang^3
#
#
#
# Elastic Constant Matrix: (Units=GPa)
#
#
# Indices 1 2 3 4 5 6 
#
# 1 84.5972 45.6734 10.1047 -2.6467 14.9574 -27.8781
# 2 45.6734 159.8335 45.0999 -40.8706 23.3221 -41.5416
# 3 10.1047 45.0999 64.2475 -11.6752 11.3190 -3.3569
# 4 -2.6467 -40.8706 -11.6752 41.7174 -1.4534 10.3575
# 5 14.9574 23.3221 11.3190 -1.4534 22.7484 -14.2393
# 6 -27.8781 -41.5416 -3.3569 10.3575 -14.2393 57.6039
#
#
#
# Elastic Compliance Matrix: (Units=1/GPa)
#
#
# Indices 1 2 3 4 5 6 
#
# 1 0.016015 -0.003926 0.000473 -0.003996 -0.004081 0.004657
# 2 -0.003926 0.013490 -0.005943 0.010022 -0.004846 0.004482
# 3 0.000473 -0.005943 0.020938 0.001020 -0.007644 -0.004910
# 4 -0.003996 0.010022 0.001020 0.034223 -0.007654 -0.002692
# 5 -0.004081 -0.004846 -0.007644 -0.007654 0.061618 0.010693
# 6 0.004657 0.004482 -0.004910 -0.002692 0.010693 0.025687
#
#
# Mechanical properties :
#
#
# Convention : Reuss Voigt Hill
#
# Bulk Modulus (GPa) = 31.59415 56.71491 44.15453
# Shear Modulus (GPa) = 24.83686 38.26729 31.55207
#
# Velocity S-wave (km/s) = 3.03810 3.77110 3.42427
# Velocity P-wave (km/s) = 4.90388 6.32759 5.66067
#
# Compressibility (1/GPa) = 0.03165143
#
# Stress axis : x y z
#
# Youngs Moduli (GPa) = 62.44195 74.12816 47.76042
#
# Poissons Ratio (x) = 0.29102 -0.02260
# Poissons Ratio (y) = 0.24514 0.28384
# Poissons Ratio (z) = -0.02955 0.44055
#
# Static dielectric constant tensor:
#      x y z
#    x 2.750600 0.268280 -0.042270 
#    y 0.268280 2.247660 -0.051420 
#    z -0.042270 -0.051420 2.161860 
# 
# From -- ./inp_files/110792.got.cif
#   From: 2010.05.17/outbox.cif.g08.bks.cpg/sg2_56_cif.got.tgz:110792.got - 2010.06.03 11:33:40.
