data_PCOD9099033
_publ_section_title
;
Structure prediction by ZEFSAII (Michael W. Deem and Ramdas Pophale) SiO2 
 PCOD9099033
Probable space group: P -1
;
_chemical_formula_sum "Si O2"
_cell_formula_units_Z 12
_cell_length_a 7.377053
_cell_length_b 11.027498
_cell_length_c 6.517337
_cell_angle_alpha 75.577655
_cell_angle_beta 117.572624
_cell_angle_gamma 89.080275
_cell_volume 449.803263
_symmetry_space_group_name_H-M "P -1"
_symmetry_group_IT_number 2
_symmetry_cell_setting 'triclinic'
loop_
_space_group_symop_operation_xyz
x,y,z
-x,-y,-z
loop_
_atom_site_type_symbol
_atom_site_label
_atom_site_fract_x
_atom_site_fract_y
_atom_site_fract_z
Si Si1 0.732231 0.858229 0.021549
Si Si2 0.531756 0.286966 0.625116
Si Si3 0.122700 0.220562 0.292801
Si Si4 0.742962 0.112840 0.122514
Si Si5 0.074312 0.415565 0.844926
Si Si6 0.661455 0.473689 0.344229
O O1 0.799292 0.874588 0.813838
O O2 0.483563 0.866356 0.902879
O O3 0.842737 0.715474 0.178871
O O4 0.795271 0.966551 0.152597
O O5 0.324148 0.226266 0.529007
O O6 0.572528 0.345698 0.401060
O O7 0.494903 0.405926 0.709993
O O8 0.711595 0.187707 0.856329
O O9 0.922210 0.173999 0.300113
O O10 0.067597 0.359775 0.094200
O O11 0.245504 0.502668 0.837767
O O12 0.856498 0.466370 0.606435
#
# Coordination Sequence:
#
# PCOD9099033 Si02
#       6
#     2   2   2   2   2   2
#     4   9  21  40  61  82 118 155 186 238 292 336
#     4  11  21  37  60  88 112 152 196 234 286 339
#     4  10  22  38  58  93 111 150 196 234 286 340
#     4  11  20  42  62  82 119 152 189 239 288 341
#     4   9  19  39  56  85 114 155 192 226 295 335
#     4  10  20  37  59  81 121 155 185 239 284 343
#
# _framework density 26.678325999999998
#
# number of rings (size 3 to 8) (size 9 to 14) (size 15 to 20)
#    1.000    1.000    3.333    0.500    0.000    2.000 
#    6.000    3.333    0.000    0.000    0.000    0.000 
#    0.000    0.000    0.000    0.000    0.000    0.000 
#
# Total GULP energy -67184.347278 kJ/mol
# GULP energy per Si atom -5598.695607 kJ/mol
# Density = 2.661760 g / cm^3
# Si number density = 26.678326 Si / 1000 Ang^3
#
#
#
# Elastic Constant Matrix: (Units=GPa)
#
#
# Indices 1 2 3 4 5 6 
#
# 1 122.8944 40.1797 12.9627 0.2732 -0.1980 25.1549
# 2 40.1797 98.0726 47.5536 -4.3733 7.4113 23.0758
# 3 12.9627 47.5536 95.7317 -1.6762 10.6899 5.4346
# 4 0.2732 -4.3733 -1.6762 35.4626 10.6942 6.8609
# 5 -0.1980 7.4113 10.6899 10.6942 24.7477 5.6139
# 6 25.1549 23.0758 5.4346 6.8609 5.6139 49.6198
#
#
#
# Elastic Compliance Matrix: (Units=1/GPa)
#
#
# Indices 1 2 3 4 5 6 
#
# 1 0.010021 -0.003629 0.000423 -0.000403 0.001977 -0.003607
# 2 -0.003629 0.016782 -0.007231 0.003465 -0.002203 -0.005402
# 3 0.000423 -0.007231 0.014429 0.000876 -0.004896 0.002001
# 4 -0.000403 0.003465 0.000876 0.034107 -0.015136 -0.004507
# 5 0.001977 -0.002203 -0.004896 -0.015136 0.050432 -0.003054
# 6 -0.003607 -0.005402 0.002001 -0.004507 -0.003054 0.025244
#
#
# Mechanical properties :
#
#
# Convention : Reuss Voigt Hill
#
# Bulk Modulus (GPa) = 49.12404 57.56562 53.34483
# Shear Modulus (GPa) = 27.98345 36.36618 32.17482
#
# Velocity S-wave (km/s) = 3.24222 3.69607 3.47656
# Velocity P-wave (km/s) = 5.69819 6.31182 6.01284
#
# Compressibility (1/GPa) = 0.02035663
#
# Stress axis : x y z
#
# Youngs Moduli (GPa) = 99.78606 59.58744 69.30366
#
# Poissons Ratio (x) = 0.21627 -0.02931
# Poissons Ratio (y) = 0.36217 0.50117
# Poissons Ratio (z) = -0.04220 0.43090
#
# Static dielectric constant tensor:
#      x y z
#    x 2.150060 0.024140 -0.068240 
#    y 0.024140 2.026750 -0.037320 
#    z -0.068240 -0.037320 2.048240 
# 
# From -- ./inp_files/70957.got.cif
#   From: 2010.05.17/outbox.cif.g08.bks.cpg/sg2_36_cif.got.tgz:70957.got - 2010.06.03 11:33:40.
