data_PCOD9099915
_publ_section_title
;
Structure prediction by ZEFSAII (Michael W. Deem and Ramdas Pophale) SiO2 
 PCOD9099915
Probable space group: P -1
;
_chemical_formula_sum "Si O2"
_cell_formula_units_Z 16
_cell_length_a 9.114570
_cell_length_b 23.310766
_cell_length_c 12.367347
_cell_angle_alpha 161.550410
_cell_angle_beta 68.111473
_cell_angle_gamma 111.079706
_cell_volume 771.466218
_symmetry_space_group_name_H-M "P -1"
_symmetry_group_IT_number 2
_symmetry_cell_setting 'triclinic'
loop_
_space_group_symop_operation_xyz
x,y,z
-x,-y,-z
loop_
_atom_site_type_symbol
_atom_site_label
_atom_site_fract_x
_atom_site_fract_y
_atom_site_fract_z
Si Si1 0.554495 0.431020 0.604773
Si Si2 0.423935 0.192925 0.395988
Si Si3 0.544327 0.843327 0.422652
Si Si4 0.771664 0.575262 0.411997
Si Si5 0.173410 0.450544 0.395819
Si Si6 0.204994 0.827512 0.411664
Si Si7 0.831192 0.958648 0.417144
Si Si8 0.070240 0.297233 0.595702
O O1 0.536999 0.334074 0.551742
O O2 0.405075 0.361780 0.451772
O O3 0.709169 0.414974 0.461230
O O4 0.547586 0.645371 0.012331
O O5 0.429083 0.193512 0.524661
O O6 0.243815 0.248067 0.509316
O O7 0.500000 0.000000 0.000000
O O8 0.366545 0.905064 0.558293
O O9 0.681695 0.971358 0.562500
O O10 0.799089 0.546771 0.479045
O O11 0.897972 0.703001 0.542409
O O12 0.778812 0.382786 0.003807
O O13 0.000000 0.500000 0.500000
O O14 0.185438 0.245893 0.985933
O O15 0.060714 0.832655 0.545162
O O16 0.177702 0.922764 0.475716
O O17 0.000000 0.000000 0.500000
O O18 0.000000 0.500000 0.000000
#
# Coordination Sequence:
#
# PCOD9099915 Si02
#       8
#     2   2   2   2   2   2   2   2
#     4   9  21  39  59  82 118 163 197 232 296 372
#     4  11  23  38  61  94 125 157 202 258 304 347
#     4  10  22  40  61  85 118 164 206 242 302 376
#     4   9  19  38  60  84 114 150 195 244 295 356
#     4  11  23  36  56  86 115 151 197 246 299 352
#     4  10  20  37  62  87 114 154 201 249 297 361
#     4  11  23  39  58  83 117 158 203 251 302 361
#     4   9  20  39  62  87 119 163 201 238 300 371
#
# _framework density 20.739727999999999
#
# number of rings (size 3 to 8) (size 9 to 14) (size 15 to 20)
#    0.000    2.000    0.000    3.375    0.000    9.000 
#    0.000    1.250    0.000    0.000    0.000    0.000 
#    0.000    0.000    0.000    0.000    0.000    0.000 
#
# Total GULP energy -89186.188627 kJ/mol
# GULP energy per Si atom -5574.136789 kJ/mol
# Density = 2.069252 g / cm^3
# Si number density = 20.739728 Si / 1000 Ang^3
#
#
#
# Elastic Constant Matrix: (Units=GPa)
#
#
# Indices 1 2 3 4 5 6 
#
# 1 117.9739 62.7153 19.3132 8.4364 -21.4689 55.0931
# 2 62.7153 114.4509 6.0503 28.9017 -25.3867 107.2087
# 3 19.3132 6.0503 38.6755 3.7275 -0.9160 10.7585
# 4 8.4364 28.9017 3.7275 32.8782 -0.3683 -2.0452
# 5 -21.4689 -25.3867 -0.9160 -0.3683 16.5471 23.2753
# 6 55.0931 107.2087 10.7585 -2.0452 23.2753 -9.8561
#
#
#
# Elastic Compliance Matrix: (Units=1/GPa)
#
#
# Indices 1 2 3 4 5 6 
#
# 1 0.014009 -0.007635 -0.006200 0.003915 0.005447 0.000540
# 2 -0.007635 0.006182 0.001307 -0.003352 -0.008785 0.005944
# 3 -0.006200 0.001307 0.028845 -0.002868 -0.004832 0.000232
# 4 0.003915 -0.003352 -0.002868 0.032438 0.008071 -0.005383
# 5 0.005447 -0.008785 -0.004832 0.008071 0.035933 0.012798
# 6 0.000540 0.005944 0.000232 -0.005383 0.012798 -0.002193
#
#
# Mechanical properties :
#
#
# Convention : Reuss Voigt Hill
#
# Bulk Modulus (GPa) = 41.70019 49.69532 45.69775
# Shear Modulus (GPa) = 33.72355 20.11527 26.91941
#
# Velocity S-wave (km/s) = 4.03679 3.11769 3.60663
# Velocity P-wave (km/s) = 6.47129 6.08057 6.27897
#
# Compressibility (1/GPa) = 0.02398071
#
# Stress axis : x y z
#
# Youngs Moduli (GPa) = 71.38102 161.75655 34.66809
#
# Poissons Ratio (x) = 1.23504 0.21494
# Poissons Ratio (y) = 0.54501 -0.04532
# Poissons Ratio (z) = 0.44255 -0.21144
#
# Static dielectric constant tensor:
#      x y z
#    x 1.729720 0.041360 -0.017430 
#    y 0.041360 1.755860 0.005790 
#    z -0.017430 0.005790 1.786630 
# 
# From -- ./inp_files/185862.got.cif
#   From: 2010.05.17/outbox.cif.g08.bks.cpg/sg2_93_cif.got.tgz:185862.got - 2010.06.03 11:33:40.
