data_PCOD9099460
_publ_section_title
;
Structure prediction by ZEFSAII (Michael W. Deem and Ramdas Pophale) SiO2 
 PCOD9099460
Probable space group: P -1
;
_chemical_formula_sum "Si O2"
_cell_formula_units_Z 14
_cell_length_a 17.900346
_cell_length_b 9.490159
_cell_length_c 21.148047
_cell_angle_alpha 37.014309
_cell_angle_beta 19.491240
_cell_angle_gamma 47.507722
_cell_volume 666.161592
_symmetry_space_group_name_H-M "P -1"
_symmetry_group_IT_number 2
_symmetry_cell_setting 'triclinic'
loop_
_space_group_symop_operation_xyz
x,y,z
-x,-y,-z
loop_
_atom_site_type_symbol
_atom_site_label
_atom_site_fract_x
_atom_site_fract_y
_atom_site_fract_z
Si Si1 0.969380 0.880938 0.137490
Si Si2 0.920469 0.352427 0.051304
Si Si3 0.352425 0.432255 0.893216
Si Si4 0.336935 0.438387 0.283746
Si Si5 0.840315 0.385203 0.355259
Si Si6 0.221221 0.866691 0.162236
Si Si7 0.605799 0.142806 0.110160
O O1 0.816997 0.583181 0.354024
O O2 0.224047 0.899488 0.956613
O O3 0.879327 0.058495 0.189042
O O4 0.000000 0.000000 0.000000
O O5 0.133400 0.490822 0.780372
O O6 0.691877 0.397187 0.187866
O O7 0.000000 0.500000 0.000000
O O8 0.578526 0.562769 0.711312
O O9 0.106010 0.371783 0.153876
O O10 0.337824 0.165400 0.973766
O O11 0.336164 0.711750 0.169549
O O12 0.515302 0.359664 0.126082
O O13 0.066196 0.237687 0.559323
O O14 0.626182 0.115941 0.622794
O O15 0.252658 0.798002 0.089690
#
# Coordination Sequence:
#
# PCOD9099460 Si02
#       7
#     2   2   2   2   2   2   2
#     4  10  20  37  60  90 120 163 206 237 305 369
#     4   9  18  36  63  92 122 157 211 245 294 367
#     4  10  20  42  61  88 129 160 197 261 307 354
#     4  11  22  44  64  87 125 161 203 261 302 363
#     4   9  21  37  61  85 126 161 192 249 307 351
#     4  11  25  39  65  94 116 163 212 248 312 364
#     4  12  22  41  64  88 129 160 200 257 307 361
#
# _framework density 21.015920000000001
#
# number of rings (size 3 to 8) (size 9 to 14) (size 15 to 20)
#    0.857    0.857    2.857    1.714    0.000    3.429 
#    0.000    2.143    0.000    6.857    0.000    0.000 
#    0.000    0.000    0.000    0.000    0.000    0.000 
#
# Total GULP energy -78150.397303 kJ/mol
# GULP energy per Si atom -5582.171236 kJ/mol
# Density = 2.096809 g / cm^3
# Si number density = 21.015920 Si / 1000 Ang^3
#
#
#
# Elastic Constant Matrix: (Units=GPa)
#
#
# Indices 1 2 3 4 5 6 
#
# 1 89.4970 49.5091 -0.7964 10.1309 -18.7018 -4.7600
# 2 49.5091 156.3940 16.0354 2.1640 -21.4070 10.7279
# 3 -0.7964 16.0354 27.1558 -1.6546 -5.5112 -9.4081
# 4 10.1309 2.1640 -1.6546 17.9443 10.7331 -3.7920
# 5 -18.7018 -21.4070 -5.5112 10.7331 22.9264 4.5423
# 6 -4.7600 10.7279 -9.4081 -3.7920 4.5423 38.3435
#
#
#
# Elastic Compliance Matrix: (Units=1/GPa)
#
#
# Indices 1 2 3 4 5 6 
#
# 1 0.023588 -0.002899 0.006616 -0.033111 0.034011 -0.001941
# 2 -0.002899 0.009995 -0.006718 -0.007826 0.010365 -0.006806
# 3 0.006616 -0.006718 0.047190 -0.000645 0.008145 0.013251
# 4 -0.033111 -0.007826 -0.000645 0.144648 -0.107127 0.024916
# 5 0.034011 0.010365 0.008145 -0.107127 0.137825 -0.023601
# 6 -0.001941 -0.006806 0.013251 0.024916 -0.023601 0.036255
#
#
# Mechanical properties :
#
#
# Convention : Reuss Voigt Hill
#
# Bulk Modulus (GPa) = 13.37419 44.72701 29.05060
# Shear Modulus (GPa) = 11.61640 29.72941 20.67291
#
# Velocity S-wave (km/s) = 2.35360 3.76522 3.13977
# Velocity P-wave (km/s) = 3.70993 6.34280 5.19590
#
# Compressibility (1/GPa) = 0.07477088
#
# Stress axis : x y z
#
# Youngs Moduli (GPa) = 42.39426 100.05486 21.19088
#
# Poissons Ratio (x) = 0.29005 -0.14020
# Poissons Ratio (y) = 0.12290 0.14236
# Poissons Ratio (z) = -0.28049 0.67219
#
# Static dielectric constant tensor:
#      x y z
#    x 1.734520 -0.002640 0.033590 
#    y -0.002640 1.761780 0.015520 
#    z 0.033590 0.015520 1.770960 
# 
# From -- ./inp_files/599354.got.cif
#   From: 2010.05.17/outbox.cif.g08.bks.cpg/sg2_300_cif.got.tgz:599354.got - 2010.06.03 11:33:40.
