data_PCOD9099291
_publ_section_title
;
Structure prediction by ZEFSAII (Michael W. Deem and Ramdas Pophale) SiO2 
 PCOD9099291
Probable space group: P -1
;
_chemical_formula_sum "Si O2"
_cell_formula_units_Z 16
_cell_length_a 6.376256
_cell_length_b 18.946611
_cell_length_c 25.568541
_cell_angle_alpha 17.808161
_cell_angle_beta 52.596161
_cell_angle_gamma 46.962751
_cell_volume 677.974313
_symmetry_space_group_name_H-M "P -1"
_symmetry_group_IT_number 2
_symmetry_cell_setting 'triclinic'
loop_
_space_group_symop_operation_xyz
x,y,z
-x,-y,-z
loop_
_atom_site_type_symbol
_atom_site_label
_atom_site_fract_x
_atom_site_fract_y
_atom_site_fract_z
Si Si1 0.993219 0.511483 0.787962
Si Si2 0.462812 0.799149 0.607545
Si Si3 0.586212 0.049080 0.895202
Si Si4 0.176880 0.966421 0.428770
Si Si5 0.877914 0.873692 0.278755
Si Si6 0.783371 0.360770 0.020707
Si Si7 0.265285 0.977294 0.287994
Si Si8 0.783256 0.472301 0.443791
O O1 0.122479 0.710880 0.614977
O O2 0.750741 0.542500 0.758215
O O3 0.819409 0.556111 0.837128
O O4 0.255609 0.234484 0.951779
O O5 0.425061 0.893875 0.486705
O O6 0.500000 0.000000 0.500000
O O7 0.142652 0.817926 0.657261
O O8 0.306592 0.258758 0.760201
O O9 0.841925 0.148620 0.781300
O O10 0.500000 0.000000 0.000000
O O11 0.252307 0.020633 0.321420
O O12 0.593731 0.898104 0.274441
O O13 0.963350 0.643143 0.470225
O O14 0.787182 0.131616 0.145085
O O15 0.500000 0.500000 0.000000
O O16 0.051183 0.226428 0.114214
O O17 0.173585 0.749718 0.448228
O O18 0.500000 0.500000 0.500000
#
# Coordination Sequence:
#
# PCOD9099291 Si02
#       8
#     2   2   2   2   2   2   2   2
#     4  10  21  38  59  87 121 155 199 248 298 358
#     4   9  20  38  59  85 121 158 197 240 292 357
#     4  10  20  37  60  83 114 156 199 251 307 349
#     4  10  21  36  61  90 118 158 199 243 294 354
#     4   9  22  39  59  85 117 160 201 246 298 358
#     4  10  22  39  61  90 128 164 192 241 307 361
#     4  11  22  38  62  92 121 155 209 250 292 366
#     4   9  20  40  60  81 116 158 199 247 303 355
#
# _framework density 23.599713000000001
#
# number of rings (size 3 to 8) (size 9 to 14) (size 15 to 20)
#    0.000    2.250    0.000    2.250    0.000   12.500 
#    0.000    1.250    0.000   16.500    0.000    0.000 
#    0.000    0.000    0.000    0.000    0.000    0.000 
#
# Total GULP energy -89397.854320 kJ/mol
# GULP energy per Si atom -5587.365895 kJ/mol
# Density = 2.354600 g / cm^3
# Si number density = 23.599713 Si / 1000 Ang^3
#
#
#
# Elastic Constant Matrix: (Units=GPa)
#
#
# Indices 1 2 3 4 5 6 
#
# 1 97.5582 17.9383 41.5280 7.7219 32.0797 -7.6063
# 2 17.9383 86.7319 21.7286 20.9390 13.6448 6.2768
# 3 41.5280 21.7286 144.5898 6.5412 31.5157 -9.2318
# 4 7.7219 20.9390 6.5412 39.3957 0.7206 12.6075
# 5 32.0797 13.6448 31.5157 0.7206 39.0264 2.3528
# 6 -7.6063 6.2768 -9.2318 12.6075 2.3528 28.9645
#
#
#
# Elastic Compliance Matrix: (Units=1/GPa)
#
#
# Indices 1 2 3 4 5 6 
#
# 1 0.015724 -0.000425 -0.001150 -0.004639 -0.012176 0.006863
# 2 -0.000425 0.014175 -0.000856 -0.007240 -0.003782 0.000002
# 3 -0.001150 -0.000856 0.009117 -0.002062 -0.006333 0.004201
# 4 -0.004639 -0.007240 -0.002062 0.035605 0.008346 -0.016482
# 5 -0.012176 -0.003782 -0.006333 0.008346 0.042607 -0.011490
# 6 0.006863 0.000002 0.004201 -0.016482 -0.011490 0.045773
#
#
# Mechanical properties :
#
#
# Convention : Reuss Voigt Hill
#
# Bulk Modulus (GPa) = 29.28035 54.58551 41.93293
# Shear Modulus (GPa) = 27.89416 37.98966 32.94191
#
# Velocity S-wave (km/s) = 3.44171 4.01652 3.74017
# Velocity P-wave (km/s) = 5.31299 6.68505 6.03812
#
# Compressibility (1/GPa) = 0.03415260
#
# Stress axis : x y z
#
# Youngs Moduli (GPa) = 63.59681 70.54736 109.68510
#
# Poissons Ratio (x) = 0.03000 0.12617
# Poissons Ratio (y) = 0.02704 0.09390
# Poissons Ratio (z) = 0.07316 0.06040
#
# Static dielectric constant tensor:
#      x y z
#    x 1.927980 -0.060960 0.009870 
#    y -0.060960 1.774680 0.009830 
#    z 0.009870 0.009830 1.902070 
# 
# From -- ./inp_files/615875.got.cif
#   From: 2010.05.17/outbox.cif.g08.bks.cpg/sg2_308_cif.got.tgz:615875.got - 2010.06.03 11:33:40.
