data_PCOD9099781
_publ_section_title
;
Structure prediction by ZEFSAII (Michael W. Deem and Ramdas Pophale) SiO2 
 PCOD9099781
Probable space group: P -1
;
_chemical_formula_sum "Si O2"
_cell_formula_units_Z 15
_cell_length_a 9.464332
_cell_length_b 12.660480
_cell_length_c 16.564038
_cell_angle_alpha 148.216272
_cell_angle_beta 41.318726
_cell_angle_gamma 121.884493
_cell_volume 654.640426
_symmetry_space_group_name_H-M "P -1"
_symmetry_group_IT_number 2
_symmetry_cell_setting 'triclinic'
loop_
_space_group_symop_operation_xyz
x,y,z
-x,-y,-z
loop_
_atom_site_type_symbol
_atom_site_label
_atom_site_fract_x
_atom_site_fract_y
_atom_site_fract_z
Si Si1 0.405692 0.941312 0.655831
Si Si2 0.153700 0.975547 0.634350
Si Si3 0.094647 0.175329 0.617045
Si Si4 0.891684 0.465638 0.652644
Si Si5 0.312784 0.340156 0.286666
Si Si6 0.000000 0.000000 0.000000
Si Si7 0.719795 0.573059 0.966564
Si Si8 0.767272 0.108435 0.007232
O O1 0.363322 0.871056 0.537218
O O2 0.649588 0.840732 0.528163
O O3 0.205323 0.933156 0.796240
O O4 0.377756 0.187124 0.808496
O O5 0.085066 0.776628 0.501011
O O6 0.142125 0.116264 0.652482
O O7 0.966902 0.113038 0.865625
O O8 0.906593 0.400355 0.826322
O O9 0.000000 0.000000 0.500000
O O10 0.697415 0.562439 0.733927
O O11 0.838181 0.584386 0.836581
O O12 0.112429 0.478337 0.519662
O O13 0.269737 0.116419 0.144352
O O14 0.547189 0.295471 0.200050
O O15 0.179624 0.896272 0.925519
O O16 0.500000 0.500000 0.000000
#
# Coordination Sequence:
#
# PCOD9099781 Si02
#       8
#     2   2   2   2   2   1   2   2
#     4  11  25  46  67  96 139 173 215 272 334 395
#     4  10  22  42  62  91 133 168 208 269 338 383
#     4  12  24  43  71  98 128 176 223 277 323 382
#     4  10  20  37  61  92 125 164 222 269 318 382
#     4   9  19  34  61  88 119 168 220 266 310 382
#     4  10  22  40  64  92 134 172 202 266 334 386
#     4  12  25  41  68 102 128 172 225 276 322 385
#     4   9  19  35  60  89 123 169 212 264 322 386
#
# _framework density 22.913342
#
# number of rings (size 3 to 8) (size 9 to 14) (size 15 to 20)
#    0.000    1.600    2.667    1.200    3.733    2.667 
#    4.800    0.667    0.000    0.000    0.000    0.000 
#    0.000    0.000    0.000    0.000    0.000    0.000 
#
# Total GULP energy -83516.953592 kJ/mol
# GULP energy per Si atom -5567.796906 kJ/mol
# Density = 2.286119 g / cm^3
# Si number density = 22.913342 Si / 1000 Ang^3
#
#
#
# Elastic Constant Matrix: (Units=GPa)
#
#
# Indices 1 2 3 4 5 6 
#
# 1 119.5615 20.1262 29.8060 -10.7465 -33.5394 -22.4668
# 2 20.1262 48.6812 10.4285 -11.0074 -2.1240 -14.6647
# 3 29.8060 10.4285 47.7135 4.3043 -15.7704 -7.1223
# 4 -10.7465 -11.0074 4.3043 35.1671 -7.1723 13.4046
# 5 -33.5394 -2.1240 -15.7704 -7.1723 48.7918 4.3435
# 6 -22.4668 -14.6647 -7.1223 13.4046 4.3435 41.0387
#
#
#
# Elastic Compliance Matrix: (Units=1/GPa)
#
#
# Indices 1 2 3 4 5 6 
#
# 1 0.013137 -0.002015 -0.005132 0.004276 0.007612 0.003379
# 2 -0.002015 0.025127 -0.004360 0.005400 -0.001397 0.005503
# 3 -0.005132 -0.004360 0.027300 -0.006207 0.004019 0.001972
# 4 0.004276 0.005400 -0.006207 0.037488 0.007556 -0.009851
# 5 0.007612 -0.001397 0.004019 0.007556 0.028173 -0.001084
# 6 0.003379 0.005503 0.001972 -0.009851 -0.001084 0.031858
#
#
# Mechanical properties :
#
#
# Convention : Reuss Voigt Hill
#
# Bulk Modulus (GPa) = 23.50223 37.40862 30.45543
# Shear Modulus (GPa) = 24.96506 35.37257 30.16882
#
# Velocity S-wave (km/s) = 3.30440 3.93333 3.63250
# Velocity P-wave (km/s) = 4.98378 6.08191 5.56002
#
# Compressibility (1/GPa) = 0.04254915
#
# Stress axis : x y z
#
# Youngs Moduli (GPa) = 76.12151 39.79819 36.63054
#
# Poissons Ratio (x) = 0.08019 0.18797
# Poissons Ratio (y) = 0.15339 0.15973
# Poissons Ratio (z) = 0.39062 0.17354
#
# Static dielectric constant tensor:
#      x y z
#    x 1.891070 0.089720 0.015160 
#    y 0.089720 1.925770 0.004450 
#    z 0.015160 0.004450 1.872770 
# 
# From -- ./inp_files/307919.got.cif
#   From: 2010.05.17/outbox.cif.g08.bks.cpg/sg2_154_cif.got.tgz:307919.got - 2010.06.03 11:33:40.
