data_PCOD9099872
_publ_section_title
;
Structure prediction by ZEFSAII (Michael W. Deem and Ramdas Pophale) SiO2 
 PCOD9099872
Probable space group: P -1
;
_chemical_formula_sum "Si O2"
_cell_formula_units_Z 16
_cell_length_a 5.345647
_cell_length_b 32.372817
_cell_length_c 9.266696
_cell_angle_alpha 153.125933
_cell_angle_beta 98.005544
_cell_angle_gamma 93.377997
_cell_volume 654.991385
_symmetry_space_group_name_H-M "P -1"
_symmetry_group_IT_number 2
_symmetry_cell_setting 'triclinic'
loop_
_space_group_symop_operation_xyz
x,y,z
-x,-y,-z
loop_
_atom_site_type_symbol
_atom_site_label
_atom_site_fract_x
_atom_site_fract_y
_atom_site_fract_z
Si Si1 0.795965 0.072274 0.807356
Si Si2 0.826279 0.065724 0.227013
Si Si3 0.145464 0.107264 0.658271
Si Si4 0.517582 0.321390 0.435450
Si Si5 0.622663 0.580987 0.540848
Si Si6 0.056783 0.721424 0.212821
Si Si7 0.021716 0.299782 0.547580
Si Si8 0.310835 0.581568 0.812208
O O1 0.020198 0.094834 0.769070
O O2 0.500000 0.000000 0.500000
O O3 0.832910 0.998217 0.696471
O O4 0.820986 0.181803 0.185938
O O5 0.889517 0.164000 0.442020
O O6 0.929500 0.110431 0.534141
O O7 0.500000 0.000000 0.000000
O O8 0.000000 0.000000 0.000000
O O9 0.416012 0.210913 0.006099
O O10 0.503786 0.395389 0.539227
O O11 0.817461 0.345860 0.606700
O O12 0.272053 0.311449 0.497118
O O13 0.453648 0.581870 0.672910
O O14 0.629022 0.472539 0.212261
O O15 0.918275 0.667102 0.882020
O O16 0.881297 0.672623 0.192420
O O17 0.313835 0.691568 0.170534
O O18 0.000000 0.500000 0.500000
#
# Coordination Sequence:
#
# PCOD9099872 Si02
#       8
#     2   2   2   2   2   2   2   2
#     4  10  20  37  62  82 129 178 230 273 327 395
#     4  12  29  42  64 102 143 181 235 283 341 400
#     4  10  22  39  60  90 125 182 231 277 327 398
#     4  11  24  43  68  98 133 178 233 280 334 411
#     4  10  22  45  76 102 132 180 234 289 343 424
#     4  11  25  44  71  98 145 184 225 292 353 407
#     4  11  26  40  64  99 137 179 227 281 349 400
#     4   9  22  43  75 104 132 173 236 280 357 418
#
# _framework density 24.427800999999999
#
# number of rings (size 3 to 8) (size 9 to 14) (size 15 to 20)
#    0.000    1.500    2.500    0.750   10.500    0.000 
#    0.000    1.250    0.000    0.000    0.000    0.000 
#    0.000    0.000    0.000    0.000    0.000    0.000 
#
# Total GULP energy -89296.691108 kJ/mol
# GULP energy per Si atom -5581.043194 kJ/mol
# Density = 2.437220 g / cm^3
# Si number density = 24.427801 Si / 1000 Ang^3
#
#
#
# Elastic Constant Matrix: (Units=GPa)
#
#
# Indices 1 2 3 4 5 6 
#
# 1 87.1464 44.6335 29.3011 15.0534 -14.9363 -18.1506
# 2 44.6335 186.6430 39.0823 19.5914 -10.5580 -45.1343
# 3 29.3011 39.0823 98.1412 19.9067 -11.3198 -16.5222
# 4 15.0534 19.5914 19.9067 42.6347 -11.9094 -4.6815
# 5 -14.9363 -10.5580 -11.3198 -11.9094 39.9984 6.8830
# 6 -18.1506 -45.1343 -16.5222 -4.6815 6.8830 30.8569
#
#
#
# Elastic Compliance Matrix: (Units=1/GPa)
#
#
# Indices 1 2 3 4 5 6 
#
# 1 0.014850 -0.001711 -0.002299 -0.002068 0.003141 0.003987
# 2 -0.001711 0.008867 -0.000782 -0.002164 -0.001138 0.011471
# 3 -0.002299 -0.000782 0.012707 -0.004186 0.000679 0.003522
# 4 -0.002068 -0.002164 -0.004186 0.028572 0.006627 -0.003767
# 5 0.003141 -0.001138 0.000679 0.006627 0.028880 -0.004889
# 6 0.003987 0.011471 0.003522 -0.003767 -0.004889 0.053936
#
#
# Mechanical properties :
#
#
# Convention : Reuss Voigt Hill
#
# Bulk Modulus (GPa) = 37.25566 66.44050 51.84808
# Shear Modulus (GPa) = 30.05813 39.95890 35.00851
#
# Velocity S-wave (km/s) = 3.51164 4.04889 3.78979
# Velocity P-wave (km/s) = 5.63263 7.00826 6.35776
#
# Compressibility (1/GPa) = 0.02684156
#
# Stress axis : x y z
#
# Youngs Moduli (GPa) = 67.33834 112.77411 78.69423
#
# Poissons Ratio (x) = 0.19294 0.18095
# Poissons Ratio (y) = 0.11521 0.06150
# Poissons Ratio (z) = 0.15483 0.08814
#
# Static dielectric constant tensor:
#      x y z
#    x 2.048880 -0.068400 -0.054470 
#    y -0.068400 1.986220 -0.010370 
#    z -0.054470 -0.010370 2.034070 
# 
# From -- ./inp_files/143451.got.cif
#   From: 2010.05.17/outbox.cif.g08.bks.cpg/sg2_72_cif.got.tgz:143451.got - 2010.06.03 11:33:40.
