data_PCOD9099914
_publ_section_title
;
Structure prediction by ZEFSAII (Michael W. Deem and Ramdas Pophale) SiO2 
 PCOD9099914
Probable space group: P -1
;
_chemical_formula_sum "Si O2"
_cell_formula_units_Z 16
_cell_length_a 16.328282
_cell_length_b 23.593933
_cell_length_c 12.522276
_cell_angle_alpha 18.985195
_cell_angle_beta 38.219555
_cell_angle_gamma 31.656255
_cell_volume 818.408724
_symmetry_space_group_name_H-M "P -1"
_symmetry_group_IT_number 2
_symmetry_cell_setting 'triclinic'
loop_
_space_group_symop_operation_xyz
x,y,z
-x,-y,-z
loop_
_atom_site_type_symbol
_atom_site_label
_atom_site_fract_x
_atom_site_fract_y
_atom_site_fract_z
Si Si1 0.754804 0.633649 0.224212
Si Si2 0.300233 0.469079 0.316942
Si Si3 0.259620 0.252607 0.343931
Si Si4 0.970492 0.224905 0.626931
Si Si5 0.903579 0.088892 0.332184
Si Si6 0.588926 0.241175 0.287883
Si Si7 0.439778 0.050144 0.302349
Si Si8 0.968744 0.295659 0.252494
O O1 0.735619 0.639516 0.359863
O O2 0.819320 0.402252 0.529160
O O3 0.598834 0.798590 0.026937
O O4 0.886440 0.680866 0.969885
O O5 0.419102 0.319119 0.371801
O O6 0.397757 0.563738 0.099573
O O7 0.144436 0.677232 0.061659
O O8 0.117177 0.219215 0.539602
O O9 0.347595 0.184221 0.261307
O O10 0.381967 0.103731 0.571845
O O11 0.185289 0.495722 0.004488
O O12 0.958559 0.294375 0.392732
O O13 0.000000 0.000000 0.000000
O O14 0.000017 0.916463 0.450274
O O15 0.729123 0.123616 0.441279
O O16 0.000000 0.000000 0.500000
O O17 0.621344 0.096023 0.412990
#
# Coordination Sequence:
#
# PCOD9099914 Si02
#       8
#     2   2   2   2   2   2   2   2
#     4  11  19  37  62  85 114 155 193 234 288 357
#     4   9  21  37  59  88 111 154 198 233 294 343
#     4  10  22  36  59  92 113 153 198 236 288 345
#     4  11  21  37  62  86 119 154 191 234 295 348
#     4  10  20  37  62  87 114 150 199 238 285 343
#     4   9  20  40  59  79 117 161 186 238 296 336
#     4  11  20  38  61  83 120 152 195 238 285 350
#     4  11  20  39  60  84 118 158 186 236 300 338
#
# _framework density 19.550135000000001
#
# number of rings (size 3 to 8) (size 9 to 14) (size 15 to 20)
#    0.750    1.000    3.750    1.500    3.500    0.500 
#    0.000    6.250    0.000    0.000    0.000    0.000 
#    0.000    0.000    0.000    0.000    0.000    0.000 
#
# Total GULP energy -89152.454862 kJ/mol
# GULP energy per Si atom -5572.028429 kJ/mol
# Density = 1.950564 g / cm^3
# Si number density = 19.550135 Si / 1000 Ang^3
#
#
#
# Elastic Constant Matrix: (Units=GPa)
#
#
# Indices 1 2 3 4 5 6 
#
# 1 65.5791 6.1224 8.7005 -13.4653 28.7008 -8.6054
# 2 6.1224 62.3458 19.6081 -13.5707 15.0955 0.0710
# 3 8.7005 19.6081 70.8574 -15.4347 27.3392 -14.8657
# 4 -13.4653 -13.5707 -15.4347 37.4993 -1.0735 6.2817
# 5 28.7008 15.0955 27.3392 -1.0735 35.2806 -10.2329
# 6 -8.6054 0.0710 -14.8657 6.2817 -10.2329 19.2933
#
#
#
# Elastic Compliance Matrix: (Units=1/GPa)
#
#
# Indices 1 2 3 4 5 6 
#
# 1 0.035140 0.006806 0.014030 0.020080 -0.042523 -0.002633
# 2 0.006806 0.022158 0.000389 0.011798 -0.017881 -0.010071
# 3 0.014030 0.000389 0.029337 0.015161 -0.031806 0.007055
# 4 0.020080 0.011798 0.015161 0.045563 -0.035542 -0.013091
# 5 -0.042523 -0.017881 -0.031806 -0.035542 0.100357 0.021393
# 6 -0.002633 -0.010071 0.007055 -0.013091 0.021393 0.071739
#
#
# Mechanical properties :
#
#
# Convention : Reuss Voigt Hill
#
# Bulk Modulus (GPa) = 7.74684 29.73824 18.74254
# Shear Modulus (GPa) = 16.40033 29.37140 22.88587
#
# Velocity S-wave (km/s) = 2.89949 3.88024 3.42515
# Velocity P-wave (km/s) = 3.89623 5.94300 5.02493
#
# Compressibility (1/GPa) = 0.12908494
#
# Stress axis : x y z
#
# Youngs Moduli (GPa) = 28.45788 45.13060 34.08657
#
# Poissons Ratio (x) = -0.30717 -0.47824
# Poissons Ratio (y) = -0.19369 -0.01325
# Poissons Ratio (z) = -0.39927 -0.01754
#
# Static dielectric constant tensor:
#      x y z
#    x 1.683690 -0.003580 -0.007990 
#    y -0.003580 1.704370 -0.035560 
#    z -0.007990 -0.035560 1.711670 
# 
# From -- ./inp_files/467413.got.cif
#   From: 2010.05.17/outbox.cif.g08.bks.cpg/sg2_234_cif.got.tgz:467413.got - 2010.06.03 11:33:40.
