data_PCOD9099016
_publ_section_title
;
Structure prediction by ZEFSAII (Michael W. Deem and Ramdas Pophale) SiO2 
 PCOD9099016
Probable space group: P -1
;
_chemical_formula_sum "Si O2"
_cell_formula_units_Z 14
_cell_length_a 14.845778
_cell_length_b 8.964869
_cell_length_c 12.990141
_cell_angle_alpha 119.058053
_cell_angle_beta 29.431589
_cell_angle_gamma 135.221853
_cell_volume 552.773974
_symmetry_space_group_name_H-M "P -1"
_symmetry_group_IT_number 2
_symmetry_cell_setting 'triclinic'
loop_
_space_group_symop_operation_xyz
x,y,z
-x,-y,-z
loop_
_atom_site_type_symbol
_atom_site_label
_atom_site_fract_x
_atom_site_fract_y
_atom_site_fract_z
Si Si1 0.449802 0.066393 0.306681
Si Si2 0.230786 0.617434 0.487635
Si Si3 0.757771 0.134852 0.843853
Si Si4 0.739752 0.793527 0.065921
Si Si5 0.055503 0.090558 0.650755
Si Si6 0.701619 0.482530 0.323270
Si Si7 0.944101 0.242247 0.125402
O O1 0.303718 0.805617 0.394524
O O2 0.686306 0.169158 0.037852
O O3 0.547990 0.215352 0.364284
O O4 0.272946 0.087364 0.428482
O O5 0.453659 0.621731 0.267485
O O6 0.206520 0.708100 0.649007
O O7 0.968875 0.366190 0.650624
O O8 0.865735 0.015502 0.723602
O O9 0.500000 0.000000 0.000000
O O10 0.847143 0.694559 0.981435
O O11 0.788278 0.980519 0.158980
O O12 0.899834 0.933384 0.852514
O O13 0.180711 0.352741 0.639538
O O14 0.500000 0.500000 0.500000
O O15 0.915832 0.613005 0.067928
#
# Coordination Sequence:
#
# PCOD9099016 Si02
#       7
#     2   2   2   2   2   2   2
#     4  11  23  45  69  99 134 168 218 269 328 398
#     4  12  24  40  68  96 127 172 221 273 321 383
#     4  12  29  48  66  93 127 175 234 280 324 377
#     4  10  21  36  63 102 139 169 208 258 326 399
#     4  10  22  44  68  96 137 177 204 267 335 387
#     4   9  20  36  65  98 140 171 201 255 327 401
#     4  10  20  37  59 102 142 171 207 252 325 408
#
# _framework density 25.326808
#
# number of rings (size 3 to 8) (size 9 to 14) (size 15 to 20)
#    0.000    1.429    4.286    0.429    6.000    2.857 
#    0.000    0.714    0.000    0.000    0.000    0.000 
#    0.000    0.000    0.000    0.000    0.000    0.000 
#
# Total GULP energy -78379.489419 kJ/mol
# GULP energy per Si atom -5598.534959 kJ/mol
# Density = 2.526916 g / cm^3
# Si number density = 25.326808 Si / 1000 Ang^3
#
#
#
# Elastic Constant Matrix: (Units=GPa)
#
#
# Indices 1 2 3 4 5 6 
#
# 1 93.4982 28.8328 31.5726 -1.5532 -35.2275 -26.6359
# 2 28.8328 44.3330 40.6487 -9.3135 -5.7739 -26.4972
# 3 31.5726 40.6487 157.4877 1.2254 -30.6239 -18.0642
# 4 -1.5532 -9.3135 1.2254 47.6558 1.1528 1.1896
# 5 -35.2275 -5.7739 -30.6239 1.1528 53.4390 2.6533
# 6 -26.6359 -26.4972 -18.0642 1.1896 2.6533 33.9200
#
#
#
# Elastic Compliance Matrix: (Units=1/GPa)
#
#
# Indices 1 2 3 4 5 6 
#
# 1 0.020028 -0.006845 0.001418 -0.001285 0.012798 0.010179
# 2 -0.006845 0.060458 -0.011486 0.011152 -0.006583 0.035860
# 3 0.001418 -0.011486 0.009775 -0.002508 0.005498 -0.002996
# 4 -0.001285 0.011152 -0.002508 0.023089 -0.001861 0.005703
# 5 0.012798 -0.006583 0.005498 -0.001861 0.029351 0.005604
# 6 0.010179 0.035860 -0.002996 0.005703 0.005604 0.063253
#
#
# Mechanical properties :
#
#
# Convention : Reuss Voigt Hill
#
# Bulk Modulus (GPa) = 17.71957 55.26971 36.49464
# Shear Modulus (GPa) = 19.33558 39.95393 29.64476
#
# Velocity S-wave (km/s) = 2.76605 3.97613 3.42495
# Velocity P-wave (km/s) = 4.14884 6.55358 5.48463
#
# Compressibility (1/GPa) = 0.05643477
#
# Stress axis : x y z
#
# Youngs Moduli (GPa) = 49.93101 16.54042 102.29993
#
# Poissons Ratio (x) = 0.11321 -0.14502
# Poissons Ratio (y) = 0.34175 1.17503
# Poissons Ratio (z) = -0.07078 0.18999
#
# Static dielectric constant tensor:
#      x y z
#    x 2.094790 0.024200 -0.023760 
#    y 0.024200 2.026030 -0.002750 
#    z -0.023760 -0.002750 1.940740 
# 
# From -- ./inp_files/313198.got.cif
#   From: 2010.05.17/outbox.cif.g08.bks.cpg/sg2_157_cif.got.tgz:313198.got - 2010.06.03 11:33:40.
