data_PCOD9099938
_publ_section_title
;
Structure prediction by ZEFSAII (Michael W. Deem and Ramdas Pophale) SiO2 
 PCOD9099938
Probable space group: P -1
;
_chemical_formula_sum "Si O2"
_cell_formula_units_Z 12
_cell_length_a 14.789813
_cell_length_b 9.111539
_cell_length_c 5.118873
_cell_angle_alpha 105.386284
_cell_angle_beta 70.216254
_cell_angle_gamma 134.691929
_cell_volume 461.056218
_symmetry_space_group_name_H-M "P -1"
_symmetry_group_IT_number 2
_symmetry_cell_setting 'triclinic'
loop_
_space_group_symop_operation_xyz
x,y,z
-x,-y,-z
loop_
_atom_site_type_symbol
_atom_site_label
_atom_site_fract_x
_atom_site_fract_y
_atom_site_fract_z
Si Si1 0.934322 0.351777 0.743006
Si Si2 0.110883 0.278273 0.592662
Si Si3 0.532398 0.324592 0.120185
Si Si4 0.635293 0.886159 0.323633
Si Si5 0.797866 0.793264 0.046168
Si Si6 0.299069 0.747383 0.833281
O O1 0.000000 0.500000 0.500000
O O2 0.976317 0.221322 0.639195
O O3 0.785592 0.241092 0.876898
O O4 0.000000 0.500000 0.000000
O O5 0.159801 0.232558 0.281283
O O6 0.212502 0.523882 0.673292
O O7 0.110957 0.176468 0.802848
O O8 0.420126 0.225042 0.397434
O O9 0.594424 0.229177 0.094925
O O10 0.470586 0.267307 0.868475
O O11 0.652901 0.569073 0.136629
O O12 0.653396 0.085001 0.353522
O O13 0.770807 0.943669 0.160989
#
# Coordination Sequence:
#
# PCOD9099938 Si02
#       6
#     2   2   2   2   2   2
#     4  10  20  37  62  88 112 147 192 237 286 343
#     4  10  21  40  62  85 113 152 194 235 286 349
#     4  11  22  38  58  84 117 158 193 231 283 346
#     4  12  24  38  58  88 119 152 193 240 285 333
#     4  11  22  40  60  84 117 157 193 231 284 350
#     4  10  23  39  61  89 116 148 194 246 285 331
#
# _framework density 26.027194000000001
#
# number of rings (size 3 to 8) (size 9 to 14) (size 15 to 20)
#    0.000    1.333    0.000    8.000    0.000    6.667 
#    0.000    1.667    0.000    0.000    0.000    0.000 
#    0.000    0.000    0.000    0.000    0.000    0.000 
#
# Total GULP energy -67330.556869 kJ/mol
# GULP energy per Si atom -5610.879739 kJ/mol
# Density = 2.596796 g / cm^3
# Si number density = 26.027194 Si / 1000 Ang^3
#
#
#
# Elastic Constant Matrix: (Units=GPa)
#
#
# Indices 1 2 3 4 5 6 
#
# 1 110.8522 20.1437 29.5836 27.9974 -6.6742 -30.6337
# 2 20.1437 102.1554 17.5846 -2.3541 3.7339 -11.3285
# 3 29.5836 17.5846 141.5094 -4.6955 -4.7584 1.9323
# 4 27.9974 -2.3541 -4.6955 25.7223 -10.1970 -8.1740
# 5 -6.6742 3.7339 -4.7584 -10.1970 50.0020 6.1636
# 6 -30.6337 -11.3285 1.9323 -8.1740 6.1636 37.4129
#
#
#
# Elastic Compliance Matrix: (Units=1/GPa)
#
#
# Indices 1 2 3 4 5 6 
#
# 1 0.017962 -0.001898 -0.004371 -0.018235 -0.002934 0.010857
# 2 -0.001898 0.010711 -0.000882 0.003411 -0.000763 0.002605
# 3 -0.004371 -0.000882 0.008395 0.005911 0.001894 -0.003300
# 4 -0.018235 0.003411 0.005911 0.063876 0.011157 -0.002086
# 5 -0.002934 -0.000763 0.001894 0.011157 0.022615 -0.004019
# 6 0.010857 0.002605 -0.003300 -0.002086 -0.004019 0.036784
#
#
# Mechanical properties :
#
#
# Convention : Reuss Voigt Hill
#
# Bulk Modulus (GPa) = 43.92866 54.34897 49.13881
# Shear Modulus (GPa) = 27.43717 41.77446 34.60581
#
# Velocity S-wave (km/s) = 3.25033 4.01063 3.65033
# Velocity P-wave (km/s) = 5.56783 6.50952 6.05700
#
# Compressibility (1/GPa) = 0.02276418
#
# Stress axis : x y z
#
# Youngs Moduli (GPa) = 55.67375 93.36577 119.11878
#
# Poissons Ratio (x) = 0.17724 0.52068
# Poissons Ratio (y) = 0.10569 0.10508
# Poissons Ratio (z) = 0.24336 0.08236
#
# Static dielectric constant tensor:
#      x y z
#    x 2.038550 0.015040 -0.049740 
#    y 0.015040 2.065340 0.004560 
#    z -0.049740 0.004560 1.971540 
# 
# From -- ./inp_files/90272.got.cif
#   From: 2010.05.17/outbox.cif.g08.bks.cpg/sg2_46_cif.got.tgz:90272.got - 2010.06.03 11:33:40.
