data_PCOD9099004
_publ_section_title
;
Structure prediction by ZEFSAII (Michael W. Deem and Ramdas Pophale) SiO2 
 PCOD9099004
Probable space group: P -1
;
_chemical_formula_sum "Si O2"
_cell_formula_units_Z 14
_cell_length_a 9.682976
_cell_length_b 7.321187
_cell_length_c 11.156104
_cell_angle_alpha 65.183997
_cell_angle_beta 54.238620
_cell_angle_gamma 55.042212
_cell_volume 521.666794
_symmetry_space_group_name_H-M "P -1"
_symmetry_group_IT_number 2
_symmetry_cell_setting 'triclinic'
loop_
_space_group_symop_operation_xyz
x,y,z
-x,-y,-z
loop_
_atom_site_type_symbol
_atom_site_label
_atom_site_fract_x
_atom_site_fract_y
_atom_site_fract_z
Si Si1 0.038901 0.667177 0.048424
Si Si2 0.768388 0.092605 0.948231
Si Si3 0.095172 0.713725 0.353732
Si Si4 0.565538 0.208317 0.588539
Si Si5 0.430318 0.245188 0.227593
Si Si6 0.856707 0.555729 0.373119
Si Si7 0.350910 0.627077 0.725696
O O1 0.122416 0.793322 0.061102
O O2 0.989162 0.508105 0.202549
O O3 0.192017 0.586665 0.887732
O O4 0.846209 0.848486 0.034746
O O5 0.843407 0.100618 0.775500
O O6 0.544036 0.222792 0.052073
O O7 0.256067 0.482819 0.275963
O O8 0.097352 0.657936 0.507292
O O9 0.905679 0.722422 0.387012
O O10 0.360379 0.307666 0.596307
O O11 0.517338 0.384079 0.673128
O O12 0.699539 0.240871 0.411578
O O13 0.617799 0.961686 0.674471
O O14 0.578783 0.236458 0.257899
#
# Coordination Sequence:
#
# PCOD9099004 Si02
#       7
#     2   2   2   2   2   2   2
#     4   9  18  35  59  87 120 154 203 250 292 347
#     4   9  18  33  58  92 120 154 205 243 294 365
#     4  10  21  32  61  91 127 156 196 248 308 352
#     4  11  22  39  63  93 120 154 212 245 290 364
#     4  11  20  38  65  88 119 164 197 248 303 354
#     4  10  20  37  58  92 120 157 205 247 292 366
#     4  10  23  36  62  95 120 153 204 257 292 346
#
# _framework density 26.837053999999998
#
# number of rings (size 3 to 8) (size 9 to 14) (size 15 to 20)
#    0.000    2.000    2.857    0.857    2.000    1.714 
#    0.000    0.000    3.143   11.143    0.000    0.000 
#    0.000    0.000    0.000    0.000    0.000    0.000 
#
# Total GULP energy -78375.475501 kJ/mol
# GULP energy per Si atom -5598.248250 kJ/mol
# Density = 2.677597 g / cm^3
# Si number density = 26.837054 Si / 1000 Ang^3
#
#
#
# Elastic Constant Matrix: (Units=GPa)
#
#
# Indices 1 2 3 4 5 6 
#
# 1 68.2557 7.8430 22.1955 -2.6542 3.4092 -0.7557
# 2 7.8430 74.3800 37.5369 -13.0860 -5.5740 10.6759
# 3 22.1955 37.5369 245.9405 -16.2996 -10.8552 1.5955
# 4 -2.6542 -13.0860 -16.2996 40.2277 -11.4412 -3.5190
# 5 3.4092 -5.5740 -10.8552 -11.4412 26.9376 8.2749
# 6 -0.7557 10.6759 1.5955 -3.5190 8.2749 27.4429
#
#
#
# Elastic Compliance Matrix: (Units=1/GPa)
#
#
# Indices 1 2 3 4 5 6 
#
# 1 0.015490 -0.001742 -0.001394 -0.001057 -0.004027 0.002264
# 2 -0.001742 0.017482 -0.001638 0.006609 0.008595 -0.008498
# 3 -0.001394 -0.001638 0.004694 0.002011 0.002649 -0.000215
# 4 -0.001057 0.006609 0.002011 0.032314 0.017191 -0.003757
# 5 -0.004027 0.008595 0.002649 0.017191 0.053133 -0.017425
# 6 0.002264 -0.008498 -0.000215 -0.003757 -0.017425 0.044593
#
#
# Mechanical properties :
#
#
# Convention : Reuss Voigt Hill
#
# Bulk Modulus (GPa) = 35.56913 58.19188 46.88050
# Shear Modulus (GPa) = 26.79151 40.32170 33.55660
#
# Velocity S-wave (km/s) = 3.16302 3.88037 3.53991
# Velocity P-wave (km/s) = 5.15966 6.46582 5.84931
#
# Compressibility (1/GPa) = 0.02811427
#
# Stress axis : x y z
#
# Youngs Moduli (GPa) = 64.55960 57.20304 213.05789
#
# Poissons Ratio (x) = 0.09967 0.29710
# Poissons Ratio (y) = 0.11249 0.34907
# Poissons Ratio (z) = 0.09003 0.09372
#
# Static dielectric constant tensor:
#      x y z
#    x 2.149270 -0.022120 -0.030940 
#    y -0.022120 2.071680 0.014720 
#    z -0.030940 0.014720 2.142740 
# 
# From -- ./inp_files/239993.got.cif
#   From: 2010.05.17/outbox.cif.g08.bks.cpg/sg2_120_cif.got.tgz:239993.got - 2010.06.03 11:33:40.
