data_PCOD9099514
_publ_section_title
;
Structure prediction by ZEFSAII (Michael W. Deem and Ramdas Pophale) SiO2 
 PCOD9099514
Probable space group: P -1
;
_chemical_formula_sum "Si O2"
_cell_formula_units_Z 16
_cell_length_a 13.954304
_cell_length_b 13.717400
_cell_length_c 9.993465
_cell_angle_alpha 42.105303
_cell_angle_beta 80.610222
_cell_angle_gamma 113.841401
_cell_volume 769.245715
_symmetry_space_group_name_H-M "P -1"
_symmetry_group_IT_number 2
_symmetry_cell_setting 'triclinic'
loop_
_space_group_symop_operation_xyz
x,y,z
-x,-y,-z
loop_
_atom_site_type_symbol
_atom_site_label
_atom_site_fract_x
_atom_site_fract_y
_atom_site_fract_z
Si Si1 0.206437 0.346465 0.478744
Si Si2 0.339179 0.896328 0.732861
Si Si3 0.024054 0.418835 0.195106
Si Si4 0.829960 0.363389 0.714539
Si Si5 0.304612 0.270142 0.787905
Si Si6 0.250687 0.878397 0.258473
Si Si7 0.052105 0.997172 0.345506
Si Si8 0.534468 0.857313 0.796878
O O1 0.162404 0.458791 0.424077
O O2 0.230418 0.272693 0.678123
O O3 0.081088 0.145563 0.598212
O O4 0.380665 0.575121 0.139808
O O5 0.482231 0.963737 0.679584
O O6 0.378666 0.065393 0.443399
O O7 0.211285 0.635707 0.958062
O O8 0.249028 0.830126 0.955351
O O9 0.924235 0.362240 0.398290
O O10 0.948751 0.173557 0.443146
O O11 0.000000 0.500000 0.000000
O O12 0.716852 0.207094 0.769958
O O13 0.000000 0.500000 0.500000
O O14 0.500000 0.500000 0.500000
O O15 0.253332 0.040154 0.025825
O O16 0.219982 0.225659 0.992920
O O17 0.363349 0.024371 0.212877
O O18 0.000000 0.000000 0.500000
#
# Coordination Sequence:
#
# PCOD9099514 Si02
#       8
#     2   2   2   2   2   2   2   2
#     4  11  23  46  68  90 136 178 215 275 334 391
#     4  10  20  37  60  92 129 161 202 264 334 370
#     4  11  20  38  65  91 125 165 209 268 322 380
#     4  11  21  39  66 100 127 163 220 273 323 395
#     4  11  24  47  68  96 135 182 219 275 331 393
#     4  11  22  38  66  95 130 165 221 261 325 396
#     4  11  25  47  67  94 129 178 229 266 327 406
#     4  10  20  38  62  91 126 168 204 265 325 380
#
# _framework density 20.799596999999999
#
# number of rings (size 3 to 8) (size 9 to 14) (size 15 to 20)
#    0.000    1.250    6.250    1.125    0.000    3.000 
#    4.500    0.625    0.000    0.000    0.000    0.000 
#    0.000    0.000    0.000    0.000    0.000    0.000 
#
# Total GULP energy -89079.850213 kJ/mol
# GULP energy per Si atom -5567.490638 kJ/mol
# Density = 2.075226 g / cm^3
# Si number density = 20.799597 Si / 1000 Ang^3
#
#
#
# Elastic Constant Matrix: (Units=GPa)
#
#
# Indices 1 2 3 4 5 6 
#
# 1 87.7604 48.0798 42.1692 14.7448 11.5011 31.7217
# 2 48.0798 118.0131 51.7838 33.2041 -2.9953 11.8300
# 3 42.1692 51.7838 156.6692 33.3749 -2.3299 14.9926
# 4 14.7448 33.2041 33.3749 30.6220 9.2555 -1.9362
# 5 11.5011 -2.9953 -2.3299 9.2555 43.3228 7.0159
# 6 31.7217 11.8300 14.9926 -1.9362 7.0159 21.8265
#
#
#
# Elastic Compliance Matrix: (Units=1/GPa)
#
#
# Indices 1 2 3 4 5 6 
#
# 1 0.033627 -0.004689 0.000411 -0.015196 0.001882 -0.048566
# 2 -0.004689 0.016175 0.000591 -0.018564 0.007395 -0.006382
# 3 0.000411 0.000591 0.010250 -0.014307 0.005310 -0.010935
# 4 -0.015196 -0.018564 -0.014307 0.087248 -0.026066 0.058092
# 5 0.001882 0.007395 0.005310 -0.026066 0.032708 -0.023218
# 6 -0.048566 -0.006382 -0.010935 0.058092 -0.023218 0.139987
#
#
# Mechanical properties :
#
#
# Convention : Reuss Voigt Hill
#
# Bulk Modulus (GPa) = 18.98277 71.83422 45.40850
# Shear Modulus (GPa) = 14.49581 33.84824 24.17202
#
# Velocity S-wave (km/s) = 2.64280 4.03842 3.41271
# Velocity P-wave (km/s) = 4.29638 7.50709 6.11618
#
# Compressibility (1/GPa) = 0.05267936
#
# Stress axis : x y z
#
# Youngs Moduli (GPa) = 29.73827 61.82297 97.56136
#
# Poissons Ratio (x) = 0.28987 -0.04014
# Poissons Ratio (y) = 0.13944 -0.05767
# Poissons Ratio (z) = -0.01224 -0.03654
#
# Static dielectric constant tensor:
#      x y z
#    x 1.716920 -0.078590 -0.051400 
#    y -0.078590 1.674630 0.045800 
#    z -0.051400 0.045800 1.832590 
# 
# From -- ./inp_files/239552.got.cif
#   From: 2010.05.17/outbox.cif.g08.bks.cpg/sg2_120_cif.got.tgz:239552.got - 2010.06.03 11:33:40.
