data_PCOD9099074
_publ_section_title
;
Structure prediction by ZEFSAII (Michael W. Deem and Ramdas Pophale) SiO2 
 PCOD9099074
Probable space group: P -1
;
_chemical_formula_sum "Si O2"
_cell_formula_units_Z 16
_cell_length_a 25.431532
_cell_length_b 6.021975
_cell_length_c 6.088039
_cell_angle_alpha 92.700139
_cell_angle_beta 127.542619
_cell_angle_gamma 103.430190
_cell_volume 697.219413
_symmetry_space_group_name_H-M "P -1"
_symmetry_group_IT_number 2
_symmetry_cell_setting 'triclinic'
loop_
_space_group_symop_operation_xyz
x,y,z
-x,-y,-z
loop_
_atom_site_type_symbol
_atom_site_label
_atom_site_fract_x
_atom_site_fract_y
_atom_site_fract_z
Si Si1 0.359341 0.008065 0.653556
Si Si2 0.019904 0.848757 0.234270
Si Si3 0.481874 0.161741 0.280040
Si Si4 0.858040 0.149830 0.699697
Si Si5 0.109240 0.178157 0.854681
Si Si6 0.395604 0.390704 0.383269
Si Si7 0.764951 0.432757 0.684047
Si Si8 0.727738 0.758542 0.245300
O O1 0.382286 0.202285 0.533156
O O2 0.314252 0.097269 0.720903
O O3 0.304538 0.765337 0.414850
O O4 0.429844 0.007799 0.956304
O O5 0.947785 0.718826 0.171390
O O6 0.070783 0.723781 0.247211
O O7 0.069113 0.032489 0.540592
O O8 0.000000 0.000000 0.000000
O O9 0.438160 0.308584 0.296721
O O10 0.554577 0.354742 0.398886
O O11 0.500000 0.000000 0.500000
O O12 0.802754 0.953177 0.396752
O O13 0.816216 0.311450 0.693723
O O14 0.875281 0.002315 0.939274
O O15 0.183027 0.380867 0.010551
O O16 0.321047 0.369409 0.085391
O O17 0.739663 0.573218 0.437718
#
# Coordination Sequence:
#
# PCOD9099074 Si02
#       8
#     2   2   2   2   2   2   2   2
#     4  10  21  37  56  83 116 150 190 234 284 340
#     4   9  18  37  59  79 112 152 187 232 289 341
#     4  10  21  37  58  84 113 146 190 237 279 334
#     4   9  19  35  56  83 114 147 189 239 285 335
#     4   9  19  37  57  81 114 149 188 236 286 341
#     4  10  21  37  57  81 113 152 188 231 284 335
#     4  10  20  37  59  84 116 151 192 240 286 340
#     4   9  20  37  54  80 116 150 189 236 282 335
#
# _framework density 22.948298999999999
#
# number of rings (size 3 to 8) (size 9 to 14) (size 15 to 20)
#    0.000    2.500    0.000    1.125    0.000    5.000 
#    0.000   21.875    0.000    0.000    0.000    0.000 
#    0.000    0.000    0.000    0.000    0.000    0.000 
#
# Total GULP energy -89388.131899 kJ/mol
# GULP energy per Si atom -5586.758244 kJ/mol
# Density = 2.289607 g / cm^3
# Si number density = 22.948299 Si / 1000 Ang^3
#
#
#
# Elastic Constant Matrix: (Units=GPa)
#
#
# Indices 1 2 3 4 5 6 
#
# 1 76.7476 10.4316 35.3789 15.2702 23.0454 6.1079
# 2 10.4316 68.4893 50.2334 20.6501 22.0355 20.9886
# 3 35.3789 50.2334 177.7902 23.7628 36.2723 20.3124
# 4 15.2702 20.6501 23.7628 29.6199 -0.7376 9.4679
# 5 23.0454 22.0355 36.2723 -0.7376 30.6872 6.9323
# 6 6.1079 20.9886 20.3124 9.4679 6.9323 45.2543
#
#
#
# Elastic Compliance Matrix: (Units=1/GPa)
#
#
# Indices 1 2 3 4 5 6 
#
# 1 0.023342 0.010785 0.000408 -0.020527 -0.026245 -0.000021
# 2 0.010785 0.033405 -0.001217 -0.026616 -0.029873 -0.006258
# 3 0.000408 -0.001217 0.008849 -0.006523 -0.009918 -0.000578
# 4 -0.020527 -0.026616 -0.006523 0.070375 0.044727 -0.003533
# 5 -0.026245 -0.029873 -0.009918 0.044727 0.086725 -0.000794
# 6 -0.000021 -0.006258 -0.000578 -0.003533 -0.000794 0.026123
#
#
# Mechanical properties :
#
#
# Convention : Reuss Voigt Hill
#
# Bulk Modulus (GPa) = 11.68948 57.23497 34.46223
# Shear Modulus (GPa) = 19.42630 36.24449 27.83540
#
# Velocity S-wave (km/s) = 2.91267 3.97848 3.48654
# Velocity P-wave (km/s) = 4.05171 6.78965 5.59087
#
# Compressibility (1/GPa) = 0.08554701
#
# Stress axis : x y z
#
# Youngs Moduli (GPa) = 42.84089 29.93555 113.01259
#
# Poissons Ratio (x) = -0.32284 -0.04615
# Poissons Ratio (y) = -0.46202 0.13758
# Poissons Ratio (z) = -0.01749 0.03644
#
# Static dielectric constant tensor:
#      x y z
#    x 1.889470 -0.026760 0.019600 
#    y -0.026760 1.833070 0.053870 
#    z 0.019600 0.053870 1.828730 
# 
# From -- ./inp_files/11066.got.cif
#   From: 2010.05.17/outbox.cif.g08.bks.cpg/sg2_6_cif.got.tgz:11066.got - 2010.06.03 11:33:40.
