data_PCOD9099803
_publ_section_title
;
Structure prediction by ZEFSAII (Michael W. Deem and Ramdas Pophale) SiO2 
 PCOD9099803
Probable space group: P -1
;
_chemical_formula_sum "Si O2"
_cell_formula_units_Z 16
_cell_length_a 8.754165
_cell_length_b 7.908076
_cell_length_c 12.634464
_cell_angle_alpha 108.045222
_cell_angle_beta 64.481149
_cell_angle_gamma 105.637451
_cell_volume 741.010423
_symmetry_space_group_name_H-M "P -1"
_symmetry_group_IT_number 2
_symmetry_cell_setting 'triclinic'
loop_
_space_group_symop_operation_xyz
x,y,z
-x,-y,-z
loop_
_atom_site_type_symbol
_atom_site_label
_atom_site_fract_x
_atom_site_fract_y
_atom_site_fract_z
Si Si1 0.314859 0.783630 0.740653
Si Si2 0.800129 0.763855 0.339947
Si Si3 0.530086 0.477951 0.675937
Si Si4 0.841430 0.731413 0.564600
Si Si5 0.639070 0.062250 0.703289
Si Si6 0.988273 0.463079 0.121584
Si Si7 0.207775 0.831337 0.556164
Si Si8 0.643240 0.428921 0.871988
O O1 0.427427 0.643564 0.726839
O O2 0.291713 0.750629 0.615811
O O3 0.134095 0.722036 0.841913
O O4 0.438258 0.974863 0.750893
O O5 0.598984 0.683723 0.369596
O O6 0.866910 0.756823 0.437673
O O7 0.901145 0.631313 0.220740
O O8 0.819986 0.973718 0.351236
O O9 0.711416 0.548292 0.582784
O O10 0.577483 0.456474 0.778723
O O11 0.019349 0.728805 0.567872
O O12 0.752937 0.903959 0.658973
O O13 0.693137 0.131965 0.579806
O O14 0.665312 0.218328 0.813685
O O15 0.172574 0.471672 0.124048
O O16 0.000000 0.500000 0.000000
O O17 0.500000 0.500000 0.000000
#
# Coordination Sequence:
#
# PCOD9099803 Si02
#       8
#     2   2   2   2   2   2   2   2
#     4  10  22  40  62  91 123 159 200 246 298 355
#     4  10  20  38  62  88 122 159 196 247 301 354
#     4  10  22  38  57  88 123 160 201 243 293 356
#     4  10  20  37  61  93 123 156 196 246 303 358
#     4  10  22  40  62  91 124 157 197 246 300 359
#     4  11  24  44  63  88 120 158 203 251 296 352
#     4  11  20  37  63  94 124 157 195 245 304 359
#     4  12  24  42  63  85 117 162 204 248 298 353
#
# _framework density 21.592140000000001
#
# number of rings (size 3 to 8) (size 9 to 14) (size 15 to 20)
#    0.000    1.500    0.000    6.750    0.000    5.000 
#    0.000   13.750    0.000    0.000    0.000    0.000 
#    0.000    0.000    0.000    0.000    0.000    0.000 
#
# Total GULP energy -89332.196636 kJ/mol
# GULP energy per Si atom -5583.262290 kJ/mol
# Density = 2.154299 g / cm^3
# Si number density = 21.592140 Si / 1000 Ang^3
#
#
#
# Elastic Constant Matrix: (Units=GPa)
#
#
# Indices 1 2 3 4 5 6 
#
# 1 118.0543 14.1419 3.9581 -3.0351 -1.9087 24.9037
# 2 14.1419 37.5978 13.9069 -0.5847 -10.3561 22.4798
# 3 3.9581 13.9069 59.4614 11.4141 -22.1514 -11.4531
# 4 -3.0351 -0.5847 11.4141 24.4286 -1.3618 -5.7309
# 5 -1.9087 -10.3561 -22.1514 -1.3618 35.7763 -5.2594
# 6 24.9037 22.4798 -11.4531 -5.7309 -5.2594 41.3301
#
#
#
# Elastic Compliance Matrix: (Units=1/GPa)
#
#
# Indices 1 2 3 4 5 6 
#
# 1 0.010130 0.002018 -0.003898 0.001004 -0.002494 -0.008460
# 2 0.002018 0.055712 -0.021999 0.002893 -0.002799 -0.037570
# 3 -0.003898 -0.021999 0.036384 -0.010997 0.019255 0.025322
# 4 0.001004 0.002893 -0.010997 0.046197 -0.004062 0.000663
# 5 -0.002494 -0.002799 0.019255 -0.004062 0.040683 0.012975
# 6 -0.008460 -0.037570 0.025322 0.000663 0.012975 0.058487
#
#
# Mechanical properties :
#
#
# Convention : Reuss Voigt Hill
#
# Bulk Modulus (GPa) = 18.35908 31.01414 24.68661
# Shear Modulus (GPa) = 15.94861 32.51412 24.23137
#
# Velocity S-wave (km/s) = 2.72072 3.88471 3.35361
# Velocity P-wave (km/s) = 4.28846 5.87504 5.14330
#
# Compressibility (1/GPa) = 0.05446896
#
# Stress axis : x y z
#
# Youngs Moduli (GPa) = 98.72010 17.94933 27.48468
#
# Poissons Ratio (x) = -0.03623 0.10713
# Poissons Ratio (y) = -0.19924 0.60464
# Poissons Ratio (z) = 0.38478 0.39487
#
# Static dielectric constant tensor:
#      x y z
#    x 1.695160 0.083730 -0.104160 
#    y 0.083730 1.770670 0.048510 
#    z -0.104160 0.048510 1.705420 
# 
# From -- ./inp_files/379884.got.cif
#   From: 2010.05.17/outbox.cif.g08.bks.cpg/sg2_190_cif.got.tgz:379884.got - 2010.06.03 11:33:40.
