data_PCOD9099043
_publ_section_title
;
Structure prediction by ZEFSAII (Michael W. Deem and Ramdas Pophale) SiO2 
 PCOD9099043
Probable space group: P -1
;
_chemical_formula_sum "Si O2"
_cell_formula_units_Z 14
_cell_length_a 7.893844
_cell_length_b 16.698123
_cell_length_c 14.090443
_cell_angle_alpha 157.026275
_cell_angle_beta 114.284422
_cell_angle_gamma 74.746113
_cell_volume 624.952298
_symmetry_space_group_name_H-M "P -1"
_symmetry_group_IT_number 2
_symmetry_cell_setting 'triclinic'
loop_
_space_group_symop_operation_xyz
x,y,z
-x,-y,-z
loop_
_atom_site_type_symbol
_atom_site_label
_atom_site_fract_x
_atom_site_fract_y
_atom_site_fract_z
Si Si1 0.055490 0.466698 0.583444
Si Si2 0.180597 0.868105 0.180740
Si Si3 0.470411 0.554114 0.709376
Si Si4 0.282608 0.330727 0.761208
Si Si5 0.633717 0.248956 0.296583
Si Si6 0.380316 0.119448 0.732953
Si Si7 0.102784 0.664478 0.121309
O O1 0.267415 0.433826 0.588225
O O2 0.000000 0.500000 0.500000
O O3 0.867304 0.288928 0.391834
O O4 0.085998 0.697995 0.892724
O O5 0.403002 0.857788 0.233857
O O6 0.046787 0.795413 0.165147
O O7 0.224737 0.122979 0.453806
O O8 0.581174 0.388775 0.521574
O O9 0.418210 0.655551 0.710695
O O10 0.587189 0.749314 0.018720
O O11 0.266815 0.227957 0.751576
O O12 0.500000 0.500000 0.000000
O O13 0.161912 0.487171 0.879000
O O14 0.500000 0.000000 0.000000
O O15 0.265204 0.862888 0.428554
O O16 0.000000 0.500000 0.000000
#
# Coordination Sequence:
#
# PCOD9099043 Si02
#       7
#     2   2   2   2   2   2   2
#     4   9  20  40  60  85 116 153 195 238 289 346
#     4  10  20  38  60  81 117 153 188 241 283 340
#     4   9  21  39  59  84 117 152 190 242 291 340
#     4  11  19  36  60  81 110 154 190 226 285 345
#     4  10  21  39  61  84 117 151 194 243 291 343
#     4  10  20  37  59  82 115 152 190 234 285 346
#     4  11  23  35  54  89 118 145 192 239 283 344
#
# _framework density 22.401710000000001
#
# number of rings (size 3 to 8) (size 9 to 14) (size 15 to 20)
#    0.000    2.000    2.857    0.857    0.000    7.429 
#    2.571    2.857    0.000    0.000    0.000    0.000 
#    0.000    0.000    0.000    0.000    0.000    0.000 
#
# Total GULP energy -77989.913529 kJ/mol
# GULP energy per Si atom -5570.708109 kJ/mol
# Density = 2.235072 g / cm^3
# Si number density = 22.401710 Si / 1000 Ang^3
#
#
#
# Elastic Constant Matrix: (Units=GPa)
#
#
# Indices 1 2 3 4 5 6 
#
# 1 96.3222 18.1365 61.3137 11.2981 11.7587 23.8110
# 2 18.1365 41.5649 54.3325 -2.6892 5.4116 15.5497
# 3 61.3137 54.3325 190.8756 -2.5428 10.6567 29.8860
# 4 11.2981 -2.6892 -2.5428 48.9235 8.5693 -0.9103
# 5 11.7587 5.4116 10.6567 8.5693 33.8600 3.9512
# 6 23.8110 15.5497 29.8860 -0.9103 3.9512 30.9359
#
#
#
# Elastic Compliance Matrix: (Units=1/GPa)
#
#
# Indices 1 2 3 4 5 6 
#
# 1 0.015464 0.001926 -0.004053 -0.003396 -0.002524 -0.008733
# 2 0.001926 0.041902 -0.010476 0.001631 -0.003083 -0.011982
# 3 -0.004053 -0.010476 0.009685 0.000859 -0.000075 -0.000937
# 4 -0.003396 0.001631 0.000859 0.022324 -0.005269 0.002294
# 5 -0.002524 -0.003083 -0.000075 -0.005269 0.032344 -0.000722
# 6 -0.008733 -0.011982 -0.000937 0.002294 -0.000722 0.046134
#
#
# Mechanical properties :
#
#
# Convention : Reuss Voigt Hill
#
# Bulk Modulus (GPa) = 23.89752 66.25868 45.07810
# Shear Modulus (GPa) = 24.15376 35.74255 29.94815
#
# Velocity S-wave (km/s) = 3.28717 3.99874 3.66029
# Velocity P-wave (km/s) = 5.00981 7.13874 6.16684
#
# Compressibility (1/GPa) = 0.04184535
#
# Stress axis : x y z
#
# Youngs Moduli (GPa) = 64.66532 23.86529 103.25192
#
# Poissons Ratio (x) = -0.04596 0.41844
# Poissons Ratio (y) = -0.12453 1.08167
# Poissons Ratio (z) = 0.26206 0.25001
#
# Static dielectric constant tensor:
#      x y z
#    x 1.994770 0.035900 -0.002270 
#    y 0.035900 1.855110 -0.004940 
#    z -0.002270 -0.004940 1.800890 
# 
# From -- ./inp_files/35454.got.cif
#   From: 2010.05.17/outbox.cif.g08.bks.cpg/sg2_18_cif.got.tgz:35454.got - 2010.06.03 11:33:40.
