data_PCOD9099655
_publ_section_title
;
Structure prediction by ZEFSAII (Michael W. Deem and Ramdas Pophale) SiO2 
 PCOD9099655
Probable space group: P -1
;
_chemical_formula_sum "Si O2"
_cell_formula_units_Z 12
_cell_length_a 7.390727
_cell_length_b 11.565956
_cell_length_c 11.918972
_cell_angle_alpha 138.944629
_cell_angle_beta 133.611130
_cell_angle_gamma 54.099520
_cell_volume 479.775752
_symmetry_space_group_name_H-M "P -1"
_symmetry_group_IT_number 2
_symmetry_cell_setting 'triclinic'
loop_
_space_group_symop_operation_xyz
x,y,z
-x,-y,-z
loop_
_atom_site_type_symbol
_atom_site_label
_atom_site_fract_x
_atom_site_fract_y
_atom_site_fract_z
Si Si1 0.218951 0.291309 0.357489
Si Si2 0.168253 0.004456 0.685992
Si Si3 0.739153 0.678720 0.147230
Si Si4 0.991986 0.690464 0.487554
Si Si5 0.321999 0.540659 0.235171
Si Si6 0.283085 0.164955 0.052209
O O1 0.093167 0.486082 0.404229
O O2 0.489509 0.327697 0.547159
O O3 0.220847 0.172963 0.161740
O O4 0.078757 0.232360 0.363507
O O5 0.363183 0.129776 0.810837
O O6 0.187802 0.806017 0.598158
O O7 0.071280 0.120386 0.840062
O O8 0.000000 0.000000 0.500000
O O9 0.765488 0.695250 0.303557
O O10 0.033689 0.625202 0.195145
O O11 0.619957 0.528373 0.918155
O O12 0.353330 0.357156 0.186381
O O13 0.500000 0.000000 0.000000
#
# Coordination Sequence:
#
# PCOD9099655 Si02
#       6
#     2   2   2   2   2   2
#     4  11  23  36  60  87 122 150 184 241 296 337
#     4   9  20  37  60  81 113 154 192 236 277 340
#     4   9  19  37  65  83 113 152 199 235 280 341
#     4  10  21  40  58  87 118 153 187 237 292 343
#     4  10  20  37  61  88 110 153 200 237 279 340
#     4  11  22  35  59  88 113 149 198 238 281 340
#
# _framework density 25.011685
#
# number of rings (size 3 to 8) (size 9 to 14) (size 15 to 20)
#    0.000    2.000    1.667    1.500    4.667    1.333 
#    0.000    0.833    0.000    0.000    0.000    0.000 
#    0.000    0.000    0.000    0.000    0.000    0.000 
#
# Total GULP energy -66896.086034 kJ/mol
# GULP energy per Si atom -5574.673836 kJ/mol
# Density = 2.495476 g / cm^3
# Si number density = 25.011685 Si / 1000 Ang^3
#
#
#
# Elastic Constant Matrix: (Units=GPa)
#
#
# Indices 1 2 3 4 5 6 
#
# 1 60.3114 46.4034 41.7206 0.4364 -27.8456 18.2154
# 2 46.4034 140.2603 15.3590 -4.7386 -8.1391 19.8140
# 3 41.7206 15.3590 156.9861 -31.0937 -54.2606 22.4025
# 4 0.4364 -4.7386 -31.0937 40.7417 15.4894 -6.7094
# 5 -27.8456 -8.1391 -54.2606 15.4894 51.5929 -3.6641
# 6 18.2154 19.8140 22.4025 -6.7094 -3.6641 19.7344
#
#
#
# Elastic Compliance Matrix: (Units=1/GPa)
#
#
# Indices 1 2 3 4 5 6 
#
# 1 0.047005 -0.009855 -0.001708 -0.017911 0.025052 -0.032991
# 2 -0.009855 0.010523 0.001487 0.003269 -0.003265 -0.002652
# 3 -0.001708 0.001487 0.012767 0.004031 0.010745 -0.011043
# 4 -0.017911 0.003269 0.004031 0.036804 -0.014650 0.018467
# 5 0.025052 -0.003265 0.010745 -0.014650 0.046065 -0.028472
# 6 -0.032991 -0.002652 -0.011043 0.018467 -0.028472 0.097316
#
#
# Mechanical properties :
#
#
# Convention : Reuss Voigt Hill
#
# Bulk Modulus (GPa) = 19.94346 62.72486 41.33416
# Shear Modulus (GPa) = 17.40063 39.35212 28.37638
#
# Velocity S-wave (km/s) = 2.64047 3.97085 3.37192
# Velocity P-wave (km/s) = 4.15778 6.79384 5.63220
#
# Compressibility (1/GPa) = 0.05014176
#
# Stress axis : x y z
#
# Youngs Moduli (GPa) = 21.27440 95.03271 78.32854
#
# Poissons Ratio (x) = 0.93653 0.13382
# Poissons Ratio (y) = 0.20965 -0.11647
# Poissons Ratio (z) = 0.03635 -0.14131
#
# Static dielectric constant tensor:
#      x y z
#    x 2.004930 -0.080700 0.000070 
#    y -0.080700 2.145520 -0.089210 
#    z 0.000070 -0.089210 2.099300 
# 
# From -- ./inp_files/246939.got.cif
#   From: 2010.05.17/outbox.cif.g08.bks.cpg/sg2_124_cif.got.tgz:246939.got - 2010.06.03 11:33:40.
