data_PCOD9099995
_publ_section_title
;
Structure prediction by ZEFSAII (Michael W. Deem and Ramdas Pophale) SiO2 
 PCOD9099995
Probable space group: P -1
;
_chemical_formula_sum "Si O2"
_cell_formula_units_Z 16
_cell_length_a 12.031236
_cell_length_b 19.605228
_cell_length_c 9.454448
_cell_angle_alpha 136.191950
_cell_angle_beta 41.210736
_cell_angle_gamma 154.911566
_cell_volume 616.449237
_symmetry_space_group_name_H-M "P -1"
_symmetry_group_IT_number 2
_symmetry_cell_setting 'triclinic'
loop_
_space_group_symop_operation_xyz
x,y,z
-x,-y,-z
loop_
_atom_site_type_symbol
_atom_site_label
_atom_site_fract_x
_atom_site_fract_y
_atom_site_fract_z
Si Si1 0.643112 0.599357 0.721385
Si Si2 0.987197 0.888245 0.050223
Si Si3 0.213661 0.368496 0.986191
Si Si4 0.789483 0.353642 0.814463
Si Si5 0.679795 0.238462 0.423683
Si Si6 0.361169 0.634593 0.600880
Si Si7 0.273428 0.204298 0.252954
Si Si8 0.569410 0.063350 0.689377
O O1 0.321219 0.457210 0.866491
O O2 0.697248 0.509698 0.565506
O O3 0.730670 0.682348 0.609928
O O4 0.826153 0.755594 0.882094
O O5 0.304600 0.001336 0.904707
O O6 0.879553 0.788664 0.148366
O O7 0.001657 0.011483 0.198447
O O8 0.500000 0.500000 0.000000
O O9 0.965701 0.318269 0.214556
O O10 0.619716 0.298452 0.463120
O O11 0.724644 0.301992 0.632924
O O12 0.802953 0.254258 0.733549
O O13 0.527663 0.288041 0.033232
O O14 0.445287 0.043591 0.366187
O O15 0.087309 0.544324 0.812757
O O16 0.628382 0.771164 0.646627
O O17 0.500000 0.000000 0.500000
#
# Coordination Sequence:
#
# PCOD9099995 Si02
#       8
#     2   2   2   2   2   2   2   2
#     4  11  22  39  61  85 119 166 208 247 297 363
#     4   9  19  37  61  86 114 154 206 251 294 361
#     4   9  18  36  62  92 118 149 201 257 294 346
#     4  10  20  37  62  90 117 156 202 247 299 368
#     4  10  20  37  63  93 122 158 203 249 298 361
#     4  12  24  39  59  92 127 159 198 253 308 359
#     4  11  24  41  60  88 124 160 201 254 310 356
#     4   8  15  32  57  88 117 144 192 248 293 348
#
# _framework density 25.955098
#
# number of rings (size 3 to 8) (size 9 to 14) (size 15 to 20)
#    0.000    2.000    0.000    5.250    0.000    3.000 
#    0.000   10.000    0.000    0.000    0.000    0.000 
#    0.000    0.000    0.000    0.000    0.000    0.000 
#
# Total GULP energy -89423.975381 kJ/mol
# GULP energy per Si atom -5588.998461 kJ/mol
# Density = 2.589602 g / cm^3
# Si number density = 25.955098 Si / 1000 Ang^3
#
#
#
# Elastic Constant Matrix: (Units=GPa)
#
#
# Indices 1 2 3 4 5 6 
#
# 1 133.4890 56.0817 43.8807 5.5508 -13.2857 -41.0005
# 2 56.0817 126.3632 23.7981 4.0172 7.1389 -54.3717
# 3 43.8807 23.7981 93.5026 -6.2402 -11.9588 -5.9323
# 4 5.5508 4.0172 -6.2402 32.5139 2.2132 -6.0446
# 5 -13.2857 7.1389 -11.9588 2.2132 35.6263 2.4824
# 6 -41.0005 -54.3717 -5.9323 -6.0446 2.4824 46.2735
#
#
#
# Elastic Compliance Matrix: (Units=1/GPa)
#
#
# Indices 1 2 3 4 5 6 
#
# 1 0.012603 -0.000779 -0.004883 -0.001446 0.002659 0.009294
# 2 -0.000779 0.018268 -0.003724 0.001498 -0.006747 0.020855
# 3 -0.004883 -0.003724 0.014182 0.002484 0.004004 -0.006774
# 4 -0.001446 0.001498 0.002484 0.032416 -0.002379 0.005159
# 5 0.002659 -0.006747 0.004004 -0.002379 0.032400 -0.007107
# 6 0.009294 0.020855 -0.006774 0.005159 -0.007107 0.054537
#
#
# Mechanical properties :
#
#
# Convention : Reuss Voigt Hill
#
# Bulk Modulus (GPa) = 38.04969 66.76397 52.40683
# Shear Modulus (GPa) = 26.05023 38.18903 32.11963
#
# Velocity S-wave (km/s) = 3.17150 3.83998 3.52164
# Velocity P-wave (km/s) = 5.30122 6.74087 6.06392
#
# Compressibility (1/GPa) = 0.02628143
#
# Stress axis : x y z
#
# Youngs Moduli (GPa) = 79.34559 54.74169 70.51055
#
# Poissons Ratio (x) = 0.04264 0.34431
# Poissons Ratio (y) = 0.06181 0.26256
# Poissons Ratio (z) = 0.38745 0.20384
#
# Static dielectric constant tensor:
#      x y z
#    x 2.268950 -0.048690 0.014530 
#    y -0.048690 2.065160 -0.003300 
#    z 0.014530 -0.003300 2.185150 
# 
# From -- ./inp_files/467530.got.cif
#   From: 2010.05.17/outbox.cif.g08.bks.cpg/sg2_234_cif.got.tgz:467530.got - 2010.06.03 11:33:40.
