data_PCOD9099321
_publ_section_title
;
Structure prediction by ZEFSAII (Michael W. Deem and Ramdas Pophale) SiO2 
 PCOD9099321
Probable space group: P -1
;
_chemical_formula_sum "Si O2"
_cell_formula_units_Z 12
_cell_length_a 7.088252
_cell_length_b 13.720093
_cell_length_c 7.685021
_cell_angle_alpha 99.639197
_cell_angle_beta 57.937354
_cell_angle_gamma 120.783287
_cell_volume 538.537054
_symmetry_space_group_name_H-M "P -1"
_symmetry_group_IT_number 2
_symmetry_cell_setting 'triclinic'
loop_
_space_group_symop_operation_xyz
x,y,z
-x,-y,-z
loop_
_atom_site_type_symbol
_atom_site_label
_atom_site_fract_x
_atom_site_fract_y
_atom_site_fract_z
Si Si1 0.312525 0.386917 0.948567
Si Si2 0.903331 0.197862 0.332609
Si Si3 0.442024 0.118955 0.316711
Si Si4 0.964046 0.119739 0.655965
Si Si5 0.843958 0.303616 0.939263
Si Si6 0.769124 0.375327 0.622258
O O1 0.499084 0.368938 0.723506
O O2 0.091120 0.395128 0.954537
O O3 0.500000 0.500000 0.000000
O O4 0.154701 0.276382 0.117123
O O5 0.664526 0.108201 0.305331
O O6 0.956984 0.147215 0.462314
O O7 0.808887 0.284108 0.470507
O O8 0.235128 0.124683 0.546848
O O9 0.271405 0.009366 0.245975
O O10 0.598378 0.234806 0.163096
O O11 0.920532 0.209294 0.811643
O O12 0.785151 0.351778 0.811227
O O13 0.000000 0.500000 0.500000
#
# Coordination Sequence:
#
# PCOD9099321 Si02
#       6
#     2   2   2   2   2   2
#     4  11  22  39  56  82 114 151 189 230 277 329
#     4  10  21  38  56  84 116 146 185 232 274 332
#     4  10  20  37  60  85 112 147 185 228 281 334
#     4  10  20  37  60  85 112 147 185 228 281 334
#     4  10  23  38  58  84 116 148 185 234 278 330
#     4  11  22  39  56  82 114 151 189 230 277 329
#
# _framework density 22.282589000000002
#
# number of rings (size 3 to 8) (size 9 to 14) (size 15 to 20)
#    0.000    1.667    1.667    3.000    0.000    1.333 
#    3.000    0.000    0.000   16.000    0.000    0.000 
#    0.000    0.000    0.000    0.000    0.000    0.000 
#
# Total GULP energy -67104.237945 kJ/mol
# GULP energy per Si atom -5592.019829 kJ/mol
# Density = 2.223187 g / cm^3
# Si number density = 22.282589 Si / 1000 Ang^3
#
#
#
# Elastic Constant Matrix: (Units=GPa)
#
#
# Indices 1 2 3 4 5 6 
#
# 1 53.5649 16.7780 12.5557 -21.0697 -9.7410 19.4188
# 2 16.7780 73.9788 9.2231 -6.4955 -20.2006 18.3031
# 3 12.5557 9.2231 84.3273 -22.7919 -18.7773 10.4808
# 4 -21.0697 -6.4955 -22.7919 35.5966 2.4435 -9.7041
# 5 -9.7410 -20.2006 -18.7773 2.4435 42.9095 -2.6212
# 6 19.4188 18.3031 10.4808 -9.7041 -2.6212 35.6810
#
#
#
# Elastic Compliance Matrix: (Units=1/GPa)
#
#
# Indices 1 2 3 4 5 6 
#
# 1 0.029850 -0.001270 0.002623 0.015528 0.005726 -0.011721
# 2 -0.001270 0.017937 0.001189 0.000509 0.008151 -0.008122
# 3 0.002623 0.001189 0.016342 0.010806 0.007487 -0.003349
# 4 0.015528 0.000509 0.010806 0.044027 0.006019 0.000530
# 5 0.005726 0.008151 0.007487 0.006019 0.031035 -0.005580
# 6 -0.011721 -0.008122 -0.003349 0.000530 -0.005580 0.039289
#
#
# Mechanical properties :
#
#
# Convention : Reuss Voigt Hill
#
# Bulk Modulus (GPa) = 14.44796 32.10938 23.27867
# Shear Modulus (GPa) = 25.44963 34.39170 29.92066
#
# Velocity S-wave (km/s) = 3.38321 3.93292 3.66837
# Velocity P-wave (km/s) = 4.66471 5.92158 5.33032
#
# Compressibility (1/GPa) = 0.06921394
#
# Stress axis : x y z
#
# Youngs Moduli (GPa) = 33.50061 55.75029 61.19235
#
# Poissons Ratio (x) = 0.07081 -0.16051
# Poissons Ratio (y) = 0.04255 -0.07278
# Poissons Ratio (z) = -0.08787 -0.06631
#
# Static dielectric constant tensor:
#      x y z
#    x 1.827230 0.032540 0.008480 
#    y 0.032540 1.842360 0.025770 
#    z 0.008480 0.025770 1.787890 
# 
# From -- ./inp_files/21804.got.cif
#   From: 2010.05.17/outbox.cif.g08.bks.cpg/sg2_11_cif.got.tgz:21804.got - 2010.06.03 11:33:40.
