data_PCOD9099447
_publ_section_title
;
Structure prediction by ZEFSAII (Michael W. Deem and Ramdas Pophale) SiO2 
 PCOD9099447
Probable space group: P -1
;
_chemical_formula_sum "Si O2"
_cell_formula_units_Z 16
_cell_length_a 11.517184
_cell_length_b 10.632148
_cell_length_c 15.079138
_cell_angle_alpha 97.012344
_cell_angle_beta 133.799230
_cell_angle_gamma 119.166543
_cell_volume 796.722170
_symmetry_space_group_name_H-M "P -1"
_symmetry_group_IT_number 2
_symmetry_cell_setting 'triclinic'
loop_
_space_group_symop_operation_xyz
x,y,z
-x,-y,-z
loop_
_atom_site_type_symbol
_atom_site_label
_atom_site_fract_x
_atom_site_fract_y
_atom_site_fract_z
Si Si1 0.879911 0.799076 0.666693
Si Si2 0.296455 0.121331 0.167522
Si Si3 0.774963 0.248302 0.655889
Si Si4 0.112346 0.413881 0.473005
Si Si5 0.716725 0.498335 0.703231
Si Si6 0.328188 0.237653 0.014495
Si Si7 0.098438 0.444233 0.672418
Si Si8 0.046402 0.290307 0.963521
O O1 0.987401 0.768971 0.648864
O O2 0.835609 0.687762 0.722935
O O3 0.596960 0.671904 0.473854
O O4 0.075294 0.038011 0.807585
O O5 0.568616 0.363046 0.362646
O O6 0.358240 0.147076 0.098479
O O7 0.227373 0.955798 0.174225
O O8 0.000000 0.000000 0.000000
O O9 0.750796 0.385157 0.663055
O O10 0.894806 0.282314 0.627839
O O11 0.969690 0.333601 0.847255
O O12 0.500000 0.000000 0.500000
O O13 0.077629 0.373151 0.556498
O O14 0.953697 0.439490 0.362858
O O15 0.840469 0.580975 0.874345
O O16 0.257371 0.320708 0.037718
O O17 0.606754 0.409398 0.127000
#
# Coordination Sequence:
#
# PCOD9099447 Si02
#       8
#     2   2   2   2   2   2   2   2
#     4  11  21  36  66  94 126 149 208 265 304 363
#     4   9  17  32  58  89 116 153 199 247 303 347
#     4  12  25  43  63  88 125 165 209 246 307 379
#     4  10  20  37  60  89 126 155 202 261 307 353
#     4  11  23  38  61  96 123 160 205 257 307 357
#     4  10  21  37  62  93 120 160 202 255 310 354
#     4  10  22  40  59  87 123 163 206 248 311 365
#     4  11  22  39  63  89 131 163 201 248 306 373
#
# _framework density 20.082281999999999
#
# number of rings (size 3 to 8) (size 9 to 14) (size 15 to 20)
#    0.000    1.500    2.500    4.125    5.250    1.000 
#    0.000    1.250    0.000    3.000    0.000    0.000 
#    0.000    0.000    0.000    0.000    0.000    0.000 
#
# Total GULP energy -89248.219836 kJ/mol
# GULP energy per Si atom -5578.013740 kJ/mol
# Density = 2.003657 g / cm^3
# Si number density = 20.082282 Si / 1000 Ang^3
#
#
#
# Elastic Constant Matrix: (Units=GPa)
#
#
# Indices 1 2 3 4 5 6 
#
# 1 104.9180 20.7843 36.4588 10.3568 -0.8772 19.3011
# 2 20.7843 38.5425 14.4359 -5.0711 3.9947 18.6882
# 3 36.4588 14.4359 79.5043 -0.9602 -7.0314 7.6302
# 4 10.3568 -5.0711 -0.9602 34.3579 2.5135 1.1790
# 5 -0.8772 3.9947 -7.0314 2.5135 30.7641 -0.4157
# 6 19.3011 18.6882 7.6302 1.1790 -0.4157 28.4089
#
#
#
# Elastic Compliance Matrix: (Units=1/GPa)
#
#
# Indices 1 2 3 4 5 6 
#
# 1 0.013378 -0.003285 -0.005082 -0.004471 -0.000061 -0.005379
# 2 -0.003285 0.044010 -0.004587 0.008829 -0.007929 -0.025970
# 3 -0.005082 -0.004587 0.015896 0.000927 0.004038 0.002221
# 4 -0.004471 0.008829 0.000927 0.032208 -0.003753 -0.004411
# 5 -0.000061 -0.007929 0.004038 -0.003753 0.034828 0.004838
# 6 -0.005379 -0.025970 0.002221 -0.004411 0.004838 0.055596
#
#
# Mechanical properties :
#
#
# Convention : Reuss Voigt Hill
#
# Bulk Modulus (GPa) = 21.10685 40.70255 30.90470
# Shear Modulus (GPa) = 21.04232 28.79190 24.91711
#
# Velocity S-wave (km/s) = 3.24049 3.79053 3.52625
# Velocity P-wave (km/s) = 4.95319 6.28246 5.65700
#
# Compressibility (1/GPa) = 0.04737798
#
# Stress axis : x y z
#
# Youngs Moduli (GPa) = 74.74886 22.72190 62.90768
#
# Poissons Ratio (x) = 0.07464 0.31967
# Poissons Ratio (y) = 0.24553 0.28856
# Poissons Ratio (z) = 0.37985 0.10423
#
# Static dielectric constant tensor:
#      x y z
#    x 1.714850 -0.002810 0.008180 
#    y -0.002810 1.750100 -0.012720 
#    z 0.008180 -0.012720 1.739870 
# 
# From -- ./inp_files/517991.got.cif
#   From: 2010.05.17/outbox.cif.g08.bks.cpg/sg2_259_cif.got.tgz:517991.got - 2010.06.03 11:33:40.
