data_PCOD9099438
_publ_section_title
;
Structure prediction by ZEFSAII (Michael W. Deem and Ramdas Pophale) SiO2 
 PCOD9099438
Probable space group: P -1
;
_chemical_formula_sum "Si O2"
_cell_formula_units_Z 16
_cell_length_a 20.220487
_cell_length_b 11.210601
_cell_length_c 17.572266
_cell_angle_alpha 131.137067
_cell_angle_beta 23.959700
_cell_angle_gamma 145.846589
_cell_volume 819.266705
_symmetry_space_group_name_H-M "P -1"
_symmetry_group_IT_number 2
_symmetry_cell_setting 'triclinic'
loop_
_space_group_symop_operation_xyz
x,y,z
-x,-y,-z
loop_
_atom_site_type_symbol
_atom_site_label
_atom_site_fract_x
_atom_site_fract_y
_atom_site_fract_z
Si Si1 0.530792 0.402764 0.738888
Si Si2 0.900910 0.373008 0.360718
Si Si3 0.458909 0.022948 0.300412
Si Si4 0.839471 0.725909 0.044607
Si Si5 0.264279 0.296671 0.214424
Si Si6 0.289925 0.466258 0.730331
Si Si7 0.171011 0.983502 0.062795
Si Si8 0.885371 0.300473 0.599043
O O1 0.722595 0.389780 0.523516
O O2 0.397972 0.383683 0.797985
O O3 0.651795 0.633745 0.757178
O O4 0.312072 0.180566 0.930114
O O5 0.120465 0.612906 0.278226
O O6 0.740329 0.163840 0.504655
O O7 0.013371 0.315327 0.165984
O O8 0.602639 0.281590 0.280963
O O9 0.341358 0.941430 0.305892
O O10 0.641420 0.010286 0.103751
O O11 0.777177 0.619855 0.148944
O O12 0.000000 0.000000 0.000000
O O13 0.088871 0.317468 0.402630
O O14 0.127721 0.058400 0.214435
O O15 0.500000 0.500000 0.000000
O O16 0.500000 0.500000 0.500000
O O17 0.062521 0.266147 0.831815
O O18 0.000000 0.500000 0.500000
#
# Coordination Sequence:
#
# PCOD9099438 Si02
#       8
#     2   2   2   2   2   2   2   2
#     4   9  20  38  61  97 118 150 207 248 305 349
#     4   9  21  39  64  92 121 154 200 258 294 357
#     4  10  21  37  61  91 120 158 199 250 301 360
#     4  12  24  40  64  87 122 164 199 252 302 360
#     4   9  17  29  58  89 119 147 195 255 291 349
#     4  12  25  42  58  86 122 162 204 243 303 370
#     4  10  20  37  60  89 120 159 200 250 297 356
#     4   9  17  31  58  92 117 151 197 247 300 345
#
# _framework density 19.529661000000001
#
# number of rings (size 3 to 8) (size 9 to 14) (size 15 to 20)
#    0.000    2.000    1.250    4.125    8.750    0.500 
#    4.500    0.625    0.000    2.250    0.000    0.000 
#    0.000    0.000    0.000    0.000    0.000    0.000 
#
# Total GULP energy -89122.333708 kJ/mol
# GULP energy per Si atom -5570.145857 kJ/mol
# Density = 1.948521 g / cm^3
# Si number density = 19.529661 Si / 1000 Ang^3
#
#
#
# Elastic Constant Matrix: (Units=GPa)
#
#
# Indices 1 2 3 4 5 6 
#
# 1 72.9933 28.0570 31.4612 2.8262 -9.3167 33.4107
# 2 28.0570 96.0463 19.9773 14.5445 7.6912 32.3849
# 3 31.4612 19.9773 83.5104 22.9560 10.2169 21.0291
# 4 2.8262 14.5445 22.9560 34.1068 14.6548 -4.0284
# 5 -9.3167 7.6912 10.2169 14.6548 16.2428 -4.6487
# 6 33.4107 32.3849 21.0291 -4.0284 -4.6487 35.3457
#
#
#
# Elastic Compliance Matrix: (Units=1/GPa)
#
#
# Indices 1 2 3 4 5 6 
#
# 1 0.030686 0.000257 -0.004977 -0.013129 0.025465 -0.024427
# 2 0.000257 0.019712 0.005359 -0.010651 -0.009816 -0.023997
# 3 -0.004977 0.005359 0.021768 -0.013465 -0.011577 -0.016214
# 4 -0.013129 -0.010651 -0.013465 0.067426 -0.045736 0.031850
# 5 0.025465 -0.009816 -0.011577 -0.045736 0.130441 0.003754
# 6 -0.024427 -0.023997 -0.016214 0.031850 0.003754 0.087140
#
#
# Mechanical properties :
#
#
# Convention : Reuss Voigt Hill
#
# Bulk Modulus (GPa) = 13.61571 45.72679 29.67125
# Shear Modulus (GPa) = 13.14484 28.67600 20.91042
#
# Velocity S-wave (km/s) = 2.59718 3.83604 3.27571
# Velocity P-wave (km/s) = 3.99759 6.56392 5.43442
#
# Compressibility (1/GPa) = 0.07344459
#
# Stress axis : x y z
#
# Youngs Moduli (GPa) = 32.58812 50.72954 45.93829
#
# Poissons Ratio (x) = -0.01302 0.22864
# Poissons Ratio (y) = -0.00836 -0.24620
# Poissons Ratio (z) = 0.16220 -0.27188
#
# Static dielectric constant tensor:
#      x y z
#    x 1.712920 0.049930 0.015650 
#    y 0.049930 1.702550 0.014110 
#    z 0.015650 0.014110 1.663390 
# 
# From -- ./inp_files/283210.got.cif
#   From: 2010.05.17/outbox.cif.g08.bks.cpg/sg2_142_cif.got.tgz:283210.got - 2010.06.03 11:33:40.
