data_PCOD9099234
_publ_section_title
;
Structure prediction by ZEFSAII (Michael W. Deem and Ramdas Pophale) SiO2 
 PCOD9099234
Probable space group: P -1
;
_chemical_formula_sum "Si O2"
_cell_formula_units_Z 16
_cell_length_a 15.134913
_cell_length_b 9.233931
_cell_length_c 9.521697
_cell_angle_alpha 133.178260
_cell_angle_beta 64.942124
_cell_angle_gamma 98.371960
_cell_volume 857.850745
_symmetry_space_group_name_H-M "P -1"
_symmetry_group_IT_number 2
_symmetry_cell_setting 'triclinic'
loop_
_space_group_symop_operation_xyz
x,y,z
-x,-y,-z
loop_
_atom_site_type_symbol
_atom_site_label
_atom_site_fract_x
_atom_site_fract_y
_atom_site_fract_z
Si Si1 0.717236 0.971693 0.990359
Si Si2 0.494842 0.150541 0.231636
Si Si3 0.091021 0.055521 0.661529
Si Si4 0.400055 0.048241 0.507565
Si Si5 0.137636 0.849343 0.190815
Si Si6 0.777485 0.614924 0.220978
Si Si7 0.692615 0.586234 0.569349
Si Si8 0.244649 0.860258 0.639629
O O1 0.609961 0.131977 0.179125
O O2 0.758689 0.977297 0.123654
O O3 0.788994 0.053199 0.889037
O O4 0.703583 0.757999 0.791617
O O5 0.439367 0.052859 0.326385
O O6 0.423113 0.360403 0.369878
O O7 0.500000 0.000000 0.000000
O O8 0.139808 0.251918 0.767028
O O9 0.971770 0.112259 0.780369
O O10 0.124472 0.948621 0.419130
O O11 0.141882 0.909497 0.655528
O O12 0.322948 0.267681 0.713477
O O13 0.500000 0.000000 0.500000
O O14 0.331643 0.893267 0.495682
O O15 0.183619 0.610539 0.009639
O O16 0.753108 0.607597 0.399355
O O17 0.729076 0.363920 0.461607
#
# Coordination Sequence:
#
# PCOD9099234 Si02
#       8
#     2   2   2   2   2   2   2   2
#     4  11  21  38  62  86 121 159 200 242 292 357
#     4   9  20  37  60  83 122 163 194 235 288 356
#     4  10  24  42  61  90 121 147 204 264 294 352
#     4  10  20  37  59  91 124 152 194 248 291 344
#     4  11  22  41  67  86 113 163 204 243 309 355
#     4  10  20  39  66  86 118 161 199 242 295 368
#     4  10  21  39  59  91 122 157 202 236 290 367
#     4  11  23  38  61  88 122 157 191 254 302 342
#
# _framework density 18.651264999999999
#
# number of rings (size 3 to 8) (size 9 to 14) (size 15 to 20)
#    0.000    1.750    3.750    0.375    1.750    4.000 
#    0.000    3.125    0.000    0.000    0.000    0.000 
#    0.000    0.000    0.000    0.000    0.000    0.000 
#
# Total GULP energy -89228.806304 kJ/mol
# GULP energy per Si atom -5576.800394 kJ/mol
# Density = 1.860881 g / cm^3
# Si number density = 18.651265 Si / 1000 Ang^3
#
#
#
# Elastic Constant Matrix: (Units=GPa)
#
#
# Indices 1 2 3 4 5 6 
#
# 1 245.4720 21.9137 89.4904 -42.3904 -109.4926 -43.5191
# 2 21.9137 112.3049 23.1810 10.9397 -3.5976 -10.0559
# 3 89.4904 23.1810 92.9980 -17.6226 -50.6279 -7.1174
# 4 -42.3904 10.9397 -17.6226 37.4541 32.1001 11.7420
# 5 -109.4926 -3.5976 -50.6279 32.1001 91.0730 18.1412
# 6 -43.5191 -10.0559 -7.1174 11.7420 18.1412 33.7286
#
#
#
# Elastic Compliance Matrix: (Units=1/GPa)
#
#
# Indices 1 2 3 4 5 6 
#
# 1 0.011972 -0.000027 -0.005696 -0.000081 0.009423 0.009198
# 2 -0.000027 0.010644 -0.003659 -0.005903 -0.000500 0.004690
# 3 -0.005696 -0.003659 0.019466 0.002262 0.004538 -0.007560
# 4 -0.000081 -0.005903 0.002262 0.042975 -0.012279 -0.009744
# 5 0.009423 -0.000500 0.004538 -0.012279 0.028790 0.001757
# 6 0.009198 0.004690 -0.007560 -0.009744 0.001757 0.043766
#
#
# Mechanical properties :
#
#
# Convention : Reuss Voigt Hill
#
# Bulk Modulus (GPa) = 42.88271 79.99388 61.43830
# Shear Modulus (GPa) = 27.15188 53.53046 40.34117
#
# Velocity S-wave (km/s) = 3.81959 5.36312 4.65576
# Velocity P-wave (km/s) = 6.51875 9.01848 7.86852
#
# Compressibility (1/GPa) = 0.02331942
#
# Stress axis : x y z
#
# Youngs Moduli (GPa) = 83.52561 93.95144 51.37125
#
# Poissons Ratio (x) = 0.00255 0.29259
# Poissons Ratio (y) = 0.00227 0.18795
# Poissons Ratio (z) = 0.47573 0.34373
#
# Static dielectric constant tensor:
#      x y z
#    x 1.671290 -0.019000 -0.007940 
#    y -0.019000 1.627920 -0.001480 
#    z -0.007940 -0.001480 1.629070 
# 
# From -- ./inp_files/201076.got.cif
#   From: 2010.05.17/outbox.cif.g08.bks.cpg/sg2_101_cif.got.tgz:201076.got - 2010.06.03 11:33:40.
