data_PCOD9099541
_publ_section_title
;
Structure prediction by ZEFSAII (Michael W. Deem and Ramdas Pophale) SiO2 
 PCOD9099541
Probable space group: P -1
;
_chemical_formula_sum "Si O2"
_cell_formula_units_Z 16
_cell_length_a 16.023046
_cell_length_b 11.267550
_cell_length_c 5.392891
_cell_angle_alpha 108.086082
_cell_angle_beta 128.056789
_cell_angle_gamma 63.275587
_cell_volume 683.982920
_symmetry_space_group_name_H-M "P -1"
_symmetry_group_IT_number 2
_symmetry_cell_setting 'triclinic'
loop_
_space_group_symop_operation_xyz
x,y,z
-x,-y,-z
loop_
_atom_site_type_symbol
_atom_site_label
_atom_site_fract_x
_atom_site_fract_y
_atom_site_fract_z
Si Si1 0.580114 0.112565 0.155518
Si Si2 0.083237 0.770461 0.023804
Si Si3 0.576972 0.543126 0.478013
Si Si4 0.361812 0.292099 0.654959
Si Si5 0.227750 0.552132 0.862707
Si Si6 0.089909 0.016532 0.875806
Si Si7 0.671464 0.965779 0.746108
Si Si8 0.293831 0.705858 0.715589
O O1 0.663825 0.186334 0.261479
O O2 0.618713 0.047802 0.451589
O O3 0.451884 0.216605 0.984071
O O4 0.596399 0.010828 0.886753
O O5 0.175530 0.720969 0.378322
O O6 0.963777 0.845103 0.983037
O O7 0.104866 0.643613 0.798662
O O8 0.105426 0.893277 0.007126
O O9 0.500000 0.500000 0.500000
O O10 0.554478 0.678132 0.376338
O O11 0.607135 0.428594 0.257411
O O12 0.695072 0.520818 0.816809
O O13 0.264846 0.430471 0.653694
O O14 0.311608 0.186385 0.384203
O O15 0.273679 0.671333 0.937941
O O16 0.208303 0.013690 0.981058
O O17 0.000000 0.000000 0.500000
#
# Coordination Sequence:
#
# PCOD9099541 Si02
#       8
#     2   2   2   2   2   2   2   2
#     4  12  25  43  69  98 142 187 233 283 340 415
#     4  10  20  38  66  99 130 166 222 294 356 398
#     4  10  21  36  63  94 131 179 231 279 332 402
#     4  11  26  42  65  96 141 194 227 275 340 417
#     4  10  21  38  64  93 136 176 227 284 340 410
#     4  11  23  41  71 101 134 173 227 297 355 407
#     4  12  28  45  67 102 141 186 237 283 345 422
#     4  10  20  37  61 100 130 171 224 290 343 396
#
# _framework density 23.392396999999999
#
# number of rings (size 3 to 8) (size 9 to 14) (size 15 to 20)
#    0.000    1.250    1.250    4.500    8.750    2.000 
#    0.000    0.625    0.000   10.500    0.000    0.000 
#    0.000    0.000    0.000    0.000    0.000    0.000 
#
# Total GULP energy -89218.853244 kJ/mol
# GULP energy per Si atom -5576.178328 kJ/mol
# Density = 2.333916 g / cm^3
# Si number density = 23.392397 Si / 1000 Ang^3
#
#
#
# Elastic Constant Matrix: (Units=GPa)
#
#
# Indices 1 2 3 4 5 6 
#
# 1 75.1417 40.8251 19.2186 -1.4730 0.0878 -18.2833
# 2 40.8251 119.4280 28.0054 0.0922 -9.1641 -20.4436
# 3 19.2186 28.0054 77.3142 -13.7204 -8.2678 6.9201
# 4 -1.4730 0.0922 -13.7204 34.0222 0.3281 -3.7986
# 5 0.0878 -9.1641 -8.2678 0.3281 23.9068 8.1761
# 6 -18.2833 -20.4436 6.9201 -3.7986 8.1761 56.4682
#
#
#
# Elastic Compliance Matrix: (Units=1/GPa)
#
#
# Indices 1 2 3 4 5 6 
#
# 1 0.018197 -0.004796 -0.003822 -0.000095 -0.005056 0.005350
# 2 -0.004796 0.011358 -0.003101 -0.001234 0.002461 0.002500
# 3 -0.003822 -0.003101 0.017235 0.006175 0.006406 -0.004985
# 4 -0.000095 -0.001234 0.006175 0.031960 0.000959 0.000777
# 5 -0.005056 0.002461 0.006406 0.000959 0.047865 -0.008397
# 6 0.005350 0.002500 -0.004985 0.000777 -0.008397 0.022225
#
#
# Mechanical properties :
#
#
# Convention : Reuss Voigt Hill
#
# Bulk Modulus (GPa) = 42.82689 49.77578 46.30134
# Shear Modulus (GPa) = 27.76807 35.13509 31.45158
#
# Velocity S-wave (km/s) = 3.44910 3.87975 3.67075
# Velocity P-wave (km/s) = 5.84889 6.43388 6.14835
#
# Compressibility (1/GPa) = 0.02334981
#
# Stress axis : x y z
#
# Youngs Moduli (GPa) = 54.95285 88.04538 58.02221
#
# Poissons Ratio (x) = 0.42230 0.22178
# Poissons Ratio (y) = 0.26357 0.17995
# Poissons Ratio (z) = 0.21005 0.27306
#
# Static dielectric constant tensor:
#      x y z
#    x 1.985790 -0.023010 -0.031680 
#    y -0.023010 1.954580 0.045740 
#    z -0.031680 0.045740 1.941190 
# 
# From -- ./inp_files/109810.got.cif
#   From: 2010.05.17/outbox.cif.g08.bks.cpg/sg2_55_cif.got.tgz:109810.got - 2010.06.03 11:33:40.
