data_PCOD9099255
_publ_section_title
;
Structure prediction by ZEFSAII (Michael W. Deem and Ramdas Pophale) SiO2 
 PCOD9099255
Probable space group: P -1
;
_chemical_formula_sum "Si O2"
_cell_formula_units_Z 14
_cell_length_a 13.701050
_cell_length_b 13.574695
_cell_length_c 12.149124
_cell_angle_alpha 74.160471
_cell_angle_beta 116.319227
_cell_angle_gamma 158.735646
_cell_volume 662.666593
_symmetry_space_group_name_H-M "P -1"
_symmetry_group_IT_number 2
_symmetry_cell_setting 'triclinic'
loop_
_space_group_symop_operation_xyz
x,y,z
-x,-y,-z
loop_
_atom_site_type_symbol
_atom_site_label
_atom_site_fract_x
_atom_site_fract_y
_atom_site_fract_z
Si Si1 0.212862 0.202889 0.873119
Si Si2 0.439886 0.685501 0.926877
Si Si3 0.670963 0.250019 0.960489
Si Si4 0.307144 0.297181 0.636826
Si Si5 0.568794 0.814413 0.327484
Si Si6 0.695012 0.488118 0.490777
Si Si7 0.218812 0.011948 0.216132
O O1 0.226974 0.250052 0.738455
O O2 0.500000 0.500000 0.000000
O O3 0.297330 0.157684 0.932697
O O4 0.898611 0.972300 0.844130
O O5 0.630292 0.890160 0.852485
O O6 0.323074 0.664757 0.961956
O O7 0.116895 0.343305 0.826631
O O8 0.506484 0.164833 0.803683
O O9 0.000000 0.500000 0.000000
O O10 0.500000 0.000000 0.000000
O O11 0.482080 0.342447 0.706920
O O12 0.453964 0.527683 0.582113
O O13 0.000000 0.000000 0.500000
O O14 0.349857 0.609785 0.387602
O O15 0.930200 0.156622 0.446928
O O16 0.495140 0.250036 0.372561
#
# Coordination Sequence:
#
# PCOD9099255 Si02
#       7
#     2   2   2   2   2   2   2
#     4  10  20  37  59  95 138 178 215 254 323 410
#     4  11  23  42  65  94 131 176 219 279 328 385
#     4  12  26  48  72  96 124 172 236 296 330 368
#     4  10  20  37  59  95 138 178 215 254 323 410
#     4  11  23  42  65  94 131 176 219 279 328 385
#     4  11  22  39  64  99 137 176 209 256 331 420
#     4  11  22  39  64  99 137 176 209 256 331 420
#
# _framework density 21.126763
#
# number of rings (size 3 to 8) (size 9 to 14) (size 15 to 20)
#    0.000    1.143    1.429    6.857    0.000    2.286 
#    2.571    0.000    0.000   17.143    0.000    0.000 
#    0.000    0.000    0.000    0.000    0.000    0.000 
#
# Total GULP energy -78123.799066 kJ/mol
# GULP energy per Si atom -5580.271362 kJ/mol
# Density = 2.107868 g / cm^3
# Si number density = 21.126763 Si / 1000 Ang^3
#
#
#
# Elastic Constant Matrix: (Units=GPa)
#
#
# Indices 1 2 3 4 5 6 
#
# 1 95.3631 0.7208 28.0277 0.1307 -3.8371 8.7673
# 2 0.7208 77.2762 9.7584 -2.3633 0.8444 0.8447
# 3 28.0277 9.7584 104.0249 -12.0134 -11.1524 -8.2676
# 4 0.1307 -2.3633 -12.0134 39.6426 0.3637 1.3831
# 5 -3.8371 0.8444 -11.1524 0.3637 34.0729 -8.6027
# 6 8.7673 0.8447 -8.2676 1.3831 -8.6027 36.4247
#
#
#
# Elastic Compliance Matrix: (Units=1/GPa)
#
#
# Indices 1 2 3 4 5 6 
#
# 1 0.011915 0.000386 -0.003767 -0.001014 -0.000875 -0.003900
# 2 0.000386 0.013158 -0.001483 0.000378 -0.001022 -0.000990
# 3 -0.003767 -0.001483 0.012028 0.003364 0.004688 0.004651
# 4 -0.001014 0.000378 0.003364 0.026258 0.000742 0.000177
# 5 -0.000875 -0.001022 0.004688 0.000742 0.033096 0.009087
# 6 -0.003900 -0.000990 0.004651 0.000177 0.009087 0.031611
#
#
# Mechanical properties :
#
#
# Convention : Reuss Voigt Hill
#
# Bulk Modulus (GPa) = 36.53374 39.29755 37.91565
# Shear Modulus (GPa) = 34.03243 37.90517 35.96880
#
# Velocity S-wave (km/s) = 4.01792 4.24037 4.13064
# Velocity P-wave (km/s) = 6.23338 6.52806 6.38242
#
# Compressibility (1/GPa) = 0.02737196
#
# Stress axis : x y z
#
# Youngs Moduli (GPa) = 83.92542 76.00049 83.14007
#
# Poissons Ratio (x) = -0.02932 0.31322
# Poissons Ratio (y) = -0.03238 0.12329
# Poissons Ratio (z) = 0.31618 0.11270
#
# Static dielectric constant tensor:
#      x y z
#    x 1.824920 -0.021800 0.022770 
#    y -0.021800 1.778080 0.022820 
#    z 0.022770 0.022820 1.799660 
# 
# From -- ./inp_files/409931.got.cif
#   From: 2010.05.17/outbox.cif.g08.bks.cpg/sg2_205_cif.got.tgz:409931.got - 2010.06.03 11:33:40.
