data_PCOD9099130
_publ_section_title
;
Structure prediction by ZEFSAII (Michael W. Deem and Ramdas Pophale) SiO2 
 PCOD9099130
Probable space group: P -1
;
_chemical_formula_sum "Si O2"
_cell_formula_units_Z 14
_cell_length_a 5.440697
_cell_length_b 28.574991
_cell_length_c 13.042272
_cell_angle_alpha 27.996170
_cell_angle_beta 47.140313
_cell_angle_gamma 42.049760
_cell_volume 635.552334
_symmetry_space_group_name_H-M "P -1"
_symmetry_group_IT_number 2
_symmetry_cell_setting 'triclinic'
loop_
_space_group_symop_operation_xyz
x,y,z
-x,-y,-z
loop_
_atom_site_type_symbol
_atom_site_label
_atom_site_fract_x
_atom_site_fract_y
_atom_site_fract_z
Si Si1 0.730334 0.518873 0.638168
Si Si2 0.771936 0.182175 0.153552
Si Si3 0.566318 0.035640 0.021782
Si Si4 0.613757 0.566952 0.252162
Si Si5 0.721865 0.877181 0.442976
Si Si6 0.369249 0.772674 0.301251
Si Si7 0.385612 0.907474 0.840627
O O1 0.420563 0.483045 0.750998
O O2 0.566606 0.645230 0.471584
O O3 0.000000 0.500000 0.500000
O O4 0.983443 0.447951 0.796063
O O5 0.478642 0.181673 0.322144
O O6 0.699025 0.122953 0.188780
O O7 0.177011 0.129936 0.190452
O O8 0.668379 0.307430 0.910700
O O9 0.450344 0.965494 0.269439
O O10 0.500000 0.000000 0.000000
O O11 0.395421 0.165112 0.836380
O O12 0.000000 0.000000 0.000000
O O13 0.500000 0.500000 0.500000
O O14 0.047908 0.798675 0.427732
O O15 0.802039 0.962629 0.329756
O O16 0.277021 0.835464 0.095404
#
# Coordination Sequence:
#
# PCOD9099130 Si02
#       7
#     2   2   2   2   2   2   2
#     4  10  20  37  60  87 114 155 213 262 301 360
#     4  12  24  42  65  94 130 169 207 264 319 368
#     4   9  20  37  59  89 124 160 198 239 300 378
#     4  10  20  37  59  86 116 158 214 258 300 366
#     4  10  24  41  63  98 133 164 207 260 319 378
#     4  10  22  41  66  93 126 167 210 264 314 371
#     4  11  23  41  65  93 128 171 209 247 312 395
#
# _framework density 22.028084
#
# number of rings (size 3 to 8) (size 9 to 14) (size 15 to 20)
#    0.000    1.714    0.000    6.429    0.000   13.714 
#    0.000    1.429    0.000    0.000    0.000    0.000 
#    0.000    0.000    0.000    0.000    0.000    0.000 
#
# Total GULP energy -78063.480865 kJ/mol
# GULP energy per Si atom -5575.962919 kJ/mol
# Density = 2.197795 g / cm^3
# Si number density = 22.028084 Si / 1000 Ang^3
#
#
#
# Elastic Constant Matrix: (Units=GPa)
#
#
# Indices 1 2 3 4 5 6 
#
# 1 164.3458 49.6669 15.6627 -0.5821 5.9320 22.4059
# 2 49.6669 156.6797 47.4839 -15.7268 -5.3743 9.9529
# 3 15.6627 47.4839 55.3715 5.3586 -8.7192 -3.9639
# 4 -0.5821 -15.7268 5.3586 50.0507 3.6850 -5.4825
# 5 5.9320 -5.3743 -8.7192 3.6850 9.7172 -2.5015
# 6 22.4059 9.9529 -3.9639 -5.4825 -2.5015 42.2316
#
#
#
# Elastic Compliance Matrix: (Units=1/GPa)
#
#
# Indices 1 2 3 4 5 6 
#
# 1 0.007787 -0.001757 -0.002442 -0.000024 -0.009062 -0.004487
# 2 -0.001757 0.010226 -0.009444 0.004267 -0.003889 -0.002041
# 3 -0.002442 -0.009444 0.033005 -0.007987 0.030820 0.007408
# 4 -0.000024 0.004267 -0.007987 0.023219 -0.013476 0.000474
# 5 -0.009062 -0.003889 0.030820 -0.013476 0.143005 0.015339
# 6 -0.004487 -0.002041 0.007408 0.000474 0.015339 0.028206
#
#
# Mechanical properties :
#
#
# Convention : Reuss Voigt Hill
#
# Bulk Modulus (GPa) = 42.13492 66.89155 54.51324
# Shear Modulus (GPa) = 17.81617 37.97213 27.89415
#
# Velocity S-wave (km/s) = 2.84701 4.15638 3.56237
# Velocity P-wave (km/s) = 5.47510 7.31207 6.45922
#
# Compressibility (1/GPa) = 0.02373328
#
# Stress axis : x y z
#
# Youngs Moduli (GPa) = 128.41867 97.79171 30.29804
#
# Poissons Ratio (x) = 0.17178 0.07399
# Poissons Ratio (y) = 0.22558 0.28613
# Poissons Ratio (z) = 0.31362 0.92352
#
# Static dielectric constant tensor:
#      x y z
#    x 1.887310 -0.028170 0.000590 
#    y -0.028170 1.888110 0.006980 
#    z 0.000590 0.006980 1.820530 
# 
# From -- ./inp_files/371396.got.cif
#   From: 2010.05.17/outbox.cif.g08.bks.cpg/sg2_186_cif.got.tgz:371396.got - 2010.06.03 11:33:40.
