data_PCOD9099662
_publ_section_title
;
Structure prediction by ZEFSAII (Michael W. Deem and Ramdas Pophale) SiO2 
 PCOD9099662
Probable space group: P -1
;
_chemical_formula_sum "Si O2"
_cell_formula_units_Z 16
_cell_length_a 15.385183
_cell_length_b 15.277021
_cell_length_c 9.581503
_cell_angle_alpha 115.132500
_cell_angle_beta 35.083824
_cell_angle_gamma 135.889853
_cell_volume 822.953293
_symmetry_space_group_name_H-M "P -1"
_symmetry_group_IT_number 2
_symmetry_cell_setting 'triclinic'
loop_
_space_group_symop_operation_xyz
x,y,z
-x,-y,-z
loop_
_atom_site_type_symbol
_atom_site_label
_atom_site_fract_x
_atom_site_fract_y
_atom_site_fract_z
Si Si1 0.455868 0.761603 0.048319
Si Si2 0.550892 0.410199 0.871171
Si Si3 0.976769 0.459589 0.710314
Si Si4 0.873211 0.082507 0.228425
Si Si5 0.297623 0.706516 0.788520
Si Si6 0.397376 0.044349 0.241317
Si Si7 0.329343 0.218360 0.762665
Si Si8 0.241503 0.757506 0.583593
O O1 0.506850 0.676544 0.972692
O O2 0.226652 0.659787 0.198640
O O3 0.420607 0.807926 0.267804
O O4 0.621651 0.883179 0.804019
O O5 0.416777 0.300017 0.847482
O O6 0.805331 0.501495 0.577469
O O7 0.500000 0.500000 0.000000
O O8 0.036570 0.598922 0.700038
O O9 0.907623 0.412398 0.929711
O O10 0.790873 0.143347 0.309583
O O11 0.812445 0.063453 0.460474
O O12 0.762775 0.934240 0.214400
O O13 0.128423 0.187506 0.950671
O O14 0.424528 0.843562 0.803978
O O15 0.464605 0.693343 0.549716
O O16 0.276926 0.735602 0.678721
O O17 0.500000 0.000000 0.000000
#
# Coordination Sequence:
#
# PCOD9099662 Si02
#       8
#     2   2   2   2   2   2   2   2
#     4  10  21  38  60  92 120 155 200 246 299 356
#     4  11  23  37  63  89 125 156 197 244 305 356
#     4  10  22  39  60  91 122 151 198 248 300 354
#     4  10  23  38  60  84 122 161 196 244 302 350
#     4  10  21  38  61  85 121 152 195 253 288 349
#     4  10  20  37  61  88 118 154 199 248 296 351
#     4  10  22  40  56  85 122 159 192 245 297 353
#     4  11  19  35  64  87 114 154 204 240 292 356
#
# _framework density 19.442173
#
# number of rings (size 3 to 8) (size 9 to 14) (size 15 to 20)
#    0.000    1.750    3.750    1.875    3.500    3.000 
#    0.000    6.250    0.000    0.000    0.000    0.000 
#    0.000    0.000    0.000    0.000    0.000    0.000 
#
# Total GULP energy -89189.730692 kJ/mol
# GULP energy per Si atom -5574.358168 kJ/mol
# Density = 1.939792 g / cm^3
# Si number density = 19.442173 Si / 1000 Ang^3
#
#
#
# Elastic Constant Matrix: (Units=GPa)
#
#
# Indices 1 2 3 4 5 6 
#
# 1 71.2991 29.3184 29.2954 12.4352 13.3851 -10.4826
# 2 29.3184 52.3597 26.2571 26.0598 -3.1164 -15.6557
# 3 29.2954 26.2571 75.7562 2.2169 13.5901 -13.5229
# 4 12.4352 26.0598 2.2169 29.9998 -2.6753 4.4427
# 5 13.3851 -3.1164 13.5901 -2.6753 35.9900 4.8731
# 6 -10.4826 -15.6557 -13.5229 4.4427 4.8731 34.9216
#
#
#
# Elastic Compliance Matrix: (Units=1/GPa)
#
#
# Indices 1 2 3 4 5 6 
#
# 1 0.021248 -0.009476 -0.003063 -0.001392 -0.007972 0.002234
# 2 -0.009476 0.072391 -0.015405 -0.061725 0.006887 0.030536
# 3 -0.003063 -0.015405 0.020506 0.012595 -0.006931 -0.000520
# 4 -0.001392 -0.061725 0.012595 0.091991 0.002021 -0.035198
# 5 -0.007972 0.006887 -0.006931 0.002021 0.035081 -0.007142
# 6 0.002234 0.030536 -0.000520 -0.035198 -0.007142 0.048269
#
#
# Mechanical properties :
#
#
# Convention : Reuss Voigt Hill
#
# Bulk Modulus (GPa) = 17.16495 41.01744 29.09119
# Shear Modulus (GPa) = 13.70645 27.81856 20.76250
#
# Velocity S-wave (km/s) = 2.65804 3.78674 3.27144
# Velocity P-wave (km/s) = 4.27412 6.34525 5.40973
#
# Compressibility (1/GPa) = 0.05825827
#
# Stress axis : x y z
#
# Youngs Moduli (GPa) = 47.06306 13.81391 48.76614
#
# Poissons Ratio (x) = 0.13090 0.14936
# Poissons Ratio (y) = 0.44596 0.75123
# Poissons Ratio (z) = 0.14415 0.21280
#
# Static dielectric constant tensor:
#      x y z
#    x 1.688080 0.016240 0.010670 
#    y 0.016240 1.723210 -0.016580 
#    z 0.010670 -0.016580 1.719860 
# 
# From -- ./inp_files/313646.got.cif
#   From: 2010.05.17/outbox.cif.g08.bks.cpg/sg2_157_cif.got.tgz:313646.got - 2010.06.03 11:33:40.
