data_PCOD9099249
_publ_section_title
;
Structure prediction by ZEFSAII (Michael W. Deem and Ramdas Pophale) SiO2 
 PCOD9099249
Probable space group: P -1
;
_chemical_formula_sum "Si O2"
_cell_formula_units_Z 15
_cell_length_a 14.328156
_cell_length_b 11.247931
_cell_length_c 8.539370
_cell_angle_alpha 84.100188
_cell_angle_beta 91.003808
_cell_angle_gamma 30.952897
_cell_volume 688.905761
_symmetry_space_group_name_H-M "P -1"
_symmetry_group_IT_number 2
_symmetry_cell_setting 'triclinic'
loop_
_space_group_symop_operation_xyz
x,y,z
-x,-y,-z
loop_
_atom_site_type_symbol
_atom_site_label
_atom_site_fract_x
_atom_site_fract_y
_atom_site_fract_z
Si Si1 0.648839 0.078439 0.623135
Si Si2 0.154136 0.730525 0.066437
Si Si3 0.786345 0.721126 0.112715
Si Si4 0.500000 0.500000 0.000000
Si Si5 0.992819 0.380291 0.429757
Si Si6 0.812588 0.961908 0.978356
Si Si7 0.594890 0.874579 0.768793
Si Si8 0.287490 0.469953 0.404941
O O1 0.615302 0.973715 0.659560
O O2 0.812298 0.903361 0.526036
O O3 0.717134 0.055221 0.792298
O O4 0.456044 0.343104 0.520677
O O5 0.187732 0.672654 0.260068
O O6 0.348525 0.555384 0.019702
O O7 0.000000 0.000000 0.000000
O O8 0.029085 0.758793 0.998483
O O9 0.946214 0.471117 0.238185
O O10 0.609212 0.901555 0.195189
O O11 0.732570 0.732233 0.939437
O O12 0.815737 0.829866 0.080743
O O13 0.676351 0.207783 0.027366
O O14 0.844356 0.456843 0.492027
O O15 0.000000 0.500000 0.500000
O O16 0.632431 0.718317 0.686580
#
# Coordination Sequence:
#
# PCOD9099249 Si02
#       8
#     2   2   2   1   2   2   2   2
#     4  11  24  38  61 101 143 173 220 266 324 393
#     4  10  24  44  70  96 120 167 229 279 328 393
#     4  10  21  36  61  97 138 181 220 263 315 392
#     4  10  22  48  74  90 120 164 228 282 340 380
#     4  12  23  36  60  94 144 185 214 256 330 392
#     4  10  23  42  67 100 129 172 228 277 321 391
#     4  10  20  37  59  93 139 186 223 251 312 396
#     4  12  23  41  66  95 140 177 213 273 329 386
#
# _framework density 21.773661000000001
#
# number of rings (size 3 to 8) (size 9 to 14) (size 15 to 20)
#    0.000    1.333    2.667    2.800    1.867    4.267 
#    0.000    2.667    0.000    7.200    0.000    0.000 
#    0.000    0.000    0.000    0.000    0.000    0.000 
#
# Total GULP energy -83558.824870 kJ/mol
# GULP energy per Si atom -5570.588325 kJ/mol
# Density = 2.172410 g / cm^3
# Si number density = 21.773661 Si / 1000 Ang^3
#
#
#
# Elastic Constant Matrix: (Units=GPa)
#
#
# Indices 1 2 3 4 5 6 
#
# 1 90.9486 49.9435 34.0102 -15.7928 -1.4523 -34.1722
# 2 49.9435 92.1419 26.4921 -10.4357 -10.0388 -26.6129
# 3 34.0102 26.4921 103.9194 -26.6334 -2.0855 -20.5197
# 4 -15.7928 -10.4357 -26.6334 30.9452 -3.3202 3.2435
# 5 -1.4523 -10.0388 -2.0855 -3.3202 10.8463 -6.7064
# 6 -34.1722 -26.6129 -20.5197 3.2435 -6.7064 27.7394
#
#
#
# Elastic Compliance Matrix: (Units=1/GPa)
#
#
# Indices 1 2 3 4 5 6 
#
# 1 0.037561 0.011958 0.010262 0.031930 0.077521 0.080343
# 2 0.011958 0.039308 0.012762 0.032573 0.101485 0.082610
# 3 0.010262 0.012762 0.021893 0.029218 0.058351 0.051772
# 4 0.031930 0.032573 0.029218 0.087472 0.138152 0.115370
# 5 0.077521 0.101485 0.058351 0.138152 0.453803 0.329586
# 6 0.080343 0.082610 0.051772 0.115370 0.329586 0.318769
#
#
# Mechanical properties :
#
#
# Convention : Reuss Voigt Hill
#
# Bulk Modulus (GPa) = 5.92676 56.43351 31.18013
# Shear Modulus (GPa) = 5.29055 25.67713 15.48384
#
# Velocity S-wave (km/s) = 1.56047 3.43778 2.66959
# Velocity P-wave (km/s) = 2.44431 6.46005 4.88400
#
# Compressibility (1/GPa) = 0.16872634
#
# Stress axis : x y z
#
# Youngs Moduli (GPa) = 26.62340 25.44034 45.67740
#
# Poissons Ratio (x) = -0.30421 -0.46876
# Poissons Ratio (y) = -0.31835 -0.58296
# Poissons Ratio (z) = -0.27322 -0.32468
#
# Static dielectric constant tensor:
#      x y z
#    x 1.912740 -0.026380 0.046170 
#    y -0.026380 1.817340 -0.026770 
#    z 0.046170 -0.026770 1.830480 
# 
# From -- ./inp_files/307331.got.cif
#   From: 2010.05.17/outbox.cif.g08.bks.cpg/sg2_154_cif.got.tgz:307331.got - 2010.06.03 11:33:40.
