data_PCOD9099949
_publ_section_title
;
Structure prediction by ZEFSAII (Michael W. Deem and Ramdas Pophale) SiO2 
 PCOD9099949
Probable space group: P -1
;
_chemical_formula_sum "Si O2"
_cell_formula_units_Z 16
_cell_length_a 14.508539
_cell_length_b 16.757847
_cell_length_c 11.741402
_cell_angle_alpha 110.942343
_cell_angle_beta 34.054582
_cell_angle_gamma 136.413446
_cell_volume 857.179764
_symmetry_space_group_name_H-M "P -1"
_symmetry_group_IT_number 2
_symmetry_cell_setting 'triclinic'
loop_
_space_group_symop_operation_xyz
x,y,z
-x,-y,-z
loop_
_atom_site_type_symbol
_atom_site_label
_atom_site_fract_x
_atom_site_fract_y
_atom_site_fract_z
Si Si1 0.334904 0.831726 0.771658
Si Si2 0.242459 0.119618 0.957565
Si Si3 0.293969 0.361622 0.723518
Si Si4 0.388412 0.885346 0.401524
Si Si5 0.653630 0.044591 0.747920
Si Si6 0.704804 0.711425 0.847796
Si Si7 0.247800 0.400658 0.045695
Si Si8 0.620439 0.793653 0.389682
O O1 0.357909 0.745175 0.660710
O O2 0.539825 0.986213 0.572559
O O3 0.467000 0.893973 0.795147
O O4 0.026998 0.745135 0.034966
O O5 0.338077 0.213165 0.017228
O O6 0.362709 0.075073 0.808347
O O7 0.352031 0.209324 0.775080
O O8 0.900011 0.968109 0.226391
O O9 0.500000 0.500000 0.500000
O O10 0.355664 0.286747 0.614186
O O11 0.339948 0.406930 0.831270
O O12 0.361055 0.883338 0.291083
O O13 0.092434 0.726603 0.675130
O O14 0.990012 0.163630 0.466435
O O15 0.500000 0.000000 0.000000
O O16 0.727729 0.660083 0.910314
O O17 0.445431 0.563595 0.964424
#
# Coordination Sequence:
#
# PCOD9099949 Si02
#       8
#     2   2   2   2   2   2   2   2
#     4  10  22  40  62  91 123 159 214 254 306 370
#     4  11  19  35  63  96 120 150 213 264 304 364
#     4  12  26  41  61  91 131 168 205 252 321 373
#     4   9  20  36  60  92 119 157 206 261 306 357
#     4   9  19  37  59  84 116 165 205 248 308 362
#     4  10  20  37  62  88 119 159 211 247 310 369
#     4  10  21  39  57  86 124 166 200 253 310 366
#     4  11  21  37  64  93 123 160 204 263 312 363
#
# _framework density 18.665863000000002
#
# number of rings (size 3 to 8) (size 9 to 14) (size 15 to 20)
#    0.750    1.000    3.750    0.750    3.500    2.000 
#    0.000    1.875    0.000    0.000    0.000    0.000 
#    0.000    0.000    0.000    0.000    0.000    0.000 
#
# Total GULP energy -89159.209856 kJ/mol
# GULP energy per Si atom -5572.450616 kJ/mol
# Density = 1.862338 g / cm^3
# Si number density = 18.665863 Si / 1000 Ang^3
#
#
#
# Elastic Constant Matrix: (Units=GPa)
#
#
# Indices 1 2 3 4 5 6 
#
# 1 38.1031 22.8912 43.0629 -1.2510 0.7291 -9.8067
# 2 22.8912 92.5030 58.2496 9.8516 -3.4618 -1.8020
# 3 43.0629 58.2496 94.1411 2.0780 8.6509 -5.8028
# 4 -1.2510 9.8516 2.0780 24.3092 -0.7979 -5.1536
# 5 0.7291 -3.4618 8.6509 -0.7979 39.4054 5.8429
# 6 -9.8067 -1.8020 -5.8028 -5.1536 5.8429 34.2028
#
#
#
# Elastic Compliance Matrix: (Units=1/GPa)
#
#
# Indices 1 2 3 4 5 6 
#
# 1 0.061686 0.003169 -0.029882 0.007377 0.003885 0.013232
# 2 0.003169 0.019840 -0.014177 -0.007002 0.005005 -0.002361
# 3 -0.029882 -0.014177 0.033625 0.000614 -0.007736 -0.002196
# 4 0.007377 -0.007002 0.000614 0.046173 -0.001290 0.009028
# 5 0.003885 0.005005 -0.007736 -0.001290 0.028150 -0.004938
# 6 0.013232 -0.002361 -0.002196 0.009028 -0.004938 0.034738
#
#
# Mechanical properties :
#
#
# Convention : Reuss Voigt Hill
#
# Bulk Modulus (GPa) = 29.96513 52.57275 41.26894
# Shear Modulus (GPa) = 15.76712 26.28640 21.02676
#
# Velocity S-wave (km/s) = 2.90953 3.75675 3.35995
# Velocity P-wave (km/s) = 5.23216 6.85886 6.09997
#
# Compressibility (1/GPa) = 0.03337213
#
# Stress axis : x y z
#
# Youngs Moduli (GPa) = 16.21122 50.40203 29.73950
#
# Poissons Ratio (x) = -0.15974 0.88868
# Poissons Ratio (y) = -0.05138 0.42162
# Poissons Ratio (z) = 0.48443 0.71455
#
# Static dielectric constant tensor:
#      x y z
#    x 1.663510 0.021630 -0.008150 
#    y 0.021630 1.659880 -0.002950 
#    z -0.008150 -0.002950 1.658280 
# 
# From -- ./inp_files/454823.got.cif
#   From: 2010.05.17/outbox.cif.g08.bks.cpg/sg2_228_cif.got.tgz:454823.got - 2010.06.03 11:33:40.
