data_PCOD9099695
_publ_section_title
;
Structure prediction by ZEFSAII (Michael W. Deem and Ramdas Pophale) SiO2 
 PCOD9099695
Probable space group: P -1
;
_chemical_formula_sum "Si O2"
_cell_formula_units_Z 16
_cell_length_a 11.420121
_cell_length_b 11.403908
_cell_length_c 16.269898
_cell_angle_alpha 133.858872
_cell_angle_beta 142.253678
_cell_angle_gamma 72.835755
_cell_volume 766.741013
_symmetry_space_group_name_H-M "P -1"
_symmetry_group_IT_number 2
_symmetry_cell_setting 'triclinic'
loop_
_space_group_symop_operation_xyz
x,y,z
-x,-y,-z
loop_
_atom_site_type_symbol
_atom_site_label
_atom_site_fract_x
_atom_site_fract_y
_atom_site_fract_z
Si Si1 0.798244 0.517605 0.357512
Si Si2 0.815603 0.484243 0.158300
Si Si3 0.653529 0.917122 0.101969
Si Si4 0.462495 0.018752 0.749987
Si Si5 0.812635 0.580973 0.644942
Si Si6 0.312755 0.207517 0.191684
Si Si7 0.043257 0.866146 0.761897
Si Si8 0.017707 0.137611 0.650916
O O1 0.827655 0.546518 0.290053
O O2 0.000000 0.500000 0.500000
O O3 0.828742 0.709615 0.508656
O O4 0.558536 0.308411 0.138954
O O5 0.802615 0.634311 0.166315
O O6 0.057503 0.508445 0.286665
O O7 0.614540 0.252200 0.927055
O O8 0.617395 0.995971 0.205743
O O9 0.878650 0.909872 0.238899
O O10 0.732183 0.058557 0.135209
O O11 0.607814 0.922730 0.784126
O O12 0.240188 0.913190 0.515518
O O13 0.555000 0.401471 0.386131
O O14 0.782821 0.712972 0.756202
O O15 0.983593 0.720165 0.734614
O O16 0.121548 0.069123 0.949499
O O17 0.000000 0.000000 0.500000
#
# Coordination Sequence:
#
# PCOD9099695 Si02
#       8
#     2   2   2   2   2   2   2   2
#     4  11  21  35  55  91 126 152 187 239 307 358
#     4  11  21  37  61  91 121 156 201 242 296 353
#     4  10  24  36  56  91 122 163 187 243 297 360
#     4  10  20  37  61  89 120 156 197 248 293 352
#     4  11  23  39  60  92 119 156 194 256 293 358
#     4  11  23  39  61  91 122 150 204 242 307 348
#     4  12  22  36  60  86 127 153 192 237 310 364
#     4  10  21  38  58  84 123 160 204 237 289 350
#
# _framework density 20.867543000000001
#
# number of rings (size 3 to 8) (size 9 to 14) (size 15 to 20)
#    0.000    1.250    3.750    3.375    0.000    6.500 
#    0.000    0.000    0.000    1.500    0.000    0.000 
#    0.000    0.000    0.000    0.000    0.000    0.000 
#
# Total GULP energy -89292.579002 kJ/mol
# GULP energy per Si atom -5580.786188 kJ/mol
# Density = 2.082005 g / cm^3
# Si number density = 20.867543 Si / 1000 Ang^3
#
#
#
# Elastic Constant Matrix: (Units=GPa)
#
#
# Indices 1 2 3 4 5 6 
#
# 1 53.3050 26.4182 28.8183 12.9412 -0.3506 -6.7999
# 2 26.4182 67.2290 31.0166 12.3076 1.1858 -2.2790
# 3 28.8183 31.0166 137.2768 13.3846 -7.6703 0.9669
# 4 12.9412 12.3076 13.3846 39.1861 -0.8921 3.8406
# 5 -0.3506 1.1858 -7.6703 -0.8921 33.5436 11.1124
# 6 -6.7999 -2.2790 0.9669 3.8406 11.1124 20.1524
#
#
#
# Elastic Compliance Matrix: (Units=1/GPa)
#
#
# Indices 1 2 3 4 5 6 
#
# 1 0.027727 -0.007356 -0.003839 -0.006877 -0.004686 0.012603
# 2 -0.007356 0.019661 -0.002726 -0.003011 -0.001986 0.001541
# 3 -0.003839 -0.002726 0.008968 -0.000492 0.003348 -0.003787
# 4 -0.006877 -0.003011 -0.000492 0.030052 0.004273 -0.010721
# 5 -0.004686 -0.001986 0.003348 0.004273 0.038704 -0.024123
# 6 0.012603 0.001541 -0.003787 -0.010721 -0.024123 0.069575
#
#
# Mechanical properties :
#
#
# Convention : Reuss Voigt Hill
#
# Bulk Modulus (GPa) = 35.06926 47.81303 41.44114
# Shear Modulus (GPa) = 21.54842 30.01360 25.78101
#
# Velocity S-wave (km/s) = 3.21694 3.79659 3.51872
# Velocity P-wave (km/s) = 5.53538 6.49471 6.03414
#
# Compressibility (1/GPa) = 0.02851500
#
# Stress axis : x y z
#
# Youngs Moduli (GPa) = 36.06530 50.86108 111.50573
#
# Poissons Ratio (x) = 0.37412 0.42806
# Poissons Ratio (y) = 0.26529 0.30401
# Poissons Ratio (z) = 0.13845 0.13867
#
# Static dielectric constant tensor:
#      x y z
#    x 1.748730 -0.017940 0.030150 
#    y -0.017940 1.783260 -0.011050 
#    z 0.030150 -0.011050 1.816410 
# 
# From -- ./inp_files/471923.got.cif
#   From: 2010.05.17/outbox.cif.g08.bks.cpg/sg2_236_cif.got.tgz:471923.got - 2010.06.03 11:33:40.
