data_PCOD9099189
_publ_section_title
;
Structure prediction by ZEFSAII (Michael W. Deem and Ramdas Pophale) SiO2 
 PCOD9099189
Probable space group: P -1
;
_chemical_formula_sum "Si O2"
_cell_formula_units_Z 16
_cell_length_a 18.503709
_cell_length_b 15.198350
_cell_length_c 11.159046
_cell_angle_alpha 29.375772
_cell_angle_beta 45.510253
_cell_angle_gamma 28.575133
_cell_volume 707.951536
_symmetry_space_group_name_H-M "P -1"
_symmetry_group_IT_number 2
_symmetry_cell_setting 'triclinic'
loop_
_space_group_symop_operation_xyz
x,y,z
-x,-y,-z
loop_
_atom_site_type_symbol
_atom_site_label
_atom_site_fract_x
_atom_site_fract_y
_atom_site_fract_z
Si Si1 0.637101 0.401532 0.117175
Si Si2 0.261840 0.099316 0.321941
Si Si3 0.548080 0.853221 0.827055
Si Si4 0.608814 0.176792 0.753591
Si Si5 0.775192 0.575049 0.511017
Si Si6 0.676464 0.347840 0.855763
Si Si7 0.005958 0.285222 0.786481
Si Si8 0.941615 0.679847 0.061749
O O1 0.629207 0.446035 0.932062
O O2 0.755042 0.079464 0.392696
O O3 0.648952 0.566682 0.982006
O O4 0.466125 0.547214 0.173245
O O5 0.356669 0.097864 0.306106
O O6 0.092263 0.419714 0.117928
O O7 0.359856 0.944544 0.270377
O O8 0.391044 0.115034 0.623757
O O9 0.475910 0.855632 0.025991
O O10 0.500000 0.500000 0.500000
O O11 0.786941 0.976072 0.831736
O O12 0.879044 0.368508 0.747703
O O13 0.872400 0.591547 0.306469
O O14 0.732034 0.466148 0.606221
O O15 0.822415 0.019434 0.078173
O O16 0.000000 0.500000 0.500000
O O17 0.991346 0.295660 0.933857
#
# Coordination Sequence:
#
# PCOD9099189 Si02
#       8
#     2   2   2   2   2   2   2   2
#     4  11  23  39  64  97 138 169 227 268 329 383
#     4  12  24  44  69  99 134 171 225 281 332 387
#     4  11  24  43  69  99 131 180 221 271 338 402
#     4  11  23  46  74  94 131 177 223 281 339 393
#     4  10  21  40  64  94 135 183 217 262 331 400
#     4  11  22  38  60  98 133 183 220 273 313 406
#     4  10  20  37  59  88 136 173 216 255 334 382
#     4  10  24  42  68  98 135 173 221 279 330 394
#
# _framework density 22.600415999999999
#
# number of rings (size 3 to 8) (size 9 to 14) (size 15 to 20)
#    0.000    1.250    2.500    4.875    1.750    1.500 
#    0.000    0.625    0.000    0.000    0.000    0.000 
#    0.000    0.000    0.000    0.000    0.000    0.000 
#
# Total GULP energy -89434.126112 kJ/mol
# GULP energy per Si atom -5589.632882 kJ/mol
# Density = 2.254898 g / cm^3
# Si number density = 22.600416 Si / 1000 Ang^3
#
#
#
# Elastic Constant Matrix: (Units=GPa)
#
#
# Indices 1 2 3 4 5 6 
#
# 1 89.9697 23.6679 17.8316 -23.0845 -5.2527 3.2115
# 2 23.6679 87.2174 23.5281 -31.1627 -0.0010 6.6270
# 3 17.8316 23.5281 82.1348 -37.6155 3.8511 1.0333
# 4 -23.0845 -31.1627 -37.6155 40.0625 -1.0514 7.3963
# 5 -5.2527 -0.0010 3.8511 -1.0514 34.7189 -6.1544
# 6 3.2115 6.6270 1.0333 7.3963 -6.1544 37.9771
#
#
#
# Elastic Compliance Matrix: (Units=1/GPa)
#
#
# Indices 1 2 3 4 5 6 
#
# 1 0.013538 -0.000571 0.001378 0.009175 0.001714 -0.002592
# 2 -0.000571 0.017538 0.003313 0.017634 -0.001110 -0.006716
# 3 0.001378 0.003313 0.023228 0.026384 -0.002795 -0.006918
# 4 0.009175 0.017634 0.026384 0.072186 -0.002733 -0.019073
# 5 0.001714 -0.001110 -0.002795 -0.002733 0.030276 0.005563
# 6 -0.002592 -0.006716 -0.006918 -0.019073 0.005563 0.032527
#
#
# Mechanical properties :
#
#
# Convention : Reuss Voigt Hill
#
# Bulk Modulus (GPa) = 15.98849 43.26412 29.62631
# Shear Modulus (GPa) = 24.76452 35.50465 30.13459
#
# Velocity S-wave (km/s) = 3.31381 3.96785 3.65549
# Velocity P-wave (km/s) = 4.66171 6.33849 5.56363
#
# Compressibility (1/GPa) = 0.06254498
#
# Stress axis : x y z
#
# Youngs Moduli (GPa) = 73.86385 57.01973 43.05077
#
# Poissons Ratio (x) = 0.03254 -0.05934
# Poissons Ratio (y) = 0.04215 -0.14261
# Poissons Ratio (z) = -0.10181 -0.18888
#
# Static dielectric constant tensor:
#      x y z
#    x 1.883070 -0.000430 0.033710 
#    y -0.000430 1.857010 0.014030 
#    z 0.033710 0.014030 1.892770 
# 
# From -- ./inp_files/187932.got.cif
#   From: 2010.05.17/outbox.cif.g08.bks.cpg/sg2_94_cif.got.tgz:187932.got - 2010.06.03 11:33:40.
