data_PCOD9099716
_publ_section_title
;
Structure prediction by ZEFSAII (Michael W. Deem and Ramdas Pophale) SiO2 
 PCOD9099716
Probable space group: P -1
;
_chemical_formula_sum "Si O2"
_cell_formula_units_Z 16
_cell_length_a 25.539202
_cell_length_b 6.862228
_cell_length_c 11.917256
_cell_angle_alpha 50.583577
_cell_angle_beta 150.124859
_cell_angle_gamma 133.053729
_cell_volume 754.870354
_symmetry_space_group_name_H-M "P -1"
_symmetry_group_IT_number 2
_symmetry_cell_setting 'triclinic'
loop_
_space_group_symop_operation_xyz
x,y,z
-x,-y,-z
loop_
_atom_site_type_symbol
_atom_site_label
_atom_site_fract_x
_atom_site_fract_y
_atom_site_fract_z
Si Si1 0.693187 0.246447 0.242140
Si Si2 0.174146 0.553680 0.366502
Si Si3 0.315280 0.355618 0.525781
Si Si4 0.856411 0.563623 0.992279
Si Si5 0.548229 0.589285 0.931665
Si Si6 0.983412 0.198070 0.614718
Si Si7 0.925118 0.200152 0.077277
Si Si8 0.253619 0.853379 0.864932
O O1 0.791312 0.376566 0.466951
O O2 0.722699 0.289431 0.150547
O O3 0.665689 0.926923 0.320428
O O4 0.600953 0.375024 0.059303
O O5 0.260536 0.449285 0.497754
O O6 0.050282 0.335324 0.212050
O O7 0.161890 0.804521 0.181215
O O8 0.226829 0.332031 0.271609
O O9 0.439035 0.572471 0.662288
O O10 0.902016 0.387730 0.058618
O O11 0.784981 0.362371 0.028690
O O12 0.965608 0.778920 0.173464
O O13 0.500000 0.500000 0.000000
O O14 0.642254 0.883480 0.005437
O O15 0.852982 0.057826 0.397884
O O16 0.000000 0.500000 0.500000
O O17 0.065896 0.069497 0.754007
#
# Coordination Sequence:
#
# PCOD9099716 Si02
#       8
#     2   2   2   2   2   2   2   2
#     4  12  21  38  66  89 121 160 206 263 308 358
#     4  10  21  36  61  95 121 163 211 254 307 365
#     4  11  23  41  65  93 126 163 210 261 306 364
#     4  10  24  43  62  93 131 165 206 251 313 375
#     4  12  24  42  65  94 123 158 216 259 309 368
#     4  10  21  38  59  89 125 162 204 244 299 370
#     4  10  20  37  61  89 129 165 202 255 310 361
#     4  11  25  40  63  94 127 164 209 253 309 373
#
# _framework density 21.195694
#
# number of rings (size 3 to 8) (size 9 to 14) (size 15 to 20)
#    0.000    1.250    2.500    3.375    0.000    4.500 
#    0.000    5.625    0.000    0.000    0.000    0.000 
#    0.000    0.000    0.000    0.000    0.000    0.000 
#
# Total GULP energy -89304.254740 kJ/mol
# GULP energy per Si atom -5581.515921 kJ/mol
# Density = 2.114745 g / cm^3
# Si number density = 21.195694 Si / 1000 Ang^3
#
#
#
# Elastic Constant Matrix: (Units=GPa)
#
#
# Indices 1 2 3 4 5 6 
#
# 1 89.9339 28.4880 29.9086 -6.9432 10.2111 -15.3967
# 2 28.4880 87.5487 32.0996 9.0690 14.0698 -11.0038
# 3 29.9086 32.0996 94.4576 11.3886 12.7801 -11.9525
# 4 -6.9432 9.0690 11.3886 38.1832 -6.3487 5.0924
# 5 10.2111 14.0698 12.7801 -6.3487 26.5843 -1.2191
# 6 -15.3967 -11.0038 -11.9525 5.0924 -1.2191 35.1905
#
#
#
# Elastic Compliance Matrix: (Units=1/GPa)
#
#
# Indices 1 2 3 4 5 6 
#
# 1 0.014234 -0.003177 -0.003255 0.003641 -0.001188 0.003561
# 2 -0.003177 0.015309 -0.002256 -0.005101 -0.006873 0.003131
# 3 -0.003255 -0.002256 0.014251 -0.005685 -0.005612 0.003339
# 4 0.003641 -0.005101 -0.005685 0.032505 0.011511 -0.006238
# 5 -0.001188 -0.006873 -0.005612 0.011511 0.046945 -0.004614
# 6 0.003561 0.003131 0.003339 -0.006238 -0.004614 0.032831
#
#
# Mechanical properties :
#
#
# Convention : Reuss Voigt Hill
#
# Bulk Modulus (GPa) = 37.85085 50.32586 44.08835
# Shear Modulus (GPa) = 27.43388 32.08786 29.76087
#
# Velocity S-wave (km/s) = 3.60156 3.89509 3.75120
# Velocity P-wave (km/s) = 5.93225 6.63505 6.29347
#
# Compressibility (1/GPa) = 0.02641949
#
# Stress axis : x y z
#
# Youngs Moduli (GPa) = 70.25598 65.31904 70.16969
#
# Poissons Ratio (x) = 0.20751 0.22840
# Poissons Ratio (y) = 0.22319 0.15827
# Poissons Ratio (z) = 0.22868 0.14733
#
# Static dielectric constant tensor:
#      x y z
#    x 1.763940 0.028580 -0.028120 
#    y 0.028580 1.883810 -0.025940 
#    z -0.028120 -0.025940 1.806380 
# 
# From -- ./inp_files/95565.got.cif
#   From: 2010.05.17/outbox.cif.g08.bks.cpg/sg2_48_cif.got.tgz:95565.got - 2010.06.03 11:33:40.
