data_PCOD9099241
_publ_section_title
;
Structure prediction by ZEFSAII (Michael W. Deem and Ramdas Pophale) SiO2 
 PCOD9099241
Probable space group: P -1
;
_chemical_formula_sum "Si O2"
_cell_formula_units_Z 12
_cell_length_a 9.562567
_cell_length_b 6.643549
_cell_length_c 19.668231
_cell_angle_alpha 137.263570
_cell_angle_beta 146.490906
_cell_angle_gamma 55.595381
_cell_volume 464.369809
_symmetry_space_group_name_H-M "P -1"
_symmetry_group_IT_number 2
_symmetry_cell_setting 'triclinic'
loop_
_space_group_symop_operation_xyz
x,y,z
-x,-y,-z
loop_
_atom_site_type_symbol
_atom_site_label
_atom_site_fract_x
_atom_site_fract_y
_atom_site_fract_z
Si Si1 0.212429 0.661174 0.258853
Si Si2 0.998065 0.833020 0.623164
Si Si3 0.391918 0.578491 0.549500
Si Si4 0.757799 0.717907 0.998006
Si Si5 0.504361 0.845683 0.066208
Si Si6 0.384527 0.201176 0.649413
O O1 0.375328 0.432201 0.305139
O O2 0.427301 0.862798 0.352236
O O3 0.091779 0.840687 0.313989
O O4 0.002615 0.577645 0.093148
O O5 0.854972 0.643193 0.580280
O O6 0.858304 0.713248 0.467906
O O7 0.298485 0.922254 0.754441
O O8 0.500000 0.500000 0.500000
O O9 0.320246 0.909703 0.595074
O O10 0.541616 0.462381 0.820858
O O11 0.752894 0.998405 0.012878
O O12 0.657265 0.852213 0.059241
O O13 0.500000 0.500000 0.000000
#
# Coordination Sequence:
#
# PCOD9099241 Si02
#       6
#     2   2   2   2   2   2
#     4  10  20  37  59  92 128 161 201 247 305 370
#     4  10  21  38  62  93 119 160 212 247 297 372
#     4  11  19  35  63  94 126 162 197 241 313 367
#     4  10  24  41  59  93 124 158 213 254 299 366
#     4  10  24  46  65  80 120 171 210 254 305 357
#     4  11  21  36  63  95 128 156 198 259 308 360
#
# _framework density 25.841473000000001
#
# number of rings (size 3 to 8) (size 9 to 14) (size 15 to 20)
#    0.000    1.667    3.333    1.500    0.000   10.667 
#    0.000    1.667    0.000    0.000    0.000    0.000 
#    0.000    0.000    0.000    0.000    0.000    0.000 
#
# Total GULP energy -66963.099841 kJ/mol
# GULP energy per Si atom -5580.258320 kJ/mol
# Density = 2.578266 g / cm^3
# Si number density = 25.841473 Si / 1000 Ang^3
#
#
#
# Elastic Constant Matrix: (Units=GPa)
#
#
# Indices 1 2 3 4 5 6 
#
# 1 68.2947 -3.4442 7.8633 -15.9413 0.4625 -5.4963
# 2 -3.4442 188.8755 67.8517 -16.4084 23.3108 28.1130
# 3 7.8633 67.8517 171.8105 -28.6099 2.8493 18.4358
# 4 -15.9413 -16.4084 -28.6099 43.4030 -2.2723 -3.9900
# 5 0.4625 23.3108 2.8493 -2.2723 30.1846 0.9860
# 6 -5.4963 28.1130 18.4358 -3.9900 0.9860 30.0423
#
#
#
# Elastic Compliance Matrix: (Units=1/GPa)
#
#
# Indices 1 2 3 4 5 6 
#
# 1 0.016472 0.000429 -0.000247 0.006371 -0.000199 0.003617
# 2 0.000429 0.007659 -0.002239 0.000791 -0.005473 -0.005430
# 3 -0.000247 -0.002239 0.007576 0.003934 0.001383 -0.002122
# 4 0.006371 0.000791 0.003934 0.028487 0.001007 0.001762
# 5 -0.000199 -0.005473 0.001383 0.001007 0.037202 0.003149
# 6 0.003617 -0.005430 -0.002122 0.001762 0.003149 0.040462
#
#
# Mechanical properties :
#
#
# Convention : Reuss Voigt Hill
#
# Bulk Modulus (GPa) = 36.24215 63.72471 49.98343
# Shear Modulus (GPa) = 33.07536 44.50663 38.79099
#
# Velocity S-wave (km/s) = 3.58150 4.15456 3.87862
# Velocity P-wave (km/s) = 5.58194 6.90849 6.28034
#
# Compressibility (1/GPa) = 0.02759218
#
# Stress axis : x y z
#
# Youngs Moduli (GPa) = 60.70872 130.56176 131.99971
#
# Poissons Ratio (x) = -0.05599 0.03261
# Poissons Ratio (y) = -0.02604 0.29558
# Poissons Ratio (z) = 0.01500 0.29236
#
# Static dielectric constant tensor:
#      x y z
#    x 2.185680 -0.218740 -0.156660 
#    y -0.218740 2.247390 0.004520 
#    z -0.156660 0.004520 2.285680 
# 
# From -- ./inp_files/23312.got.cif
#   From: 2010.05.17/outbox.cif.g08.bks.cpg/sg2_12_cif.got.tgz:23312.got - 2010.06.03 11:33:40.
