data_PCOD9099581
_publ_section_title
;
Structure prediction by ZEFSAII (Michael W. Deem and Ramdas Pophale) SiO2 
 PCOD9099581
Probable space group: P -1
;
_chemical_formula_sum "Si O2"
_cell_formula_units_Z 12
_cell_length_a 11.000847
_cell_length_b 11.836233
_cell_length_c 14.024719
_cell_angle_alpha 61.140464
_cell_angle_beta 18.549708
_cell_angle_gamma 64.116429
_cell_volume 507.341054
_symmetry_space_group_name_H-M "P -1"
_symmetry_group_IT_number 2
_symmetry_cell_setting 'triclinic'
loop_
_space_group_symop_operation_xyz
x,y,z
-x,-y,-z
loop_
_atom_site_type_symbol
_atom_site_label
_atom_site_fract_x
_atom_site_fract_y
_atom_site_fract_z
Si Si1 0.810478 0.547321 0.326930
Si Si2 0.381504 0.396759 0.869763
Si Si3 0.216076 0.169808 0.570380
Si Si4 0.336491 0.980555 0.834049
Si Si5 0.715302 0.403097 0.808786
Si Si6 0.657594 0.221533 0.403825
O O1 0.500000 0.500000 0.500000
O O2 0.709694 0.452453 0.530396
O O3 0.707523 0.692264 0.354299
O O4 0.205161 0.525214 0.991633
O O5 0.481590 0.332638 0.922318
O O6 0.050454 0.310289 0.094177
O O7 0.411143 0.135836 0.339729
O O8 0.567023 0.168956 0.386202
O O9 0.978062 0.296795 0.699553
O O10 0.892563 0.055864 0.885202
O O11 0.604521 0.111945 0.568504
O O12 0.000000 0.000000 0.000000
O O13 0.000000 0.500000 0.500000
O O14 0.500000 0.500000 0.000000
#
# Coordination Sequence:
#
# PCOD9099581 Si02
#       6
#     2   2   2   2   2   2
#     4  10  21  35  58  91 121 148 194 252 304 351
#     4  11  23  38  59  91 120 155 202 248 298 359
#     4  11  23  39  60  88 120 157 202 246 297 359
#     4  10  22  38  59  89 119 156 201 249 298 351
#     4  12  25  43  63  88 124 163 197 246 309 367
#     4  10  20  37  61  85 116 155 198 251 297 347
#
# _framework density 23.652728
#
# number of rings (size 3 to 8) (size 9 to 14) (size 15 to 20)
#    0.000    1.333    0.000    8.000    0.000   13.333 
#    0.000    1.667    0.000    0.000    0.000    0.000 
#    0.000    0.000    0.000    0.000    0.000    0.000 
#
# Total GULP energy -66901.093269 kJ/mol
# GULP energy per Si atom -5575.091106 kJ/mol
# Density = 2.359889 g / cm^3
# Si number density = 23.652728 Si / 1000 Ang^3
#
#
#
# Elastic Constant Matrix: (Units=GPa)
#
#
# Indices 1 2 3 4 5 6 
#
# 1 112.2619 11.8450 29.6733 3.8876 -2.8869 -3.0420
# 2 11.8450 98.6340 34.0608 2.9803 -2.5805 -9.8286
# 3 29.6733 34.0608 128.2306 1.8108 17.8980 3.6297
# 4 3.8876 2.9803 1.8108 41.8074 0.2010 1.1370
# 5 -2.8869 -2.5805 17.8980 0.2010 35.3279 3.4768
# 6 -3.0420 -9.8286 3.6297 1.1370 3.4768 25.2902
#
#
#
# Elastic Compliance Matrix: (Units=1/GPa)
#
#
# Indices 1 2 3 4 5 6 
#
# 1 0.009695 -0.000095 -0.002513 -0.000829 0.001939 0.001261
# 2 -0.000095 0.011959 -0.003589 -0.000832 0.002208 0.004885
# 3 -0.002513 -0.003589 0.010150 0.000142 -0.005372 -0.002422
# 4 -0.000829 -0.000832 0.000142 0.024091 -0.000190 -0.001500
# 5 0.001939 0.002208 -0.005372 -0.000190 0.031592 -0.002472
# 6 0.001261 0.004885 -0.002422 -0.001500 -0.002472 0.042346
#
#
# Mechanical properties :
#
#
# Convention : Reuss Voigt Hill
#
# Bulk Modulus (GPa) = 51.52228 54.47609 52.99919
# Shear Modulus (GPa) = 33.62547 38.05493 35.84020
#
# Velocity S-wave (km/s) = 3.77454 4.01546 3.89687
# Velocity P-wave (km/s) = 6.38955 6.67684 6.53478
#
# Compressibility (1/GPa) = 0.01940908
#
# Stress axis : x y z
#
# Youngs Moduli (GPa) = 103.14919 83.61841 98.52527
#
# Poissons Ratio (x) = 0.00795 0.24757
# Poissons Ratio (y) = 0.00981 0.35364
# Poissons Ratio (z) = 0.25919 0.30013
#
# Static dielectric constant tensor:
#      x y z
#    x 2.068660 0.035230 -0.022590 
#    y 0.035230 2.076290 0.060630 
#    z -0.022590 0.060630 1.921990 
# 
# From -- ./inp_files/118502.got.cif
#   From: 2010.05.17/outbox.cif.g08.bks.cpg/sg2_60_cif.got.tgz:118502.got - 2010.06.03 11:33:40.
