data_PCOD9099576
_publ_section_title
;
Structure prediction by ZEFSAII (Michael W. Deem and Ramdas Pophale) SiO2 
 PCOD9099576
Probable space group: P -1
;
_chemical_formula_sum "Si O2"
_cell_formula_units_Z 14
_cell_length_a 10.543096
_cell_length_b 23.058761
_cell_length_c 7.159902
_cell_angle_alpha 52.744914
_cell_angle_beta 67.542994
_cell_angle_gamma 34.481131
_cell_volume 757.451133
_symmetry_space_group_name_H-M "P -1"
_symmetry_group_IT_number 2
_symmetry_cell_setting 'triclinic'
loop_
_space_group_symop_operation_xyz
x,y,z
-x,-y,-z
loop_
_atom_site_type_symbol
_atom_site_label
_atom_site_fract_x
_atom_site_fract_y
_atom_site_fract_z
Si Si1 0.062693 0.932318 0.906097
Si Si2 0.682501 0.105197 0.513183
Si Si3 0.025122 0.568612 0.258159
Si Si4 0.144160 0.603215 0.463467
Si Si5 0.205465 0.318522 0.216485
Si Si6 0.440022 0.351163 0.207952
Si Si7 0.646541 0.332049 0.779411
O O1 0.238631 0.790743 0.120077
O O2 0.181655 0.933226 0.679707
O O3 0.839735 0.998276 0.785552
O O4 0.000000 0.000000 0.000000
O O5 0.437054 0.179401 0.434969
O O6 0.614719 0.211984 0.442004
O O7 0.281679 0.458421 0.237397
O O8 0.000000 0.500000 0.500000
O O9 0.004709 0.638059 0.291987
O O10 0.840921 0.659251 0.020105
O O11 0.399571 0.458309 0.583739
O O12 0.185956 0.670827 0.328243
O O13 0.011861 0.624902 0.670280
O O14 0.259556 0.378253 0.135972
O O15 0.581069 0.344120 0.008775
#
# Coordination Sequence:
#
# PCOD9099576 Si02
#       7
#     2   2   2   2   2   2   2
#     4  10  20  37  61  85 108 153 199 237 277 340
#     4   8  20  35  56  85 114 142 191 247 284 316
#     4  12  20  30  60  88 110 154 194 226 286 349
#     4  11  23  37  56  88 123 154 181 236 301 349
#     4  10  20  38  56  85 121 146 191 244 286 336
#     4   9  18  34  57  79 117 142 186 242 276 332
#     4  10  22  40  55  84 126 149 186 242 293 340
#
# _framework density 18.483042000000001
#
# number of rings (size 3 to 8) (size 9 to 14) (size 15 to 20)
#    0.857    1.143    2.857    1.286    2.000    1.714 
#    0.000    0.714    0.000    1.714    0.000    0.000 
#    0.000    0.000    0.000    0.000    0.000    0.000 
#
# Total GULP energy -77955.727938 kJ/mol
# GULP energy per Si atom -5568.266281 kJ/mol
# Density = 1.844097 g / cm^3
# Si number density = 18.483042 Si / 1000 Ang^3
#
#
#
# Elastic Constant Matrix: (Units=GPa)
#
#
# Indices 1 2 3 4 5 6 
#
# 1 75.5841 12.3294 41.8998 9.7759 -1.5498 -7.8063
# 2 12.3294 69.2492 21.8402 2.8720 2.7824 0.0523
# 3 41.8998 21.8402 66.8493 9.3569 0.3353 3.4384
# 4 9.7759 2.8720 9.3569 19.1195 -2.5226 3.0845
# 5 -1.5498 2.7824 0.3353 -2.5226 31.2635 3.8522
# 6 -7.8063 0.0523 3.4384 3.0845 3.8522 20.0295
#
#
#
# Elastic Compliance Matrix: (Units=1/GPa)
#
#
# Indices 1 2 3 4 5 6 
#
# 1 0.023440 0.000754 -0.014595 -0.007160 -0.000918 0.012918
# 2 0.000754 0.016210 -0.005779 -0.000462 -0.001580 0.001619
# 3 -0.014595 -0.005779 0.026950 -0.003201 0.000463 -0.009896
# 4 -0.007160 -0.000462 -0.003201 0.060468 0.006169 -0.012738
# 5 -0.000918 -0.001580 0.000463 0.006169 0.033539 -0.007834
# 6 0.012918 0.001619 -0.009896 -0.012738 -0.007834 0.060124
#
#
# Mechanical properties :
#
#
# Convention : Reuss Voigt Hill
#
# Bulk Modulus (GPa) = 36.55170 40.42459 38.48815
# Shear Modulus (GPa) = 18.58095 23.12340 20.85217
#
# Velocity S-wave (km/s) = 3.17408 3.54087 3.36248
# Velocity P-wave (km/s) = 5.76644 6.21576 5.99531
#
# Compressibility (1/GPa) = 0.02735851
#
# Stress axis : x y z
#
# Youngs Moduli (GPa) = 42.66269 61.68843 37.10580
#
# Poissons Ratio (x) = -0.04651 0.54158
# Poissons Ratio (y) = -0.03217 0.21445
# Poissons Ratio (z) = 0.62268 0.35652
#
# Static dielectric constant tensor:
#      x y z
#    x 1.651140 -0.044050 0.017970 
#    y -0.044050 1.690520 -0.023810 
#    z 0.017970 -0.023810 1.637640 
# 
# From -- ./inp_files/83947.got.cif
#   From: 2010.05.17/outbox.cif.g08.bks.cpg/sg2_42_cif.got.tgz:83947.got - 2010.06.03 11:33:40.
