data_PCOD9099509
_publ_section_title
;
Structure prediction by ZEFSAII (Michael W. Deem and Ramdas Pophale) SiO2 
 PCOD9099509
Probable space group: P -1
;
_chemical_formula_sum "Si O2"
_cell_formula_units_Z 15
_cell_length_a 12.649322
_cell_length_b 20.682181
_cell_length_c 7.307852
_cell_angle_alpha 117.544129
_cell_angle_beta 57.313181
_cell_angle_gamma 157.542494
_cell_volume 610.655865
_symmetry_space_group_name_H-M "P -1"
_symmetry_group_IT_number 2
_symmetry_cell_setting 'triclinic'
loop_
_space_group_symop_operation_xyz
x,y,z
-x,-y,-z
loop_
_atom_site_type_symbol
_atom_site_label
_atom_site_fract_x
_atom_site_fract_y
_atom_site_fract_z
Si Si1 0.202053 0.287629 0.633367
Si Si2 0.215065 0.377859 0.353610
Si Si3 0.879645 0.342942 0.716212
Si Si4 0.743202 0.025261 0.286560
Si Si5 0.860035 0.380033 0.184073
Si Si6 0.553315 0.958629 0.771021
Si Si7 0.285756 0.168039 0.332463
Si Si8 0.000000 0.000000 0.000000
O O1 0.193746 0.337643 0.532812
O O2 0.434384 0.438488 0.762738
O O3 0.336987 0.281200 0.439905
O O4 0.863815 0.093279 0.741282
O O5 0.073474 0.383621 0.490315
O O6 0.010504 0.215665 0.217953
O O7 0.546637 0.140488 0.776105
O O8 0.909609 0.439078 0.721832
O O9 0.976459 0.408845 0.921043
O O10 0.621916 0.003218 0.551381
O O11 0.882762 0.020845 0.206903
O O12 0.728299 0.241914 0.229505
O O13 0.566891 0.273946 0.285421
O O14 0.500000 0.000000 0.000000
O O15 0.213414 0.105812 0.114998
O O16 0.000000 0.000000 0.500000
#
# Coordination Sequence:
#
# PCOD9099509 Si02
#       8
#     2   2   2   2   2   2   2   1
#     4  10  20  37  65  91 121 173 219 264 332 394
#     4  10  20  37  60  92 125 165 224 269 325 403
#     4  11  23  37  63  94 124 170 219 271 329 394
#     4  11  23  41  64  93 129 170 220 278 327 387
#     4  11  22  38  64  92 125 170 219 264 332 400
#     4  11  23  43  64  93 130 174 215 268 339 397
#     4  12  21  41  69  94 133 169 221 284 326 400
#     4  12  22  42  66 102 124 174 224 268 338 396
#
# _framework density 24.563753999999999
#
# number of rings (size 3 to 8) (size 9 to 14) (size 15 to 20)
#    0.000    1.067    6.667    2.000    0.000    0.533 
#    2.400    0.000    0.000    2.400    0.000    0.000 
#    0.000    0.000    0.000    0.000    0.000    0.000 
#
# Total GULP energy -83548.440322 kJ/mol
# GULP energy per Si atom -5569.896021 kJ/mol
# Density = 2.450785 g / cm^3
# Si number density = 24.563754 Si / 1000 Ang^3
#
#
#
# Elastic Constant Matrix: (Units=GPa)
#
#
# Indices 1 2 3 4 5 6 
#
# 1 47.9532 9.9726 29.1840 11.1957 -22.6664 -8.5223
# 2 9.9726 160.2885 22.6816 20.9859 6.1434 -8.8771
# 3 29.1840 22.6816 77.8318 9.6218 -20.7400 -9.1738
# 4 11.1957 20.9859 9.6218 39.8317 3.4412 -1.0949
# 5 -22.6664 6.1434 -20.7400 3.4412 27.4960 -2.2863
# 6 -8.5223 -8.8771 -9.1738 -1.0949 -2.2863 34.4630
#
#
#
# Elastic Compliance Matrix: (Units=1/GPa)
#
#
# Indices 1 2 3 4 5 6 
#
# 1 0.048104 -0.001350 -0.003553 -0.015075 0.040226 0.012792
# 2 -0.001350 0.007159 -0.002301 -0.002468 -0.004094 0.000548
# 3 -0.003553 -0.002301 0.019224 -0.003425 0.012879 0.004392
# 4 -0.015075 -0.002468 -0.003425 0.032964 -0.019041 -0.005491
# 5 0.040226 -0.004094 0.012879 -0.019041 0.083979 0.017288
# 6 0.012792 0.000548 0.004392 -0.005491 0.017288 0.034462
#
#
# Mechanical properties :
#
#
# Convention : Reuss Voigt Hill
#
# Bulk Modulus (GPa) = 16.64503 45.52775 31.08639
# Shear Modulus (GPa) = 19.20663 35.30716 27.25690
#
# Velocity S-wave (km/s) = 2.79930 3.79538 3.33474
# Velocity P-wave (km/s) = 4.15200 6.14665 5.24501
#
# Compressibility (1/GPa) = 0.06007798
#
# Stress axis : x y z
#
# Youngs Moduli (GPa) = 20.78845 139.69077 52.01783
#
# Poissons Ratio (x) = 0.18854 0.18484
# Poissons Ratio (y) = 0.02806 0.11971
# Poissons Ratio (z) = 0.07387 0.32147
#
# Static dielectric constant tensor:
#      x y z
#    x 2.087500 -0.131850 -0.005370 
#    y -0.131850 2.177080 0.035830 
#    z -0.005370 0.035830 1.939590 
# 
# From -- ./inp_files/320160.got.cif
#   From: 2010.05.17/outbox.cif.g08.bks.cpg/sg2_161_cif.got.tgz:320160.got - 2010.06.03 11:33:40.
