data_PCOD9099415
_publ_section_title
;
Structure prediction by ZEFSAII (Michael W. Deem and Ramdas Pophale) SiO2 
 PCOD9099415
Probable space group: P -1
;
_chemical_formula_sum "Si O2"
_cell_formula_units_Z 16
_cell_length_a 25.071430
_cell_length_b 6.728395
_cell_length_c 15.080279
_cell_angle_alpha 89.123092
_cell_angle_beta 17.215640
_cell_angle_gamma 93.757706
_cell_volume 724.685638
_symmetry_space_group_name_H-M "P -1"
_symmetry_group_IT_number 2
_symmetry_cell_setting 'triclinic'
loop_
_space_group_symop_operation_xyz
x,y,z
-x,-y,-z
loop_
_atom_site_type_symbol
_atom_site_label
_atom_site_fract_x
_atom_site_fract_y
_atom_site_fract_z
Si Si1 0.880643 0.998355 0.310186
Si Si2 0.257397 0.329513 0.709396
Si Si3 0.949154 0.683257 0.629285
Si Si4 0.152500 0.730100 0.477368
Si Si5 0.518119 0.859995 0.773328
Si Si6 0.703159 0.969730 0.192631
Si Si7 0.279780 0.066145 0.039944
Si Si8 0.050949 0.651172 0.090390
O O1 0.849154 0.070774 0.461106
O O2 0.693872 0.979331 0.552070
O O3 0.941973 0.787175 0.207919
O O4 0.060930 0.174590 0.991372
O O5 0.414559 0.308439 0.390494
O O6 0.300542 0.221162 0.733788
O O7 0.204290 0.543928 0.806823
O O8 0.000000 0.500000 0.500000
O O9 0.974313 0.661188 0.694279
O O10 0.115466 0.888085 0.345119
O O11 0.761543 0.714287 0.882420
O O12 0.110533 0.536435 0.611080
O O13 0.342354 0.770013 0.118600
O O14 0.461417 0.015923 0.791658
O O15 0.500000 0.000000 0.500000
O O16 0.757994 0.949727 0.004595
O O17 0.836542 0.176954 0.020580
#
# Coordination Sequence:
#
# PCOD9099415 Si02
#       8
#     2   2   2   2   2   2   2   2
#     4  10  22  42  66  85 122 172 209 251 307 361
#     4  10  22  42  63  93 124 160 209 252 312 370
#     4  10  20  37  60  88 123 158 189 245 312 365
#     4  10  22  41  64  92 121 162 212 252 306 371
#     4  11  22  40  62  94 126 160 210 260 302 360
#     4  11  21  40  64  88 119 159 204 246 308 372
#     4  10  21  37  58  88 123 152 199 247 299 366
#     4  10  22  40  64  86 121 168 203 255 308 365
#
# _framework density 22.078541000000001
#
# number of rings (size 3 to 8) (size 9 to 14) (size 15 to 20)
#    0.000    1.750    1.250    3.750    0.000    3.500 
#    4.500    8.750    0.000    0.000    0.000    0.000 
#    0.000    0.000    0.000    0.000    0.000    0.000 
#
# Total GULP energy -89218.872977 kJ/mol
# GULP energy per Si atom -5576.179561 kJ/mol
# Density = 2.202829 g / cm^3
# Si number density = 22.078541 Si / 1000 Ang^3
#
#
#
# Elastic Constant Matrix: (Units=GPa)
#
#
# Indices 1 2 3 4 5 6 
#
# 1 108.2636 41.8506 36.8125 26.9923 -9.9937 -3.3393
# 2 41.8506 115.9272 35.0872 41.3446 -2.5301 3.9653
# 3 36.8125 35.0872 110.7424 29.5344 3.7615 3.2545
# 4 26.9923 41.3446 29.5344 40.0078 -2.1984 2.9523
# 5 -9.9937 -2.5301 3.7615 -2.1984 55.5507 8.3607
# 6 -3.3393 3.9653 3.2545 2.9523 8.3607 7.7979
#
#
#
# Elastic Compliance Matrix: (Units=1/GPa)
#
#
# Indices 1 2 3 4 5 6 
#
# 1 0.012499 -0.002336 -0.002406 -0.004821 0.000840 0.008469
# 2 -0.002336 0.014169 -0.000258 -0.012591 0.000293 -0.003645
# 3 -0.002406 -0.000258 0.011811 -0.006751 -0.001215 -0.001970
# 4 -0.004821 -0.012591 -0.006751 0.047444 0.003005 -0.014029
# 5 0.000840 0.000293 -0.001215 0.003005 0.021977 -0.023983
# 6 0.008469 -0.003645 -0.001970 -0.014029 -0.023983 0.165568
#
#
# Mechanical properties :
#
#
# Convention : Reuss Voigt Hill
#
# Bulk Modulus (GPa) = 35.11318 62.49266 48.80292
# Shear Modulus (GPa) = 17.06719 35.41679 26.24199
#
# Velocity S-wave (km/s) = 2.78334 4.00950 3.45131
# Velocity P-wave (km/s) = 5.12519 7.05698 6.16719
#
# Compressibility (1/GPa) = 0.02847933
#
# Stress axis : x y z
#
# Youngs Moduli (GPa) = 80.00911 70.57688 84.66646
#
# Poissons Ratio (x) = 0.16485 0.20373
# Poissons Ratio (y) = 0.18688 0.02181
# Poissons Ratio (z) = 0.19253 0.01818
#
# Static dielectric constant tensor:
#      x y z
#    x 2.555210 0.035170 0.125220 
#    y 0.035170 1.851810 0.107070 
#    z 0.125220 0.107070 1.922130 
# 
# From -- ./inp_files/410846.got.cif
#   From: 2010.05.17/outbox.cif.g08.bks.cpg/sg2_206_cif.got.tgz:410846.got - 2010.06.03 11:33:40.
