data_PCOD9099134
_publ_section_title
;
Structure prediction by ZEFSAII (Michael W. Deem and Ramdas Pophale) SiO2 
 PCOD9099134
Probable space group: P -1
;
_chemical_formula_sum "Si O2"
_cell_formula_units_Z 14
_cell_length_a 11.072859
_cell_length_b 20.205736
_cell_length_c 17.787385
_cell_angle_alpha 160.503704
_cell_angle_beta 28.865966
_cell_angle_gamma 137.203635
_cell_volume 527.042226
_symmetry_space_group_name_H-M "P -1"
_symmetry_group_IT_number 2
_symmetry_cell_setting 'triclinic'
loop_
_space_group_symop_operation_xyz
x,y,z
-x,-y,-z
loop_
_atom_site_type_symbol
_atom_site_label
_atom_site_fract_x
_atom_site_fract_y
_atom_site_fract_z
Si Si1 0.763270 0.744536 0.545773
Si Si2 0.794148 0.130100 0.504297
Si Si3 0.370874 0.910641 0.133223
Si Si4 0.656072 0.409089 0.418666
Si Si5 0.744341 0.965606 0.505270
Si Si6 0.874243 0.336073 0.385325
Si Si7 0.402225 0.780256 0.460358
O O1 0.633065 0.581079 0.444804
O O2 0.057679 0.726753 0.398990
O O3 0.714264 0.839965 0.588224
O O4 0.500000 0.000000 0.000000
O O5 0.624888 0.114973 0.652588
O O6 0.054708 0.844811 0.040404
O O7 0.622941 0.233546 0.629878
O O8 0.074635 0.911245 0.278909
O O9 0.417927 0.911918 0.196986
O O10 0.640630 0.654033 0.676422
O O11 0.662462 0.398887 0.495060
O O12 0.717413 0.742103 0.270815
O O13 0.700068 0.353228 0.574590
O O14 0.000000 0.500000 0.500000
O O15 0.151757 0.060400 0.920964
#
# Coordination Sequence:
#
# PCOD9099134 Si02
#       7
#     2   2   2   2   2   2   2
#     4   9  19  35  56  86 113 144 192 235 280 331
#     4   9  20  36  59  87 116 153 191 233 283 340
#     4  10  21  37  59  85 117 150 188 239 281 334
#     4  10  20  37  62  84 109 150 195 235 281 333
#     4  10  20  37  59  86 119 154 187 229 293 345
#     4  10  21  36  60  88 109 144 197 241 281 336
#     4  10  20  38  59  80 116 154 186 234 288 338
#
# _framework density 26.563336
#
# number of rings (size 3 to 8) (size 9 to 14) (size 15 to 20)
#    0.000    2.286    0.000    2.143    0.000    9.714 
#    0.000   17.143    0.000    7.714    0.000    0.000 
#    0.000    0.000    0.000    0.000    0.000    0.000 
#
# Total GULP energy -78294.389152 kJ/mol
# GULP energy per Si atom -5592.456368 kJ/mol
# Density = 2.650288 g / cm^3
# Si number density = 26.563336 Si / 1000 Ang^3
#
#
#
# Elastic Constant Matrix: (Units=GPa)
#
#
# Indices 1 2 3 4 5 6 
#
# 1 166.8302 56.7893 17.0198 -15.8447 36.4278 -23.7027
# 2 56.7893 118.3692 -1.3831 2.7489 30.6476 1.3832
# 3 17.0198 -1.3831 59.7399 23.2604 21.8239 -0.5330
# 4 -15.8447 2.7489 23.2604 38.6725 9.2270 10.3427
# 5 36.4278 30.6476 21.8239 9.2270 37.3111 -6.4947
# 6 -23.7027 1.3832 -0.5330 10.3427 -6.4947 45.5682
#
#
#
# Elastic Compliance Matrix: (Units=1/GPa)
#
#
# Indices 1 2 3 4 5 6 
#
# 1 0.009899 -0.003381 -0.003363 0.007068 -0.006194 0.002725
# 2 -0.003381 0.013091 0.006297 -0.002662 -0.011008 -0.003047
# 3 -0.003363 0.006297 0.029652 -0.015967 -0.015310 -0.000152
# 4 0.007068 -0.002662 -0.015967 0.042082 -0.006997 -0.006978
# 5 -0.006194 -0.011008 -0.015310 -0.006997 0.053650 0.006168
# 6 0.002725 -0.003047 -0.000152 -0.006978 0.006168 0.025916
#
#
# Mechanical properties :
#
#
# Convention : Reuss Voigt Hill
#
# Bulk Modulus (GPa) = 19.32495 54.42125 36.87310
# Shear Modulus (GPa) = 25.98288 42.47791 34.23040
#
# Velocity S-wave (km/s) = 3.13093 4.00324 3.59365
# Velocity P-wave (km/s) = 4.51233 6.47300 5.57946
#
# Compressibility (1/GPa) = 0.05174658
#
# Stress axis : x y z
#
# Youngs Moduli (GPa) = 101.02009 76.38752 33.72494
#
# Poissons Ratio (x) = 0.25825 0.11343
# Poissons Ratio (y) = 0.34153 -0.21235
# Poissons Ratio (z) = 0.33978 -0.48099
#
# Static dielectric constant tensor:
#      x y z
#    x 2.097830 -0.132550 -0.125740 
#    y -0.132550 2.191100 0.080880 
#    z -0.125740 0.080880 2.246850 
# 
# From -- ./inp_files/523765.got.cif
#   From: 2010.05.17/outbox.cif.g08.bks.cpg/sg2_262_cif.got.tgz:523765.got - 2010.06.03 11:33:40.
