data_PCOD9099125
_publ_section_title
;
Structure prediction by ZEFSAII (Michael W. Deem and Ramdas Pophale) SiO2 
 PCOD9099125
Probable space group: P -1
;
_chemical_formula_sum "Si O2"
_cell_formula_units_Z 16
_cell_length_a 13.473624
_cell_length_b 10.947092
_cell_length_c 7.668248
_cell_angle_alpha 87.844698
_cell_angle_beta 83.505172
_cell_angle_gamma 144.734145
_cell_volume 631.970811
_symmetry_space_group_name_H-M "P -1"
_symmetry_group_IT_number 2
_symmetry_cell_setting 'triclinic'
loop_
_space_group_symop_operation_xyz
x,y,z
-x,-y,-z
loop_
_atom_site_type_symbol
_atom_site_label
_atom_site_fract_x
_atom_site_fract_y
_atom_site_fract_z
Si Si1 0.817202 0.170476 0.870422
Si Si2 0.629820 0.785766 0.108404
Si Si3 0.227920 0.977770 0.499208
Si Si4 0.422821 0.787351 0.499731
Si Si5 0.903830 0.491168 0.661610
Si Si6 0.132210 0.104779 0.659431
Si Si7 0.729338 0.668584 0.854881
Si Si8 0.187430 0.407130 0.815175
O O1 0.765683 0.076734 0.689183
O O2 0.853368 0.351961 0.839807
O O3 0.998909 0.283440 0.874693
O O4 0.670047 0.965518 0.037707
O O5 0.666631 0.737919 0.932063
O O6 0.773502 0.872927 0.203473
O O7 0.429792 0.550088 0.212228
O O8 0.209832 0.104968 0.485532
O O9 0.053588 0.745465 0.641982
O O10 0.405394 0.123333 0.559064
O O11 0.273425 0.638931 0.387966
O O12 0.325869 0.644282 0.702113
O O13 0.500000 0.000000 0.500000
O O14 0.000000 0.500000 0.500000
O O15 0.171155 0.285450 0.675599
O O16 0.923883 0.872573 0.726574
O O17 0.752774 0.602032 0.022417
#
# Coordination Sequence:
#
# PCOD9099125 Si02
#       8
#     2   2   2   2   2   2   2   2
#     4  11  18  38  63  89 113 154 211 246 284 355
#     4  10  20  38  62  86 115 163 209 239 284 362
#     4  11  24  38  60  91 126 156 193 253 309 347
#     4  12  21  39  63  88 117 156 208 255 290 345
#     4  10  20  37  59  86 114 153 203 248 288 349
#     4  11  23  41  57  89 136 155 186 249 312 359
#     4  10  20  37  63  86 118 164 204 239 289 359
#     4  11  20  37  65  91 117 160 204 243 294 361
#
# _framework density 25.317627000000002
#
# number of rings (size 3 to 8) (size 9 to 14) (size 15 to 20)
#    0.000    1.250    7.500    1.500    0.000    2.000 
#    0.000    0.625    0.000    1.500    0.000    0.000 
#    0.000    0.000    0.000    0.000    0.000    0.000 
#
# Total GULP energy -89610.810456 kJ/mol
# GULP energy per Si atom -5600.675654 kJ/mol
# Density = 2.526000 g / cm^3
# Si number density = 25.317627 Si / 1000 Ang^3
#
#
#
# Elastic Constant Matrix: (Units=GPa)
#
#
# Indices 1 2 3 4 5 6 
#
# 1 104.8784 57.7427 20.9108 -7.1757 17.3470 25.7077
# 2 57.7427 139.3175 19.0396 -8.6400 11.7117 39.6310
# 3 20.9108 19.0396 49.0787 -4.5679 22.0915 3.4541
# 4 -7.1757 -8.6400 -4.5679 30.2226 -3.7972 1.5928
# 5 17.3470 11.7117 22.0915 -3.7972 45.6854 0.3006
# 6 25.7077 39.6310 3.4541 1.5928 0.3006 46.0163
#
#
#
# Elastic Compliance Matrix: (Units=1/GPa)
#
#
# Indices 1 2 3 4 5 6 
#
# 1 0.013781 -0.003792 -0.002688 0.001656 -0.002795 -0.004270
# 2 -0.003792 0.011342 -0.001888 0.002419 -0.000304 -0.007590
# 3 -0.002688 -0.001888 0.027589 0.001462 -0.011722 0.001083
# 4 0.001656 0.002419 0.001462 0.034742 0.000961 -0.004326
# 5 -0.002795 -0.000304 -0.011722 0.000961 0.028760 0.002482
# 6 -0.004270 -0.007590 0.001083 -0.004326 0.002482 0.030706
#
#
# Mechanical properties :
#
#
# Convention : Reuss Voigt Hill
#
# Bulk Modulus (GPa) = 27.79625 54.29566 41.04595
# Shear Modulus (GPa) = 28.46595 37.42365 32.94480
#
# Velocity S-wave (km/s) = 3.35678 3.84886 3.61121
# Velocity P-wave (km/s) = 5.10164 6.42215 5.79960
#
# Compressibility (1/GPa) = 0.03597608
#
# Stress axis : x y z
#
# Youngs Moduli (GPa) = 72.56468 88.16664 36.24578
#
# Poissons Ratio (x) = 0.33433 0.09742
# Poissons Ratio (y) = 0.27516 0.06845
# Poissons Ratio (z) = 0.19503 0.16650
#
# Static dielectric constant tensor:
#      x y z
#    x 1.960670 -0.030100 -0.025910 
#    y -0.030100 1.987010 0.035340 
#    z -0.025910 0.035340 2.088030 
# 
# From -- ./inp_files/307367.got.cif
#   From: 2010.05.17/outbox.cif.g08.bks.cpg/sg2_154_cif.got.tgz:307367.got - 2010.06.03 11:33:40.
