data_PCOD9099699
_publ_section_title
;
Structure prediction by ZEFSAII (Michael W. Deem and Ramdas Pophale) SiO2 
 PCOD9099699
Probable space group: P -1
;
_chemical_formula_sum "Si O2"
_cell_formula_units_Z 14
_cell_length_a 16.600008
_cell_length_b 12.355350
_cell_length_c 10.288666
_cell_angle_alpha 147.489496
_cell_angle_beta 35.040630
_cell_angle_gamma 143.202981
_cell_volume 608.134959
_symmetry_space_group_name_H-M "P -1"
_symmetry_group_IT_number 2
_symmetry_cell_setting 'triclinic'
loop_
_space_group_symop_operation_xyz
x,y,z
-x,-y,-z
loop_
_atom_site_type_symbol
_atom_site_label
_atom_site_fract_x
_atom_site_fract_y
_atom_site_fract_z
Si Si1 0.626029 0.192131 0.839479
Si Si2 0.341657 0.438983 0.217574
Si Si3 0.387327 0.364420 0.364109
Si Si4 0.333747 0.766239 0.755591
Si Si5 0.947588 0.925552 0.814466
Si Si6 0.888630 0.255841 0.382139
Si Si7 0.182443 0.935076 0.319930
O O1 0.725723 0.248011 0.634161
O O2 0.723868 0.145378 0.778490
O O3 0.479512 0.981075 0.791829
O O4 0.556904 0.370753 0.153145
O O5 0.344410 0.304673 0.208694
O O6 0.316085 0.650706 0.522139
O O7 0.201711 0.278426 0.163630
O O8 0.500000 0.500000 0.000000
O O9 0.369737 0.592933 0.623843
O O10 0.277818 0.185322 0.419866
O O11 0.193662 0.812257 0.048244
O O12 0.070954 0.899481 0.724285
O O13 0.019220 0.904676 0.559828
O O14 0.913880 0.143083 0.102762
O O15 0.000000 0.500000 0.500000
#
# Coordination Sequence:
#
# PCOD9099699 Si02
#       7
#     2   2   2   2   2   2   2
#     4  10  20  37  61  89 121 151 202 253 289 346
#     4  10  22  40  61  86 120 163 195 244 303 342
#     4   9  21  36  60  87 120 155 197 243 290 356
#     4   9  20  37  58  91 120 156 198 238 297 354
#     4  10  23  42  60  85 128 151 194 261 282 354
#     4  10  23  40  62  90 113 159 204 239 305 352
#     4  10  21  38  59  90 121 160 200 241 299 341
#
# _framework density 23.021205999999999
#
# number of rings (size 3 to 8) (size 9 to 14) (size 15 to 20)
#    0.857    1.429    0.000    2.571    2.000    8.000 
#    5.143    3.571    0.000    0.000    0.000    0.000 
#    0.000    0.000    0.000    0.000    0.000    0.000 
#
# Total GULP energy -78103.056656 kJ/mol
# GULP energy per Si atom -5578.789761 kJ/mol
# Density = 2.296881 g / cm^3
# Si number density = 23.021206 Si / 1000 Ang^3
#
#
#
# Elastic Constant Matrix: (Units=GPa)
#
#
# Indices 1 2 3 4 5 6 
#
# 1 35.9698 -9.6424 -5.4742 -0.6483 -4.0922 -3.4285
# 2 -9.6424 81.7545 88.9809 -15.4884 -8.9011 2.6406
# 3 -5.4742 88.9809 169.5774 -12.6122 7.9667 5.4776
# 4 -0.6483 -15.4884 -12.6122 42.6321 3.8201 -0.4429
# 5 -4.0922 -8.9011 7.9667 3.8201 30.0519 6.3470
# 6 -3.4285 2.6406 5.4776 -0.4429 6.3470 27.7587
#
#
#
# Elastic Compliance Matrix: (Units=1/GPa)
#
#
# Indices 1 2 3 4 5 6 
#
# 1 0.030697 0.009152 -0.004075 0.001955 0.007281 0.002092
# 2 0.009152 0.038532 -0.020187 0.006554 0.017704 -0.002495
# 3 -0.004075 -0.020187 0.016743 -0.001459 -0.010911 0.000584
# 4 0.001955 0.006554 -0.001459 0.025508 -0.000751 0.000485
# 5 0.007281 0.017704 -0.010911 -0.000751 0.044354 -0.008785
# 6 0.002092 -0.002495 0.000584 0.000485 -0.008785 0.038422
#
#
# Mechanical properties :
#
#
# Convention : Reuss Voigt Hill
#
# Bulk Modulus (GPa) = 17.93683 48.33669 33.13676
# Shear Modulus (GPa) = 20.57092 34.31771 27.44431
#
# Velocity S-wave (km/s) = 2.99250 3.86515 3.45647
# Velocity P-wave (km/s) = 4.44392 6.40010 5.50952
#
# Compressibility (1/GPa) = 0.05575120
#
# Stress axis : x y z
#
# Youngs Moduli (GPa) = 32.57637 25.95226 59.72568
#
# Poissons Ratio (x) = -0.23750 0.24340
# Poissons Ratio (y) = -0.29813 1.20568
# Poissons Ratio (z) = 0.13276 0.52390
#
# Static dielectric constant tensor:
#      x y z
#    x 1.978880 -0.015470 0.055090 
#    y -0.015470 1.789890 0.002620 
#    z 0.055090 0.002620 1.928930 
# 
# From -- ./inp_files/471610.got.cif
#   From: 2010.05.17/outbox.cif.g08.bks.cpg/sg2_236_cif.got.tgz:471610.got - 2010.06.03 11:33:40.
