data_PCOD9099122
_publ_section_title
;
Structure prediction by ZEFSAII (Michael W. Deem and Ramdas Pophale) SiO2 
 PCOD9099122
Probable space group: P -1
;
_chemical_formula_sum "Si O2"
_cell_formula_units_Z 16
_cell_length_a 5.206729
_cell_length_b 8.013067
_cell_length_c 21.323012
_cell_angle_alpha 69.031618
_cell_angle_beta 56.887469
_cell_angle_gamma 97.743921
_cell_volume 630.747910
_symmetry_space_group_name_H-M "P -1"
_symmetry_group_IT_number 2
_symmetry_cell_setting 'triclinic'
loop_
_space_group_symop_operation_xyz
x,y,z
-x,-y,-z
loop_
_atom_site_type_symbol
_atom_site_label
_atom_site_fract_x
_atom_site_fract_y
_atom_site_fract_z
Si Si1 0.399059 0.300087 0.838465
Si Si2 0.104480 0.676688 0.714586
Si Si3 0.739720 0.056808 0.772236
Si Si4 0.606705 0.917608 0.435626
Si Si5 0.178694 0.353186 0.990045
Si Si6 0.131536 0.287507 0.138906
Si Si7 0.151596 0.771197 0.395055
Si Si8 0.404028 0.403088 0.683111
O O1 0.738008 0.501409 0.775745
O O2 0.524824 0.128564 0.837766
O O3 0.156061 0.270518 0.934136
O O4 0.289462 0.328313 0.779554
O O5 0.153157 0.701236 0.779679
O O6 0.122362 0.878333 0.657858
O O7 0.368222 0.606646 0.657029
O O8 0.652593 0.077920 0.708714
O O9 0.122267 0.232018 0.702652
O O10 0.733994 0.855215 0.824795
O O11 0.215833 0.228398 0.554670
O O12 0.500000 0.000000 0.500000
O O13 0.320110 0.836201 0.431578
O O14 0.576570 0.490447 0.929170
O O15 0.053905 0.220416 0.086659
O O16 0.000000 0.500000 0.000000
O O17 0.232918 0.588505 0.385781
#
# Coordination Sequence:
#
# PCOD9099122 Si02
#       8
#     2   2   2   2   2   2   2   2
#     4   9  21  36  59  89 127 166 218 266 321 378
#     4  10  21  39  64  94 122 169 217 263 320 388
#     4  10  20  39  64  91 119 174 214 266 315 387
#     4  12  26  44  70 101 133 166 212 268 323 386
#     4  10  21  35  53  86 125 166 212 274 320 375
#     4  10  20  37  59  85 124 165 219 264 324 378
#     4  11  22  44  66  96 132 169 210 263 322 386
#     4  10  20  38  67  91 128 167 221 262 317 384
#
# _framework density 25.366709
#
# number of rings (size 3 to 8) (size 9 to 14) (size 15 to 20)
#    0.000    1.750    2.500    1.125    1.750    4.500 
#    0.000    2.500    0.000    0.000    0.000    0.000 
#    0.000    0.000    0.000    0.000    0.000    0.000 
#
# Total GULP energy -89441.758341 kJ/mol
# GULP energy per Si atom -5590.109896 kJ/mol
# Density = 2.530897 g / cm^3
# Si number density = 25.366709 Si / 1000 Ang^3
#
#
#
# Elastic Constant Matrix: (Units=GPa)
#
#
# Indices 1 2 3 4 5 6 
#
# 1 96.0789 33.8422 35.0724 19.2299 20.7640 -10.0963
# 2 33.8422 72.7958 35.6504 9.8498 1.8883 -15.1985
# 3 35.0724 35.6504 135.8116 45.8886 11.4173 2.5880
# 4 19.2299 9.8498 45.8886 49.0891 4.7844 -4.1018
# 5 20.7640 1.8883 11.4173 4.7844 30.8476 8.0117
# 6 -10.0963 -15.1985 2.5880 -4.1018 8.0117 47.4151
#
#
#
# Elastic Compliance Matrix: (Units=1/GPa)
#
#
# Indices 1 2 3 4 5 6 
#
# 1 0.015870 -0.005681 -0.000741 -0.003115 -0.010378 0.003083
# 2 -0.005681 0.019406 -0.005031 0.003201 0.002674 0.005110
# 3 -0.000741 -0.005031 0.012653 -0.010654 -0.001407 -0.003145
# 4 -0.003115 0.003201 -0.010654 0.031207 0.000061 0.003633
# 5 -0.010378 0.002674 -0.001407 0.000061 0.041920 -0.008354
# 6 0.003083 0.005110 -0.003145 0.003633 -0.008354 0.025282
#
#
# Mechanical properties :
#
#
# Convention : Reuss Voigt Hill
#
# Bulk Modulus (GPa) = 39.96027 57.09069 48.52548
# Shear Modulus (GPa) = 28.15571 38.81180 33.48375
#
# Velocity S-wave (km/s) = 3.33520 3.91580 3.63711
# Velocity P-wave (km/s) = 5.53341 6.55741 6.06706
#
# Compressibility (1/GPa) = 0.02502486
#
# Stress axis : x y z
#
# Youngs Moduli (GPa) = 63.01336 51.53008 79.03183
#
# Poissons Ratio (x) = 0.29272 0.05855
# Poissons Ratio (y) = 0.35795 0.39759
# Poissons Ratio (z) = 0.04668 0.25923
#
# Static dielectric constant tensor:
#      x y z
#    x 2.048520 0.009410 0.004800 
#    y 0.009410 1.996300 0.051920 
#    z 0.004800 0.051920 2.059440 
# 
# From -- ./inp_files/322738.got.cif
#   From: 2010.05.17/outbox.cif.g08.bks.cpg/sg2_162_cif.got.tgz:322738.got - 2010.06.03 11:33:40.
