data_PCOD9099548
_publ_section_title
;
Structure prediction by ZEFSAII (Michael W. Deem and Ramdas Pophale) SiO2 
 PCOD9099548
Probable space group: P -1
;
_chemical_formula_sum "Si O2"
_cell_formula_units_Z 10
_cell_length_a 12.412475
_cell_length_b 12.615102
_cell_length_c 8.847236
_cell_angle_alpha 100.475900
_cell_angle_beta 105.652874
_cell_angle_gamma 22.911299
_cell_volume 511.032929
_symmetry_space_group_name_H-M "P -1"
_symmetry_group_IT_number 2
_symmetry_cell_setting 'triclinic'
loop_
_space_group_symop_operation_xyz
x,y,z
-x,-y,-z
loop_
_atom_site_type_symbol
_atom_site_label
_atom_site_fract_x
_atom_site_fract_y
_atom_site_fract_z
Si Si1 0.345580 0.222414 0.706531
Si Si2 0.053713 0.347143 0.082968
Si Si3 0.057713 0.064357 0.608718
Si Si4 0.332103 0.444341 0.217852
Si Si5 0.607667 0.058236 0.455916
O O1 0.286859 0.153618 0.607135
O O2 0.610952 0.977547 0.861029
O O3 0.075875 0.512592 0.764405
O O4 0.467112 0.179084 0.597948
O O5 0.872516 0.411481 0.955867
O O6 0.000000 0.500000 0.000000
O O7 0.800440 0.342359 0.678439
O O8 0.339684 0.815860 0.759038
O O9 0.147712 0.069528 0.512544
O O10 0.000000 0.000000 0.500000
O O11 0.369480 0.308436 0.309034
#
# Coordination Sequence:
#
# PCOD9099548 Si02
#       5
#     2   2   2   2   2
#     4  11  23  34  57  83 121 144 173 228 273 333
#     4  12  21  36  54  83 116 151 177 217 281 330
#     4  10  20  37  61  82 104 142 193 235 263 313
#     4  10  21  35  58  83 108 140 192 222 269 332
#     4   9  23  35  57  85 112 144 189 218 275 321
#
# _framework density 19.568211000000002
#
# number of rings (size 3 to 8) (size 9 to 14) (size 15 to 20)
#    1.200    0.400    2.000    3.600    2.800    1.600 
#    0.000    0.000    0.000    7.200    0.000    0.000 
#    0.000    0.000    0.000    0.000    0.000    0.000 
#
# Total GULP energy -55810.666372 kJ/mol
# GULP energy per Si atom -5581.066637 kJ/mol
# Density = 1.952367 g / cm^3
# Si number density = 19.568211 Si / 1000 Ang^3
#
#
#
# Elastic Constant Matrix: (Units=GPa)
#
#
# Indices 1 2 3 4 5 6 
#
# 1 52.9386 -8.2603 14.9350 1.0130 11.2919 2.0563
# 2 -8.2603 54.8823 -8.3910 6.4686 -0.9527 -0.8503
# 3 14.9350 -8.3910 58.6881 2.7664 7.7531 7.9067
# 4 1.0130 6.4686 2.7664 41.0293 -3.5641 7.2970
# 5 11.2919 -0.9527 7.7531 -3.5641 25.9585 4.2896
# 6 2.0563 -0.8503 7.9067 7.2970 4.2896 15.7503
#
#
#
# Elastic Compliance Matrix: (Units=1/GPa)
#
#
# Indices 1 2 3 4 5 6 
#
# 1 0.022436 0.002827 -0.004392 -0.001995 -0.009085 0.002827
# 2 0.002827 0.019431 0.002254 -0.003790 -0.002016 0.001853
# 3 -0.004392 0.002254 0.019982 -0.000314 -0.002617 -0.008478
# 4 -0.001995 -0.003790 -0.000314 0.028304 0.007163 -0.014850
# 5 -0.009085 -0.002016 -0.002617 0.007163 0.046408 -0.013567
# 6 0.002827 0.001853 -0.008478 -0.014850 -0.013567 0.078053
#
#
# Mechanical properties :
#
#
# Convention : Reuss Voigt Hill
#
# Bulk Modulus (GPa) = 15.81599 18.11959 16.96779
# Shear Modulus (GPa) = 21.33904 27.76262 24.55083
#
# Velocity S-wave (km/s) = 3.30585 3.77073 3.54592
# Velocity P-wave (km/s) = 4.76146 5.31392 5.04526
#
# Compressibility (1/GPa) = 0.06322715
#
# Stress axis : x y z
#
# Youngs Moduli (GPa) = 44.57075 51.46326 50.04535
#
# Poissons Ratio (x) = -0.14547 0.21980
# Poissons Ratio (y) = -0.12599 -0.11281
# Poissons Ratio (z) = 0.19576 -0.11601
#
# Static dielectric constant tensor:
#      x y z
#    x 1.673540 -0.004060 -0.011290 
#    y -0.004060 1.699940 -0.042420 
#    z -0.011290 -0.042420 1.690340 
# 
# From -- ./inp_files/19084.got.cif
#   From: 2010.05.17/outbox.cif.g08.bks.cpg/sg2_10_cif.got.tgz:19084.got - 2010.06.03 11:33:40.
