data_PCOD9099970
_publ_section_title
;
Structure prediction by ZEFSAII (Michael W. Deem and Ramdas Pophale) SiO2 
 PCOD9099970
Probable space group: P -1
;
_chemical_formula_sum "Si O2"
_cell_formula_units_Z 14
_cell_length_a 8.825775
_cell_length_b 8.347060
_cell_length_c 8.629090
_cell_angle_alpha 88.033546
_cell_angle_beta 92.898525
_cell_angle_gamma 71.406427
_cell_volume 600.892315
_symmetry_space_group_name_H-M "P -1"
_symmetry_group_IT_number 2
_symmetry_cell_setting 'triclinic'
loop_
_space_group_symop_operation_xyz
x,y,z
-x,-y,-z
loop_
_atom_site_type_symbol
_atom_site_label
_atom_site_fract_x
_atom_site_fract_y
_atom_site_fract_z
Si Si1 0.009234 0.646001 0.609852
Si Si2 0.880599 0.125073 0.629804
Si Si3 0.100183 0.617024 0.944815
Si Si4 0.138619 0.064245 0.899444
Si Si5 0.669333 0.271965 0.885755
Si Si6 0.414843 0.146780 0.734395
Si Si7 0.682733 0.872663 0.614204
O O1 0.834458 0.719846 0.678099
O O2 0.000000 0.500000 0.500000
O O3 0.054998 0.785108 0.505501
O O4 0.123053 0.596190 0.763243
O O5 0.765222 0.264317 0.730765
O O6 0.028404 0.030604 0.755228
O O7 0.766275 0.017198 0.578467
O O8 0.277210 0.590247 0.022585
O O9 0.000000 0.500000 0.000000
O O10 0.983606 0.800845 0.997187
O O11 0.258475 0.143993 0.816077
O O12 0.248974 0.902777 0.005939
O O13 0.498934 0.264113 0.823155
O O14 0.378211 0.182339 0.548141
O O15 0.546817 0.957310 0.729801
#
# Coordination Sequence:
#
# PCOD9099970 Si02
#       7
#     2   2   2   2   2   2   2
#     4  12  23  38  64  88 117 157 204 250 294 348
#     4  10  20  37  62  89 117 155 209 250 287 344
#     4  11  24  40  62  88 119 155 205 250 294 354
#     4  11  20  38  63  91 122 155 199 250 299 345
#     4  10  21  38  59  92 120 156 196 250 298 351
#     4  10  21  36  62  91 130 152 195 246 304 358
#     4  10  21  37  62  95 120 154 202 249 294 348
#
# _framework density 23.298681999999999
#
# number of rings (size 3 to 8) (size 9 to 14) (size 15 to 20)
#    0.000    1.429    1.429    6.857    2.000    0.000 
#    0.000    0.714    0.000   12.000    0.000    0.000 
#    0.000    0.000    0.000    0.000    0.000    0.000 
#
# Total GULP energy -78132.381991 kJ/mol
# GULP energy per Si atom -5580.884428 kJ/mol
# Density = 2.324565 g / cm^3
# Si number density = 23.298682 Si / 1000 Ang^3
#
#
#
# Elastic Constant Matrix: (Units=GPa)
#
#
# Indices 1 2 3 4 5 6 
#
# 1 129.4542 4.1761 46.2974 13.4177 20.8699 21.6297
# 2 4.1761 39.4986 26.0916 12.9831 12.5040 15.6447
# 3 46.2974 26.0916 135.7664 18.9889 16.5334 29.3133
# 4 13.4177 12.9831 18.9889 31.5992 8.8267 2.3335
# 5 20.8699 12.5040 16.5334 8.8267 49.9625 17.3898
# 6 21.6297 15.6447 29.3133 2.3335 17.3898 30.6408
#
#
#
# Elastic Compliance Matrix: (Units=1/GPa)
#
#
# Indices 1 2 3 4 5 6 
#
# 1 0.010089 0.004666 -0.002280 -0.003869 -0.001866 -0.005969
# 2 0.004666 0.039441 -0.002921 -0.014550 -0.001851 -0.018479
# 3 -0.002280 -0.002921 0.010777 -0.004169 0.001561 -0.007777
# 4 -0.003869 -0.014550 -0.004169 0.042340 -0.005789 0.014209
# 5 -0.001866 -0.001851 0.001561 -0.005789 0.026597 -0.013884
# 6 -0.005969 -0.018479 -0.007777 0.014209 -0.013884 0.060523
#
#
# Mechanical properties :
#
#
# Convention : Reuss Voigt Hill
#
# Bulk Modulus (GPa) = 16.88118 50.87217 33.87667
# Shear Modulus (GPa) = 23.74384 37.65077 30.69731
#
# Velocity S-wave (km/s) = 3.19581 4.02432 3.63375
# Velocity P-wave (km/s) = 4.56934 6.59361 5.67250
#
# Compressibility (1/GPa) = 0.05923756
#
# Stress axis : x y z
#
# Youngs Moduli (GPa) = 99.11919 25.35435 92.79302
#
# Poissons Ratio (x) = -0.11831 0.21156
# Poissons Ratio (y) = -0.46252 0.27103
# Poissons Ratio (z) = 0.22598 0.07406
#
# Static dielectric constant tensor:
#      x y z
#    x 1.891970 -0.040920 0.041670 
#    y -0.040920 1.965810 0.032560 
#    z 0.041670 0.032560 1.892750 
# 
# From -- ./inp_files/154020.got.cif
#   From: 2010.05.17/outbox.cif.g08.bks.cpg/sg2_78_cif.got.tgz:154020.got - 2010.06.03 11:33:40.
