data_PCOD9099276
_publ_section_title
;
Structure prediction by ZEFSAII (Michael W. Deem and Ramdas Pophale) SiO2 
 PCOD9099276
Probable space group: P -1
;
_chemical_formula_sum "Si O2"
_cell_formula_units_Z 16
_cell_length_a 14.698438
_cell_length_b 16.210796
_cell_length_c 14.461271
_cell_angle_alpha 49.844759
_cell_angle_beta 160.350325
_cell_angle_gamma 133.691814
_cell_volume 837.580615
_symmetry_space_group_name_H-M "P -1"
_symmetry_group_IT_number 2
_symmetry_cell_setting 'triclinic'
loop_
_space_group_symop_operation_xyz
x,y,z
-x,-y,-z
loop_
_atom_site_type_symbol
_atom_site_label
_atom_site_fract_x
_atom_site_fract_y
_atom_site_fract_z
Si Si1 0.397915 0.706471 0.411577
Si Si2 0.842066 0.810057 0.421411
Si Si3 0.487680 0.149390 0.763927
Si Si4 0.348904 0.031453 0.201999
Si Si5 0.532870 0.094195 0.128339
Si Si6 0.277505 0.114632 0.266162
Si Si7 0.793460 0.569937 0.857480
Si Si8 0.025189 0.641629 0.827233
O O1 0.544044 0.797592 0.404274
O O2 0.517691 0.770888 0.574272
O O3 0.061894 0.662709 0.098704
O O4 0.510137 0.598783 0.588771
O O5 0.132931 0.867634 0.602691
O O6 0.852251 0.687749 0.553418
O O7 0.789560 0.869976 0.423072
O O8 0.596898 0.822657 0.111183
O O9 0.573236 0.036510 0.914870
O O10 0.733818 0.247374 0.981377
O O11 0.441860 0.089477 0.150927
O O12 0.294462 0.110557 0.174291
O O13 0.598180 0.983408 0.508152
O O14 0.052809 0.924899 0.989990
O O15 0.825768 0.448377 0.998705
O O16 0.836259 0.587111 0.775324
#
# Coordination Sequence:
#
# PCOD9099276 Si02
#       8
#     2   2   2   2   2   2   2   2
#     4  11  21  35  59  84 107 147 176 234 278 336
#     4  12  24  37  52  79 114 157 189 222 258 328
#     4  11  23  36  55  79 119 151 189 219 264 330
#     4  10  21  37  57  84 111 149 176 229 270 337
#     4  12  25  35  55  81 116 153 189 213 270 331
#     4  10  20  37  60  82 114 138 184 225 287 324
#     4  10  23  36  57  78 110 141 194 229 284 313
#     4  10  23  38  53  78 110 152 186 237 265 316
#
# _framework density 19.102639
#
# number of rings (size 3 to 8) (size 9 to 14) (size 15 to 20)
#    0.000    1.250    3.750    2.250    5.250    1.500 
#    0.000    0.000    0.000    0.000    0.000    5.250 
#    0.000    0.000    0.000    0.000    0.000    0.000 
#
# Total GULP energy -89387.188353 kJ/mol
# GULP energy per Si atom -5586.699272 kJ/mol
# Density = 1.905916 g / cm^3
# Si number density = 19.102639 Si / 1000 Ang^3
#
#
#
# Elastic Constant Matrix: (Units=GPa)
#
#
# Indices 1 2 3 4 5 6 
#
# 1 93.7507 23.4348 21.8702 -0.7252 -5.8068 5.5035
# 2 23.4348 44.0056 2.7937 -7.1972 -11.3933 -2.3194
# 3 21.8702 2.7937 68.2941 -3.0979 4.6679 6.1828
# 4 -0.7252 -7.1972 -3.0979 38.4084 5.8967 -5.3473
# 5 -5.8068 -11.3933 4.6679 5.8967 22.0793 1.3586
# 6 5.5035 -2.3194 6.1828 -5.3473 1.3586 16.3015
#
#
#
# Elastic Compliance Matrix: (Units=1/GPa)
#
#
# Indices 1 2 3 4 5 6 
#
# 1 0.013788 -0.007343 -0.003867 -0.002392 0.001611 -0.005152
# 2 -0.007343 0.031039 -0.000228 0.004805 0.012387 0.007526
# 3 -0.003867 -0.000228 0.016658 0.001375 -0.004766 -0.004197
# 4 -0.002392 0.004805 0.001375 0.029657 -0.007055 0.011286
# 5 0.001611 0.012387 -0.004766 -0.007055 0.055238 -0.003892
# 6 -0.005152 0.007526 -0.004197 0.011286 -0.003892 0.069772
#
#
# Mechanical properties :
#
#
# Convention : Reuss Voigt Hill
#
# Bulk Modulus (GPa) = 25.90103 33.58309 29.74206
# Shear Modulus (GPa) = 19.84925 25.88794 22.86860
#
# Velocity S-wave (km/s) = 3.22698 3.68530 3.46373
# Velocity P-wave (km/s) = 5.24145 5.97721 5.62139
#
# Compressibility (1/GPa) = 0.03860850
#
# Stress axis : x y z
#
# Youngs Moduli (GPa) = 72.52726 32.21755 60.02994
#
# Poissons Ratio (x) = 0.23657 0.23215
# Poissons Ratio (y) = 0.53256 0.01370
# Poissons Ratio (z) = 0.28048 0.00735
#
# Static dielectric constant tensor:
#      x y z
#    x 1.677330 -0.000740 0.010260 
#    y -0.000740 1.694360 0.020830 
#    z 0.010260 0.020830 1.696720 
# 
# From -- ./inp_files/74636.got.cif
#   From: 2010.05.17/outbox.cif.g08.bks.cpg/sg2_38_cif.got.tgz:74636.got - 2010.06.03 11:33:40.
