data_PCOD9099523
_publ_section_title
;
Structure prediction by ZEFSAII (Michael W. Deem and Ramdas Pophale) SiO2 
 PCOD9099523
Probable space group: P -1
;
_chemical_formula_sum "Si O2"
_cell_formula_units_Z 16
_cell_length_a 6.267264
_cell_length_b 10.995233
_cell_length_c 12.609333
_cell_angle_alpha 106.480736
_cell_angle_beta 73.010028
_cell_angle_gamma 125.989309
_cell_volume 665.295525
_symmetry_space_group_name_H-M "P -1"
_symmetry_group_IT_number 2
_symmetry_cell_setting 'triclinic'
loop_
_space_group_symop_operation_xyz
x,y,z
-x,-y,-z
loop_
_atom_site_type_symbol
_atom_site_label
_atom_site_fract_x
_atom_site_fract_y
_atom_site_fract_z
Si Si1 0.159640 0.245545 0.636414
Si Si2 0.568131 0.016616 0.618732
Si Si3 0.357789 0.082930 0.080580
Si Si4 0.424605 0.278709 0.397897
Si Si5 0.225689 0.298062 0.061091
Si Si6 0.206343 0.418157 0.878925
Si Si7 0.951662 0.028688 0.291972
Si Si8 0.157186 0.625730 0.800330
O O1 0.356149 0.325395 0.529123
O O2 0.255219 0.342281 0.753337
O O3 0.137611 0.089198 0.627730
O O4 0.848764 0.175459 0.637137
O O5 0.326158 0.003524 0.716664
O O6 0.500000 0.000000 0.500000
O O7 0.568248 0.870182 0.616607
O O8 0.241419 0.151736 0.033043
O O9 0.590341 0.230493 0.144767
O O10 0.120866 0.995923 0.178851
O O11 0.500000 0.000000 0.000000
O O12 0.701578 0.395355 0.326856
O O13 0.156347 0.201189 0.345171
O O14 0.522859 0.437377 0.078778
O O15 0.047152 0.324026 0.175360
O O16 0.110970 0.308780 0.967158
O O17 0.044829 0.483691 0.863138
#
# Coordination Sequence:
#
# PCOD9099523 Si02
#       8
#     2   2   2   2   2   2   2   2
#     4  11  22  37  60  97 130 167 216 263 311 386
#     4  11  18  36  64  90 129 176 203 255 327 388
#     4  10  23  41  66 100 128 160 214 276 327 387
#     4  10  20  37  60  93 132 165 209 262 325 378
#     4  10  22  47  68  88 126 175 221 266 328 380
#     4  10  24  43  64  92 124 176 226 268 312 377
#     4  10  20  38  59  94 132 165 204 256 330 388
#     4  10  22  42  66  90 129 176 211 270 324 376
#
# _framework density 24.049462999999999
#
# number of rings (size 3 to 8) (size 9 to 14) (size 15 to 20)
#    0.000    1.750    2.500    1.875    1.750    2.000 
#    6.750    0.625    0.000    0.000    0.000    0.000 
#    0.000    0.000    0.000    0.000    0.000    0.000 
#
# Total GULP energy -89318.387084 kJ/mol
# GULP energy per Si atom -5582.399193 kJ/mol
# Density = 2.399473 g / cm^3
# Si number density = 24.049463 Si / 1000 Ang^3
#
#
#
# Elastic Constant Matrix: (Units=GPa)
#
#
# Indices 1 2 3 4 5 6 
#
# 1 103.4152 23.4575 45.1073 -15.7506 -26.3576 -23.5601
# 2 23.4575 39.4981 27.6221 -15.3752 2.6936 -14.3150
# 3 45.1073 27.6221 148.2745 -14.8397 -17.9299 -12.7650
# 4 -15.7506 -15.3752 -14.8397 37.5059 3.2878 4.3331
# 5 -26.3576 2.6936 -17.9299 3.2878 47.3767 -0.2435
# 6 -23.5601 -14.3150 -12.7650 4.3331 -0.2435 29.9314
#
#
#
# Elastic Compliance Matrix: (Units=1/GPa)
#
#
# Indices 1 2 3 4 5 6 
#
# 1 0.016229 -0.004411 -0.002045 0.002363 0.008391 0.009519
# 2 -0.004411 0.041120 -0.004935 0.012290 -0.007449 0.012250
# 3 -0.002045 -0.004935 0.008576 0.000344 0.002363 -0.000343
# 4 0.002363 0.012290 0.000344 0.032596 -0.001500 0.003153
# 5 0.008391 -0.007449 0.002363 -0.001500 0.027221 0.004488
# 6 0.009519 0.012250 -0.000343 0.003153 0.004488 0.046195
#
#
# Mechanical properties :
#
#
# Convention : Reuss Voigt Hill
#
# Bulk Modulus (GPa) = 23.17785 53.72908 38.45346
# Shear Modulus (GPa) = 23.91210 35.96286 29.93748
#
# Velocity S-wave (km/s) = 3.15665 3.87120 3.53204
# Velocity P-wave (km/s) = 4.79004 6.50931 5.71470
#
# Compressibility (1/GPa) = 0.04314464
#
# Stress axis : x y z
#
# Youngs Moduli (GPa) = 61.61674 24.31930 116.60071
#
# Poissons Ratio (x) = 0.10727 0.23843
# Poissons Ratio (y) = 0.27178 0.57537
# Poissons Ratio (z) = 0.12600 0.12001
#
# Static dielectric constant tensor:
#      x y z
#    x 1.975490 -0.044750 -0.000520 
#    y -0.044750 1.949970 -0.041930 
#    z -0.000520 -0.041930 1.986610 
# 
# From -- ./inp_files/482231.got.cif
#   From: 2010.05.17/outbox.cif.g08.bks.cpg/sg2_242_cif.got.tgz:482231.got - 2010.06.03 11:33:40.
