data_PCOD9099338
_publ_section_title
;
Structure prediction by ZEFSAII (Michael W. Deem and Ramdas Pophale) SiO2 
 PCOD9099338
Probable space group: P -1
;
_chemical_formula_sum "Si O2"
_cell_formula_units_Z 16
_cell_length_a 16.015893
_cell_length_b 7.784069
_cell_length_c 19.388299
_cell_angle_alpha 128.017645
_cell_angle_beta 158.888928
_cell_angle_gamma 50.512299
_cell_volume 669.648948
_symmetry_space_group_name_H-M "P -1"
_symmetry_group_IT_number 2
_symmetry_cell_setting 'triclinic'
loop_
_space_group_symop_operation_xyz
x,y,z
-x,-y,-z
loop_
_atom_site_type_symbol
_atom_site_label
_atom_site_fract_x
_atom_site_fract_y
_atom_site_fract_z
Si Si1 0.377352 0.930964 0.780173
Si Si2 0.438112 0.766582 0.169943
Si Si3 0.725727 0.568788 0.227765
Si Si4 0.268328 0.928355 0.214496
Si Si5 0.016053 0.604550 0.737205
Si Si6 0.150488 0.109203 0.783781
Si Si7 0.374080 0.798333 0.597210
Si Si8 0.456640 0.302698 0.516367
O O1 0.356314 0.769932 0.660493
O O2 0.280359 0.176183 0.734247
O O3 0.236578 0.934490 0.744614
O O4 0.646917 0.916055 0.008994
O O5 0.653429 0.589004 0.256970
O O6 0.398031 0.746338 0.214555
O O7 0.473274 0.017415 0.249100
O O8 0.198408 0.746230 0.941239
O O9 0.949523 0.418900 0.324482
O O10 0.500000 0.500000 0.000000
O O11 0.389005 0.143333 0.366109
O O12 0.306012 0.818112 0.291508
O O13 0.000000 0.000000 0.000000
O O14 0.116422 0.357308 0.786215
O O15 0.759461 0.687319 0.592606
O O16 0.892181 0.097967 0.607911
O O17 0.459267 0.558839 0.568554
#
# Coordination Sequence:
#
# PCOD9099338 Si02
#       8
#     2   2   2   2   2   2   2   2
#     4   9  17  31  54  80 117 161 194 226 283 339
#     4  10  20  37  60  85 121 156 183 240 295 335
#     4   8  16  32  55  82 122 153 183 230 286 337
#     4  11  23  43  65  83 112 151 202 244 287 352
#     4   9  17  36  62  84 118 155 191 234 282 352
#     4   9  18  32  55  84 114 159 199 229 272 347
#     4  10  21  36  55  87 119 143 189 249 290 333
#     4  10  23  40  64  88 108 153 200 240 289 344
#
# _framework density 23.893115000000002
#
# number of rings (size 3 to 8) (size 9 to 14) (size 15 to 20)
#    0.000    2.500    1.250    0.375    1.750    1.500 
#    6.750    1.250    0.000    0.000    0.000    0.000 
#    0.000    0.000    0.000    0.000    0.000    0.000 
#
# Total GULP energy -89354.286875 kJ/mol
# GULP energy per Si atom -5584.642930 kJ/mol
# Density = 2.383873 g / cm^3
# Si number density = 23.893115 Si / 1000 Ang^3
#
#
#
# Elastic Constant Matrix: (Units=GPa)
#
#
# Indices 1 2 3 4 5 6 
#
# 1 60.6619 10.4832 13.9047 -0.9165 -12.5449 -30.2941
# 2 10.4832 85.3856 29.3044 15.3224 -4.7792 -1.0110
# 3 13.9047 29.3044 124.9263 2.4597 -14.6677 8.7650
# 4 -0.9165 15.3224 2.4597 33.5958 0.0496 -2.1363
# 5 -12.5449 -4.7792 -14.6677 0.0496 31.9381 16.9163
# 6 -30.2941 -1.0110 8.7650 -2.1363 16.9163 26.9590
#
#
#
# Elastic Compliance Matrix: (Units=1/GPa)
#
#
# Indices 1 2 3 4 5 6 
#
# 1 0.067390 -0.005002 -0.018831 0.012410 -0.040021 0.107757
# 2 -0.005002 0.014285 -0.001813 -0.006965 0.003032 -0.006950
# 3 -0.018831 -0.001813 0.015768 -0.003382 0.020490 -0.039480
# 4 0.012410 -0.006965 -0.003382 0.035084 -0.010602 0.024216
# 5 -0.040021 0.003032 0.020490 -0.010602 0.079689 -0.102364
# 6 0.107757 -0.006950 -0.039480 0.024216 -0.102364 0.236907
#
#
# Mechanical properties :
#
#
# Convention : Reuss Voigt Hill
#
# Bulk Modulus (GPa) = 21.66808 42.03983 31.85395
# Shear Modulus (GPa) = 9.69365 32.98399 21.33882
#
# Velocity S-wave (km/s) = 2.01641 3.71951 2.99171
# Velocity P-wave (km/s) = 3.80915 6.00662 5.02937
#
# Compressibility (1/GPa) = 0.04615084
#
# Stress axis : x y z
#
# Youngs Moduli (GPa) = 14.83902 70.00122 63.41798
#
# Poissons Ratio (x) = 0.35015 1.19422
# Poissons Ratio (y) = 0.07423 0.11501
# Poissons Ratio (z) = 0.27943 0.12695
#
# Static dielectric constant tensor:
#      x y z
#    x 2.019240 0.006600 0.009540 
#    y 0.006600 1.921190 0.012520 
#    z 0.009540 0.012520 1.914450 
# 
# From -- ./inp_files/599751.got.cif
#   From: 2010.05.17/outbox.cif.g08.bks.cpg/sg2_300_cif.got.tgz:599751.got - 2010.06.03 11:33:40.
