data_PCOD9099294
_publ_section_title
;
Structure prediction by ZEFSAII (Michael W. Deem and Ramdas Pophale) SiO2 
 PCOD9099294
Probable space group: P -1
;
_chemical_formula_sum "Si O2"
_cell_formula_units_Z 14
_cell_length_a 9.631297
_cell_length_b 6.745945
_cell_length_c 16.200592
_cell_angle_alpha 68.593881
_cell_angle_beta 71.250254
_cell_angle_gamma 43.557810
_cell_volume 672.623333
_symmetry_space_group_name_H-M "P -1"
_symmetry_group_IT_number 2
_symmetry_cell_setting 'triclinic'
loop_
_space_group_symop_operation_xyz
x,y,z
-x,-y,-z
loop_
_atom_site_type_symbol
_atom_site_label
_atom_site_fract_x
_atom_site_fract_y
_atom_site_fract_z
Si Si1 0.692182 0.565987 0.672069
Si Si2 0.377470 0.600931 0.635855
Si Si3 0.276710 0.988972 0.441469
Si Si4 0.046755 0.095385 0.316591
Si Si5 0.696562 0.773377 0.817637
Si Si6 0.945258 0.291107 0.987799
Si Si7 0.668509 0.793511 0.069545
O O1 0.495021 0.629472 0.674144
O O2 0.694324 0.637728 0.755360
O O3 0.709204 0.771275 0.587846
O O4 0.871052 0.222918 0.668972
O O5 0.290856 0.846420 0.544811
O O6 0.536246 0.285357 0.608477
O O7 0.187675 0.662660 0.696572
O O8 0.084569 0.119828 0.401695
O O9 0.179779 0.133483 0.235971
O O10 0.816661 0.526046 0.902873
O O11 0.468523 0.057433 0.845891
O O12 0.157047 0.203167 0.969953
O O13 0.800064 0.455867 0.070688
O O14 0.000000 0.000000 0.000000
O O15 0.500000 0.000000 0.000000
#
# Coordination Sequence:
#
# PCOD9099294 Si02
#       7
#     2   2   2   2   2   2   2
#     4  10  22  36  55  86 116 152 196 234 286 340
#     4  10  20  37  60  83 115 154 196 241 284 335
#     4   9  20  38  57  82 115 153 197 244 285 331
#     4  10  22  37  55  84 117 154 193 235 290 338
#     4  10  23  40  56  83 124 152 181 236 290 341
#     4  10  22  40  65  90 109 147 195 231 281 344
#     4   9  21  41  61  84 115 146 183 233 283 340
#
# _framework density 20.814026999999999
#
# number of rings (size 3 to 8) (size 9 to 14) (size 15 to 20)
#    0.000    2.286    0.000    0.857    0.000   14.286 
#    0.000    0.000    0.000    0.000    0.000    0.000 
#    0.000    0.000    0.000    0.000    0.000    0.000 
#
# Total GULP energy -78182.087677 kJ/mol
# GULP energy per Si atom -5584.434834 kJ/mol
# Density = 2.076665 g / cm^3
# Si number density = 20.814027 Si / 1000 Ang^3
#
#
#
# Elastic Constant Matrix: (Units=GPa)
#
#
# Indices 1 2 3 4 5 6 
#
# 1 110.8127 71.8425 16.4905 14.5430 -10.9924 -10.7801
# 2 71.8425 115.1879 25.0157 -3.4827 -12.2283 12.7962
# 3 16.4905 25.0157 48.0567 -2.0429 -1.1079 -7.0953
# 4 14.5430 -3.4827 -2.0429 30.3135 -4.7366 -3.3259
# 5 -10.9924 -12.2283 -1.1079 -4.7366 22.4766 0.3059
# 6 -10.7801 12.7962 -7.0953 -3.3259 0.3059 37.1458
#
#
#
# Elastic Compliance Matrix: (Units=1/GPa)
#
#
# Indices 1 2 3 4 5 6 
#
# 1 0.020744 -0.014806 0.001695 -0.010411 -0.000164 0.010514
# 2 -0.014806 0.021912 -0.007668 0.008709 0.006309 -0.012582
# 3 0.001695 -0.007668 0.025383 0.000575 -0.002080 0.008050
# 4 -0.010411 0.008709 0.000575 0.040033 0.008144 -0.002395
# 5 -0.000164 0.006309 -0.002080 0.008144 0.049488 -0.002296
# 6 0.010514 -0.012582 0.008050 -0.002395 -0.002296 0.035649
#
#
# Mechanical properties :
#
#
# Convention : Reuss Voigt Hill
#
# Bulk Modulus (GPa) = 37.76131 55.63943 46.70037
# Shear Modulus (GPa) = 20.52595 28.70107 24.61351
#
# Velocity S-wave (km/s) = 3.14372 3.71742 3.44254
# Velocity P-wave (km/s) = 5.59991 6.72424 6.18766
#
# Compressibility (1/GPa) = 0.02648213
#
# Stress axis : x y z
#
# Youngs Moduli (GPa) = 48.20623 45.63673 39.39568
#
# Poissons Ratio (x) = 0.67571 -0.06678
# Poissons Ratio (y) = 0.71376 0.30207
# Poissons Ratio (z) = -0.08171 0.34992
#
# Static dielectric constant tensor:
#      x y z
#    x 1.736730 -0.011100 0.031440 
#    y -0.011100 1.725580 0.010560 
#    z 0.031440 0.010560 1.829670 
# 
# From -- ./inp_files/7558.got.cif
#   From: 2010.05.17/outbox.cif.g08.bks.cpg/sg2_4_cif.got.tgz:7558.got - 2010.06.03 11:33:40.
