data_PCOD9099784
_publ_section_title
;
Structure prediction by ZEFSAII (Michael W. Deem and Ramdas Pophale) SiO2 
 PCOD9099784
Probable space group: P -1
;
_chemical_formula_sum "Si O2"
_cell_formula_units_Z 14
_cell_length_a 12.609829
_cell_length_b 9.474081
_cell_length_c 12.383448
_cell_angle_alpha 63.664870
_cell_angle_beta 46.020461
_cell_angle_gamma 33.289953
_cell_volume 548.128274
_symmetry_space_group_name_H-M "P -1"
_symmetry_group_IT_number 2
_symmetry_cell_setting 'triclinic'
loop_
_space_group_symop_operation_xyz
x,y,z
-x,-y,-z
loop_
_atom_site_type_symbol
_atom_site_label
_atom_site_fract_x
_atom_site_fract_y
_atom_site_fract_z
Si Si1 0.796129 0.504238 0.478559
Si Si2 0.451348 0.852296 0.794651
Si Si3 0.648799 0.398759 0.096284
Si Si4 0.042153 0.586760 0.175194
Si Si5 0.783626 0.778970 0.989304
Si Si6 0.919035 0.976228 0.705634
Si Si7 0.335191 0.739392 0.625583
O O1 0.704961 0.605041 0.630775
O O2 0.948536 0.528866 0.336517
O O3 0.952970 0.210756 0.430361
O O4 0.524461 0.718161 0.531772
O O5 0.359978 0.754849 0.911919
O O6 0.223027 0.132622 0.792425
O O7 0.455864 0.956266 0.860986
O O8 0.723124 0.291278 0.205789
O O9 0.826907 0.361155 0.916340
O O10 0.630886 0.284801 0.794888
O O11 0.256916 0.314066 0.041348
O O12 0.000000 0.500000 0.000000
O O13 0.913330 0.822447 0.835423
O O14 0.076408 0.972054 0.660342
O O15 0.500000 0.500000 0.500000
#
# Coordination Sequence:
#
# PCOD9099784 Si02
#       7
#     2   2   2   2   2   2   2
#     4   9  20  36  62  92 125 166 209 262 319 375
#     4  10  20  37  61  92 126 164 211 263 315 373
#     4  11  23  38  67  96 126 167 213 265 313 379
#     4  10  20  38  62  90 124 167 212 258 320 380
#     4   9  19  36  60  87 125 166 207 257 310 375
#     4  10  21  39  64  95 127 167 216 257 315 385
#     4   9  19  37  60  90 125 165 207 256 313 372
#
# _framework density 25.541464999999999
#
# number of rings (size 3 to 8) (size 9 to 14) (size 15 to 20)
#    0.000    2.286    0.000    2.571    0.000   10.286 
#    0.000    0.000    0.000   18.000    0.000    0.000 
#    0.000    0.000    0.000    0.000    0.000    0.000 
#
# Total GULP energy -78177.953381 kJ/mol
# GULP energy per Si atom -5584.139527 kJ/mol
# Density = 2.548333 g / cm^3
# Si number density = 25.541465 Si / 1000 Ang^3
#
#
#
# Elastic Constant Matrix: (Units=GPa)
#
#
# Indices 1 2 3 4 5 6 
#
# 1 93.4931 31.4594 41.4532 5.6764 -1.6558 -3.6582
# 2 31.4594 132.6212 68.9432 16.9391 13.4096 14.3435
# 3 41.4532 68.9432 124.5339 9.6325 -6.2642 22.0234
# 4 5.6764 16.9391 9.6325 47.0394 16.5349 -5.4853
# 5 -1.6558 13.4096 -6.2642 16.5349 29.9626 6.4857
# 6 -3.6582 14.3435 22.0234 -5.4853 6.4857 32.9441
#
#
#
# Elastic Compliance Matrix: (Units=1/GPa)
#
#
# Indices 1 2 3 4 5 6 
#
# 1 0.013461 -0.001186 -0.005035 0.001104 -0.001662 0.005888
# 2 -0.001186 0.011919 -0.006546 -0.000468 -0.006568 0.000270
# 3 -0.005035 -0.006546 0.016568 -0.006112 0.012127 -0.012190
# 4 0.001104 -0.000468 -0.006112 0.031744 -0.021542 0.013939
# 5 -0.001662 -0.006568 0.012127 -0.021542 0.054940 -0.019835
# 6 0.005888 0.000270 -0.012190 0.013939 -0.019835 0.045266
#
#
# Mechanical properties :
#
#
# Convention : Reuss Voigt Hill
#
# Bulk Modulus (GPa) = 60.91506 70.48444 65.69975
# Shear Modulus (GPa) = 24.40196 35.90870 30.15533
#
# Velocity S-wave (km/s) = 3.09429 3.75360 3.43977
# Velocity P-wave (km/s) = 6.05536 6.81484 6.44629
#
# Compressibility (1/GPa) = 0.01641630
#
# Stress axis : x y z
#
# Youngs Moduli (GPa) = 74.28829 83.89875 60.35673
#
# Poissons Ratio (x) = 0.09948 0.30387
# Poissons Ratio (y) = 0.08808 0.39508
# Poissons Ratio (z) = 0.37401 0.54918
#
# Static dielectric constant tensor:
#      x y z
#    x 2.071800 -0.031920 0.057190 
#    y -0.031920 2.005080 -0.010310 
#    z 0.057190 -0.010310 2.054400 
# 
# From -- ./inp_files/600883.got.cif
#   From: 2010.05.17/outbox.cif.g08.bks.cpg/sg2_301_cif.got.tgz:600883.got - 2010.06.03 11:33:40.
