data_PCOD9099341
_publ_section_title
;
Structure prediction by ZEFSAII (Michael W. Deem and Ramdas Pophale) SiO2 
 PCOD9099341
Probable space group: P -1
;
_chemical_formula_sum "Si O2"
_cell_formula_units_Z 16
_cell_length_a 11.773867
_cell_length_b 9.691769
_cell_length_c 16.205206
_cell_angle_alpha 122.771438
_cell_angle_beta 144.826363
_cell_angle_gamma 80.837728
_cell_volume 726.602799
_symmetry_space_group_name_H-M "P -1"
_symmetry_group_IT_number 2
_symmetry_cell_setting 'triclinic'
loop_
_space_group_symop_operation_xyz
x,y,z
-x,-y,-z
loop_
_atom_site_type_symbol
_atom_site_label
_atom_site_fract_x
_atom_site_fract_y
_atom_site_fract_z
Si Si1 0.824749 0.438645 0.796499
Si Si2 0.771914 0.258969 0.467720
Si Si3 0.287335 0.953502 0.469773
Si Si4 0.029441 0.618707 0.638735
Si Si5 0.757149 0.757857 0.067975
Si Si6 0.494346 0.120310 0.916919
Si Si7 0.694140 0.340544 0.930201
Si Si8 0.514325 0.426735 0.317863
O O1 0.686754 0.201100 0.617700
O O2 0.638560 0.495935 0.715555
O O3 0.000000 0.500000 0.000000
O O4 0.025338 0.576274 0.889542
O O5 0.796791 0.156493 0.526557
O O6 0.573604 0.307934 0.378347
O O7 0.012270 0.469026 0.650829
O O8 0.682744 0.112014 0.289023
O O9 0.046186 0.924252 0.283937
O O10 0.521722 0.175698 0.703186
O O11 0.000000 0.500000 0.500000
O O12 0.784601 0.602823 0.502331
O O13 0.279606 0.827308 0.875280
O O14 0.646408 0.813328 0.092298
O O15 0.703237 0.540530 0.987741
O O16 0.627282 0.718626 0.890748
O O17 0.584641 0.230829 0.916888
#
# Coordination Sequence:
#
# PCOD9099341 Si02
#       8
#     2   2   2   2   2   2   2   2
#     4  11  21  43  63  86 126 153 204 258 295 354
#     4   9  23  40  58  90 128 154 201 248 300 359
#     4  10  22  42  62  91 119 163 200 251 304 355
#     4  10  20  37  60  85 124 162 198 237 304 356
#     4  11  21  39  63  92 125 156 201 251 302 351
#     4  11  21  41  62  91 125 160 200 253 296 361
#     4  10  23  39  63  92 117 159 206 247 302 362
#     4  10  22  42  58  91 124 160 198 249 304 348
#
# _framework density 22.020284
#
# number of rings (size 3 to 8) (size 9 to 14) (size 15 to 20)
#    0.750    1.000    3.750    1.875    0.000    6.000 
#    4.500    1.250    0.000    0.000    0.000    0.000 
#    0.000    0.000    0.000    0.000    0.000    0.000 
#
# Total GULP energy -89303.529842 kJ/mol
# GULP energy per Si atom -5581.470615 kJ/mol
# Density = 2.197016 g / cm^3
# Si number density = 22.020284 Si / 1000 Ang^3
#
#
#
# Elastic Constant Matrix: (Units=GPa)
#
#
# Indices 1 2 3 4 5 6 
#
# 1 83.2939 5.0950 16.0472 16.8781 -2.8529 -33.2196
# 2 5.0950 31.4235 16.0598 10.9048 2.9917 -8.3812
# 3 16.0472 16.0598 147.7100 17.8924 -19.2077 -26.1957
# 4 16.8781 10.9048 17.8924 27.9697 2.1883 -3.6335
# 5 -2.8529 2.9917 -19.2077 2.1883 30.8332 -0.5796
# 6 -33.2196 -8.3812 -26.1957 -3.6335 -0.5796 45.8386
#
#
#
# Elastic Compliance Matrix: (Units=1/GPa)
#
#
# Indices 1 2 3 4 5 6 
#
# 1 0.020636 0.004101 0.002387 -0.013831 0.004281 0.016027
# 2 0.004101 0.039979 -0.001968 -0.015507 -0.003477 0.007884
# 3 0.002387 -0.001968 0.009549 -0.006493 0.006941 0.006400
# 4 -0.013831 -0.015507 -0.006493 0.053295 -0.007837 -0.012444
# 5 0.004281 -0.003477 0.006941 -0.007837 0.038165 0.006295
# 6 0.016027 0.007884 0.006400 -0.012444 0.006295 0.037622
#
#
# Mechanical properties :
#
#
# Convention : Reuss Voigt Hill
#
# Bulk Modulus (GPa) = 12.62565 37.42573 25.02569
# Shear Modulus (GPa) = 23.08320 35.94334 29.51327
#
# Velocity S-wave (km/s) = 3.24121 4.04454 3.66495
# Velocity P-wave (km/s) = 4.44448 6.23249 5.41282
#
# Compressibility (1/GPa) = 0.07920386
#
# Stress axis : x y z
#
# Youngs Moduli (GPa) = 48.45870 25.01307 104.72505
#
# Poissons Ratio (x) = -0.10258 -0.24993
# Poissons Ratio (y) = -0.19874 0.20608
# Poissons Ratio (z) = -0.11565 0.04922
#
# Static dielectric constant tensor:
#      x y z
#    x 1.834070 0.039850 -0.009920 
#    y 0.039850 1.814240 -0.001370 
#    z -0.009920 -0.001370 1.803920 
# 
# From -- ./inp_files/568824.got.cif
#   From: 2010.05.17/outbox.cif.g08.bks.cpg/sg2_285_cif.got.tgz:568824.got - 2010.06.03 11:33:40.
