data_PCOD9099897
_publ_section_title
;
Structure prediction by ZEFSAII (Michael W. Deem and Ramdas Pophale) SiO2 
 PCOD9099897
Probable space group: P -1
;
_chemical_formula_sum "Si O2"
_cell_formula_units_Z 16
_cell_length_a 14.253079
_cell_length_b 7.548883
_cell_length_c 9.508635
_cell_angle_alpha 83.647651
_cell_angle_beta 97.388645
_cell_angle_gamma 40.618249
_cell_volume 625.202872
_symmetry_space_group_name_H-M "P -1"
_symmetry_group_IT_number 2
_symmetry_cell_setting 'triclinic'
loop_
_space_group_symop_operation_xyz
x,y,z
-x,-y,-z
loop_
_atom_site_type_symbol
_atom_site_label
_atom_site_fract_x
_atom_site_fract_y
_atom_site_fract_z
Si Si1 0.288238 0.867044 0.698684
Si Si2 0.894741 0.379454 0.967529
Si Si3 0.843263 0.316346 0.262383
Si Si4 0.578641 0.319348 0.674677
Si Si5 0.067405 0.280193 0.407627
Si Si6 0.126848 0.254808 0.893745
Si Si7 0.318284 0.464328 0.318137
Si Si8 0.565450 0.835512 0.338553
O O1 0.178958 0.855504 0.688751
O O2 0.459946 0.547175 0.755829
O O3 0.238308 0.015707 0.522450
O O4 0.245594 0.043754 0.811219
O O5 0.808672 0.435037 0.811194
O O6 0.065903 0.176532 0.973111
O O7 0.877324 0.279418 0.107294
O O8 0.825783 0.664551 0.995005
O O9 0.682002 0.646243 0.248183
O O10 0.975548 0.231752 0.373541
O O11 0.500000 0.500000 0.500000
O O12 0.705038 0.287212 0.712395
O O13 0.565726 0.124714 0.690783
O O14 0.000000 0.500000 0.500000
O O15 0.024711 0.445979 0.242573
O O16 0.329980 0.371857 0.487449
O O17 0.480427 0.149304 0.314078
#
# Coordination Sequence:
#
# PCOD9099897 Si02
#       8
#     2   2   2   2   2   2   2   2
#     4  10  20  37  62  86 117 156 194 248 304 343
#     4  10  22  40  57  87 121 158 197 242 294 363
#     4  10  21  38  56  87 124 150 195 249 294 361
#     4   9  20  39  56  90 121 145 195 254 292 349
#     4   9  19  32  59  89 108 153 197 245 290 349
#     4   9  21  39  58  84 123 152 200 246 290 356
#     4  10  21  37  65  83 116 165 196 244 306 350
#     4   9  21  38  60  90 116 152 206 251 291 355
#
# _framework density 25.591691999999998
#
# number of rings (size 3 to 8) (size 9 to 14) (size 15 to 20)
#    0.000    2.500    0.000    0.375    8.750    3.000 
#    4.500    1.250    0.000    0.000    0.000    0.000 
#    0.000    0.000    0.000    0.000    0.000    0.000 
#
# Total GULP energy -89368.984509 kJ/mol
# GULP energy per Si atom -5585.561532 kJ/mol
# Density = 2.553344 g / cm^3
# Si number density = 25.591692 Si / 1000 Ang^3
#
#
#
# Elastic Constant Matrix: (Units=GPa)
#
#
# Indices 1 2 3 4 5 6 
#
# 1 103.1342 3.7791 35.6720 8.4042 16.4697 20.2928
# 2 3.7791 53.8100 8.0603 18.7342 -0.1579 5.1918
# 3 35.6720 8.0603 93.5592 1.1229 8.1871 13.7818
# 4 8.4042 18.7342 1.1229 30.4576 3.8386 7.7782
# 5 16.4697 -0.1579 8.1871 3.8386 44.9516 16.8942
# 6 20.2928 5.1918 13.7818 7.7782 16.8942 24.3981
#
#
#
# Elastic Compliance Matrix: (Units=1/GPa)
#
#
# Indices 1 2 3 4 5 6 
#
# 1 0.012728 0.001080 -0.003751 -0.002036 -0.001051 -0.007320
# 2 0.001080 0.024207 -0.002295 -0.015017 0.001861 -0.001254
# 3 -0.003751 -0.002295 0.012988 0.003217 0.000693 -0.005234
# 4 -0.002036 -0.015017 0.003217 0.045465 0.000700 -0.011907
# 5 -0.001051 0.001861 0.000693 0.000700 0.030419 -0.021200
# 6 -0.007320 -0.001254 -0.005234 -0.011907 -0.021200 0.068774
#
#
# Mechanical properties :
#
#
# Convention : Reuss Voigt Hill
#
# Bulk Modulus (GPa) = 25.00609 38.39181 31.69895
# Shear Modulus (GPa) = 22.95219 33.49427 28.22323
#
# Velocity S-wave (km/s) = 2.99801 3.62165 3.32449
# Velocity P-wave (km/s) = 4.66653 5.70287 5.21053
#
# Compressibility (1/GPa) = 0.03999025
#
# Stress axis : x y z
#
# Youngs Moduli (GPa) = 78.56596 41.31118 76.99348
#
# Poissons Ratio (x) = -0.04462 0.28882
# Poissons Ratio (y) = -0.08486 0.17671
# Poissons Ratio (z) = 0.29472 0.09481
#
# Static dielectric constant tensor:
#      x y z
#    x 2.068490 0.003570 0.005210 
#    y 0.003570 2.159730 -0.043830 
#    z 0.005210 -0.043830 1.966050 
# 
# From -- ./inp_files/298569.got.cif
#   From: 2010.05.17/outbox.cif.g08.bks.cpg/sg2_150_cif.got.tgz:298569.got - 2010.06.03 11:33:40.
