data_PCOD9099497
_publ_section_title
;
Structure prediction by ZEFSAII (Michael W. Deem and Ramdas Pophale) SiO2 
 PCOD9099497
Probable space group: P -1
;
_chemical_formula_sum "Si O2"
_cell_formula_units_Z 16
_cell_length_a 8.907508
_cell_length_b 12.178204
_cell_length_c 11.654511
_cell_angle_alpha 124.473957
_cell_angle_beta 133.802717
_cell_angle_gamma 61.221227
_cell_volume 743.619720
_symmetry_space_group_name_H-M "P -1"
_symmetry_group_IT_number 2
_symmetry_cell_setting 'triclinic'
loop_
_space_group_symop_operation_xyz
x,y,z
-x,-y,-z
loop_
_atom_site_type_symbol
_atom_site_label
_atom_site_fract_x
_atom_site_fract_y
_atom_site_fract_z
Si Si1 0.993016 0.745432 0.509405
Si Si2 0.353731 0.229002 0.841762
Si Si3 0.368919 0.511244 0.599464
Si Si4 0.796142 0.598781 0.914873
Si Si5 0.669677 0.400897 0.105013
Si Si6 0.123726 0.275468 0.298323
Si Si7 0.265741 0.960790 0.762421
Si Si8 0.731780 0.864915 0.916736
O O1 0.185858 0.624675 0.520358
O O2 0.076169 0.880643 0.590430
O O3 0.787853 0.730183 0.319355
O O4 0.937972 0.752935 0.619956
O O5 0.307425 0.086010 0.779952
O O6 0.289109 0.333451 0.971320
O O7 0.592705 0.253628 0.966460
O O8 0.608920 0.532980 0.716696
O O9 0.342194 0.536010 0.736812
O O10 0.310786 0.366072 0.452621
O O11 0.848443 0.724496 0.944556
O O12 0.000000 0.500000 0.000000
O O13 0.917343 0.369429 0.193090
O O14 0.500000 0.500000 0.000000
O O15 0.199572 0.143157 0.183604
O O16 0.484018 0.860232 0.804352
O O17 0.234421 0.015040 0.908848
#
# Coordination Sequence:
#
# PCOD9099497 Si02
#       8
#     2   2   2   2   2   2   2   2
#     4  11  21  41  64  92 125 165 209 255 316 375
#     4  10  22  39  66  89 120 172 211 254 311 373
#     4  10  21  37  59  93 128 163 201 252 320 373
#     4  10  22  38  61  95 124 165 210 258 311 371
#     4  10  20  37  60  91 130 167 201 251 316 379
#     4  11  24  37  62  97 126 163 207 258 319 371
#     4  10  22  44  66  85 124 168 219 252 312 371
#     4  10  23  41  63  92 122 166 210 262 309 370
#
# _framework density 21.516373999999999
#
# number of rings (size 3 to 8) (size 9 to 14) (size 15 to 20)
#    0.000    1.750    1.250    3.375   10.500    2.000 
#    0.000    0.625    0.000    0.000    0.000    0.000 
#    0.000    0.000    0.000    0.000    0.000    0.000 
#
# Total GULP energy -89276.090547 kJ/mol
# GULP energy per Si atom -5579.755659 kJ/mol
# Density = 2.146740 g / cm^3
# Si number density = 21.516374 Si / 1000 Ang^3
#
#
#
# Elastic Constant Matrix: (Units=GPa)
#
#
# Indices 1 2 3 4 5 6 
#
# 1 40.0834 14.8794 16.2805 2.3322 -6.5977 0.6261
# 2 14.8794 81.3732 20.9447 -6.1584 0.9374 4.4786
# 3 16.2805 20.9447 87.2832 -11.2637 14.5925 1.1380
# 4 2.3322 -6.1584 -11.2637 27.3927 6.6815 4.1132
# 5 -6.5977 0.9374 14.5925 6.6815 33.6615 2.6094
# 6 0.6261 4.4786 1.1380 4.1132 2.6094 21.3622
#
#
#
# Elastic Compliance Matrix: (Units=1/GPa)
#
#
# Indices 1 2 3 4 5 6 
#
# 1 0.032710 -0.004820 -0.008332 -0.010409 0.012145 0.001017
# 2 -0.004820 0.014100 -0.001812 0.003574 -0.001007 -0.003283
# 3 -0.008332 -0.001812 0.016496 0.009801 -0.010614 -0.000845
# 4 -0.010409 0.003574 0.009801 0.047142 -0.015110 -0.008198
# 5 0.012145 -0.001007 -0.010614 -0.015110 0.039835 -0.001536
# 6 0.001017 -0.003283 -0.000845 -0.008198 -0.001536 0.049281
#
#
# Mechanical properties :
#
#
# Convention : Reuss Voigt Hill
#
# Bulk Modulus (GPa) = 29.95978 34.77211 32.36595
# Shear Modulus (GPa) = 20.77978 26.92561 23.85270
#
# Velocity S-wave (km/s) = 3.11105 3.54135 3.33315
# Velocity P-wave (km/s) = 5.18259 5.73737 5.46702
#
# Compressibility (1/GPa) = 0.03337808
#
# Stress axis : x y z
#
# Youngs Moduli (GPa) = 30.57158 70.92381 60.62070
#
# Poissons Ratio (x) = 0.34188 0.50506
# Poissons Ratio (y) = 0.14737 0.10984
# Poissons Ratio (z) = 0.25471 0.12851
#
# Static dielectric constant tensor:
#      x y z
#    x 1.861790 0.056810 -0.010080 
#    y 0.056810 1.878050 -0.051660 
#    z -0.010080 -0.051660 1.806750 
# 
# From -- ./inp_files/393221.got.cif
#   From: 2010.05.17/outbox.cif.g08.bks.cpg/sg2_197_cif.got.tgz:393221.got - 2010.06.03 11:33:40.
