data_PCOD9099659
_publ_section_title
;
Structure prediction by ZEFSAII (Michael W. Deem and Ramdas Pophale) SiO2 
 PCOD9099659
Probable space group: P -1
;
_chemical_formula_sum "Si O2"
_cell_formula_units_Z 16
_cell_length_a 21.831468
_cell_length_b 19.949746
_cell_length_c 8.439417
_cell_angle_alpha 34.525509
_cell_angle_beta 146.207016
_cell_angle_gamma 161.226784
_cell_volume 643.689200
_symmetry_space_group_name_H-M "P -1"
_symmetry_group_IT_number 2
_symmetry_cell_setting 'triclinic'
loop_
_space_group_symop_operation_xyz
x,y,z
-x,-y,-z
loop_
_atom_site_type_symbol
_atom_site_label
_atom_site_fract_x
_atom_site_fract_y
_atom_site_fract_z
Si Si1 0.832101 0.328639 0.704094
Si Si2 0.614960 0.490467 0.698634
Si Si3 0.028985 0.290428 0.346537
Si Si4 0.915784 0.883761 0.375015
Si Si5 0.323326 0.122523 0.254026
Si Si6 0.257637 0.812677 0.564464
Si Si7 0.264311 0.503956 0.738775
Si Si8 0.548730 0.241852 0.806694
O O1 0.737764 0.196906 0.596157
O O2 0.720616 0.340801 0.513902
O O3 0.044469 0.573746 0.630403
O O4 0.876066 0.259730 0.049457
O O5 0.500000 0.500000 0.500000
O O6 0.721913 0.640261 0.486259
O O7 0.515587 0.283729 0.817744
O O8 0.756288 0.571040 0.986488
O O9 0.966714 0.113132 0.471744
O O10 0.088149 0.321349 0.594512
O O11 0.235853 0.526670 0.254939
O O12 0.842783 0.926322 0.028545
O O13 0.000000 0.000000 0.500000
O O14 0.528175 0.354309 0.164581
O O15 0.385624 0.136406 0.535383
O O16 0.270526 0.958587 0.361301
O O17 0.421044 0.869972 0.877502
#
# Coordination Sequence:
#
# PCOD9099659 Si02
#       8
#     2   2   2   2   2   2   2   2
#     4  10  20  38  63  86 117 156 195 234 291 344
#     4  11  22  40  62  85 118 152 195 239 293 347
#     4   9  21  38  61  86 118 155 196 233 285 352
#     4  11  24  41  61  85 117 157 196 234 289 351
#     4  11  23  37  61  89 118 150 195 244 288 339
#     4  10  20  37  61  88 116 156 196 234 287 348
#     4  11  22  38  61  91 115 152 193 245 292 335
#     4   9  20  38  60  86 115 158 194 235 287 348
#
# _framework density 24.856717
#
# number of rings (size 3 to 8) (size 9 to 14) (size 15 to 20)
#    0.000    1.750    2.500    1.500    5.250    2.000 
#    0.000    1.875    0.000    0.000    0.000    0.000 
#    0.000    0.000    0.000    0.000    0.000    0.000 
#
# Total GULP energy -89560.453085 kJ/mol
# GULP energy per Si atom -5597.528318 kJ/mol
# Density = 2.480014 g / cm^3
# Si number density = 24.856717 Si / 1000 Ang^3
#
#
#
# Elastic Constant Matrix: (Units=GPa)
#
#
# Indices 1 2 3 4 5 6 
#
# 1 65.7672 3.4241 26.1480 4.4714 5.2267 -11.0346
# 2 3.4241 46.4878 31.0066 8.9492 -4.2384 0.0956
# 3 26.1480 31.0066 186.0103 13.7515 7.5479 -8.0632
# 4 4.4714 8.9492 13.7515 35.3687 -3.6175 -4.0960
# 5 5.2267 -4.2384 7.5479 -3.6175 42.3853 3.1329
# 6 -11.0346 0.0956 -8.0632 -4.0960 3.1329 39.3442
#
#
#
# Elastic Compliance Matrix: (Units=1/GPa)
#
#
# Indices 1 2 3 4 5 6 
#
# 1 0.016997 0.000123 -0.002052 -0.001091 -0.002137 0.004403
# 2 0.000123 0.025418 -0.004094 -0.004736 0.002969 -0.001596
# 3 -0.002052 -0.004094 0.006537 -0.001311 -0.001488 0.000756
# 4 -0.001091 -0.004736 -0.001311 0.030641 0.002329 0.002441
# 5 -0.002137 0.002969 -0.001488 0.002329 0.024813 -0.002645
# 6 0.004403 -0.001596 0.000756 0.002441 -0.002645 0.027275
#
#
# Mechanical properties :
#
#
# Convention : Reuss Voigt Hill
#
# Bulk Modulus (GPa) = 27.09531 46.60252 36.84891
# Shear Modulus (GPa) = 32.04536 39.26542 35.65539
#
# Velocity S-wave (km/s) = 3.59444 3.97882 3.79150
# Velocity P-wave (km/s) = 5.30575 6.31642 5.83301
#
# Compressibility (1/GPa) = 0.03690676
#
# Stress axis : x y z
#
# Youngs Moduli (GPa) = 58.83339 39.34175 152.97676
#
# Poissons Ratio (x) = -0.00482 0.31384
# Poissons Ratio (y) = -0.00721 0.62625
# Poissons Ratio (z) = 0.12070 0.16106
#
# Static dielectric constant tensor:
#      x y z
#    x 1.977100 0.048100 0.009940 
#    y 0.048100 2.064600 -0.041370 
#    z 0.009940 -0.041370 1.914110 
# 
# From -- ./inp_files/176133.got.cif
#   From: 2010.05.17/outbox.cif.g08.bks.cpg/sg2_89_cif.got.tgz:176133.got - 2010.06.03 11:33:40.
