data_PCOD9099275
_publ_section_title
;
Structure prediction by ZEFSAII (Michael W. Deem and Ramdas Pophale) SiO2 
 PCOD9099275
Probable space group: P -1
;
_chemical_formula_sum "Si O2"
_cell_formula_units_Z 16
_cell_length_a 7.478725
_cell_length_b 18.037568
_cell_length_c 10.485473
_cell_angle_alpha 43.609848
_cell_angle_beta 138.328958
_cell_angle_gamma 115.448608
_cell_volume 629.304139
_symmetry_space_group_name_H-M "P -1"
_symmetry_group_IT_number 2
_symmetry_cell_setting 'triclinic'
loop_
_space_group_symop_operation_xyz
x,y,z
-x,-y,-z
loop_
_atom_site_type_symbol
_atom_site_label
_atom_site_fract_x
_atom_site_fract_y
_atom_site_fract_z
Si Si1 0.431732 0.150619 0.857681
Si Si2 0.665138 0.137998 0.555325
Si Si3 0.924050 0.291476 0.317995
Si Si4 0.139725 0.952747 0.966243
Si Si5 0.124505 0.276046 0.034167
Si Si6 0.623883 0.449272 0.495341
Si Si7 0.377219 0.319990 0.846435
Si Si8 0.707602 0.529157 0.968641
O O1 0.742193 0.105791 0.028524
O O2 0.372614 0.239860 0.826700
O O3 0.223356 0.210468 0.559892
O O4 0.319322 0.044297 0.969555
O O5 0.776169 0.233307 0.421695
O O6 0.784758 0.128974 0.772857
O O7 0.332774 0.166109 0.336778
O O8 0.824163 0.022650 0.717544
O O9 0.703754 0.308270 0.065449
O O10 0.935339 0.414309 0.211563
O O11 0.244930 0.281207 0.949405
O O12 0.801361 0.326818 0.774141
O O13 0.185989 0.371061 0.041681
O O14 0.500000 0.500000 0.500000
O O15 0.766075 0.550015 0.407800
O O16 0.441013 0.441975 0.282519
O O17 0.500000 0.500000 0.000000
#
# Coordination Sequence:
#
# PCOD9099275 Si02
#       8
#     2   2   2   2   2   2   2   2
#     4  10  20  37  60  82 112 153 189 245 302 346
#     4   9  18  36  58  85 110 145 199 244 289 352
#     4   9  19  35  58  85 114 147 196 228 284 360
#     4   9  20  37  58  82 113 149 197 249 303 352
#     4  11  22  38  64  86 118 165 200 235 296 364
#     4  11  25  38  57  96 130 152 199 249 290 352
#     4  10  21  37  58  87 115 154 198 235 287 363
#     4  11  20  38  64  88 122 166 194 235 290 362
#
# _framework density 25.424906
#
# number of rings (size 3 to 8) (size 9 to 14) (size 15 to 20)
#    0.000    2.000    3.750    1.125    1.750    3.500 
#    0.000   13.750    0.000    1.500    0.000    0.000 
#    0.000    0.000    0.000    0.000    0.000    0.000 
#
# Total GULP energy -89455.880987 kJ/mol
# GULP energy per Si atom -5590.992562 kJ/mol
# Density = 2.536704 g / cm^3
# Si number density = 25.424906 Si / 1000 Ang^3
#
#
#
# Elastic Constant Matrix: (Units=GPa)
#
#
# Indices 1 2 3 4 5 6 
#
# 1 62.2840 25.4146 41.4917 0.4909 2.9228 -28.9538
# 2 25.4146 126.9579 35.1416 3.4999 -8.5794 -9.0478
# 3 41.4917 35.1416 147.4396 -10.9150 7.3043 -11.5956
# 4 0.4909 3.4999 -10.9150 34.1699 -8.3936 -1.1375
# 5 2.9228 -8.5794 7.3043 -8.3936 33.3555 -6.4360
# 6 -28.9538 -9.0478 -11.5956 -1.1375 -6.4360 29.5708
#
#
#
# Elastic Compliance Matrix: (Units=1/GPa)
#
#
# Indices 1 2 3 4 5 6 
#
# 1 0.037939 -0.002772 -0.007568 -0.000537 0.004084 0.034200
# 2 -0.002772 0.009072 -0.001570 -0.000717 0.002743 0.000016
# 3 -0.007568 -0.001570 0.009213 0.002567 -0.002003 -0.004615
# 4 -0.000537 -0.000717 0.002567 0.032251 0.008044 0.003253
# 5 0.004084 0.002743 -0.002003 0.008044 0.035106 0.012003
# 6 0.034200 0.000016 -0.004615 0.003253 0.012003 0.068236
#
#
# Mechanical properties :
#
#
# Convention : Reuss Voigt Hill
#
# Bulk Modulus (GPa) = 30.86031 60.08636 45.47334
# Shear Modulus (GPa) = 22.08094 35.06150 28.57122
#
# Velocity S-wave (km/s) = 2.95019 3.71755 3.35587
# Velocity P-wave (km/s) = 4.87535 6.48930 5.73934
#
# Compressibility (1/GPa) = 0.03240408
#
# Stress axis : x y z
#
# Youngs Moduli (GPa) = 26.35776 110.22582 108.54494
#
# Poissons Ratio (x) = 0.30552 0.82152
# Poissons Ratio (y) = 0.07306 0.17042
# Poissons Ratio (z) = 0.19949 0.17306
#
# Static dielectric constant tensor:
#      x y z
#    x 2.094850 0.056970 0.043120 
#    y 0.056970 1.982000 -0.000880 
#    z 0.043120 -0.000880 2.040740 
# 
# From -- ./inp_files/217171.got.cif
#   From: 2010.05.17/outbox.cif.g08.bks.cpg/sg2_109_cif.got.tgz:217171.got - 2010.06.03 11:33:40.
