data_PCOD9099836
_publ_section_title
;
Structure prediction by ZEFSAII (Michael W. Deem and Ramdas Pophale) SiO2 
 PCOD9099836
Probable space group: P -1
;
_chemical_formula_sum "Si O2"
_cell_formula_units_Z 16
_cell_length_a 13.605166
_cell_length_b 23.158549
_cell_length_c 21.182271
_cell_angle_alpha 163.151850
_cell_angle_beta 26.541584
_cell_angle_gamma 159.190134
_cell_volume 687.220849
_symmetry_space_group_name_H-M "P -1"
_symmetry_group_IT_number 2
_symmetry_cell_setting 'triclinic'
loop_
_space_group_symop_operation_xyz
x,y,z
-x,-y,-z
loop_
_atom_site_type_symbol
_atom_site_label
_atom_site_fract_x
_atom_site_fract_y
_atom_site_fract_z
Si Si1 0.631742 0.362488 0.169509
Si Si2 0.250790 0.786663 0.230841
Si Si3 0.559059 0.266693 0.473867
Si Si4 0.470122 0.085605 0.673786
Si Si5 0.192355 0.004223 0.303624
Si Si6 0.588877 0.521746 0.129913
Si Si7 0.565640 0.269660 0.255262
Si Si8 0.861601 0.621366 0.561175
O O1 0.596262 0.378156 0.282066
O O2 0.360845 0.317697 0.248603
O O3 0.919839 0.595318 0.216453
O O4 0.671313 0.141766 0.916435
O O5 0.317468 0.891838 0.374303
O O6 0.448443 0.009158 0.302305
O O7 0.354718 0.617501 0.996276
O O8 0.626865 0.450217 0.685094
O O9 0.790265 0.430759 0.459690
O O10 0.286639 0.167510 0.483621
O O11 0.500000 0.000000 0.500000
O O12 0.524174 0.354320 0.930388
O O13 0.164941 0.877043 0.657189
O O14 0.875314 0.798916 0.253748
O O15 0.327639 0.185055 0.354751
O O16 0.828109 0.477952 0.364836
O O17 0.500000 0.000000 0.000000
#
# Coordination Sequence:
#
# PCOD9099836 Si02
#       8
#     2   2   2   2   2   2   2   2
#     4  10  20  37  61  97 128 164 217 263 322 367
#     4   9  23  40  66  91 127 177 204 262 317 373
#     4  11  23  39  64 101 129 161 224 258 320 381
#     4  10  23  47  65  86 130 176 212 255 326 384
#     4   9  20  36  64  96 128 168 204 273 319 371
#     4   9  22  41  64  90 129 174 205 264 312 381
#     4   9  19  36  56  91 127 161 210 271 309 364
#     4  11  24  36  66  96 125 172 209 269 318 378
#
# _framework density 23.282181000000001
#
# number of rings (size 3 to 8) (size 9 to 14) (size 15 to 20)
#    0.750    1.500    0.000    1.500    8.750    2.000 
#    0.000    4.375    0.000    0.000    0.000    0.000 
#    0.000    0.000    0.000    0.000    0.000    0.000 
#
# Total GULP energy -89092.452291 kJ/mol
# GULP energy per Si atom -5568.278268 kJ/mol
# Density = 2.322919 g / cm^3
# Si number density = 23.282181 Si / 1000 Ang^3
#
#
#
# Elastic Constant Matrix: (Units=GPa)
#
#
# Indices 1 2 3 4 5 6 
#
# 1 69.0248 26.1478 22.1171 4.2519 -2.3311 -17.9809
# 2 26.1478 78.5941 8.8769 17.5488 0.1175 -0.2976
# 3 22.1171 8.8769 76.6966 1.2754 18.6009 1.2211
# 4 4.2519 17.5488 1.2754 30.0069 -2.2751 6.0420
# 5 -2.3311 0.1175 18.6009 -2.2751 46.9956 -5.0401
# 6 -17.9809 -0.2976 1.2211 6.0420 -5.0401 36.2913
#
#
#
# Elastic Compliance Matrix: (Units=1/GPa)
#
#
# Indices 1 2 3 4 5 6 
#
# 1 0.022738 -0.006425 -0.007274 -0.001251 0.005292 0.012401
# 2 -0.006425 0.016741 0.000356 -0.008622 -0.001109 -0.001777
# 3 -0.007274 0.000356 0.017023 0.000593 -0.007643 -0.005334
# 4 -0.001251 -0.008622 0.000593 0.040048 0.000885 -0.007255
# 5 0.005292 -0.001109 -0.007643 0.000885 0.025280 0.006234
# 6 0.012401 -0.001777 -0.005334 -0.007255 0.006234 0.035938
#
#
# Mechanical properties :
#
#
# Convention : Reuss Voigt Hill
#
# Bulk Modulus (GPa) = 33.53769 37.62214 35.57992
# Shear Modulus (GPa) = 25.72105 33.80365 29.76235
#
# Velocity S-wave (km/s) = 3.32739 3.81453 3.57926
# Velocity P-wave (km/s) = 5.40353 5.96616 5.69180
#
# Compressibility (1/GPa) = 0.02981720
#
# Stress axis : x y z
#
# Youngs Moduli (GPa) = 43.97834 59.73363 58.74282
#
# Poissons Ratio (x) = 0.38379 0.42727
# Poissons Ratio (y) = 0.28256 -0.02091
# Poissons Ratio (z) = 0.31988 -0.02126
#
# Static dielectric constant tensor:
#      x y z
#    x 1.894580 0.003470 -0.003000 
#    y 0.003470 1.885670 -0.052750 
#    z -0.003000 -0.052750 2.100030 
# 
# From -- ./inp_files/598533.got.cif
#   From: 2010.05.17/outbox.cif.g08.bks.cpg/sg2_300_cif.got.tgz:598533.got - 2010.06.03 11:33:40.
