data_PCOD9099724
_publ_section_title
;
Structure prediction by ZEFSAII (Michael W. Deem and Ramdas Pophale) SiO2 
 PCOD9099724
Probable space group: P -1
;
_chemical_formula_sum "Si O2"
_cell_formula_units_Z 14
_cell_length_a 9.353440
_cell_length_b 9.624578
_cell_length_c 24.422558
_cell_angle_alpha 153.262608
_cell_angle_beta 43.667910
_cell_angle_gamma 138.008309
_cell_volume 648.669264
_symmetry_space_group_name_H-M "P -1"
_symmetry_group_IT_number 2
_symmetry_cell_setting 'triclinic'
loop_
_space_group_symop_operation_xyz
x,y,z
-x,-y,-z
loop_
_atom_site_type_symbol
_atom_site_label
_atom_site_fract_x
_atom_site_fract_y
_atom_site_fract_z
Si Si1 0.642584 0.470004 0.820517
Si Si2 0.104352 0.215506 0.354289
Si Si3 0.980935 0.447499 0.812453
Si Si4 0.272887 0.361898 0.952712
Si Si5 0.638316 0.295863 0.366448
Si Si6 0.589363 0.194695 0.225004
Si Si7 0.957929 0.834987 0.772455
O O1 0.844637 0.508322 0.819512
O O2 0.461092 0.598645 0.946224
O O3 0.740053 0.641612 0.797400
O O4 0.506129 0.084243 0.717431
O O5 0.364891 0.269567 0.304675
O O6 0.060870 0.090172 0.259373
O O7 0.000000 0.500000 0.500000
O O8 0.009348 0.916542 0.316883
O O9 0.225142 0.688481 0.830131
O O10 0.853705 0.495030 0.918419
O O11 0.400996 0.158386 0.881506
O O12 0.094086 0.127962 0.878305
O O13 0.500000 0.500000 0.500000
O O14 0.678021 0.383686 0.322857
O O15 0.877090 0.376157 0.352577
#
# Coordination Sequence:
#
# PCOD9099724 Si02
#       7
#     2   2   2   2   2   2   2
#     4  10  20  38  66  94 119 165 208 259 316 364
#     4  12  27  43  60  92 134 171 207 257 316 378
#     4  12  22  41  70  92 127 167 213 257 318 370
#     4  10  22  40  70  99 120 159 218 268 303 377
#     4  10  20  37  61  90 120 161 220 262 295 364
#     4  10  22  39  65  97 118 163 215 259 310 371
#     4  10  23  40  60  93 131 157 210 263 313 372
#
# _framework density 21.582647999999999
#
# number of rings (size 3 to 8) (size 9 to 14) (size 15 to 20)
#    0.000    1.714    5.714    1.714    0.000    5.143 
#    0.000    1.429    0.000    0.000    0.000    0.000 
#    0.000    0.000    0.000    0.000    0.000    0.000 
#
# Total GULP energy -77976.510629 kJ/mol
# GULP energy per Si atom -5569.750759 kJ/mol
# Density = 2.153352 g / cm^3
# Si number density = 21.582648 Si / 1000 Ang^3
#
#
#
# Elastic Constant Matrix: (Units=GPa)
#
#
# Indices 1 2 3 4 5 6 
#
# 1 75.1710 19.1005 3.3698 -8.2614 -9.7584 -1.8342
# 2 19.1005 94.7821 22.8737 -26.1748 -4.5451 25.2807
# 3 3.3698 22.8737 78.4232 -14.7093 -13.5423 0.0319
# 4 -8.2614 -26.1748 -14.7093 21.6546 6.5239 0.3041
# 5 -9.7584 -4.5451 -13.5423 6.5239 26.2284 -7.0860
# 6 -1.8342 25.2807 0.0319 0.3041 -7.0860 31.7443
#
#
#
# Elastic Compliance Matrix: (Units=1/GPa)
#
#
# Indices 1 2 3 4 5 6 
#
# 1 0.015756 -0.005990 0.002078 -0.002510 0.008579 0.007618
# 2 -0.005990 0.028875 -0.004302 0.034716 -0.015405 -0.027109
# 3 0.002078 -0.004302 0.016168 0.003814 0.008908 0.005482
# 4 -0.002510 0.034716 0.003814 0.098334 -0.026787 -0.034718
# 5 0.008579 -0.015405 0.008908 -0.026787 0.056855 0.025703
# 6 0.007618 -0.027109 0.005482 -0.034718 0.025703 0.059595
#
#
# Mechanical properties :
#
#
# Convention : Reuss Voigt Hill
#
# Bulk Modulus (GPa) = 22.53781 37.67379 30.10580
# Shear Modulus (GPa) = 16.29716 29.46095 22.87905
#
# Velocity S-wave (km/s) = 2.75090 3.69864 3.25940
# Velocity P-wave (km/s) = 4.53378 5.97774 5.30512
#
# Compressibility (1/GPa) = 0.04436989
#
# Stress axis : x y z
#
# Youngs Moduli (GPa) = 63.46931 34.63218 61.84939
#
# Poissons Ratio (x) = 0.20745 -0.12851
# Poissons Ratio (y) = 0.38018 0.26609
# Poissons Ratio (z) = -0.13187 0.14899
#
# Static dielectric constant tensor:
#      x y z
#    x 1.293200 -0.800700 0.756260 
#    y -0.800700 0.604840 1.124650 
#    z 0.756260 1.124650 0.846050 
# 
# From -- ./inp_files/606923.got.cif
#   From: 2010.05.17/outbox.cif.g08.bks.cpg/sg2_304_cif.got.tgz:606923.got - 2010.06.03 11:33:40.
