data_PCOD9099765
_publ_section_title
;
Structure prediction by ZEFSAII (Michael W. Deem and Ramdas Pophale) SiO2 
 PCOD9099765
Probable space group: P -1
;
_chemical_formula_sum "Si O2"
_cell_formula_units_Z 16
_cell_length_a 5.405902
_cell_length_b 11.044833
_cell_length_c 13.964076
_cell_angle_alpha 121.967234
_cell_angle_beta 71.623998
_cell_angle_gamma 90.016384
_cell_volume 656.718658
_symmetry_space_group_name_H-M "P -1"
_symmetry_group_IT_number 2
_symmetry_cell_setting 'triclinic'
loop_
_space_group_symop_operation_xyz
x,y,z
-x,-y,-z
loop_
_atom_site_type_symbol
_atom_site_label
_atom_site_fract_x
_atom_site_fract_y
_atom_site_fract_z
Si Si1 0.707864 0.845659 0.118890
Si Si2 0.310017 0.930398 0.925025
Si Si3 0.799605 0.304500 0.393725
Si Si4 0.425152 0.345018 0.111408
Si Si5 0.140200 0.627306 0.067753
Si Si6 0.788418 0.194355 0.706535
Si Si7 0.728720 0.082533 0.467936
Si Si8 0.668783 0.603398 0.655674
O O1 0.984047 0.784356 0.112072
O O2 0.475885 0.817622 0.206042
O O3 0.636914 0.011456 0.162353
O O4 0.727866 0.747183 0.978126
O O5 0.375911 0.769233 0.892326
O O6 0.500000 0.000000 0.000000
O O7 0.000000 0.000000 0.000000
O O8 0.709676 0.178622 0.414872
O O9 0.744281 0.455153 0.523461
O O10 0.618160 0.328781 0.330483
O O11 0.119667 0.287366 0.331798
O O12 0.294336 0.442357 0.255642
O O13 0.586934 0.411229 0.039756
O O14 0.133489 0.663912 0.195851
O O15 0.000000 0.500000 0.000000
O O16 0.747083 0.194631 0.598770
O O17 0.011972 0.046539 0.629742
O O18 0.500000 0.000000 0.500000
#
# Coordination Sequence:
#
# PCOD9099765 Si02
#       8
#     2   2   2   2   2   2   2   2
#     4  10  22  41  61  96 136 171 219 282 337 417
#     4  10  20  37  61  91 130 169 212 271 328 397
#     4  10  25  46  70  98 143 175 239 295 356 416
#     4  10  23  38  65  97 131 175 227 271 350 413
#     4  11  24  43  66  99 140 184 228 283 343 425
#     4  10  25  43  65 103 131 179 236 280 356 411
#     4  11  25  45  72 100 133 185 235 301 355 416
#     4  10  24  45  68 104 133 188 230 294 354 425
#
# _framework density 24.363551999999999
#
# number of rings (size 3 to 8) (size 9 to 14) (size 15 to 20)
#    0.000    1.750    1.250    0.750    7.000    6.000 
#    2.250    0.000    0.000    0.000    0.000    0.000 
#    0.000    0.000    0.000    0.000    0.000    0.000 
#
# Total GULP energy -89212.683423 kJ/mol
# GULP energy per Si atom -5575.792714 kJ/mol
# Density = 2.430810 g / cm^3
# Si number density = 24.363552 Si / 1000 Ang^3
#
#
#
# Elastic Constant Matrix: (Units=GPa)
#
#
# Indices 1 2 3 4 5 6 
#
# 1 93.5622 19.9036 42.4772 -7.1900 13.7382 1.2745
# 2 19.9036 81.7597 16.2913 -14.0342 15.7441 3.0106
# 3 42.4772 16.2913 173.4434 -8.6914 51.2137 8.9696
# 4 -7.1900 -14.0342 -8.6914 33.3770 -3.6316 4.7446
# 5 13.7382 15.7441 51.2137 -3.6316 30.7268 -1.5287
# 6 1.2745 3.0106 8.9696 4.7446 -1.5287 42.9789
#
#
#
# Elastic Compliance Matrix: (Units=1/GPa)
#
#
# Indices 1 2 3 4 5 6 
#
# 1 0.012545 -0.002478 -0.003091 0.000904 0.000938 0.000380
# 2 -0.002478 0.015494 0.002823 0.005898 -0.010971 -0.002642
# 3 -0.003091 0.002823 0.012918 0.002081 -0.021538 -0.003798
# 4 0.000904 0.005898 0.002081 0.033499 -0.003169 -0.004685
# 5 0.000938 -0.010971 -0.021538 -0.003169 0.073679 0.008206
# 6 0.000380 -0.002642 -0.003798 -0.004685 0.008206 0.025043
#
#
# Mechanical properties :
#
#
# Convention : Reuss Voigt Hill
#
# Bulk Modulus (GPa) = 28.19613 56.23438 42.21526
# Shear Modulus (GPa) = 26.24811 39.42277 32.83544
#
# Velocity S-wave (km/s) = 3.28586 4.02693 3.67512
# Velocity P-wave (km/s) = 5.09844 6.68977 5.94757
#
# Compressibility (1/GPa) = 0.03546586
#
# Stress axis : x y z
#
# Youngs Moduli (GPa) = 79.71325 64.54131 77.41256
#
# Poissons Ratio (x) = 0.15991 0.23928
# Poissons Ratio (y) = 0.19749 -0.21855
# Poissons Ratio (z) = 0.24639 -0.18221
#
# Static dielectric constant tensor:
#      x y z
#    x 1.968810 0.008360 -0.029180 
#    y 0.008360 1.986220 0.223420 
#    z -0.029180 0.223420 1.342560 
# 
# From -- ./inp_files/364953.got.cif
#   From: 2010.05.17/outbox.cif.g08.bks.cpg/sg2_183_cif.got.tgz:364953.got - 2010.06.03 11:33:40.
