data_PCOD9099013
_publ_section_title
;
Structure prediction by ZEFSAII (Michael W. Deem and Ramdas Pophale) SiO2 
 PCOD9099013
Probable space group: P -1
;
_chemical_formula_sum "Si O2"
_cell_formula_units_Z 16
_cell_length_a 10.542617
_cell_length_b 8.990833
_cell_length_c 9.476190
_cell_angle_alpha 85.520149
_cell_angle_beta 80.317819
_cell_angle_gamma 43.814476
_cell_volume 611.769690
_symmetry_space_group_name_H-M "P -1"
_symmetry_group_IT_number 2
_symmetry_cell_setting 'triclinic'
loop_
_space_group_symop_operation_xyz
x,y,z
-x,-y,-z
loop_
_atom_site_type_symbol
_atom_site_label
_atom_site_fract_x
_atom_site_fract_y
_atom_site_fract_z
Si Si1 0.620127 0.821629 0.646620
Si Si2 0.183022 0.041580 0.448410
Si Si3 0.984040 0.837055 0.014443
Si Si4 0.761856 0.777854 0.197197
Si Si5 0.333707 0.349228 0.041449
Si Si6 0.513508 0.359455 0.781439
Si Si7 0.456776 0.667287 0.606757
Si Si8 0.104520 0.623852 0.715061
O O1 0.592362 0.695712 0.570339
O O2 0.757311 0.834952 0.570793
O O3 0.417852 0.064564 0.683702
O O4 0.652111 0.740649 0.805960
O O5 0.314783 0.851600 0.321136
O O6 0.252446 0.900655 0.587267
O O7 0.972586 0.226811 0.419041
O O8 0.172555 0.606450 0.055933
O O9 0.980068 0.785515 0.856949
O O10 0.829355 0.884606 0.133004
O O11 0.000000 0.000000 0.000000
O O12 0.719037 0.732204 0.059480
O O13 0.906312 0.547192 0.265468
O O14 0.506334 0.291027 0.941165
O O15 0.498410 0.550543 0.755557
O O16 0.315588 0.481074 0.734668
O O17 0.500000 0.500000 0.500000
#
# Coordination Sequence:
#
# PCOD9099013 Si02
#       8
#     2   2   2   2   2   2   2   2
#     4  12  22  37  69  93 122 165 213 257 312 371
#     4  11  21  42  68  88 119 172 217 250 311 361
#     4  10  21  34  54  90 134 165 198 247 314 384
#     4  10  20  37  58  93 132 156 201 261 309 374
#     4  10  21  38  62  94 127 159 201 256 313 383
#     4   9  21  42  61  97 129 158 204 257 322 366
#     4  10  25  43  63  86 130 168 210 266 303 367
#     4  10  21  39  65  87 128 165 204 261 306 371
#
# _framework density 26.153634
#
# number of rings (size 3 to 8) (size 9 to 14) (size 15 to 20)
#    0.000    2.000    2.500    3.750    5.250    3.000 
#    0.000    0.625    5.500    0.000    0.000    0.000 
#    0.000    0.000    0.000    0.000    0.000    0.000 
#
# Total GULP energy -89502.724032 kJ/mol
# GULP energy per Si atom -5593.920252 kJ/mol
# Density = 2.609411 g / cm^3
# Si number density = 26.153634 Si / 1000 Ang^3
#
#
#
# Elastic Constant Matrix: (Units=GPa)
#
#
# Indices 1 2 3 4 5 6 
#
# 1 74.8860 44.3259 0.3021 -6.9997 -18.4454 24.7143
# 2 44.3259 127.4070 41.3411 -22.6990 16.2282 21.8961
# 3 0.3021 41.3411 93.1864 -19.9035 10.0747 10.2242
# 4 -6.9997 -22.6990 -19.9035 48.6847 -1.5406 -6.0173
# 5 -18.4454 16.2282 10.0747 -1.5406 28.2276 -13.0675
# 6 24.7143 21.8961 10.2242 -6.0173 -13.0675 48.7217
#
#
#
# Elastic Compliance Matrix: (Units=1/GPa)
#
#
# Indices 1 2 3 4 5 6 
#
# 1 0.027941 -0.013496 0.003552 -0.000399 0.023527 -0.002593
# 2 -0.013496 0.018023 -0.004528 0.003343 -0.019788 -0.005198
# 3 0.003552 -0.004528 0.013908 0.003747 -0.000986 -0.002487
# 4 -0.000399 0.003343 0.003747 0.023538 -0.002118 0.000253
# 5 0.023527 -0.019788 -0.000986 -0.002118 0.069624 0.015578
# 6 -0.002593 -0.005198 -0.002487 0.000253 0.015578 0.028907
#
#
# Mechanical properties :
#
#
# Convention : Reuss Voigt Hill
#
# Bulk Modulus (GPa) = 32.33216 51.93530 42.13373
# Shear Modulus (GPa) = 22.60459 39.09414 30.84937
#
# Velocity S-wave (km/s) = 2.94309 3.87044 3.43818
# Velocity P-wave (km/s) = 4.89267 6.31464 5.64858
#
# Compressibility (1/GPa) = 0.03092896
#
# Stress axis : x y z
#
# Youngs Moduli (GPa) = 35.78980 55.48536 71.89898
#
# Poissons Ratio (x) = 0.74881 -0.25541
# Poissons Ratio (y) = 0.48301 0.32557
# Poissons Ratio (z) = -0.12714 0.25125
#
# Static dielectric constant tensor:
#      x y z
#    x 2.129240 0.022530 -0.013880 
#    y 0.022530 2.029030 -0.039530 
#    z -0.013880 -0.039530 2.181980 
# 
# From -- ./inp_files/417139.got.cif
#   From: 2010.05.17/outbox.cif.g08.bks.cpg/sg2_209_cif.got.tgz:417139.got - 2010.06.03 11:33:40.
