data_PCOD9099587
_publ_section_title
;
Structure prediction by ZEFSAII (Michael W. Deem and Ramdas Pophale) SiO2 
 PCOD9099587
Probable space group: P -1
;
_chemical_formula_sum "Si O2"
_cell_formula_units_Z 14
_cell_length_a 15.944648
_cell_length_b 29.143235
_cell_length_c 16.183260
_cell_angle_alpha 15.953791
_cell_angle_beta 25.824887
_cell_angle_gamma 18.022801
_cell_volume 630.560449
_symmetry_space_group_name_H-M "P -1"
_symmetry_group_IT_number 2
_symmetry_cell_setting 'triclinic'
loop_
_space_group_symop_operation_xyz
x,y,z
-x,-y,-z
loop_
_atom_site_type_symbol
_atom_site_label
_atom_site_fract_x
_atom_site_fract_y
_atom_site_fract_z
Si Si1 0.233558 0.268487 0.794127
Si Si2 0.659821 0.757759 0.073827
Si Si3 0.946658 0.987463 0.836634
Si Si4 0.048676 0.775724 0.285584
Si Si5 0.604552 0.838715 0.802710
Si Si6 0.885407 0.307684 0.451311
Si Si7 0.251993 0.598761 0.109377
O O1 0.200961 0.267527 0.922724
O O2 0.291785 0.424254 0.444052
O O3 0.978476 0.343893 0.843158
O O4 0.500000 0.000000 0.000000
O O5 0.792857 0.495889 0.393979
O O6 0.330545 0.945851 0.051265
O O7 0.693722 0.830553 0.831490
O O8 0.834621 0.235682 0.537748
O O9 0.093751 0.841694 0.044607
O O10 0.140790 0.826879 0.865327
O O11 0.151289 0.770336 0.295036
O O12 0.720879 0.946356 0.283860
O O13 0.794573 0.836916 0.581837
O O14 0.708280 0.586083 0.130156
O O15 0.500000 0.500000 0.000000
#
# Coordination Sequence:
#
# PCOD9099587 Si02
#       7
#     2   2   2   2   2   2   2
#     4  11  23  46  71  91 135 176 214 280 339 393
#     4  10  21  39  62  89 121 169 208 254 330 388
#     4  11  22  39  60  91 127 160 215 267 316 390
#     4  10  20  37  61  85 122 167 206 248 316 383
#     4   9  21  38  58  90 127 162 211 255 317 389
#     4  10  21  37  58  91 127 163 206 263 314 377
#     4  11  26  45  68 103 130 170 232 276 332 402
#
# _framework density 22.202472
#
# number of rings (size 3 to 8) (size 9 to 14) (size 15 to 20)
#    0.000    1.714    2.857    0.857    0.000    9.143 
#    2.571    0.000    0.000    0.000    0.000    0.000 
#    0.000    0.000    0.000    0.000    0.000    0.000 
#
# Total GULP energy -78088.847510 kJ/mol
# GULP energy per Si atom -5577.774822 kJ/mol
# Density = 2.215194 g / cm^3
# Si number density = 22.202472 Si / 1000 Ang^3
#
#
#
# Elastic Constant Matrix: (Units=GPa)
#
#
# Indices 1 2 3 4 5 6 
#
# 1 140.6825 30.4632 24.9013 6.4660 -1.1126 36.8710
# 2 30.4632 113.9905 14.7669 2.7799 -3.4711 18.9192
# 3 24.9013 14.7669 34.9475 0.6894 6.0151 5.3821
# 4 6.4660 2.7799 0.6894 25.0866 6.6709 -5.7561
# 5 -1.1126 -3.4711 6.0151 6.6709 26.4286 -1.1797
# 6 36.8710 18.9192 5.3821 -5.7561 -1.1797 40.2450
#
#
#
# Elastic Compliance Matrix: (Units=1/GPa)
#
#
# Indices 1 2 3 4 5 6 
#
# 1 0.011292 -0.000232 -0.006800 -0.005808 0.003009 -0.010069
# 2 -0.000232 0.010212 -0.003888 -0.002686 0.002699 -0.004373
# 3 -0.006800 -0.003888 0.036187 0.004688 -0.010056 0.003594
# 4 -0.005808 -0.002686 0.004688 0.047887 -0.013197 0.012419
# 5 0.003009 0.002699 -0.010056 -0.013197 0.043792 -0.003285
# 6 -0.010069 -0.004373 0.003594 0.012419 -0.003285 0.037328
#
#
# Mechanical properties :
#
#
# Convention : Reuss Voigt Hill
#
# Bulk Modulus (GPa) = 27.89349 47.76482 37.82915
# Shear Modulus (GPa) = 22.67694 32.98466 27.83080
#
# Velocity S-wave (km/s) = 3.19935 3.85857 3.54432
# Velocity P-wave (km/s) = 5.12234 6.43517 5.81591
#
# Compressibility (1/GPa) = 0.03585066
#
# Stress axis : x y z
#
# Youngs Moduli (GPa) = 88.55875 97.92578 27.63402
#
# Poissons Ratio (x) = 0.02274 0.18792
# Poissons Ratio (y) = 0.02057 0.10743
# Poissons Ratio (z) = 0.60223 0.38069
#
# Static dielectric constant tensor:
#      x y z
#    x 1.893640 0.049610 0.003450 
#    y 0.049610 1.807280 0.000190 
#    z 0.003450 0.000190 1.886200 
# 
# From -- ./inp_files/480788.got.cif
#   From: 2010.05.17/outbox.cif.g08.bks.cpg/sg2_241_cif.got.tgz:480788.got - 2010.06.03 11:33:40.
