data_PCOD9099619
_publ_section_title
;
Structure prediction by ZEFSAII (Michael W. Deem and Ramdas Pophale) SiO2 
 PCOD9099619
Probable space group: P -1
;
_chemical_formula_sum "Si O2"
_cell_formula_units_Z 16
_cell_length_a 5.683494
_cell_length_b 5.283625
_cell_length_c 24.438619
_cell_angle_alpha 94.590850
_cell_angle_beta 61.140983
_cell_angle_gamma 101.933004
_cell_volume 628.681225
_symmetry_space_group_name_H-M "P -1"
_symmetry_group_IT_number 2
_symmetry_cell_setting 'triclinic'
loop_
_space_group_symop_operation_xyz
x,y,z
-x,-y,-z
loop_
_atom_site_type_symbol
_atom_site_label
_atom_site_fract_x
_atom_site_fract_y
_atom_site_fract_z
Si Si1 0.581932 0.459987 0.369119
Si Si2 0.758472 0.852591 0.791007
Si Si3 0.540025 0.606633 0.256060
Si Si4 0.279032 0.165682 0.866385
Si Si5 0.350847 0.380562 0.096291
Si Si6 0.179918 0.711010 0.022608
Si Si7 0.073943 0.856893 0.325552
Si Si8 0.432708 0.020859 0.570923
O O1 0.588420 0.459858 0.302970
O O2 0.471559 0.196610 0.407220
O O3 0.898572 0.571342 0.350899
O O4 0.451564 0.696007 0.411715
O O5 0.670988 0.597681 0.759851
O O6 0.453304 0.406218 0.884811
O O7 0.852739 0.776270 0.838767
O O8 0.951276 0.053703 0.733335
O O9 0.763345 0.723927 0.187689
O O10 0.386854 0.837581 0.295942
O O11 0.004216 0.089363 0.931751
O O12 0.480037 0.963311 0.834867
O O13 0.236475 0.545780 0.066128
O O14 0.540876 0.206220 0.041369
O O15 0.000000 0.500000 0.000000
O O16 0.898569 0.018133 0.384077
O O17 0.500000 0.000000 0.500000
#
# Coordination Sequence:
#
# PCOD9099619 Si02
#       8
#     2   2   2   2   2   2   2   2
#     4  10  23  40  67  93 128 171 212 263 316 375
#     4  10  20  37  61  86 125 158 208 263 320 379
#     4  10  21  39  59  92 125 162 212 263 317 380
#     4   9  20  34  54  85 116 154 200 262 315 377
#     4   9  19  37  57  79 115 159 202 259 319 381
#     4   9  18  37  56  78 116 159 206 260 315 378
#     4   9  22  38  63  88 128 164 204 264 317 375
#     4  10  22  43  67  95 130 171 214 261 313 378
#
# _framework density 25.450099000000002
#
# number of rings (size 3 to 8) (size 9 to 14) (size 15 to 20)
#    0.750    1.750    0.000    1.125    3.500    4.500 
#    0.000   14.375    0.000    0.000    0.000    0.000 
#    0.000    0.000    0.000    0.000    0.000    0.000 
#
# Total GULP energy -89372.171151 kJ/mol
# GULP energy per Si atom -5585.760697 kJ/mol
# Density = 2.539217 g / cm^3
# Si number density = 25.450099 Si / 1000 Ang^3
#
#
#
# Elastic Constant Matrix: (Units=GPa)
#
#
# Indices 1 2 3 4 5 6 
#
# 1 32.4335 8.0065 43.4019 2.4097 5.6042 0.9608
# 2 8.0065 118.1013 59.0321 2.1704 1.1506 -6.0728
# 3 43.4019 59.0321 193.1306 9.8186 14.3121 -16.1996
# 4 2.4097 2.1704 9.8186 42.5304 -5.4675 -0.4043
# 5 5.6042 1.1506 14.3121 -5.4675 30.1329 5.3491
# 6 0.9608 -6.0728 -16.1996 -0.4043 5.3491 26.9655
#
#
#
# Elastic Compliance Matrix: (Units=1/GPa)
#
#
# Indices 1 2 3 4 5 6 
#
# 1 0.046397 0.002288 -0.011616 -0.000381 -0.001893 -0.007747
# 2 0.002288 0.010149 -0.003734 0.000349 0.001067 -0.000245
# 3 -0.011616 -0.003734 0.009825 -0.001849 -0.003800 0.006202
# 4 -0.000381 0.000349 -0.001849 0.024663 0.005728 -0.001785
# 5 -0.001893 0.001067 -0.003800 0.005728 0.038016 -0.009431
# 6 -0.007747 -0.000245 0.006202 -0.001785 -0.009431 0.042875
#
#
# Mechanical properties :
#
#
# Convention : Reuss Voigt Hill
#
# Bulk Modulus (GPa) = 24.84629 62.72738 43.78684
# Shear Modulus (GPa) = 23.64462 35.47409 29.55936
#
# Velocity S-wave (km/s) = 3.05135 3.73751 3.41172
# Velocity P-wave (km/s) = 4.71150 6.58225 5.72382
#
# Compressibility (1/GPa) = 0.04024746
#
# Stress axis : x y z
#
# Youngs Moduli (GPa) = 21.55317 98.53138 101.77692
#
# Poissons Ratio (x) = -0.22544 1.18226
# Poissons Ratio (y) = -0.04931 0.38001
# Poissons Ratio (z) = 0.25037 0.36789
#
# Static dielectric constant tensor:
#      x y z
#    x 2.076890 0.009650 -0.013780 
#    y 0.009650 2.056550 0.000180 
#    z -0.013780 0.000180 1.959040 
# 
# From -- ./inp_files/603147.got.cif
#   From: 2010.05.17/outbox.cif.g08.bks.cpg/sg2_302_cif.got.tgz:603147.got - 2010.06.03 11:33:40.
