data_PCOD9099204
_publ_section_title
;
Structure prediction by ZEFSAII (Michael W. Deem and Ramdas Pophale) SiO2 
 PCOD9099204
Probable space group: P -1
;
_chemical_formula_sum "Si O2"
_cell_formula_units_Z 14
_cell_length_a 8.228707
_cell_length_b 11.999403
_cell_length_c 13.617700
_cell_angle_alpha 63.300411
_cell_angle_beta 146.936391
_cell_angle_gamma 119.608411
_cell_volume 636.024080
_symmetry_space_group_name_H-M "P -1"
_symmetry_group_IT_number 2
_symmetry_cell_setting 'triclinic'
loop_
_space_group_symop_operation_xyz
x,y,z
-x,-y,-z
loop_
_atom_site_type_symbol
_atom_site_label
_atom_site_fract_x
_atom_site_fract_y
_atom_site_fract_z
Si Si1 0.515757 0.889253 0.370054
Si Si2 0.887268 0.353644 0.966604
Si Si3 0.700341 0.807243 0.684998
Si Si4 0.872332 0.712527 0.097579
Si Si5 0.140396 0.565942 0.444208
Si Si6 0.267677 0.311195 0.573845
Si Si7 0.589418 0.161747 0.273826
O O1 0.685621 0.908941 0.552942
O O2 0.627188 0.771284 0.425489
O O3 0.148387 0.838004 0.209573
O O4 0.599849 0.020438 0.299721
O O5 0.521178 0.317282 0.783733
O O6 0.036893 0.341619 0.939411
O O7 0.000000 0.500000 0.000000
O O8 0.007495 0.253563 0.135191
O O9 0.417497 0.686063 0.563705
O O10 0.636523 0.858892 0.738527
O O11 0.895840 0.613615 0.234534
O O12 0.555544 0.753937 0.907850
O O13 0.263446 0.457510 0.491588
O O14 0.000000 0.500000 0.500000
O O15 0.920387 0.237841 0.448205
#
# Coordination Sequence:
#
# PCOD9099204 Si02
#       7
#     2   2   2   2   2   2   2
#     4  10  22  40  63  87 122 161 203 243 290 359
#     4  10  20  37  59  89 123 154 196 244 300 361
#     4  10  21  38  62  89 116 166 199 241 297 360
#     4   9  23  38  64  89 114 166 200 240 301 359
#     4  11  21  40  61  91 124 149 200 255 305 352
#     4  11  23  37  62  89 125 153 195 255 305 342
#     4  11  21  42  60  90 122 160 202 243 294 357
#
# _framework density 22.011745000000001
#
# number of rings (size 3 to 8) (size 9 to 14) (size 15 to 20)
#    0.000    1.714    2.857    1.286    2.000    2.286 
#    2.571    0.714    0.000    0.000    0.000    0.000 
#    0.000    0.000    0.000    0.000    0.000    0.000 
#
# Total GULP energy -78214.242674 kJ/mol
# GULP energy per Si atom -5586.731620 kJ/mol
# Density = 2.196164 g / cm^3
# Si number density = 22.011745 Si / 1000 Ang^3
#
#
#
# Elastic Constant Matrix: (Units=GPa)
#
#
# Indices 1 2 3 4 5 6 
#
# 1 32.2659 16.5431 31.0720 -8.6821 -0.2796 -5.1324
# 2 16.5431 72.4520 31.5005 -14.9848 -3.3859 -3.2262
# 3 31.0720 31.5005 176.3911 -18.2725 -0.2407 13.4420
# 4 -8.6821 -14.9848 -18.2725 31.4962 2.1064 1.0781
# 5 -0.2796 -3.3859 -0.2407 2.1064 27.4795 3.3522
# 6 -5.1324 -3.2262 13.4420 1.0781 3.3522 19.6074
#
#
#
# Elastic Compliance Matrix: (Units=1/GPa)
#
#
# Indices 1 2 3 4 5 6 
#
# 1 0.045091 -0.005284 -0.007731 0.005046 -0.002648 0.016409
# 2 -0.005284 0.017040 -0.001696 0.005505 0.001359 0.002048
# 3 -0.007731 -0.001696 0.008164 0.002035 0.000618 -0.008117
# 4 0.005046 0.005505 0.002035 0.037103 -0.001991 -0.000868
# 5 -0.002648 0.001359 0.000618 -0.001991 0.037568 -0.007207
# 6 0.016409 0.002048 -0.008117 -0.000868 -0.007207 0.062478
#
#
# Mechanical properties :
#
#
# Convention : Reuss Voigt Hill
#
# Bulk Modulus (GPa) = 24.46590 48.81558 36.64074
# Shear Modulus (GPa) = 19.96081 29.18286 24.57184
#
# Velocity S-wave (km/s) = 3.01462 3.64508 3.34474
# Velocity P-wave (km/s) = 4.82248 6.31987 5.62126
#
# Compressibility (1/GPa) = 0.04087322
#
# Stress axis : x y z
#
# Youngs Moduli (GPa) = 22.17723 58.68714 122.48705
#
# Poissons Ratio (x) = 0.31011 0.94691
# Poissons Ratio (y) = 0.11719 0.20775
# Poissons Ratio (z) = 0.17145 0.09954
#
# Static dielectric constant tensor:
#      x y z
#    x 1.867240 -0.023990 0.001840 
#    y -0.023990 1.794220 -0.015170 
#    z 0.001840 -0.015170 1.816840 
# 
# From -- ./inp_files/173149.got.cif
#   From: 2010.05.17/outbox.cif.g08.bks.cpg/sg2_87_cif.got.tgz:173149.got - 2010.06.03 11:33:40.
