data_PCOD9099955
_publ_section_title
;
Structure prediction by ZEFSAII (Michael W. Deem and Ramdas Pophale) SiO2 
 PCOD9099955
Probable space group: P -1
;
_chemical_formula_sum "Si O2"
_cell_formula_units_Z 14
_cell_length_a 9.353524
_cell_length_b 9.946797
_cell_length_c 11.097086
_cell_angle_alpha 38.669217
_cell_angle_beta 87.696789
_cell_angle_gamma 81.076563
_cell_volume 631.788544
_symmetry_space_group_name_H-M "P -1"
_symmetry_group_IT_number 2
_symmetry_cell_setting 'triclinic'
loop_
_space_group_symop_operation_xyz
x,y,z
-x,-y,-z
loop_
_atom_site_type_symbol
_atom_site_label
_atom_site_fract_x
_atom_site_fract_y
_atom_site_fract_z
Si Si1 0.423097 0.028835 0.852291
Si Si2 0.672374 0.798237 0.860644
Si Si3 0.291624 0.607948 0.175466
Si Si4 0.674621 0.482842 0.497907
Si Si5 0.477881 0.753054 0.693915
Si Si6 0.084712 0.360404 0.203560
Si Si7 0.210878 0.621063 0.695666
O O1 0.562730 0.003358 0.776442
O O2 0.315959 0.260511 0.681612
O O3 0.337485 0.831052 0.974477
O O4 0.500000 0.000000 0.000000
O O5 0.561194 0.688209 0.861835
O O6 0.797218 0.820861 0.744478
O O7 0.743152 0.632534 0.079576
O O8 0.256815 0.629014 0.303687
O O9 0.434876 0.415262 0.288517
O O10 0.170063 0.516707 0.167737
O O11 0.500000 0.500000 0.500000
O O12 0.743686 0.377529 0.445813
O O13 0.310456 0.740802 0.693734
O O14 0.500000 0.000000 0.500000
O O15 0.959877 0.292242 0.336320
O O16 0.000000 0.500000 0.000000
#
# Coordination Sequence:
#
# PCOD9099955 Si02
#       7
#     2   2   2   2   2   2   2
#     4  12  21  37  69  97 124 165 211 264 319 361
#     4  10  20  37  62  88 121 159 211 257 312 365
#     4  11  23  42  62  98 125 167 213 262 312 375
#     4  12  22  39  66  98 127 159 215 265 309 376
#     4  11  21  35  63  93 121 159 215 266 311 363
#     4   9  23  41  65  86 130 170 207 258 317 380
#     4  11  21  40  61  91 125 168 205 258 319 369
#
# _framework density 22.159312
#
# number of rings (size 3 to 8) (size 9 to 14) (size 15 to 20)
#    0.000    1.143    5.714    1.286    4.000    0.571 
#    0.000    3.571    3.143    0.000    0.000    0.000 
#    0.000    0.000    0.000    0.000    0.000    0.000 
#
# Total GULP energy -78210.760776 kJ/mol
# GULP energy per Si atom -5586.482913 kJ/mol
# Density = 2.210888 g / cm^3
# Si number density = 22.159312 Si / 1000 Ang^3
#
#
#
# Elastic Constant Matrix: (Units=GPa)
#
#
# Indices 1 2 3 4 5 6 
#
# 1 137.7649 54.2342 18.3083 9.7395 -27.9640 -0.9158
# 2 54.2342 106.5913 12.2695 28.8208 -18.0696 -16.0140
# 3 18.3083 12.2695 65.9131 -1.3354 -10.4748 -4.7706
# 4 9.7395 28.8208 -1.3354 47.4476 4.7412 -4.4554
# 5 -27.9640 -18.0696 -10.4748 4.7412 29.7226 6.4519
# 6 -0.9158 -16.0140 -4.7706 -4.4554 6.4519 38.5781
#
#
#
# Elastic Compliance Matrix: (Units=1/GPa)
#
#
# Indices 1 2 3 4 5 6 
#
# 1 0.010713 -0.004245 -0.001171 -0.000726 0.007864 -0.003052
# 2 -0.004245 0.015621 -0.000684 -0.008803 0.005727 0.004325
# 3 -0.001171 -0.000684 0.016338 0.000840 0.003854 0.001161
# 4 -0.000726 -0.008803 0.000840 0.027772 -0.010470 0.001391
# 5 0.007864 0.005727 0.003854 -0.010470 0.048932 -0.006352
# 6 -0.003052 0.004325 0.001161 0.001391 -0.006352 0.029011
#
#
# Mechanical properties :
#
#
# Convention : Reuss Voigt Hill
#
# Bulk Modulus (GPa) = 32.81825 53.32147 43.06986
# Shear Modulus (GPa) = 29.28367 38.18014 33.73191
#
# Velocity S-wave (km/s) = 3.63920 4.15539 3.90583
# Velocity P-wave (km/s) = 5.70093 6.86571 6.31026
#
# Compressibility (1/GPa) = 0.03047085
#
# Stress axis : x y z
#
# Youngs Moduli (GPa) = 93.34648 64.01655 61.20833
#
# Poissons Ratio (x) = 0.27176 0.07169
# Poissons Ratio (y) = 0.39626 0.04186
# Poissons Ratio (z) = 0.10934 0.04378
#
# Static dielectric constant tensor:
#      x y z
#    x 1.830080 -0.024610 -0.028150 
#    y -0.024610 1.859180 0.005040 
#    z -0.028150 0.005040 1.895170 
# 
# From -- ./inp_files/261387.got.cif
#   From: 2010.05.17/outbox.cif.g08.bks.cpg/sg2_131_cif.got.tgz:261387.got - 2010.06.03 11:33:40.
