data_PCOD9099739
_publ_section_title
;
Structure prediction by ZEFSAII (Michael W. Deem and Ramdas Pophale) SiO2 
 PCOD9099739
Probable space group: P -1
;
_chemical_formula_sum "Si O2"
_cell_formula_units_Z 16
_cell_length_a 19.107479
_cell_length_b 19.617225
_cell_length_c 8.321688
_cell_angle_alpha 48.290302
_cell_angle_beta 43.108943
_cell_angle_gamma 17.887069
_cell_volume 648.265298
_symmetry_space_group_name_H-M "P -1"
_symmetry_group_IT_number 2
_symmetry_cell_setting 'triclinic'
loop_
_space_group_symop_operation_xyz
x,y,z
-x,-y,-z
loop_
_atom_site_type_symbol
_atom_site_label
_atom_site_fract_x
_atom_site_fract_y
_atom_site_fract_z
Si Si1 0.024568 0.184082 0.086291
Si Si2 0.617547 0.055760 0.867340
Si Si3 0.532318 0.657778 0.548780
Si Si4 0.190843 0.293250 0.880931
Si Si5 0.506090 0.807405 0.641386
Si Si6 0.178208 0.462277 0.161419
Si Si7 0.093133 0.886036 0.804188
Si Si8 0.218057 0.708347 0.201677
O O1 0.817380 0.432540 0.046523
O O2 0.247850 0.028361 0.828044
O O3 0.907531 0.184101 0.228410
O O4 0.173813 0.061159 0.195211
O O5 0.488374 0.232640 0.687663
O O6 0.391322 0.222747 0.108509
O O7 0.724797 0.871390 0.924094
O O8 0.481774 0.734817 0.692609
O O9 0.337452 0.748686 0.644597
O O10 0.780095 0.394387 0.569631
O O11 0.423144 0.167101 0.634962
O O12 0.061916 0.370998 0.803407
O O13 0.000000 0.500000 0.000000
O O14 0.751454 0.598705 0.673362
O O15 0.062962 0.850746 0.074710
O O16 0.872194 0.139830 0.765912
O O17 0.500000 0.500000 0.000000
#
# Coordination Sequence:
#
# PCOD9099739 Si02
#       8
#     2   2   2   2   2   2   2   2
#     4  10  22  41  63  91 128 167 209 259 311 368
#     4  10  25  44  60  92 131 164 209 260 313 382
#     4  11  23  38  62  93 128 167 209 257 313 370
#     4  11  25  44  68  93 125 164 206 260 322 379
#     4  11  23  39  65  95 122 163 212 260 311 372
#     4  10  23  43  65  90 127 165 208 261 314 372
#     4  10  20  37  61  90 126 165 212 259 303 365
#     4   9  18  33  55  86 120 157 205 257 302 355
#
# _framework density 24.681253999999999
#
# number of rings (size 3 to 8) (size 9 to 14) (size 15 to 20)
#    0.000    1.750    0.000    4.125    0.000   15.000 
#    0.000    1.250    0.000    0.000    0.000    0.000 
#    0.000    0.000    0.000    0.000    0.000    0.000 
#
# Total GULP energy -89283.513781 kJ/mol
# GULP energy per Si atom -5580.219611 kJ/mol
# Density = 2.462508 g / cm^3
# Si number density = 24.681254 Si / 1000 Ang^3
#
#
#
# Elastic Constant Matrix: (Units=GPa)
#
#
# Indices 1 2 3 4 5 6 
#
# 1 144.8045 34.4649 30.6962 -8.7027 -16.5470 9.0895
# 2 34.4649 108.8645 38.2830 -27.1288 -6.1833 33.8427
# 3 30.6962 38.2830 84.8979 -20.1694 -4.0346 -3.0484
# 4 -8.7027 -27.1288 -20.1694 52.0069 -0.5258 -4.2775
# 5 -16.5470 -6.1833 -4.0346 -0.5258 28.8092 -5.2109
# 6 9.0895 33.8427 -3.0484 -4.2775 -5.2109 39.3685
#
#
#
# Elastic Compliance Matrix: (Units=1/GPa)
#
#
# Indices 1 2 3 4 5 6 
#
# 1 0.008197 -0.001660 -0.002093 -0.000276 0.004031 -0.000124
# 2 -0.001660 0.018171 -0.006929 0.005249 -0.000694 -0.015296
# 3 -0.002093 -0.006929 0.016783 0.003235 0.001212 0.008251
# 4 -0.000276 0.005249 0.003235 0.023069 0.001574 -0.001483
# 5 0.004031 -0.000694 0.001212 0.001574 0.037972 0.004957
# 6 -0.000124 -0.015296 0.008251 -0.001483 0.004957 0.039713
#
#
# Mechanical properties :
#
#
# Convention : Reuss Voigt Hill
#
# Bulk Modulus (GPa) = 45.90161 60.60612 53.25386
# Shear Modulus (GPa) = 28.98026 39.71177 34.34602
#
# Velocity S-wave (km/s) = 3.43035 4.01557 3.73444
# Velocity P-wave (km/s) = 5.85900 6.79033 6.34178
#
# Compressibility (1/GPa) = 0.02178573
#
# Stress axis : x y z
#
# Youngs Moduli (GPa) = 122.00248 55.03127 59.58504
#
# Poissons Ratio (x) = 0.09135 0.12474
# Poissons Ratio (y) = 0.20251 0.41287
# Poissons Ratio (z) = 0.25541 0.38132
#
# Static dielectric constant tensor:
#      x y z
#    x 1.968530 -0.019530 0.033090 
#    y -0.019530 1.970570 0.020790 
#    z 0.033090 0.020790 2.067460 
# 
# From -- ./inp_files/336699.got.cif
#   From: 2010.05.17/outbox.cif.g08.bks.cpg/sg2_169_cif.got.tgz:336699.got - 2010.06.03 11:33:40.
