data_PCOD9099422
_publ_section_title
;
Structure prediction by ZEFSAII (Michael W. Deem and Ramdas Pophale) SiO2 
 PCOD9099422
Probable space group: P -1
;
_chemical_formula_sum "Si O2"
_cell_formula_units_Z 16
_cell_length_a 10.491521
_cell_length_b 11.740074
_cell_length_c 13.051075
_cell_angle_alpha 51.223621
_cell_angle_beta 147.468772
_cell_angle_gamma 130.803835
_cell_volume 643.045876
_symmetry_space_group_name_H-M "P -1"
_symmetry_group_IT_number 2
_symmetry_cell_setting 'triclinic'
loop_
_space_group_symop_operation_xyz
x,y,z
-x,-y,-z
loop_
_atom_site_type_symbol
_atom_site_label
_atom_site_fract_x
_atom_site_fract_y
_atom_site_fract_z
Si Si1 0.455370 0.760581 0.132340
Si Si2 0.006314 0.111611 0.814145
Si Si3 0.136923 0.662501 0.553481
Si Si4 0.355738 0.366784 0.055950
Si Si5 0.106733 0.616942 0.144721
Si Si6 0.332339 0.929965 0.214969
Si Si7 0.134683 0.334265 0.432372
Si Si8 0.709223 0.080680 0.238495
O O1 0.192026 0.682176 0.053214
O O2 0.629328 0.660384 0.341246
O O3 0.600337 0.925948 0.187074
O O4 0.410847 0.796750 0.965043
O O5 0.963759 0.203455 0.635634
O O6 0.751823 0.048307 0.740653
O O7 0.178671 0.237080 0.937371
O O8 0.143921 0.981439 0.979771
O O9 0.426953 0.689994 0.715926
O O10 0.000000 0.500000 0.500000
O O11 0.067450 0.643098 0.636565
O O12 0.500000 0.500000 0.000000
O O13 0.174683 0.404000 0.997672
O O14 0.283529 0.751490 0.260522
O O15 0.176145 0.464330 0.303242
O O16 0.600626 0.032206 0.304748
O O17 0.000706 0.167411 0.387590
#
# Coordination Sequence:
#
# PCOD9099422 Si02
#       8
#     2   2   2   2   2   2   2   2
#     4  10  23  44  66  91 126 166 212 262 316 378
#     4  10  20  37  60  88 125 170 209 255 316 380
#     4  12  23  37  63  99 127 164 212 255 320 381
#     4  11  20  39  61  90 129 162 207 264 313 371
#     4  10  22  40  61  91 128 166 205 261 317 369
#     4   9  19  39  60  84 130 169 201 262 319 364
#     4  12  23  39  67  95 124 165 213 263 314 374
#     4  10  22  42  66  92 123 166 214 259 318 375
#
# _framework density 24.881584
#
# number of rings (size 3 to 8) (size 9 to 14) (size 15 to 20)
#    0.000    1.500    2.500    3.000    0.000    1.500 
#    0.000   20.000    0.000    0.000    0.000    0.000 
#    0.000    0.000    0.000    0.000    0.000    0.000 
#
# Total GULP energy -89500.558824 kJ/mol
# GULP energy per Si atom -5593.784926 kJ/mol
# Density = 2.482495 g / cm^3
# Si number density = 24.881584 Si / 1000 Ang^3
#
#
#
# Elastic Constant Matrix: (Units=GPa)
#
#
# Indices 1 2 3 4 5 6 
#
# 1 65.5361 28.2851 6.7627 4.4510 1.9623 21.4901
# 2 28.2851 126.1665 24.5302 -9.4514 -7.2533 19.2919
# 3 6.7627 24.5302 98.8552 2.4266 1.9528 3.9893
# 4 4.4510 -9.4514 2.4266 35.1050 3.4799 1.5929
# 5 1.9623 -7.2533 1.9528 3.4799 31.1889 0.3565
# 6 21.4901 19.2919 3.9893 1.5929 0.3565 31.1447
#
#
#
# Elastic Compliance Matrix: (Units=1/GPa)
#
#
# Indices 1 2 3 4 5 6 
#
# 1 0.020871 -0.003078 -0.000068 -0.002755 -0.001576 -0.012327
# 2 -0.003078 0.010039 -0.002244 0.003196 0.002358 -0.003997
# 3 -0.000068 -0.002244 0.010723 -0.001239 -0.001052 0.000139
# 4 -0.002755 0.003196 -0.001239 0.030079 -0.002346 -0.001432
# 5 -0.001576 0.002358 -0.001052 -0.002346 0.033044 -0.000496
# 6 -0.012327 -0.003997 0.000139 -0.001432 -0.000496 0.043151
#
#
# Mechanical properties :
#
#
# Convention : Reuss Voigt Hill
#
# Bulk Modulus (GPa) = 32.41248 45.52377 38.96813
# Shear Modulus (GPa) = 29.59122 34.88634 32.23878
#
# Velocity S-wave (km/s) = 3.45234 3.74852 3.60347
# Velocity P-wave (km/s) = 5.38019 6.08860 5.74533
#
# Compressibility (1/GPa) = 0.03085231
#
# Stress axis : x y z
#
# Youngs Moduli (GPa) = 47.91447 99.61571 93.25825
#
# Poissons Ratio (x) = 0.30661 0.00632
# Poissons Ratio (y) = 0.14748 0.20929
# Poissons Ratio (z) = 0.00325 0.22355
#
# Static dielectric constant tensor:
#      x y z
#    x 1.979550 -0.018700 0.053300 
#    y -0.018700 2.017810 -0.004330 
#    z 0.053300 -0.004330 1.957740 
# 
# From -- ./inp_files/521509.got.cif
#   From: 2010.05.17/outbox.cif.g08.bks.cpg/sg2_261_cif.got.tgz:521509.got - 2010.06.03 11:33:40.
