data_PCOD9099909
_publ_section_title
;
Structure prediction by ZEFSAII (Michael W. Deem and Ramdas Pophale) SiO2 
 PCOD9099909
Probable space group: P -1
;
_chemical_formula_sum "Si O2"
_cell_formula_units_Z 16
_cell_length_a 10.183141
_cell_length_b 13.326471
_cell_length_c 5.485044
_cell_angle_alpha 60.912685
_cell_angle_beta 88.146562
_cell_angle_gamma 88.376805
_cell_volume 650.064249
_symmetry_space_group_name_H-M "P -1"
_symmetry_group_IT_number 2
_symmetry_cell_setting 'triclinic'
loop_
_space_group_symop_operation_xyz
x,y,z
-x,-y,-z
loop_
_atom_site_type_symbol
_atom_site_label
_atom_site_fract_x
_atom_site_fract_y
_atom_site_fract_z
Si Si1 0.350978 0.861496 0.282993
Si Si2 0.846315 0.026752 0.442488
Si Si3 0.243731 0.747679 0.025163
Si Si4 0.631648 0.599708 0.609666
Si Si5 0.496707 0.351084 0.943554
Si Si6 0.599415 0.945495 0.358705
Si Si7 0.980496 0.365067 0.106292
Si Si8 0.928080 0.622349 0.413223
O O1 0.239253 0.916755 0.398460
O O2 0.502903 0.850871 0.370172
O O3 0.289068 0.746133 0.306713
O O4 0.372730 0.958864 0.959577
O O5 0.838934 0.134764 0.130995
O O6 0.746685 0.926286 0.479027
O O7 0.000000 0.000000 0.500000
O O8 0.159074 0.658622 0.984167
O O9 0.388419 0.742826 0.905452
O O10 0.573439 0.471374 0.775675
O O11 0.572254 0.658975 0.300459
O O12 0.784947 0.600495 0.547295
O O13 0.600889 0.644818 0.829004
O O14 0.500000 0.000000 0.500000
O O15 0.000610 0.314273 0.438060
O O16 0.073210 0.324008 0.922930
O O17 0.000000 0.500000 0.000000
O O18 0.000000 0.500000 0.500000
#
# Coordination Sequence:
#
# PCOD9099909 Si02
#       8
#     2   2   2   2   2   2   2   2
#     4   9  19  37  67  93 126 166 222 273 345 413
#     4  10  22  40  67  99 136 171 222 281 346 420
#     4  11  24  38  64  95 128 175 229 278 341 400
#     4  10  21  39  61  90 123 171 225 273 332 389
#     4  10  22  37  62  92 126 165 220 281 326 396
#     4   8  16  36  64  93 119 165 211 261 345 413
#     4  10  22  37  62  91 129 179 224 268 333 401
#     4  10  20  37  62  86 123 173 220 265 333 396
#
# _framework density 24.612952
#
# number of rings (size 3 to 8) (size 9 to 14) (size 15 to 20)
#    0.000    2.250    0.000    2.250    3.500    7.000 
#    0.000    1.250   27.500    0.000    0.000    0.000 
#    0.000    0.000    0.000    0.000    0.000    0.000 
#
# Total GULP energy -89088.258985 kJ/mol
# GULP energy per Si atom -5568.016187 kJ/mol
# Density = 2.455693 g / cm^3
# Si number density = 24.612952 Si / 1000 Ang^3
#
#
#
# Elastic Constant Matrix: (Units=GPa)
#
#
# Indices 1 2 3 4 5 6 
#
# 1 245.5256 66.2961 61.3082 28.0458 8.3467 9.1084
# 2 66.2961 86.9062 45.6914 35.3165 14.5728 19.8411
# 3 61.3082 45.6914 96.1104 31.5288 -6.6506 11.3628
# 4 28.0458 35.3165 31.5288 45.7152 -3.3846 10.2376
# 5 8.3467 14.5728 -6.6506 -3.3846 43.7232 10.1230
# 6 9.1084 19.8411 11.3628 10.2376 10.1230 42.8436
#
#
#
# Elastic Compliance Matrix: (Units=1/GPa)
#
#
# Indices 1 2 3 4 5 6 
#
# 1 0.005447 -0.003360 -0.002191 0.000518 -0.000435 0.000958
# 2 -0.003360 0.024443 -0.005361 -0.012814 -0.008352 -0.004148
# 3 -0.002191 -0.005361 0.016562 -0.005313 0.004605 -0.001262
# 4 0.000518 -0.012814 -0.005313 0.036318 0.006887 -0.003072
# 5 -0.000435 -0.008352 0.004605 0.006887 0.028265 -0.005585
# 6 0.000958 -0.004148 -0.001262 -0.003072 -0.005585 0.027447
#
#
# Mechanical properties :
#
#
# Convention : Reuss Voigt Hill
#
# Bulk Modulus (GPa) = 40.60305 86.12594 63.36450
# Shear Modulus (GPa) = 29.67100 43.47283 36.57191
#
# Velocity S-wave (km/s) = 3.47580 4.20725 3.85889
# Velocity P-wave (km/s) = 5.71320 7.65959 6.75685
#
# Compressibility (1/GPa) = 0.02462869
#
# Stress axis : x y z
#
# Youngs Moduli (GPa) = 183.57961 40.91093 60.38035
#
# Poissons Ratio (x) = 0.13746 0.13228
# Poissons Ratio (y) = 0.61680 0.32371
# Poissons Ratio (z) = 0.40217 0.21933
#
# Static dielectric constant tensor:
#      x y z
#    x 1.979450 0.059440 0.061180 
#    y 0.059440 2.054780 0.012950 
#    z 0.061180 0.012950 2.163820 
# 
# From -- ./inp_files/37433.got.cif
#   From: 2010.05.17/outbox.cif.g08.bks.cpg/sg2_19_cif.got.tgz:37433.got - 2010.06.03 11:33:40.
