data_PCOD9099947
_publ_section_title
;
Structure prediction by ZEFSAII (Michael W. Deem and Ramdas Pophale) SiO2 
 PCOD9099947
Probable space group: P -1
;
_chemical_formula_sum "Si O2"
_cell_formula_units_Z 16
_cell_length_a 5.493505
_cell_length_b 8.096562
_cell_length_c 15.395754
_cell_angle_alpha 98.407586
_cell_angle_beta 97.183315
_cell_angle_gamma 113.084102
_cell_volume 610.538258
_symmetry_space_group_name_H-M "P -1"
_symmetry_group_IT_number 2
_symmetry_cell_setting 'triclinic'
loop_
_space_group_symop_operation_xyz
x,y,z
-x,-y,-z
loop_
_atom_site_type_symbol
_atom_site_label
_atom_site_fract_x
_atom_site_fract_y
_atom_site_fract_z
Si Si1 0.518087 0.458735 0.149317
Si Si2 0.387992 0.291361 0.322927
Si Si3 0.731902 0.313432 0.597332
Si Si4 0.147141 0.944311 0.795066
Si Si5 0.843968 0.725668 0.509397
Si Si6 0.951329 0.510673 0.804233
Si Si7 0.628726 0.044293 0.373107
Si Si8 0.306441 0.105707 0.989365
O O1 0.500396 0.404879 0.248613
O O2 0.834569 0.562121 0.158769
O O3 0.288206 0.531341 0.141530
O O4 0.427316 0.290224 0.064947
O O5 0.252477 0.353495 0.402491
O O6 0.150579 0.106189 0.259488
O O7 0.603722 0.235712 0.374809
O O8 0.433881 0.294689 0.549835
O O9 0.631264 0.097606 0.601795
O O10 0.991934 0.357487 0.550424
O O11 0.831466 0.420268 0.700179
O O12 0.097738 0.736814 0.812581
O O13 0.344703 0.010053 0.727720
O O14 0.257755 0.097191 0.884040
O O15 0.092027 0.916127 0.563238
O O16 0.500000 0.000000 0.000000
O O17 0.000000 0.000000 0.000000
#
# Coordination Sequence:
#
# PCOD9099947 Si02
#       8
#     2   2   2   2   2   2   2   2
#     4  11  21  40  62  90 121 159 187 248 296 356
#     4  10  20  37  62  88 119 149 194 259 294 333
#     4  12  26  40  62  86 115 167 201 245 294 360
#     4  10  22  37  63  93 119 155 190 253 292 351
#     4  11  24  41  60  87 115 157 212 248 290 342
#     4  11  22  41  59  86 125 154 199 236 309 351
#     4  11  22  41  64  85 123 150 208 251 295 338
#     4  12  19  35  64  95 119 149 203 236 293 356
#
# _framework density 26.206385999999998
#
# number of rings (size 3 to 8) (size 9 to 14) (size 15 to 20)
#    0.000    1.000    6.250    1.500    3.500    0.000 
#    0.000   16.250    0.000    1.500    0.000    0.000 
#    0.000    0.000    0.000    0.000    0.000    0.000 
#
# Total GULP energy -89332.647987 kJ/mol
# GULP energy per Si atom -5583.290499 kJ/mol
# Density = 2.614674 g / cm^3
# Si number density = 26.206386 Si / 1000 Ang^3
#
#
#
# Elastic Constant Matrix: (Units=GPa)
#
#
# Indices 1 2 3 4 5 6 
#
# 1 217.8219 6.8982 88.0904 5.0792 -14.3531 -8.1201
# 2 6.8982 53.7943 38.3072 -5.3333 2.9514 5.7704
# 3 88.0904 38.3072 154.6536 58.1313 -20.1670 13.1105
# 4 5.0792 -5.3333 58.1313 20.7493 1.3456 -5.4162
# 5 -14.3531 2.9514 -20.1670 1.3456 50.5919 3.4776
# 6 -8.1201 5.7704 13.1105 -5.4162 3.4776 8.5400
#
#
#
# Elastic Compliance Matrix: (Units=1/GPa)
#
#
# Indices 1 2 3 4 5 6 
#
# 1 0.004123 -0.002446 0.001903 -0.008039 0.002524 -0.003473
# 2 -0.002446 0.018534 0.002986 -0.009984 0.001493 -0.026374
# 3 0.001903 0.002986 -0.004706 0.019060 -0.003426 0.020500
# 4 -0.008039 -0.009984 0.019060 -0.018341 0.009527 -0.045670
# 5 0.002524 0.001493 -0.003426 0.009527 0.018419 0.005192
# 6 -0.003473 -0.026374 0.020500 -0.045670 0.005192 0.069064
#
#
# Mechanical properties :
#
#
# Convention : Reuss Voigt Hill
#
# Bulk Modulus (GPa) = 43.79183 76.98460 60.38822
# Shear Modulus (GPa) = 55.66678 35.50786 45.58732
#
# Velocity S-wave (km/s) = 4.61387 3.68493 4.17532
# Velocity P-wave (km/s) = 6.71791 6.89529 6.80718
#
# Compressibility (1/GPa) = 0.02283531
#
# Stress axis : x y z
#
# Youngs Moduli (GPa) = 242.53178 53.95490 -212.48617
#
# Poissons Ratio (x) = 0.13200 0.40429
# Poissons Ratio (y) = 0.59335 0.63448
# Poissons Ratio (z) = -0.46146 -0.16111
#
# Static dielectric constant tensor:
#      x y z
#    x 2.113670 -0.167610 0.014230 
#    y -0.167610 2.269660 -0.042430 
#    z 0.014230 -0.042430 2.054030 
# 
# From -- ./inp_files/481691.got.cif
#   From: 2010.05.17/outbox.cif.g08.bks.cpg/sg2_241_cif.got.tgz:481691.got - 2010.06.03 11:33:40.
