data_PCOD9099272
_publ_section_title
;
Structure prediction by ZEFSAII (Michael W. Deem and Ramdas Pophale) SiO2 
 PCOD9099272
Probable space group: P -1
;
_chemical_formula_sum "Si O2"
_cell_formula_units_Z 14
_cell_length_a 16.499092
_cell_length_b 7.269885
_cell_length_c 6.901255
_cell_angle_alpha 61.134473
_cell_angle_beta 128.151971
_cell_angle_gamma 112.332782
_cell_volume 566.037737
_symmetry_space_group_name_H-M "P -1"
_symmetry_group_IT_number 2
_symmetry_cell_setting 'triclinic'
loop_
_space_group_symop_operation_xyz
x,y,z
-x,-y,-z
loop_
_atom_site_type_symbol
_atom_site_label
_atom_site_fract_x
_atom_site_fract_y
_atom_site_fract_z
Si Si1 0.670050 0.456619 0.927603
Si Si2 0.698968 0.930043 0.574583
Si Si3 0.544790 0.720939 0.184862
Si Si4 0.880308 0.461847 0.104603
Si Si5 0.894426 0.848473 0.669501
Si Si6 0.377442 0.669319 0.660303
Si Si7 0.939817 0.795634 0.357008
O O1 0.676341 0.704193 0.760006
O O2 0.554034 0.340883 0.791580
O O3 0.761583 0.362447 0.996735
O O4 0.685730 0.426791 0.196258
O O5 0.617405 0.915138 0.281912
O O6 0.811170 0.945768 0.632298
O O7 0.675197 0.123985 0.573298
O O8 0.610733 0.520802 0.370209
O O9 0.493308 0.737706 0.887840
O O10 0.965246 0.307525 0.348168
O O11 0.892784 0.630856 0.214158
O O12 0.897149 0.609200 0.866993
O O13 0.867049 0.842665 0.403627
O O14 0.004588 0.993816 0.769259
#
# Coordination Sequence:
#
# PCOD9099272 Si02
#       7
#     2   2   2   2   2   2   2
#     4   9  20  35  55  83 113 139 190 231 264 345
#     4  11  20  36  59  79 114 152 176 231 288 318
#     4   9  20  37  54  83 114 143 188 227 267 343
#     4  10  20  37  60  81 111 149 184 231 287 327
#     4  10  22  36  56  86 113 139 195 231 269 355
#     4   9  20  36  53  79 115 145 186 228 266 334
#     4  10  21  37  59  80 111 151 179 236 289 323
#
# _framework density 24.733335
#
# number of rings (size 3 to 8) (size 9 to 14) (size 15 to 20)
#    0.857    1.429    0.000    2.571    2.000    0.571 
#    0.000    0.000   18.857    0.000    0.000    0.000 
#    0.000    0.000    0.000    0.000    0.000    0.000 
#
# Total GULP energy -78232.463130 kJ/mol
# GULP energy per Si atom -5588.033081 kJ/mol
# Density = 2.467704 g / cm^3
# Si number density = 24.733335 Si / 1000 Ang^3
#
#
#
# Elastic Constant Matrix: (Units=GPa)
#
#
# Indices 1 2 3 4 5 6 
#
# 1 90.5273 32.4173 29.3526 -3.9832 15.0087 9.2463
# 2 32.4173 66.2912 11.1375 1.3047 3.0381 -15.1942
# 3 29.3526 11.1375 52.0280 -13.4590 -0.6035 11.1840
# 4 -3.9832 1.3047 -13.4590 27.8256 -1.9265 0.3697
# 5 15.0087 3.0381 -0.6035 -1.9265 29.5507 -5.8357
# 6 9.2463 -15.1942 11.1840 0.3697 -5.8357 37.4443
#
#
#
# Elastic Compliance Matrix: (Units=1/GPa)
#
#
# Indices 1 2 3 4 5 6 
#
# 1 0.019522 -0.009612 -0.007615 -0.001075 -0.010754 -0.008112
# 2 -0.009612 0.023372 -0.003508 -0.004015 0.004852 0.013701
# 3 -0.007615 -0.003508 0.029567 0.013769 0.004178 -0.007859
# 4 -0.001075 -0.004015 0.013769 0.042910 0.002963 -0.005438
# 5 -0.010754 0.004852 0.004178 0.002963 0.041005 0.009738
# 6 -0.008112 0.013701 -0.007859 -0.005438 0.009738 0.038188
#
#
# Mechanical properties :
#
#
# Convention : Reuss Voigt Hill
#
# Bulk Modulus (GPa) = 32.26725 39.40682 35.83703
# Shear Modulus (GPa) = 20.29522 28.02674 24.16098
#
# Velocity S-wave (km/s) = 2.86765 3.36989 3.12887
# Velocity P-wave (km/s) = 4.90295 5.57753 5.25108
#
# Compressibility (1/GPa) = 0.03099118
#
# Stress axis : x y z
#
# Youngs Moduli (GPa) = 51.22478 42.78660 33.82129
#
# Poissons Ratio (x) = 0.41128 0.25754
# Poissons Ratio (y) = 0.49239 0.11863
# Poissons Ratio (z) = 0.39007 0.15008
#
# Static dielectric constant tensor:
#      x y z
#    x 1.929570 0.005670 0.023800 
#    y 0.005670 1.916070 0.002830 
#    z 0.023800 0.002830 2.050100 
# 
# From -- ./inp_files/327214.got.cif
#   From: 2010.05.17/outbox.cif.g08.bks.cpg/sg2_164_cif.got.tgz:327214.got - 2010.06.03 11:33:40.
