data_PCOD9099825
_publ_section_title
;
Structure prediction by ZEFSAII (Michael W. Deem and Ramdas Pophale) SiO2 
 PCOD9099825
Probable space group: P -1
;
_chemical_formula_sum "Si O2"
_cell_formula_units_Z 15
_cell_length_a 13.367154
_cell_length_b 8.125448
_cell_length_c 11.455655
_cell_angle_alpha 45.410510
_cell_angle_beta 62.927563
_cell_angle_gamma 95.866247
_cell_volume 589.248348
_symmetry_space_group_name_H-M "P -1"
_symmetry_group_IT_number 2
_symmetry_cell_setting 'triclinic'
loop_
_space_group_symop_operation_xyz
x,y,z
-x,-y,-z
loop_
_atom_site_type_symbol
_atom_site_label
_atom_site_fract_x
_atom_site_fract_y
_atom_site_fract_z
Si Si1 0.500000 0.500000 0.000000
Si Si2 0.299066 0.575652 0.572185
Si Si3 0.188822 0.940570 0.042835
Si Si4 0.645628 0.157297 0.162531
Si Si5 0.028909 0.908823 0.348098
Si Si6 0.845392 0.430594 0.128736
Si Si7 0.370704 0.974018 0.137034
Si Si8 0.777788 0.793709 0.682075
O O1 0.347213 0.223798 0.301625
O O2 0.430056 0.238351 0.065130
O O3 0.240236 0.236229 0.796752
O O4 0.198572 0.588414 0.706326
O O5 0.278214 0.655121 0.416692
O O6 0.478848 0.840839 0.376286
O O7 0.219639 0.773638 0.020382
O O8 0.043067 0.785752 0.280692
O O9 0.298607 0.022407 0.048786
O O10 0.700555 0.172440 0.255174
O O11 0.654898 0.448492 0.983687
O O12 0.114567 0.952061 0.402259
O O13 0.114027 0.260877 0.096135
O O14 0.869425 0.776002 0.547274
O O15 0.000000 0.500000 0.000000
O O16 0.500000 0.000000 0.000000
#
# Coordination Sequence:
#
# PCOD9099825 Si02
#       8
#     1   2   2   2   2   2   2   2
#     4  12  22  38  68 104 132 180 230 290 344 408
#     4  11  24  44  69 101 140 179 227 291 346 411
#     4  11  23  45  68  98 142 182 221 294 353 406
#     4  11  22  41  69  97 130 182 230 281 358 409
#     4   9  21  39  61  87 132 180 217 279 341 411
#     4  10  24  42  63  95 134 181 231 281 343 421
#     4  12  25  42  68 108 140 175 235 286 350 413
#     4  10  20  37  61  95 128 169 234 273 334 417
#
# _framework density 25.456161000000002
#
# number of rings (size 3 to 8) (size 9 to 14) (size 15 to 20)
#    0.000    1.333    4.000    0.800    1.867    2.667 
#    0.000    5.333    0.000    0.000    0.000    0.000 
#    0.000    0.000    0.000    0.000    0.000    0.000 
#
# Total GULP energy -83564.761402 kJ/mol
# GULP energy per Si atom -5570.984093 kJ/mol
# Density = 2.539822 g / cm^3
# Si number density = 25.456161 Si / 1000 Ang^3
#
#
#
# Elastic Constant Matrix: (Units=GPa)
#
#
# Indices 1 2 3 4 5 6 
#
# 1 73.7511 20.6606 23.7583 -3.4686 0.7471 -5.0032
# 2 20.6606 69.5132 28.4278 25.5996 6.1855 -23.2574
# 3 23.7583 28.4278 107.5906 12.3375 -0.5816 -20.1678
# 4 -3.4686 25.5996 12.3375 49.5757 -14.8198 -4.7080
# 5 0.7471 6.1855 -0.5816 -14.8198 72.2665 4.4651
# 6 -5.0032 -23.2574 -20.1678 -4.7080 4.4651 31.0375
#
#
#
# Elastic Compliance Matrix: (Units=1/GPa)
#
#
# Indices 1 2 3 4 5 6 
#
# 1 0.016650 -0.007482 -0.003195 0.005989 0.001941 -0.004370
# 2 -0.007482 0.029902 -0.000847 -0.016008 -0.006959 0.019223
# 3 -0.003195 -0.000847 0.011638 -0.002292 -0.000651 0.006158
# 4 0.005989 -0.016008 -0.002292 0.031026 0.008208 -0.008994
# 5 0.001941 -0.006959 -0.000651 0.008208 0.016490 -0.006452
# 6 -0.004370 0.019223 0.006158 -0.008994 -0.006452 0.049484
#
#
# Mechanical properties :
#
#
# Convention : Reuss Voigt Hill
#
# Bulk Modulus (GPa) = 28.45692 44.06094 36.25893
# Shear Modulus (GPa) = 26.32229 42.44315 34.38272
#
# Velocity S-wave (km/s) = 3.21911 4.08769 3.67913
# Velocity P-wave (km/s) = 5.00200 6.29485 5.68529
#
# Compressibility (1/GPa) = 0.03514084
#
# Stress axis : x y z
#
# Youngs Moduli (GPa) = 60.06003 33.44238 85.92897
#
# Poissons Ratio (x) = 0.25022 0.27455
# Poissons Ratio (y) = 0.44938 0.07280
# Poissons Ratio (z) = 0.19189 0.02833
#
# Static dielectric constant tensor:
#      x y z
#    x 2.324190 0.023690 -0.119070 
#    y 0.023690 2.109090 0.083120 
#    z -0.119070 0.083120 2.182670 
# 
# From -- ./inp_files/281505.got.cif
#   From: 2010.05.17/outbox.cif.g08.bks.cpg/sg2_141_cif.got.tgz:281505.got - 2010.06.03 11:33:40.
