data_PCOD9099924
_publ_section_title
;
Structure prediction by ZEFSAII (Michael W. Deem and Ramdas Pophale) SiO2 
 PCOD9099924
Probable space group: P -1
;
_chemical_formula_sum "Si O2"
_cell_formula_units_Z 16
_cell_length_a 18.233343
_cell_length_b 9.305857
_cell_length_c 9.772292
_cell_angle_alpha 52.548098
_cell_angle_beta 143.797797
_cell_angle_gamma 105.172912
_cell_volume 678.477568
_symmetry_space_group_name_H-M "P -1"
_symmetry_group_IT_number 2
_symmetry_cell_setting 'triclinic'
loop_
_space_group_symop_operation_xyz
x,y,z
-x,-y,-z
loop_
_atom_site_type_symbol
_atom_site_label
_atom_site_fract_x
_atom_site_fract_y
_atom_site_fract_z
Si Si1 0.166111 0.193930 0.424826
Si Si2 0.544993 0.381791 0.491969
Si Si3 0.309956 0.407101 0.588061
Si Si4 0.803697 0.910068 0.154406
Si Si5 0.362612 0.196751 0.243048
Si Si6 0.000234 0.024858 0.781345
Si Si7 0.600698 0.065542 0.288461
Si Si8 0.772085 0.267123 0.500778
O O1 0.187230 0.394243 0.324126
O O2 0.165183 0.175120 0.597140
O O3 0.043430 0.152550 0.206580
O O4 0.303977 0.018077 0.654392
O O5 0.500000 0.500000 0.500000
O O6 0.612640 0.491706 0.439245
O O7 0.410547 0.371141 0.229185
O O8 0.670017 0.143328 0.829914
O O9 0.256262 0.532957 0.574103
O O10 0.434125 0.175474 0.945550
O O11 0.937454 0.923290 0.286990
O O12 0.762103 0.781740 0.057640
O O13 0.500000 0.000000 0.500000
O O14 0.349227 0.118650 0.419371
O O15 0.127062 0.930009 0.136939
O O16 0.864274 0.219585 0.530052
O O17 0.632648 0.244311 0.288328
#
# Coordination Sequence:
#
# PCOD9099924 Si02
#       8
#     2   2   2   2   2   2   2   2
#     4  11  25  38  64  90 127 164 201 247 305 368
#     4  11  22  37  59  93 128 156 197 253 308 360
#     4  12  22  38  59  96 124 152 199 260 306 355
#     4  11  21  43  61  89 118 166 205 244 303 365
#     4  10  20  37  62  87 120 164 201 241 301 369
#     4  10  21  43  63  84 122 165 211 240 300 367
#     4  11  21  40  63  91 123 161 199 251 311 367
#     4  10  21  38  64  92 114 159 208 259 294 355
#
# _framework density 23.582208000000001
#
# number of rings (size 3 to 8) (size 9 to 14) (size 15 to 20)
#    0.000    1.250    2.500    4.875    0.000    1.500 
#    0.000    0.625    0.000    0.000    0.000    0.000 
#    0.000    0.000    0.000    0.000    0.000    0.000 
#
# Total GULP energy -89465.901663 kJ/mol
# GULP energy per Si atom -5591.618854 kJ/mol
# Density = 2.352853 g / cm^3
# Si number density = 23.582208 Si / 1000 Ang^3
#
#
#
# Elastic Constant Matrix: (Units=GPa)
#
#
# Indices 1 2 3 4 5 6 
#
# 1 129.5126 49.1458 15.6113 1.7992 4.3618 -0.9948
# 2 49.1458 157.7520 6.1582 30.1354 11.6768 8.4650
# 3 15.6113 6.1582 30.8481 8.7335 -3.5033 5.2997
# 4 1.7992 30.1354 8.7335 33.6057 5.3759 6.2088
# 5 4.3618 11.6768 -3.5033 5.3759 29.2756 2.8639
# 6 -0.9948 8.4650 5.2997 6.2088 2.8639 37.9934
#
#
#
# Elastic Compliance Matrix: (Units=1/GPa)
#
#
# Indices 1 2 3 4 5 6 
#
# 1 0.009790 -0.003577 -0.005845 0.004224 -0.001634 0.001302
# 2 -0.003577 0.009066 0.002352 -0.008169 -0.001202 -0.001016
# 3 -0.005845 0.002352 0.040132 -0.012541 0.007507 -0.004791
# 4 0.004224 -0.008169 -0.012541 0.041605 -0.006253 -0.002648
# 5 -0.001634 -0.001202 0.007507 -0.006253 0.037182 -0.002603
# 6 0.001302 -0.001016 -0.004791 -0.002648 -0.002603 0.027878
#
#
# Mechanical properties :
#
#
# Convention : Reuss Voigt Hill
#
# Bulk Modulus (GPa) = 22.29898 51.10480 36.70189
# Shear Modulus (GPa) = 25.67484 36.65476 31.16480
#
# Velocity S-wave (km/s) = 3.30318 3.94679 3.63924
# Velocity P-wave (km/s) = 4.90147 6.51824 5.76680
#
# Compressibility (1/GPa) = 0.04484509
#
# Stress axis : x y z
#
# Youngs Moduli (GPa) = 102.14806 110.30390 24.91792
#
# Poissons Ratio (x) = 0.39461 0.14565
# Poissons Ratio (y) = 0.36543 -0.05859
# Poissons Ratio (z) = 0.59707 -0.25938
#
# Static dielectric constant tensor:
#      x y z
#    x 1.902080 0.020860 -0.021310 
#    y 0.020860 1.914050 -0.003410 
#    z -0.021310 -0.003410 1.899700 
# 
# From -- ./inp_files/242924.got.cif
#   From: 2010.05.17/outbox.cif.g08.bks.cpg/sg2_122_cif.got.tgz:242924.got - 2010.06.03 11:33:40.
