data_PCOD9099687
_publ_section_title
;
Structure prediction by ZEFSAII (Michael W. Deem and Ramdas Pophale) SiO2 
 PCOD9099687
Probable space group: P -1
;
_chemical_formula_sum "Si O2"
_cell_formula_units_Z 15
_cell_length_a 18.982291
_cell_length_b 8.143719
_cell_length_c 13.609159
_cell_angle_alpha 84.771987
_cell_angle_beta 35.415241
_cell_angle_gamma 58.046865
_cell_volume 746.878961
_symmetry_space_group_name_H-M "P -1"
_symmetry_group_IT_number 2
_symmetry_cell_setting 'triclinic'
loop_
_space_group_symop_operation_xyz
x,y,z
-x,-y,-z
loop_
_atom_site_type_symbol
_atom_site_label
_atom_site_fract_x
_atom_site_fract_y
_atom_site_fract_z
Si Si1 0.233234 0.971305 0.510132
Si Si2 0.174350 0.464744 0.701869
Si Si3 0.445573 0.932263 0.977658
Si Si4 0.000000 0.000000 0.500000
Si Si5 0.801765 0.339777 0.518793
Si Si6 0.914817 0.410158 0.984507
Si Si7 0.445716 0.125233 0.772623
Si Si8 0.068391 0.258145 0.485343
O O1 0.282362 0.746588 0.415681
O O2 0.423519 0.860909 0.340095
O O3 0.127590 0.200883 0.535354
O O4 0.072145 0.120759 0.770711
O O5 0.124956 0.642015 0.660836
O O6 0.032159 0.458543 0.854432
O O7 0.397641 0.161295 0.445462
O O8 0.148937 0.564318 0.833984
O O9 0.633728 0.629065 0.745303
O O10 0.372821 0.110632 0.954899
O O11 0.500000 0.000000 0.000000
O O12 0.275505 0.994505 0.208705
O O13 0.963007 0.126038 0.428340
O O14 0.933256 0.246816 0.618043
O O15 0.727544 0.635177 0.115036
O O16 0.000000 0.500000 0.500000
#
# Coordination Sequence:
#
# PCOD9099687 Si02
#       8
#     2   2   2   1   2   2   2   2
#     4  10  22  39  55  88 124 155 198 258 295 364
#     4   9  21  39  63  86 121 150 201 261 296 355
#     4  11  21  37  63  82 116 165 197 245 310 357
#     4  10  24  36  60  86 122 160 196 250 294 368
#     4  10  23  42  54  87 125 154 199 252 306 356
#     4  10  20  38  64  90 110 160 204 246 309 362
#     4  10  20  37  61  89 117 152 206 250 297 369
#     4  11  22  39  59  88 121 162 207 248 304 369
#
# _framework density 20.083573999999999
#
# number of rings (size 3 to 8) (size 9 to 14) (size 15 to 20)
#    0.000    1.867    1.333    2.000    5.600    3.733 
#    7.200    0.667    0.000    0.000    0.000    0.000 
#    0.000    0.000    0.000    0.000    0.000    0.000 
#
# Total GULP energy -83505.650523 kJ/mol
# GULP energy per Si atom -5567.043368 kJ/mol
# Density = 2.003786 g / cm^3
# Si number density = 20.083574 Si / 1000 Ang^3
#
#
#
# Elastic Constant Matrix: (Units=GPa)
#
#
# Indices 1 2 3 4 5 6 
#
# 1 87.3593 27.0933 24.2061 11.4668 26.8832 -16.5574
# 2 27.0933 97.1167 16.8123 -0.9555 21.1486 -13.0620
# 3 24.2061 16.8123 59.9539 -12.3927 25.9036 -15.3730
# 4 11.4668 -0.9555 -12.3927 17.1328 -10.6897 10.3197
# 5 26.8832 21.1486 25.9036 -10.6897 27.0356 -2.3097
# 6 -16.5574 -13.0620 -15.3730 10.3197 -2.3097 35.0073
#
#
#
# Elastic Compliance Matrix: (Units=1/GPa)
#
#
# Indices 1 2 3 4 5 6 
#
# 1 -0.038365 -0.016818 -0.018512 0.115521 0.109646 -0.059370
# 2 -0.016818 0.008345 -0.003331 0.034148 0.025634 -0.014678
# 3 -0.018512 -0.003331 0.025891 0.046197 0.013502 -0.011356
# 4 0.115521 0.034148 0.046197 -0.233441 -0.266278 0.138913
# 5 0.109646 0.025634 0.013502 -0.266278 -0.198975 0.132721
# 6 -0.059370 -0.014678 -0.011356 0.138913 0.132721 -0.042172
#
#
# Mechanical properties :
#
#
# Convention : Reuss Voigt Hill
#
# Bulk Modulus (GPa) = -12.27737 42.29482 15.00873
# Shear Modulus (GPa) = -11.66740 27.58970 7.96115
#
# Velocity S-wave (km/s) = -2.41289 3.71043 1.99314
# Velocity P-wave (km/s) = 3.72681 6.28184 3.57578
#
# Compressibility (1/GPa) = -0.08145067
#
# Stress axis : x y z
#
# Youngs Moduli (GPa) = -26.06550 119.83557 38.62311
#
# Poissons Ratio (x) = 2.01538 0.71500
# Poissons Ratio (y) = -0.43837 0.12864
# Poissons Ratio (z) = -0.48253 0.39914
#
# Static dielectric constant tensor:
#      x y z
#    x 1.747830 0.028900 -0.002090 
#    y 0.028900 1.704510 -0.000110 
#    z -0.002090 -0.000110 1.736470 
# 
# From -- ./inp_files/107066.got.cif
#   From: 2010.05.17/outbox.cif.g08.bks.cpg/sg2_54_cif.got.tgz:107066.got - 2010.06.03 11:33:40.
