data_PCOD9099945
_publ_section_title
;
Structure prediction by ZEFSAII (Michael W. Deem and Ramdas Pophale) SiO2 
 PCOD9099945
Probable space group: P -1
;
_chemical_formula_sum "Si O2"
_cell_formula_units_Z 16
_cell_length_a 10.127042
_cell_length_b 14.428757
_cell_length_c 11.729619
_cell_angle_alpha 148.957262
_cell_angle_beta 67.385111
_cell_angle_gamma 104.390829
_cell_volume 804.004434
_symmetry_space_group_name_H-M "P -1"
_symmetry_group_IT_number 2
_symmetry_cell_setting 'triclinic'
loop_
_space_group_symop_operation_xyz
x,y,z
-x,-y,-z
loop_
_atom_site_type_symbol
_atom_site_label
_atom_site_fract_x
_atom_site_fract_y
_atom_site_fract_z
Si Si1 0.892597 0.676368 0.071537
Si Si2 0.808660 0.486743 0.673047
Si Si3 0.942466 0.769039 0.784979
Si Si4 0.876943 0.037374 0.902677
Si Si5 0.449909 0.806470 0.838424
Si Si6 0.078306 0.934820 0.523365
Si Si7 0.506993 0.512825 0.697191
Si Si8 0.804859 0.423420 0.016964
O O1 0.829323 0.604673 0.132894
O O2 0.844640 0.891912 0.292802
O O3 0.845744 0.566723 0.865227
O O4 0.066974 0.628209 0.985783
O O5 0.855758 0.615647 0.693664
O O6 0.641472 0.477558 0.701947
O O7 0.917550 0.301184 0.414531
O O8 0.845316 0.912407 0.887516
O O9 0.009769 0.847569 0.957127
O O10 0.724101 0.154278 0.042527
O O11 0.958025 0.930393 0.656136
O O12 0.518544 0.688791 0.799842
O O13 0.482868 0.665645 0.574036
O O14 0.500000 0.000000 0.000000
O O15 0.171257 0.740496 0.256993
O O16 0.000000 0.000000 0.500000
O O17 0.352246 0.550960 0.849605
#
# Coordination Sequence:
#
# PCOD9099945 Si02
#       8
#     2   2   2   2   2   2   2   2
#     4  10  21  39  63  86 119 164 220 256 302 363
#     4  11  21  40  61  96 127 163 204 263 318 377
#     4  10  22  34  66  91 124 160 205 261 318 367
#     4  11  20  40  61  95 119 160 215 261 304 371
#     4  11  24  41  63  90 128 169 202 257 315 381
#     4  10  20  37  62  88 118 158 213 261 296 355
#     4  11  25  41  62  93 133 162 207 251 325 379
#     4  10  23  40  61  89 121 170 210 258 304 369
#
# _framework density 19.900388
#
# number of rings (size 3 to 8) (size 9 to 14) (size 15 to 20)
#    0.000    1.500    2.500    3.000    0.000    6.500 
#    0.000    0.625    0.000    0.000    0.000    0.000 
#    0.000    0.000    0.000    0.000    0.000    0.000 
#
# Total GULP energy -89295.717464 kJ/mol
# GULP energy per Si atom -5580.982341 kJ/mol
# Density = 1.985509 g / cm^3
# Si number density = 19.900388 Si / 1000 Ang^3
#
#
#
# Elastic Constant Matrix: (Units=GPa)
#
#
# Indices 1 2 3 4 5 6 
#
# 1 88.0319 21.3768 40.2116 -20.3921 -8.9257 -1.4458
# 2 21.3768 54.5452 24.0971 3.6978 -2.8814 13.0212
# 3 40.2116 24.0971 103.5096 -16.2591 -2.8143 7.5615
# 4 -20.3921 3.6978 -16.2591 39.0824 0.1098 -1.2660
# 5 -8.9257 -2.8814 -2.8143 0.1098 24.6607 -6.6765
# 6 -1.4458 13.0212 7.5615 -1.2660 -6.6765 29.1750
#
#
#
# Elastic Compliance Matrix: (Units=1/GPa)
#
#
# Indices 1 2 3 4 5 6 
#
# 1 0.017771 -0.006946 -0.004300 0.008350 0.007004 0.007061
# 2 -0.006946 0.025996 -0.003826 -0.008056 -0.003132 -0.012022
# 3 -0.004300 -0.003826 0.012871 0.003413 -0.001075 -0.001939
# 4 0.008350 -0.008056 0.003413 0.032290 0.003786 0.005393
# 5 0.007004 -0.003132 -0.001075 0.003786 0.046024 0.012720
# 6 0.007061 -0.012022 -0.001939 0.005393 0.012720 0.043639
#
#
# Mechanical properties :
#
#
# Convention : Reuss Voigt Hill
#
# Bulk Modulus (GPa) = 37.74597 46.38420 42.06508
# Shear Modulus (GPa) = 22.98151 29.27706 26.12928
#
# Velocity S-wave (km/s) = 3.40196 3.83976 3.62747
# Velocity P-wave (km/s) = 5.86854 6.55874 6.22322
#
# Compressibility (1/GPa) = 0.02649290
#
# Stress axis : x y z
#
# Youngs Moduli (GPa) = 56.27180 38.46674 77.69551
#
# Poissons Ratio (x) = 0.26720 0.33412
# Poissons Ratio (y) = 0.39088 0.29726
# Poissons Ratio (z) = 0.24199 0.14717
#
# Static dielectric constant tensor:
#      x y z
#    x 1.682620 0.005070 0.021560 
#    y 0.005070 1.728050 0.046490 
#    z 0.021560 0.046490 1.748130 
# 
# From -- ./inp_files/399724.got.cif
#   From: 2010.05.17/outbox.cif.g08.bks.cpg/sg2_200_cif.got.tgz:399724.got - 2010.06.03 11:33:40.
