data_PCOD9099022
_publ_section_title
;
Structure prediction by ZEFSAII (Michael W. Deem and Ramdas Pophale) SiO2 
 PCOD9099022
Probable space group: P -1
;
_chemical_formula_sum "Si O2"
_cell_formula_units_Z 14
_cell_length_a 25.585638
_cell_length_b 7.530500
_cell_length_c 7.793024
_cell_angle_alpha 53.776416
_cell_angle_beta 51.630923
_cell_angle_gamma 33.213536
_cell_volume 635.806027
_symmetry_space_group_name_H-M "P -1"
_symmetry_group_IT_number 2
_symmetry_cell_setting 'triclinic'
loop_
_space_group_symop_operation_xyz
x,y,z
-x,-y,-z
loop_
_atom_site_type_symbol
_atom_site_label
_atom_site_fract_x
_atom_site_fract_y
_atom_site_fract_z
Si Si1 0.382305 0.323337 0.079948
Si Si2 0.363789 0.402480 0.696312
Si Si3 0.786421 0.592784 0.126611
Si Si4 0.143427 0.314609 0.385823
Si Si5 0.548960 0.607806 0.786132
Si Si6 0.237421 0.313571 0.499428
Si Si7 0.077250 0.988755 0.604983
O O1 0.342698 0.513705 0.872234
O O2 0.375563 0.493056 0.163601
O O3 0.329041 0.223160 0.285375
O O4 0.500000 0.000000 0.000000
O O5 0.276515 0.468371 0.758551
O O6 0.396673 0.515290 0.437397
O O7 0.458428 0.004172 0.735522
O O8 0.742898 0.793303 0.280161
O O9 0.895943 0.243822 0.162169
O O10 0.793669 0.730803 0.870304
O O11 0.198247 0.219979 0.508387
O O12 0.118289 0.126370 0.498113
O O13 0.037044 0.701658 0.386237
O O14 0.500000 0.500000 0.000000
O O15 0.147291 0.715039 0.469976
#
# Coordination Sequence:
#
# PCOD9099022 Si02
#       7
#     2   2   2   2   2   2   2
#     4  10  20  38  59  83 118 155 196 241 293 354
#     4  10  20  37  59  80 117 154 190 248 298 345
#     4  10  21  37  60  89 118 159 196 246 303 357
#     4  11  20  43  62  88 123 162 189 260 304 347
#     4  10  21  37  59  83 114 150 200 250 291 352
#     4  10  21  39  62  89 121 159 201 248 299 357
#     4   9  23  39  62  93 122 149 213 241 298 380
#
# _framework density 22.019295
#
# number of rings (size 3 to 8) (size 9 to 14) (size 15 to 20)
#    0.857    1.143    2.857    0.857    0.000    2.857 
#    2.571    2.857    0.000    0.000    0.000    0.000 
#    0.000    0.000    0.000    0.000    0.000    0.000 
#
# Total GULP energy -78155.221870 kJ/mol
# GULP energy per Si atom -5582.515848 kJ/mol
# Density = 2.196918 g / cm^3
# Si number density = 22.019295 Si / 1000 Ang^3
#
#
#
# Elastic Constant Matrix: (Units=GPa)
#
#
# Indices 1 2 3 4 5 6 
#
# 1 111.1131 1.0411 42.1475 -2.0757 -1.0393 -18.6224
# 2 1.0411 77.3702 -5.8735 9.9302 0.3409 2.1201
# 3 42.1475 -5.8735 97.0685 11.8927 15.0572 2.9726
# 4 -2.0757 9.9302 11.8927 25.7176 -4.8708 -7.0154
# 5 -1.0393 0.3409 15.0572 -4.8708 32.2182 -6.2151
# 6 -18.6224 2.1201 2.9726 -7.0154 -6.2151 22.4677
#
#
#
# Elastic Compliance Matrix: (Units=1/GPa)
#
#
# Indices 1 2 3 4 5 6 
#
# 1 0.021510 -0.005631 -0.016526 0.024119 0.018529 0.033203
# 2 -0.005631 0.015963 0.007114 -0.015498 -0.008794 -0.014387
# 3 -0.016526 0.007114 0.026351 -0.030055 -0.024003 -0.033880
# 4 0.024119 -0.015498 -0.030055 0.085565 0.040125 0.063246
# 5 0.018529 -0.008794 -0.024003 0.040125 0.058275 0.048012
# 6 0.033203 -0.014387 -0.033880 0.063246 0.048012 0.110898
#
#
# Mechanical properties :
#
#
# Convention : Reuss Voigt Hill
#
# Bulk Modulus (GPa) = 29.64023 40.02022 34.83023
# Shear Modulus (GPa) = 13.89295 32.62981 23.26138
#
# Velocity S-wave (km/s) = 2.51459 3.85369 3.25377
# Velocity P-wave (km/s) = 4.68200 6.16569 5.47434
#
# Compressibility (1/GPa) = 0.03373793
#
# Stress axis : x y z
#
# Youngs Moduli (GPa) = 46.48979 62.64549 37.94854
#
# Poissons Ratio (x) = 0.35277 0.62716
# Poissons Ratio (y) = 0.26179 -0.26998
# Poissons Ratio (z) = 0.76831 -0.44569
#
# Static dielectric constant tensor:
#      x y z
#    x 1.798440 0.017730 0.050730 
#    y 0.017730 1.874480 0.001560 
#    z 0.050730 0.001560 1.779880 
# 
# From -- ./inp_files/351329.got.cif
#   From: 2010.05.17/outbox.cif.g08.bks.cpg/sg2_176_cif.got.tgz:351329.got - 2010.06.03 11:33:40.
