data_PCOD9099579
_publ_section_title
;
Structure prediction by ZEFSAII (Michael W. Deem and Ramdas Pophale) SiO2 
 PCOD9099579
Probable space group: P -1
;
_chemical_formula_sum "Si O2"
_cell_formula_units_Z 16
_cell_length_a 8.143089
_cell_length_b 14.595094
_cell_length_c 13.763702
_cell_angle_alpha 139.682028
_cell_angle_beta 71.397865
_cell_angle_gamma 79.331202
_cell_volume 717.816236
_symmetry_space_group_name_H-M "P -1"
_symmetry_group_IT_number 2
_symmetry_cell_setting 'triclinic'
loop_
_space_group_symop_operation_xyz
x,y,z
-x,-y,-z
loop_
_atom_site_type_symbol
_atom_site_label
_atom_site_fract_x
_atom_site_fract_y
_atom_site_fract_z
Si Si1 0.450702 0.106106 0.295798
Si Si2 0.352500 0.390265 0.380528
Si Si3 0.107992 0.462578 0.762871
Si Si4 0.760617 0.058898 0.761248
Si Si5 0.297873 0.695245 0.326258
Si Si6 0.642764 0.628854 0.064505
Si Si7 0.137638 0.316704 0.196205
Si Si8 0.613512 0.409222 0.199656
O O1 0.437553 0.243291 0.334041
O O2 0.343122 0.228095 0.516220
O O3 0.280602 0.066118 0.276704
O O4 0.714179 0.888476 0.053602
O O5 0.298167 0.313604 0.239217
O O6 0.536155 0.400425 0.312757
O O7 0.095078 0.600732 0.632688
O O8 0.199543 0.569753 0.823838
O O9 0.958245 0.522816 0.739258
O O10 0.902694 0.556123 0.957204
O O11 0.554942 0.184114 0.817398
O O12 0.716114 0.217867 0.966454
O O13 0.030706 0.910345 0.549164
O O14 0.506986 0.678409 0.231291
O O15 0.377074 0.599522 0.340401
O O16 0.302046 0.555894 0.142992
#
# Coordination Sequence:
#
# PCOD9099579 Si02
#       8
#     2   2   2   2   2   2   2   2
#     4  11  21  36  66  88 111 159 204 237 292 348
#     4  10  22  36  61  87 119 155 202 250 283 345
#     4  11  23  40  59  87 127 159 188 245 299 357
#     4  11  21  39  66  89 115 152 206 248 286 351
#     4  10  22  39  64  92 114 156 200 249 292 349
#     4  10  20  40  66  89 118 150 202 249 295 345
#     4  10  20  37  61  85 114 156 206 239 286 342
#     4  11  25  40  56  89 131 155 191 244 301 349
#
# _framework density 22.289826999999999
#
# number of rings (size 3 to 8) (size 9 to 14) (size 15 to 20)
#    0.000    1.500    3.750    1.500    3.500    3.500 
#    0.000    1.875    0.000    0.000    0.000    0.000 
#    0.000    0.000    0.000    0.000    0.000    0.000 
#
# Total GULP energy -89344.329964 kJ/mol
# GULP energy per Si atom -5584.020623 kJ/mol
# Density = 2.223909 g / cm^3
# Si number density = 22.289827 Si / 1000 Ang^3
#
#
#
# Elastic Constant Matrix: (Units=GPa)
#
#
# Indices 1 2 3 4 5 6 
#
# 1 77.4773 31.1773 41.1287 -4.8432 -7.4834 32.7018
# 2 31.1773 73.5326 60.2212 -13.4209 -8.1184 24.6058
# 3 41.1287 60.2212 163.9083 5.7081 -33.1433 18.8888
# 4 -4.8432 -13.4209 5.7081 25.1164 6.4646 -5.0372
# 5 -7.4834 -8.1184 -33.1433 6.4646 24.0312 -8.4749
# 6 32.7018 24.6058 18.8888 -5.0372 -8.4749 44.2454
#
#
#
# Elastic Compliance Matrix: (Units=1/GPa)
#
#
# Indices 1 2 3 4 5 6 
#
# 1 0.021343 0.000080 -0.005239 0.004201 -0.006760 -0.014399
# 2 0.000080 0.032957 -0.015898 0.024260 -0.021889 -0.013031
# 3 -0.005239 -0.015898 0.018273 -0.018792 0.025988 0.007751
# 4 0.004201 0.024260 -0.018792 0.065738 -0.036981 -0.008173
# 5 -0.006760 -0.021889 0.025988 -0.036981 0.084252 0.018002
# 6 -0.014399 -0.013031 0.007751 -0.008173 0.018002 0.039699
#
#
# Mechanical properties :
#
#
# Convention : Reuss Voigt Hill
#
# Bulk Modulus (GPa) = 32.83085 64.44139 48.63612
# Shear Modulus (GPa) = 15.89679 30.83799 23.36739
#
# Velocity S-wave (km/s) = 2.67345 3.72358 3.24133
# Velocity P-wave (km/s) = 4.92857 6.88913 5.98962
#
# Compressibility (1/GPa) = 0.03045916
#
# Stress axis : x y z
#
# Youngs Moduli (GPa) = 46.85334 30.34241 54.72652
#
# Poissons Ratio (x) = -0.00241 0.28669
# Poissons Ratio (y) = -0.00373 0.87004
# Poissons Ratio (z) = 0.24544 0.48238
#
# Static dielectric constant tensor:
#      x y z
#    x 1.868290 -0.009310 -0.018290 
#    y -0.009310 1.853980 -0.026900 
#    z -0.018290 -0.026900 1.841150 
# 
# From -- ./inp_files/313897.got.cif
#   From: 2010.05.17/outbox.cif.g08.bks.cpg/sg2_157_cif.got.tgz:313897.got - 2010.06.03 11:33:40.
