data_PCOD9099877
_publ_section_title
;
Structure prediction by ZEFSAII (Michael W. Deem and Ramdas Pophale) SiO2 
 PCOD9099877
Probable space group: P -1
;
_chemical_formula_sum "Si O2"
_cell_formula_units_Z 16
_cell_length_a 8.268794
_cell_length_b 10.414978
_cell_length_c 16.499908
_cell_angle_alpha 54.349456
_cell_angle_beta 44.141957
_cell_angle_gamma 37.391411
_cell_volume 600.677791
_symmetry_space_group_name_H-M "P -1"
_symmetry_group_IT_number 2
_symmetry_cell_setting 'triclinic'
loop_
_space_group_symop_operation_xyz
x,y,z
-x,-y,-z
loop_
_atom_site_type_symbol
_atom_site_label
_atom_site_fract_x
_atom_site_fract_y
_atom_site_fract_z
Si Si1 0.704235 0.217518 0.909188
Si Si2 0.098641 0.222699 0.886442
Si Si3 0.357117 0.186325 0.547202
Si Si4 0.127856 0.120441 0.414224
Si Si5 0.920840 0.322641 0.080299
Si Si6 0.255499 0.575784 0.407461
Si Si7 0.517660 0.210100 0.824697
Si Si8 0.173964 0.297646 0.171599
O O1 0.776671 0.089418 0.846633
O O2 0.978036 0.182871 0.868172
O O3 0.439754 0.460983 0.880168
O O4 0.039185 0.535993 0.155063
O O5 0.492199 0.792790 0.950694
O O6 0.954551 0.206740 0.026032
O O7 0.441462 0.330093 0.444348
O O8 0.989053 0.343970 0.607491
O O9 0.500000 0.000000 0.500000
O O10 0.514939 0.063437 0.618447
O O11 0.102889 0.234429 0.301517
O O12 0.939649 0.296287 0.488470
O O13 0.000000 0.000000 0.500000
O O14 0.002759 0.287894 0.159549
O O15 0.789234 0.692156 0.046633
O O16 0.433309 0.654030 0.292512
O O17 0.461875 0.099900 0.818586
#
# Coordination Sequence:
#
# PCOD9099877 Si02
#       8
#     2   2   2   2   2   2   2   2
#     4  10  16  31  57  92 133 168 226 286 340 415
#     4   9  17  29  55  98 128 163 228 277 338 423
#     4   9  22  45  69  96 132 179 242 276 346 419
#     4  11  26  42  64 103 137 185 240 275 336 424
#     4   8  15  30  53  84 130 169 219 280 338 407
#     4  10  22  46  71  94 141 183 217 303 346 392
#     4   9  18  32  59  97 131 165 223 283 344 414
#     4  10  17  34  55  84 139 174 217 287 336 391
#
# _framework density 26.636576000000002
#
# number of rings (size 3 to 8) (size 9 to 14) (size 15 to 20)
#    0.750    1.750    1.250    2.625    1.750    3.500 
#    2.250    5.000    0.000    6.000    0.000   14.000 
#    0.000    0.000    0.000    0.000    0.000    0.000 
#
# Total GULP energy -89190.963182 kJ/mol
# GULP energy per Si atom -5574.435199 kJ/mol
# Density = 2.657595 g / cm^3
# Si number density = 26.636576 Si / 1000 Ang^3
#
#
#
# Elastic Constant Matrix: (Units=GPa)
#
#
# Indices 1 2 3 4 5 6 
#
# 1 252.4146 46.3895 79.0411 -24.6768 18.4409 -1.9362
# 2 46.3895 54.2700 56.3570 -18.3555 16.6911 7.4115
# 3 79.0411 56.3570 174.3491 -28.6974 15.8538 -3.9498
# 4 -24.6768 -18.3555 -28.6974 47.1882 -4.2064 7.3632
# 5 18.4409 16.6911 15.8538 -4.2064 38.9160 -9.5171
# 6 -1.9362 7.4115 -3.9498 7.3632 -9.5171 43.5518
#
#
#
# Elastic Compliance Matrix: (Units=1/GPa)
#
#
# Indices 1 2 3 4 5 6 
#
# 1 0.004933 -0.002541 -0.001232 0.000745 -0.000596 0.000284
# 2 -0.002541 0.038791 -0.008929 0.008983 -0.013772 -0.012052
# 3 -0.001232 -0.008929 0.009327 0.001302 0.001337 0.002383
# 4 0.000745 0.008983 0.001302 0.026592 -0.003484 -0.006635
# 5 -0.000596 -0.013772 0.001337 -0.003484 0.033495 0.010347
# 6 0.000284 -0.012052 0.002383 -0.006635 0.010347 0.028624
#
#
# Mechanical properties :
#
#
# Convention : Reuss Voigt Hill
#
# Bulk Modulus (GPa) = 36.17015 93.84542 65.00779
# Shear Modulus (GPa) = 28.34776 45.88094 37.11435
#
# Velocity S-wave (km/s) = 3.26581 4.15478 3.73682
# Velocity P-wave (km/s) = 5.27535 7.63705 6.56330
#
# Compressibility (1/GPa) = 0.02764710
#
# Stress axis : x y z
#
# Youngs Moduli (GPa) = 202.71674 25.77926 107.21572
#
# Poissons Ratio (x) = 0.06551 0.13206
# Poissons Ratio (y) = 0.51514 0.95732
# Poissons Ratio (z) = 0.24970 0.23018
#
# Static dielectric constant tensor:
#      x y z
#    x 2.201410 -0.018470 0.018760 
#    y -0.018470 2.464280 -0.061910 
#    z 0.018760 -0.061910 2.063300 
# 
# From -- ./inp_files/558496.got.cif
#   From: 2010.05.17/outbox.cif.g08.bks.cpg/sg2_280_cif.got.tgz:558496.got - 2010.06.03 11:33:40.
