data_PCOD9099124
_publ_section_title
;
Structure prediction by ZEFSAII (Michael W. Deem and Ramdas Pophale) SiO2 
 PCOD9099124
Probable space group: P -1
;
_chemical_formula_sum "Si O2"
_cell_formula_units_Z 15
_cell_length_a 8.978415
_cell_length_b 7.962524
_cell_length_c 10.925761
_cell_angle_alpha 119.807051
_cell_angle_beta 74.689905
_cell_angle_gamma 113.656396
_cell_volume 618.750359
_symmetry_space_group_name_H-M "P -1"
_symmetry_group_IT_number 2
_symmetry_cell_setting 'triclinic'
loop_
_space_group_symop_operation_xyz
x,y,z
-x,-y,-z
loop_
_atom_site_type_symbol
_atom_site_label
_atom_site_fract_x
_atom_site_fract_y
_atom_site_fract_z
Si Si1 0.399485 0.029922 0.709024
Si Si2 0.629134 0.804140 0.497417
Si Si3 0.944248 0.434126 0.623939
Si Si4 0.639941 0.467639 0.213557
Si Si5 0.000000 0.000000 0.500000
Si Si6 0.355751 0.543307 0.173738
Si Si7 0.905444 0.661479 0.048915
Si Si8 0.163309 0.810892 0.874526
O O1 0.363240 0.082093 0.596578
O O2 0.532618 0.231176 0.805719
O O3 0.485500 0.855744 0.618305
O O4 0.243600 0.973697 0.811304
O O5 0.602307 0.570050 0.381971
O O6 0.806972 0.896131 0.550149
O O7 0.969104 0.221425 0.572829
O O8 0.049798 0.612119 0.755146
O O9 0.000000 0.500000 0.500000
O O10 0.757900 0.423287 0.680720
O O11 0.481299 0.433861 0.152832
O O12 0.692764 0.267403 0.133964
O O13 0.798337 0.649503 0.189225
O O14 0.235368 0.427830 0.052607
O O15 0.049660 0.846162 0.021812
O O16 0.000000 0.500000 0.000000
#
# Coordination Sequence:
#
# PCOD9099124 Si02
#       8
#     2   2   2   2   1   2   2   2
#     4  10  21  38  57  87 121 154 192 252 309 354
#     4  10  21  34  57  82 119 156 191 241 307 358
#     4  11  23  37  58  89 126 164 202 249 304 374
#     4  10  20  37  59  86 112 158 203 245 298 360
#     4  12  20  38  56  88 124 162 204 242 308 366
#     4  10  21  39  60  85 119 154 201 249 307 355
#     4   9  20  39  62  83 112 159 203 248 298 364
#     4  10  21  37  59  87 118 154 204 246 301 361
#
# _framework density 24.24241
#
# number of rings (size 3 to 8) (size 9 to 14) (size 15 to 20)
#    0.000    1.867    2.667    1.200    3.733    1.600 
#    0.000    5.333    0.000    1.600    0.000    0.000 
#    0.000    0.000    0.000    0.000    0.000    0.000 
#
# Total GULP energy -83581.260048 kJ/mol
# GULP energy per Si atom -5572.084003 kJ/mol
# Density = 2.418723 g / cm^3
# Si number density = 24.242410 Si / 1000 Ang^3
#
#
#
# Elastic Constant Matrix: (Units=GPa)
#
#
# Indices 1 2 3 4 5 6 
#
# 1 116.6001 10.0638 25.0572 -2.2760 -26.1583 2.2969
# 2 10.0638 64.0651 15.5258 -16.6113 0.3335 2.2927
# 3 25.0572 15.5258 100.0445 -25.0078 -29.1866 4.4570
# 4 -2.2760 -16.6113 -25.0078 39.0176 6.1930 -5.4044
# 5 -26.1583 0.3335 -29.1866 6.1930 35.5479 -1.0239
# 6 2.2969 2.2927 4.4570 -5.4044 -1.0239 23.2160
#
#
#
# Elastic Compliance Matrix: (Units=1/GPa)
#
#
# Indices 1 2 3 4 5 6 
#
# 1 0.010567 -0.002040 -0.000539 -0.001932 0.007664 -0.000852
# 2 -0.002040 0.018257 -0.001815 0.007223 -0.004414 0.000234
# 3 -0.000539 -0.001815 0.015481 0.007288 0.011045 -0.000556
# 4 -0.001932 0.007223 0.007288 0.034303 -0.001309 0.006006
# 5 0.007664 -0.004414 0.011045 -0.001309 0.043085 -0.000847
# 6 -0.000852 0.000234 -0.000556 0.006006 -0.000847 0.044602
#
#
# Mechanical properties :
#
#
# Convention : Reuss Voigt Hill
#
# Bulk Modulus (GPa) = 28.15517 42.44481 35.29999
# Shear Modulus (GPa) = 26.74927 34.89383 30.82155
#
# Velocity S-wave (km/s) = 3.32536 3.79802 3.56952
# Velocity P-wave (km/s) = 5.13647 6.06463 5.61974
#
# Compressibility (1/GPa) = 0.03551745
#
# Stress axis : x y z
#
# Youngs Moduli (GPa) = 94.63725 54.77381 64.59486
#
# Poissons Ratio (x) = 0.11172 0.03482
# Poissons Ratio (y) = 0.19302 0.11724
# Poissons Ratio (z) = 0.05102 0.09941
#
# Static dielectric constant tensor:
#      x y z
#    x 1.943010 -0.016690 0.017280 
#    y -0.016690 1.964690 -0.050580 
#    z 0.017280 -0.050580 1.994620 
# 
# From -- ./inp_files/169928.got.cif
#   From: 2010.05.17/outbox.cif.g08.bks.cpg/sg2_85_cif.got.tgz:169928.got - 2010.06.03 11:33:40.
