data_PCOD9099251
_publ_section_title
;
Structure prediction by ZEFSAII (Michael W. Deem and Ramdas Pophale) SiO2 
 PCOD9099251
Probable space group: P -1
;
_chemical_formula_sum "Si O2"
_cell_formula_units_Z 16
_cell_length_a 10.207093
_cell_length_b 11.172037
_cell_length_c 11.428334
_cell_angle_alpha 132.757556
_cell_angle_beta 49.380233
_cell_angle_gamma 111.479362
_cell_volume 719.553420
_symmetry_space_group_name_H-M "P -1"
_symmetry_group_IT_number 2
_symmetry_cell_setting 'triclinic'
loop_
_space_group_symop_operation_xyz
x,y,z
-x,-y,-z
loop_
_atom_site_type_symbol
_atom_site_label
_atom_site_fract_x
_atom_site_fract_y
_atom_site_fract_z
Si Si1 0.154826 0.678708 0.161436
Si Si2 0.352832 0.058791 0.530865
Si Si3 0.147624 0.781204 0.987296
Si Si4 0.182302 0.308774 0.964808
Si Si5 0.286212 0.232755 0.226568
Si Si6 0.983574 0.113479 0.417229
Si Si7 0.458668 0.353295 0.012345
Si Si8 0.482734 0.888584 0.778090
O O1 0.143520 0.654311 0.012340
O O2 0.025629 0.814664 0.398118
O O3 0.139455 0.504205 0.114061
O O4 0.349545 0.720165 0.103721
O O5 0.258901 0.233321 0.748399
O O6 0.438550 0.085867 0.375980
O O7 0.500000 0.000000 0.500000
O O8 0.208425 0.932666 0.529403
O O9 0.994921 0.770166 0.976160
O O10 0.325758 0.781332 0.815765
O O11 0.107408 0.945237 0.200838
O O12 0.329540 0.263254 0.946572
O O13 0.347118 0.381399 0.215481
O O14 0.364561 0.202550 0.289939
O O15 0.078589 0.235368 0.360674
O O16 0.392022 0.069302 0.994085
O O17 0.500000 0.500000 0.000000
#
# Coordination Sequence:
#
# PCOD9099251 Si02
#       8
#     2   2   2   2   2   2   2   2
#     4  11  20  39  61  86 121 165 203 246 301 365
#     4  11  23  40  60  91 126 161 198 251 314 365
#     4  10  21  38  58  91 123 154 202 256 307 353
#     4  10  23  38  59  88 123 163 198 243 312 368
#     4  10  20  37  59  95 115 151 212 259 294 347
#     4  10  23  34  64  91 116 157 208 255 295 360
#     4  10  21  40  63  82 121 169 202 239 302 371
#     4  10  21  35  63  88 121 154 202 261 301 353
#
# _framework density 22.236014000000001
#
# number of rings (size 3 to 8) (size 9 to 14) (size 15 to 20)
#    0.000    1.750    1.250    3.000    7.000    1.000 
#    0.000    9.375    0.000    0.000    0.000    0.000 
#    0.000    0.000    0.000    0.000    0.000    0.000 
#
# Total GULP energy -89138.332065 kJ/mol
# GULP energy per Si atom -5571.145754 kJ/mol
# Density = 2.218540 g / cm^3
# Si number density = 22.236014 Si / 1000 Ang^3
#
#
#
# Elastic Constant Matrix: (Units=GPa)
#
#
# Indices 1 2 3 4 5 6 
#
# 1 111.9384 35.6581 44.6743 -31.3207 2.9425 10.9148
# 2 35.6581 85.2504 45.4496 -35.2416 0.3967 -2.9904
# 3 44.6743 45.4496 82.2548 -38.3846 -5.2783 15.0616
# 4 -31.3207 -35.2416 -38.3846 48.5721 1.2608 3.3641
# 5 2.9425 0.3967 -5.2783 1.2608 20.8533 -7.4959
# 6 10.9148 -2.9904 15.0616 3.3641 -7.4959 25.8522
#
#
#
# Elastic Compliance Matrix: (Units=1/GPa)
#
#
# Indices 1 2 3 4 5 6 
#
# 1 0.012835 -0.001995 -0.002492 0.005430 -0.005018 -0.006359
# 2 -0.001995 0.019731 -0.008398 0.005889 0.000034 0.007261
# 3 -0.002492 -0.008398 0.029701 0.017119 0.000003 -0.019450
# 4 0.005430 0.005889 0.017119 0.043359 -0.005983 -0.018962
# 5 -0.005018 0.000034 0.000003 -0.005983 0.055891 0.019105
# 6 -0.006359 0.007261 -0.019450 -0.018962 0.019105 0.061545
#
#
# Mechanical properties :
#
#
# Convention : Reuss Voigt Hill
#
# Bulk Modulus (GPa) = 27.39931 59.00085 43.20008
# Shear Modulus (GPa) = 19.15720 29.29960 24.22840
#
# Velocity S-wave (km/s) = 2.93838 3.63390 3.30449
# Velocity P-wave (km/s) = 4.88476 6.64820 5.83350
#
# Compressibility (1/GPa) = 0.03649727
#
# Stress axis : x y z
#
# Youngs Moduli (GPa) = 77.91231 50.68247 33.66846
#
# Poissons Ratio (x) = 0.10110 0.08391
# Poissons Ratio (y) = 0.15542 0.28274
# Poissons Ratio (z) = 0.19418 0.42562
#
# Static dielectric constant tensor:
#      x y z
#    x 1.840420 0.000270 -0.007730 
#    y 0.000270 1.972120 0.032490 
#    z -0.007730 0.032490 1.840210 
# 
# From -- ./inp_files/428852.got.cif
#   From: 2010.05.17/outbox.cif.g08.bks.cpg/sg2_215_cif.got.tgz:428852.got - 2010.06.03 11:33:40.
