data_PCOD9099843
_publ_section_title
;
Structure prediction by ZEFSAII (Michael W. Deem and Ramdas Pophale) SiO2 
 PCOD9099843
Probable space group: P -1
;
_chemical_formula_sum "Si O2"
_cell_formula_units_Z 15
_cell_length_a 5.168419
_cell_length_b 12.543987
_cell_length_c 24.478861
_cell_angle_alpha 152.650554
_cell_angle_beta 63.887551
_cell_angle_gamma 109.686702
_cell_volume 649.042025
_symmetry_space_group_name_H-M "P -1"
_symmetry_group_IT_number 2
_symmetry_cell_setting 'triclinic'
loop_
_space_group_symop_operation_xyz
x,y,z
-x,-y,-z
loop_
_atom_site_type_symbol
_atom_site_label
_atom_site_fract_x
_atom_site_fract_y
_atom_site_fract_z
Si Si1 0.892334 0.907198 0.391017
Si Si2 0.496674 0.378789 0.320105
Si Si3 0.422250 0.147969 0.718853
Si Si4 0.631803 0.704959 0.545771
Si Si5 0.080286 0.057177 0.955375
Si Si6 0.572485 0.386215 0.676429
Si Si7 0.552247 0.360027 0.084580
Si Si8 0.000000 0.500000 0.500000
O O1 0.744803 0.916275 0.348827
O O2 0.751047 0.693505 0.333697
O O3 0.233133 0.880364 0.338938
O O4 0.782390 0.143911 0.541175
O O5 0.627546 0.594789 0.436050
O O6 0.383855 0.450187 0.303352
O O7 0.229409 0.333126 0.362857
O O8 0.750645 0.167761 0.192445
O O9 0.336860 0.425416 0.861528
O O10 0.424790 0.949348 0.674874
O O11 0.500000 0.500000 0.500000
O O12 0.935082 0.688696 0.540528
O O13 0.307261 0.245324 0.023786
O O14 0.804342 0.166866 0.995822
O O15 0.000000 0.000000 0.000000
O O16 0.584463 0.519587 0.792401
#
# Coordination Sequence:
#
# PCOD9099843 Si02
#       8
#     2   2   2   2   2   2   2   1
#     4  10  22  35  58 100 139 178 215 269 357 412
#     4  11  23  42  68  96 138 176 234 287 340 406
#     4  11  22  41  66  94 142 174 225 286 338 417
#     4  10  23  42  69 102 127 173 230 296 356 391
#     4  12  26  43  65  99 143 193 228 270 330 419
#     4  10  20  37  61  97 143 180 219 272 340 422
#     4  11  25  42  62 101 142 190 226 261 340 423
#     4  10  24  44  68 100 124 172 234 296 354 388
#
# _framework density 23.110983999999998
#
# number of rings (size 3 to 8) (size 9 to 14) (size 15 to 20)
#    0.000    1.333    2.667    2.800    3.733    6.933 
#    2.400    0.000    0.000    6.400    0.000    0.000 
#    0.000    0.000    0.000    0.000    0.000    0.000 
#
# Total GULP energy -83571.665331 kJ/mol
# GULP energy per Si atom -5571.444355 kJ/mol
# Density = 2.305838 g / cm^3
# Si number density = 23.110984 Si / 1000 Ang^3
#
#
#
# Elastic Constant Matrix: (Units=GPa)
#
#
# Indices 1 2 3 4 5 6 
#
# 1 71.0235 9.5950 4.4626 -7.4719 -9.0276 3.9540
# 2 9.5950 80.9967 13.7822 17.3294 -7.8715 -3.5148
# 3 4.4626 13.7822 74.4386 10.7222 -17.8855 3.5614
# 4 -7.4719 17.3294 10.7222 24.6097 0.8777 -7.4869
# 5 -9.0276 -7.8715 -17.8855 0.8777 39.8492 3.2724
# 6 3.9540 -3.5148 3.5614 -7.4869 3.2724 36.5709
#
#
#
# Elastic Compliance Matrix: (Units=1/GPa)
#
#
# Indices 1 2 3 4 5 6 
#
# 1 0.015609 -0.002974 -0.000727 0.006838 0.002532 -0.000729
# 2 -0.002974 0.015548 -0.000294 -0.012078 0.002602 -0.000861
# 3 -0.000727 -0.000294 0.016914 -0.008921 0.007904 -0.004130
# 4 0.006838 -0.012078 -0.008921 0.058903 -0.007096 0.011663
# 5 0.002532 0.002602 0.007904 -0.007096 0.030293 -0.004957
# 6 -0.000729 -0.000861 -0.004130 0.011663 -0.004957 0.030574
#
#
# Mechanical properties :
#
#
# Convention : Reuss Voigt Hill
#
# Bulk Modulus (GPa) = 24.94963 31.34872 28.14917
# Shear Modulus (GPa) = 26.42820 33.44722 29.93771
#
# Velocity S-wave (km/s) = 3.38529 3.80839 3.60306
# Velocity P-wave (km/s) = 5.10874 5.73867 5.43284
#
# Compressibility (1/GPa) = 0.04008076
#
# Stress axis : x y z
#
# Youngs Moduli (GPa) = 64.06531 64.31609 59.12354
#
# Poissons Ratio (x) = 0.19127 0.04298
# Poissons Ratio (y) = 0.19053 0.01740
# Poissons Ratio (z) = 0.04657 0.01893
#
# Static dielectric constant tensor:
#      x y z
#    x 1.779920 0.013690 -0.024580 
#    y 0.013690 1.992240 0.059660 
#    z -0.024580 0.059660 1.867640 
# 
# From -- ./inp_files/604331.got.cif
#   From: 2010.05.17/outbox.cif.g08.bks.cpg/sg2_303_cif.got.tgz:604331.got - 2010.06.03 11:33:40.
