data_PCOD9099214
_publ_section_title
;
Structure prediction by ZEFSAII (Michael W. Deem and Ramdas Pophale) SiO2 
 PCOD9099214
Probable space group: P -1
;
_chemical_formula_sum "Si O2"
_cell_formula_units_Z 16
_cell_length_a 13.385404
_cell_length_b 8.650293
_cell_length_c 8.263010
_cell_angle_alpha 52.023656
_cell_angle_beta 55.155888
_cell_angle_gamma 71.419977
_cell_volume 618.156641
_symmetry_space_group_name_H-M "P -1"
_symmetry_group_IT_number 2
_symmetry_cell_setting 'triclinic'
loop_
_space_group_symop_operation_xyz
x,y,z
-x,-y,-z
loop_
_atom_site_type_symbol
_atom_site_label
_atom_site_fract_x
_atom_site_fract_y
_atom_site_fract_z
Si Si1 0.377486 0.867923 0.725754
Si Si2 0.394237 0.618891 0.185479
Si Si3 0.274998 0.225597 0.445025
Si Si4 0.032447 0.301572 0.792938
Si Si5 0.837292 0.986544 0.589197
Si Si6 0.925485 0.071718 0.780985
Si Si7 0.394717 0.480881 0.746714
Si Si8 0.814374 0.423291 0.322231
O O1 0.375858 0.689351 0.716420
O O2 0.500000 0.000000 0.500000
O O3 0.281596 0.031972 0.674908
O O4 0.371484 0.773387 0.967998
O O5 0.377249 0.395636 0.275645
O O6 0.528384 0.646098 0.119219
O O7 0.289980 0.620855 0.416928
O O8 0.149643 0.315304 0.557936
O O9 0.264882 0.142481 0.327530
O O10 0.062935 0.481685 0.770491
O O11 0.044363 0.113539 0.018238
O O12 0.923708 0.251824 0.796247
O O13 0.840131 0.208437 0.372743
O O14 0.960465 0.892490 0.471871
O O15 0.825828 0.009358 0.778164
O O16 0.500000 0.500000 0.500000
O O17 0.260172 0.439850 0.819513
#
# Coordination Sequence:
#
# PCOD9099214 Si02
#       8
#     2   2   2   2   2   2   2   2
#     4  12  23  39  63  88 117 167 203 240 295 358
#     4  10  23  41  61  86 126 165 194 245 300 343
#     4  10  21  39  61  87 120 157 207 241 289 359
#     4   9  20  39  59  84 116 159 189 250 299 356
#     4  10  20  37  59  90 116 152 198 246 296 361
#     4   9  20  38  60  81 121 156 189 246 311 351
#     4  10  21  40  58  84 125 154 193 253 292 344
#     4  10  21  38  61  90 118 152 206 245 292 358
#
# _framework density 25.883406000000001
#
# number of rings (size 3 to 8) (size 9 to 14) (size 15 to 20)
#    0.000    2.000    2.500    0.375    1.750    2.000 
#    0.000    3.750    0.000    0.000    0.000    0.000 
#    0.000    0.000    0.000    0.000    0.000    0.000 
#
# Total GULP energy -89312.531176 kJ/mol
# GULP energy per Si atom -5582.033199 kJ/mol
# Density = 2.582449 g / cm^3
# Si number density = 25.883406 Si / 1000 Ang^3
#
#
#
# Elastic Constant Matrix: (Units=GPa)
#
#
# Indices 1 2 3 4 5 6 
#
# 1 105.4363 36.0202 50.5773 -4.1246 23.6034 36.7232
# 2 36.0202 82.9535 19.8058 3.1694 3.0458 16.1668
# 3 50.5773 19.8058 97.9922 -3.2382 15.0802 13.6012
# 4 -4.1246 3.1694 -3.2382 22.4666 4.4482 5.2216
# 5 23.6034 3.0458 15.0802 4.4482 42.6141 1.7335
# 6 36.7232 16.1668 13.6012 5.2216 1.7335 37.2987
#
#
#
# Elastic Compliance Matrix: (Units=1/GPa)
#
#
# Indices 1 2 3 4 5 6 
#
# 1 0.024541 -0.005067 -0.006690 0.011257 -0.011201 -0.020582
# 2 -0.005067 0.014608 -0.000720 -0.003404 0.002402 -0.000716
# 3 -0.006690 -0.000720 0.013764 0.000678 -0.001260 0.001843
# 4 0.011257 -0.003404 0.000678 0.053258 -0.011108 -0.016795
# 5 -0.011201 0.002402 -0.001260 -0.011108 0.030674 0.010576
# 6 -0.020582 -0.000716 0.001843 -0.016795 0.010576 0.048573
#
#
# Mechanical properties :
#
#
# Convention : Reuss Voigt Hill
#
# Bulk Modulus (GPa) = 35.76573 55.46540 45.61557
# Shear Modulus (GPa) = 22.75920 32.47446 27.61683
#
# Velocity S-wave (km/s) = 2.96851 3.54594 3.27000
# Velocity P-wave (km/s) = 5.05939 6.18388 5.64968
#
# Compressibility (1/GPa) = 0.02795972
#
# Stress axis : x y z
#
# Youngs Moduli (GPa) = 40.74800 68.45407 72.65471
#
# Poissons Ratio (x) = 0.34683 0.48605
# Poissons Ratio (y) = 0.20645 0.05233
# Poissons Ratio (z) = 0.27260 0.04930
#
# Static dielectric constant tensor:
#      x y z
#    x 2.206300 0.024070 0.043030 
#    y 0.024070 2.088420 0.046660 
#    z 0.043030 0.046660 2.076340 
# 
# From -- ./inp_files/200597.got.cif
#   From: 2010.05.17/outbox.cif.g08.bks.cpg/sg2_101_cif.got.tgz:200597.got - 2010.06.03 11:33:40.
