data_PCOD9099680
_publ_section_title
;
Structure prediction by ZEFSAII (Michael W. Deem and Ramdas Pophale) SiO2 
 PCOD9099680
Probable space group: P -1
;
_chemical_formula_sum "Si O2"
_cell_formula_units_Z 16
_cell_length_a 5.489409
_cell_length_b 12.564909
_cell_length_c 21.792276
_cell_angle_alpha 29.490408
_cell_angle_beta 100.799128
_cell_angle_gamma 100.285064
_cell_volume 726.466615
_symmetry_space_group_name_H-M "P -1"
_symmetry_group_IT_number 2
_symmetry_cell_setting 'triclinic'
loop_
_space_group_symop_operation_xyz
x,y,z
-x,-y,-z
loop_
_atom_site_type_symbol
_atom_site_label
_atom_site_fract_x
_atom_site_fract_y
_atom_site_fract_z
Si Si1 0.723712 0.166332 0.944587
Si Si2 0.676279 0.243441 0.249581
Si Si3 0.113244 0.316321 0.140535
Si Si4 0.881680 0.171229 0.630302
Si Si5 0.231518 0.536718 0.422175
Si Si6 0.474638 0.234714 0.492503
Si Si7 0.940421 0.762941 0.193784
Si Si8 0.550515 0.440742 0.269882
O O1 0.639451 0.392862 0.852084
O O2 0.861362 0.221892 0.859646
O O3 0.500000 0.000000 0.000000
O O4 0.876806 0.014477 0.072479
O O5 0.411159 0.321651 0.168467
O O6 0.681078 0.324356 0.279123
O O7 0.925381 0.315850 0.189809
O O8 0.666898 0.982170 0.382450
O O9 0.074958 0.076415 0.229395
O O10 0.000000 0.500000 0.000000
O O11 0.696215 0.283104 0.614109
O O12 0.755450 0.186404 0.549562
O O13 0.120076 0.330597 0.557300
O O14 0.399387 0.444179 0.422553
O O15 0.025877 0.660202 0.311863
O O16 0.439496 0.278307 0.397200
O O17 0.729420 0.601717 0.237055
#
# Coordination Sequence:
#
# PCOD9099680 Si02
#       8
#     2   2   2   2   2   2   2   2
#     4   9  20  37  55  85 129 164 207 260 328 380
#     4  11  26  43  71  98 133 172 228 267 332 400
#     4  11  25  50  69  96 133 177 220 285 324 393
#     4  10  23  40  62  94 122 168 222 273 331 392
#     4  11  20  38  66  90 123 169 217 272 334 390
#     4  11  21  41  61  94 133 168 211 285 328 395
#     4  10  20  37  61  88 131 163 210 270 322 391
#     4  11  22  38  62  96 128 177 209 269 333 399
#
# _framework density 22.02441
#
# number of rings (size 3 to 8) (size 9 to 14) (size 15 to 20)
#    0.000    1.500    3.750    1.125    1.750    1.000 
#    4.500    2.500    0.000    0.000    0.000    0.000 
#    0.000    0.000    0.000    0.000    0.000    0.000 
#
# Total GULP energy -89203.671713 kJ/mol
# GULP energy per Si atom -5575.229482 kJ/mol
# Density = 2.197428 g / cm^3
# Si number density = 22.024410 Si / 1000 Ang^3
#
#
#
# Elastic Constant Matrix: (Units=GPa)
#
#
# Indices 1 2 3 4 5 6 
#
# 1 58.7812 2.2706 11.4820 0.5830 -2.6480 -9.9992
# 2 2.2706 80.3821 32.6267 -1.7642 18.0836 -17.1264
# 3 11.4820 32.6267 122.1051 -6.7712 10.1262 -3.8879
# 4 0.5830 -1.7642 -6.7712 21.7238 -10.3058 3.7334
# 5 -2.6480 18.0836 10.1262 -10.3058 24.6360 -0.0536
# 6 -9.9992 -17.1264 -3.8879 3.7334 -0.0536 32.4329
#
#
#
# Elastic Compliance Matrix: (Units=1/GPa)
#
#
# Indices 1 2 3 4 5 6 
#
# 1 0.018521 0.001380 -0.002094 -0.001564 0.001198 0.006370
# 2 0.001380 0.020262 -0.004303 -0.009831 -0.017043 0.011713
# 3 -0.002094 -0.004303 0.009620 0.003226 0.000324 -0.002135
# 4 -0.001564 -0.009831 0.003226 0.063808 0.032387 -0.012578
# 5 0.001198 -0.017043 0.000324 0.032387 0.066618 -0.012210
# 6 0.006370 0.011713 -0.002135 -0.012578 -0.012210 0.040153
#
#
# Mechanical properties :
#
#
# Convention : Reuss Voigt Hill
#
# Bulk Modulus (GPa) = 26.06163 39.33634 32.69899
# Shear Modulus (GPa) = 20.67776 30.08447 25.38111
#
# Velocity S-wave (km/s) = 3.06740 3.69990 3.39840
# Velocity P-wave (km/s) = 4.94004 6.01261 5.50252
#
# Compressibility (1/GPa) = 0.03837059
#
# Stress axis : x y z
#
# Youngs Moduli (GPa) = 53.99293 49.35359 103.94726
#
# Poissons Ratio (x) = -0.06810 0.21762
# Poissons Ratio (y) = -0.07451 0.44725
# Poissons Ratio (z) = 0.11304 0.21235
#
# Static dielectric constant tensor:
#      x y z
#    x 1.915870 0.007470 0.043700 
#    y 0.007470 1.796950 -0.013080 
#    z 0.043700 -0.013080 1.843060 
# 
# From -- ./inp_files/70772.got.cif
#   From: 2010.05.17/outbox.cif.g08.bks.cpg/sg2_36_cif.got.tgz:70772.got - 2010.06.03 11:33:40.
