data_PCOD9099800
_publ_section_title
;
Structure prediction by ZEFSAII (Michael W. Deem and Ramdas Pophale) SiO2 
 PCOD9099800
Probable space group: P -1
;
_chemical_formula_sum "Si O2"
_cell_formula_units_Z 12
_cell_length_a 8.379375
_cell_length_b 10.428360
_cell_length_c 13.851205
_cell_angle_alpha 146.545585
_cell_angle_beta 138.095816
_cell_angle_gamma 54.477225
_cell_volume 443.012529
_symmetry_space_group_name_H-M "P -1"
_symmetry_group_IT_number 2
_symmetry_cell_setting 'triclinic'
loop_
_space_group_symop_operation_xyz
x,y,z
-x,-y,-z
loop_
_atom_site_type_symbol
_atom_site_label
_atom_site_fract_x
_atom_site_fract_y
_atom_site_fract_z
Si Si1 0.230241 0.898512 0.410188
Si Si2 0.728632 0.829975 0.672950
Si Si3 0.494914 0.884720 0.084598
Si Si4 0.027630 0.239978 0.986883
Si Si5 0.865137 0.681865 0.263567
Si Si6 0.599609 0.314512 0.277277
O O1 0.508411 0.858763 0.517376
O O2 0.093896 0.764199 0.176215
O O3 0.107772 0.793601 0.388640
O O4 0.190087 0.172643 0.574994
O O5 0.733535 0.557974 0.524739
O O6 0.654865 0.964033 0.818723
O O7 0.959722 0.976949 0.826528
O O8 0.654614 0.735541 0.129015
O O9 0.651191 0.085884 0.216924
O O10 0.364973 0.719285 0.841406
O O11 0.894895 0.409431 0.103907
O O12 0.310234 0.318593 0.160219
#
# Coordination Sequence:
#
# PCOD9099800 Si02
#       6
#     2   2   2   2   2   2
#     4  10  20  37  61  93 122 156 201 250 305 357
#     4  11  24  40  63  95 122 158 206 251 303 359
#     4  10  23  42  64  87 125 167 200 245 309 360
#     4  12  23  38  68  93 121 157 205 256 300 357
#     4  10  20  38  66  90 119 163 202 247 305 359
#     4  11  23  43  65  86 124 167 201 248 301 364
#
# _framework density 27.087271000000001
#
# number of rings (size 3 to 8) (size 9 to 14) (size 15 to 20)
#    0.000    1.333    3.333    2.500    0.000    4.667 
#    0.000    3.333    3.667    0.000    0.000    0.000 
#    0.000    0.000    0.000    0.000    0.000    0.000 
#
# Total GULP energy -67312.745460 kJ/mol
# GULP energy per Si atom -5609.395455 kJ/mol
# Density = 2.702562 g / cm^3
# Si number density = 27.087271 Si / 1000 Ang^3
#
#
#
# Elastic Constant Matrix: (Units=GPa)
#
#
# Indices 1 2 3 4 5 6 
#
# 1 60.0900 3.7635 43.5865 7.0223 -8.4381 -4.3191
# 2 3.7635 86.1035 55.2960 1.5350 -3.1864 -20.0786
# 3 43.5865 55.2960 118.5064 14.6502 -9.2072 1.6263
# 4 7.0223 1.5350 14.6502 61.9355 3.4147 -4.4431
# 5 -8.4381 -3.1864 -9.2072 3.4147 42.0039 1.6101
# 6 -4.3191 -20.0786 1.6263 -4.4431 1.6101 33.7460
#
#
#
# Elastic Compliance Matrix: (Units=1/GPa)
#
#
# Indices 1 2 3 4 5 6 
#
# 1 0.028738 0.011931 -0.016213 0.000967 0.002603 0.011561
# 2 0.011931 0.026642 -0.017543 0.003502 -0.000429 0.018706
# 3 -0.016213 -0.017543 0.023437 -0.004376 0.001453 -0.014288
# 4 0.000967 0.003502 -0.004376 0.017446 -0.002102 0.004816
# 5 0.002603 -0.000429 0.001453 -0.002102 0.024843 -0.001454
# 6 0.011561 0.018706 -0.014288 0.004816 -0.001454 0.043635
#
#
# Mechanical properties :
#
#
# Convention : Reuss Voigt Hill
#
# Bulk Modulus (GPa) = 28.43496 52.22133 40.32815
# Shear Modulus (GPa) = 22.71570 38.34066 30.52818
#
# Velocity S-wave (km/s) = 2.89902 3.76633 3.36077
# Velocity P-wave (km/s) = 4.66113 6.18340 5.47542
#
# Compressibility (1/GPa) = 0.03516797
#
# Stress axis : x y z
#
# Youngs Moduli (GPa) = 34.79714 37.53449 42.66774
#
# Poissons Ratio (x) = -0.44782 0.69177
# Poissons Ratio (y) = -0.41516 0.74851
# Poissons Ratio (z) = 0.56416 0.65845
#
# Static dielectric constant tensor:
#      x y z
#    x 2.109240 0.040200 0.019280 
#    y 0.040200 2.150700 0.008620 
#    z 0.019280 0.008620 2.123870 
# 
# From -- ./inp_files/162729.got.cif
#   From: 2010.05.17/outbox.cif.g08.bks.cpg/sg2_82_cif.got.tgz:162729.got - 2010.06.03 11:33:40.
