data_PCOD9099345
_publ_section_title
;
Structure prediction by ZEFSAII (Michael W. Deem and Ramdas Pophale) SiO2 
 PCOD9099345
Probable space group: P -1
;
_chemical_formula_sum "Si O2"
_cell_formula_units_Z 16
_cell_length_a 8.089132
_cell_length_b 11.814943
_cell_length_c 15.269426
_cell_angle_alpha 72.755460
_cell_angle_beta 137.154685
_cell_angle_gamma 133.208263
_cell_volume 658.197623
_symmetry_space_group_name_H-M "P -1"
_symmetry_group_IT_number 2
_symmetry_cell_setting 'triclinic'
loop_
_space_group_symop_operation_xyz
x,y,z
-x,-y,-z
loop_
_atom_site_type_symbol
_atom_site_label
_atom_site_fract_x
_atom_site_fract_y
_atom_site_fract_z
Si Si1 0.191872 0.597136 0.322878
Si Si2 0.297282 0.351033 0.841573
Si Si3 0.444621 0.975302 0.087694
Si Si4 0.827564 0.629615 0.402424
Si Si5 0.470758 0.272809 0.402424
Si Si6 0.918288 0.387608 0.912306
Si Si7 0.179521 0.774258 0.677122
Si Si8 0.936788 0.990539 0.841573
O O1 0.971536 0.640191 0.239931
O O2 0.969666 0.407093 0.314186
O O3 0.511850 0.718693 0.487621
O O4 0.236106 0.601813 0.235221
O O5 0.264630 0.327912 0.728503
O O6 0.189566 0.190572 0.881144
O O7 0.691933 0.523479 0.978781
O O8 0.123754 0.955301 0.978780
O O9 0.325758 0.805366 0.110731
O O10 0.500000 0.000000 0.000000
O O11 0.767702 0.133409 0.235221
O O12 0.531938 0.426991 0.353981
O O13 0.176059 0.676059 0.500000
O O14 0.937915 0.731071 0.512378
O O15 0.162691 0.099409 0.271497
O O16 0.000000 0.500000 0.000000
O O17 0.568915 0.900260 0.760069
#
# Coordination Sequence:
#
# PCOD9099345 Si02
#       8
#     2   2   2   2   2   2   2   2
#     4  10  20  37  60  86 115 147 185 228 277 329
#     4  11  21  35  58  87 116 147 186 229 274 326
#     4  12  25  41  58  79 111 148 188 232 280 332
#     4   8  16  32  55  83 114 145 179 225 278 327
#     4   8  16  32  55  83 114 145 179 225 278 327
#     4  12  25  41  58  79 111 148 188 232 280 332
#     4  10  20  37  60  86 115 147 185 228 277 329
#     4  11  21  35  58  87 116 147 186 229 274 326
#
# _framework density 24.308810000000001
#
# number of rings (size 3 to 8) (size 9 to 14) (size 15 to 20)
#    0.000    1.750    0.000    7.500    0.000    5.500 
#    0.000    1.250    0.000    7.500    0.000    0.000 
#    0.000    0.000    0.000    0.000    0.000    0.000 
#
# Total GULP energy -89610.720001 kJ/mol
# GULP energy per Si atom -5600.670000 kJ/mol
# Density = 2.425348 g / cm^3
# Si number density = 24.308810 Si / 1000 Ang^3
#
#
#
# Elastic Constant Matrix: (Units=GPa)
#
#
# Indices 1 2 3 4 5 6 
#
# 1 80.2185 1.0407 30.1945 0.4447 -26.3400 -0.1653
# 2 1.0407 89.3272 35.5131 0.0439 -11.3290 -0.9603
# 3 30.1945 35.5131 152.0971 0.2193 -33.1743 -0.2514
# 4 0.4447 0.0439 0.2193 40.0783 0.0199 -11.0634
# 5 -26.3400 -11.3290 -33.1743 0.0199 56.9038 0.4456
# 6 -0.1653 -0.9603 -0.2514 -11.0634 0.4456 27.8957
#
#
#
# Elastic Compliance Matrix: (Units=1/GPa)
#
#
# Indices 1 2 3 4 5 6 
#
# 1 0.015226 0.001401 -0.002007 -0.000176 0.006157 -0.000048
# 2 0.001401 0.012513 -0.002882 0.000105 0.001456 0.000431
# 3 -0.002007 -0.002882 0.008384 -0.000053 0.003386 -0.000110
# 4 -0.000176 0.000105 -0.000053 0.028023 -0.000188 0.011119
# 5 0.006157 0.001456 0.003386 -0.000188 0.022690 -0.000320
# 6 -0.000048 0.000431 -0.000110 0.011119 -0.000320 0.040276
#
#
# Mechanical properties :
#
#
# Convention : Reuss Voigt Hill
#
# Bulk Modulus (GPa) = 34.30674 50.57105 42.43889
# Shear Modulus (GPa) = 34.76961 41.96853 38.36907
#
# Velocity S-wave (km/s) = 3.78607 4.15959 3.97722
# Velocity P-wave (km/s) = 5.76680 6.62709 6.21186
#
# Compressibility (1/GPa) = 0.02914879
#
# Stress axis : x y z
#
# Youngs Moduli (GPa) = 65.67848 79.91441 119.26870
#
# Poissons Ratio (x) = -0.11194 0.23932
# Poissons Ratio (y) = -0.09200 0.34369
# Poissons Ratio (z) = 0.13179 0.23028
#
# Static dielectric constant tensor:
#      x y z
#    x 2.230770 0.006240 0.053230 
#    y 0.006240 1.787670 0.003450 
#    z 0.053230 0.003450 1.953200 
# 
# From -- ./inp_files/274501.got.cif
#   From: 2010.05.17/outbox.cif.g08.bks.cpg/sg2_138_cif.got.tgz:274501.got - 2010.06.03 11:33:40.
