data_PCOD9099907
_publ_section_title
;
Structure prediction by ZEFSAII (Michael W. Deem and Ramdas Pophale) SiO2 
 PCOD9099907
Probable space group: P -1
;
_chemical_formula_sum "Si O2"
_cell_formula_units_Z 12
_cell_length_a 19.433005
_cell_length_b 7.901412
_cell_length_c 8.692082
_cell_angle_alpha 86.334640
_cell_angle_beta 49.277480
_cell_angle_gamma 127.617294
_cell_volume 511.380424
_symmetry_space_group_name_H-M "P -1"
_symmetry_group_IT_number 2
_symmetry_cell_setting 'triclinic'
loop_
_space_group_symop_operation_xyz
x,y,z
-x,-y,-z
loop_
_atom_site_type_symbol
_atom_site_label
_atom_site_fract_x
_atom_site_fract_y
_atom_site_fract_z
Si Si1 0.484325 0.834458 0.397856
Si Si2 0.903670 0.182439 0.583075
Si Si3 0.565445 0.486153 0.244717
Si Si4 0.322657 0.124108 0.358128
Si Si5 0.309008 0.700740 0.382574
Si Si6 0.215793 0.480482 0.218767
O O1 0.326811 0.627041 0.519462
O O2 0.500000 0.000000 0.500000
O O3 0.461669 0.626537 0.538080
O O4 0.662556 0.157172 0.020858
O O5 0.000000 0.500000 0.500000
O O6 0.034099 0.231338 0.410598
O O7 0.723982 0.871535 0.962675
O O8 0.839289 0.079987 0.504793
O O9 0.657349 0.471606 0.018734
O O10 0.381184 0.242741 0.443402
O O11 0.287718 0.865766 0.425338
O O12 0.500000 0.500000 0.000000
O O13 0.179110 0.417704 0.458394
O O14 0.500000 0.000000 0.000000
#
# Coordination Sequence:
#
# PCOD9099907 Si02
#       6
#     2   2   2   2   2   2
#     4   9  17  32  59  81 105 138 190 223 260 312
#     4  11  22  34  55  83 116 139 176 227 278 315
#     4  10  20  38  59  80 104 147 187 220 262 325
#     4  10  19  32  54  79 108 143 181 212 269 324
#     4  10  16  31  58  81 101 139 189 218 256 318
#     4  10  19  34  58  84 104 141 185 226 261 319
#
# _framework density 23.465897999999999
#
# number of rings (size 3 to 8) (size 9 to 14) (size 15 to 20)
#    0.000    2.000    6.667    0.500    0.000    0.000 
#    0.000    2.500    0.000    0.000    0.000    0.000 
#    0.000    0.000    0.000    0.000    0.000    0.000 
#
# Total GULP energy -66821.579837 kJ/mol
# GULP energy per Si atom -5568.464986 kJ/mol
# Density = 2.341249 g / cm^3
# Si number density = 23.465898 Si / 1000 Ang^3
#
#
#
# Elastic Constant Matrix: (Units=GPa)
#
#
# Indices 1 2 3 4 5 6 
#
# 1 191.8507 70.8087 32.3698 -2.5975 11.5646 58.8360
# 2 70.8087 118.2795 25.9484 -6.8844 5.3799 29.1933
# 3 32.3698 25.9484 33.6945 -4.3561 12.0533 11.8055
# 4 -2.5975 -6.8844 -4.3561 29.0207 5.5081 6.9668
# 5 11.5646 5.3799 12.0533 5.5081 45.3986 -5.2581
# 6 58.8360 29.1933 11.8055 6.9668 -5.2581 57.7975
#
#
#
# Elastic Compliance Matrix: (Units=1/GPa)
#
#
# Indices 1 2 3 4 5 6 
#
# 1 0.009355 -0.002746 -0.002894 0.002150 -0.002480 -0.008030
# 2 -0.002746 0.012039 -0.005555 0.002321 0.000186 -0.002414
# 3 -0.002894 -0.005555 0.043996 0.008580 -0.011947 -0.005356
# 4 0.002150 0.002321 0.008580 0.040872 -0.009321 -0.010888
# 5 -0.002480 0.000186 -0.011947 -0.009321 0.027928 0.008535
# 6 -0.008030 -0.002414 -0.005356 -0.010888 0.008535 0.029879
#
#
# Mechanical properties :
#
#
# Convention : Reuss Voigt Hill
#
# Bulk Modulus (GPa) = 23.25502 66.89761 45.07631
# Shear Modulus (GPa) = 24.90132 40.75655 32.82894
#
# Velocity S-wave (km/s) = 3.26110 4.17206 3.74439
# Velocity P-wave (km/s) = 4.91033 7.19573 6.15994
#
# Compressibility (1/GPa) = 0.04300147
#
# Stress axis : x y z
#
# Youngs Moduli (GPa) = 106.88943 83.06093 22.72939
#
# Poissons Ratio (x) = 0.22807 0.06579
# Poissons Ratio (y) = 0.29349 0.12625
# Poissons Ratio (z) = 0.30937 0.46137
#
# Static dielectric constant tensor:
#      x y z
#    x 2.014300 -0.045250 -0.013330 
#    y -0.045250 2.168530 -0.035470 
#    z -0.013330 -0.035470 1.895220 
# 
# From -- ./inp_files/145823.got.cif
#   From: 2010.05.17/outbox.cif.g08.bks.cpg/sg2_73_cif.got.tgz:145823.got - 2010.06.03 11:33:40.
