data_PCOD9099599
_publ_section_title
;
Structure prediction by ZEFSAII (Michael W. Deem and Ramdas Pophale) SiO2 
 PCOD9099599
Probable space group: P -1
;
_chemical_formula_sum "Si O2"
_cell_formula_units_Z 14
_cell_length_a 10.404507
_cell_length_b 6.987718
_cell_length_c 12.545366
_cell_angle_alpha 96.342766
_cell_angle_beta 46.000927
_cell_angle_gamma 73.884874
_cell_volume 566.391736
_symmetry_space_group_name_H-M "P -1"
_symmetry_group_IT_number 2
_symmetry_cell_setting 'triclinic'
loop_
_space_group_symop_operation_xyz
x,y,z
-x,-y,-z
loop_
_atom_site_type_symbol
_atom_site_label
_atom_site_fract_x
_atom_site_fract_y
_atom_site_fract_z
Si Si1 0.084627 0.715724 0.329176
Si Si2 0.706218 0.372553 0.480023
Si Si3 0.196021 0.973681 0.949851
Si Si4 0.481295 0.485248 0.829791
Si Si5 0.871208 0.854785 0.671290
Si Si6 0.567876 0.144681 0.403834
Si Si7 0.765425 0.685527 0.907118
O O1 0.307793 0.548683 0.242857
O O2 0.075337 0.572156 0.229323
O O3 0.102957 0.198153 0.472802
O O4 0.117505 0.923580 0.302406
O O5 0.544470 0.398492 0.667196
O O6 0.910509 0.327709 0.418086
O O7 0.739606 0.173011 0.372075
O O8 0.611986 0.601937 0.486472
O O9 0.306998 0.742698 0.937755
O O10 0.357386 0.944329 0.762395
O O11 0.154116 0.184950 0.056914
O O12 0.000000 0.000000 0.000000
O O13 0.409821 0.338866 0.930174
O O14 0.714327 0.823724 0.833601
O O15 0.500000 0.000000 0.500000
#
# Coordination Sequence:
#
# PCOD9099599 Si02
#       7
#     2   2   2   2   2   2   2
#     4  10  23  42  62  89 124 158 199 251 303 359
#     4   9  20  39  59  84 120 155 196 250 298 347
#     4  11  25  41  59  90 127 159 200 252 302 356
#     4  10  23  41  61  90 123 156 198 252 305 359
#     4  10  22  40  62  89 120 155 201 251 300 360
#     4  10  20  37  61  86 115 158 204 243 292 355
#     4  12  23  39  64  90 121 163 202 244 304 362
#
# _framework density 24.717873999999998
#
# number of rings (size 3 to 8) (size 9 to 14) (size 15 to 20)
#    0.000    1.714    0.000    3.429    0.000    5.143 
#    0.000    8.571    0.000    0.000    0.000    0.000 
#    0.000    0.000    0.000    0.000    0.000    0.000 
#
# Total GULP energy -78282.614124 kJ/mol
# GULP energy per Si atom -5591.615295 kJ/mol
# Density = 2.466161 g / cm^3
# Si number density = 24.717874 Si / 1000 Ang^3
#
#
#
# Elastic Constant Matrix: (Units=GPa)
#
#
# Indices 1 2 3 4 5 6 
#
# 1 41.2294 32.3689 21.8839 4.9495 -0.4766 8.8906
# 2 32.3689 171.5627 78.1099 -16.4527 23.5212 10.6623
# 3 21.8839 78.1099 121.4398 -22.1448 26.1322 12.0942
# 4 4.9495 -16.4527 -22.1448 51.3525 -0.7220 15.3523
# 5 -0.4766 23.5212 26.1322 -0.7220 41.0962 13.4745
# 6 8.8906 10.6623 12.0942 15.3523 13.4745 40.1271
#
#
#
# Elastic Compliance Matrix: (Units=1/GPa)
#
#
# Indices 1 2 3 4 5 6 
#
# 1 0.032721 -0.005347 -0.004611 -0.005214 0.007958 -0.005117
# 2 -0.005347 0.009225 -0.004113 0.001563 -0.002803 0.000316
# 3 -0.004611 -0.004113 0.014313 0.005966 -0.005873 -0.002510
# 4 -0.005214 0.001563 0.005966 0.026290 -0.000722 -0.010875
# 5 0.007958 -0.002803 -0.005873 -0.000722 0.033053 -0.010072
# 6 -0.005117 0.000316 -0.002510 -0.010875 -0.010072 0.034270
#
#
# Mechanical properties :
#
#
# Convention : Reuss Voigt Hill
#
# Bulk Modulus (GPa) = 35.56648 66.55081 51.05864
# Shear Modulus (GPa) = 26.68284 39.97311 33.32798
#
# Velocity S-wave (km/s) = 3.28913 4.02577 3.67595
# Velocity P-wave (km/s) = 5.37073 6.97078 6.22240
#
# Compressibility (1/GPa) = 0.02811636
#
# Stress axis : x y z
#
# Youngs Moduli (GPa) = 30.56122 108.40341 69.86841
#
# Poissons Ratio (x) = 0.57968 0.32214
# Poissons Ratio (y) = 0.16342 0.28738
# Poissons Ratio (z) = 0.14091 0.44588
#
# Static dielectric constant tensor:
#      x y z
#    x 1.991910 -0.021470 0.013600 
#    y -0.021470 1.938530 0.005890 
#    z 0.013600 0.005890 2.048890 
# 
# From -- ./inp_files/509895.got.cif
#   From: 2010.05.17/outbox.cif.g08.bks.cpg/sg2_255_cif.got.tgz:509895.got - 2010.06.03 11:33:40.
