data_PCOD9099835
_publ_section_title
;
Structure prediction by ZEFSAII (Michael W. Deem and Ramdas Pophale) SiO2 
 PCOD9099835
Probable space group: P -1
;
_chemical_formula_sum "Si O2"
_cell_formula_units_Z 14
_cell_length_a 7.692076
_cell_length_b 9.774460
_cell_length_c 9.348488
_cell_angle_alpha 109.060992
_cell_angle_beta 100.511090
_cell_angle_gamma 115.799071
_cell_volume 552.907960
_symmetry_space_group_name_H-M "P -1"
_symmetry_group_IT_number 2
_symmetry_cell_setting 'triclinic'
loop_
_space_group_symop_operation_xyz
x,y,z
-x,-y,-z
loop_
_atom_site_type_symbol
_atom_site_label
_atom_site_fract_x
_atom_site_fract_y
_atom_site_fract_z
Si Si1 0.292869 0.340565 0.212776
Si Si2 0.221566 0.059895 0.317594
Si Si3 0.178727 0.866618 0.977807
Si Si4 0.223581 0.059126 0.760325
Si Si5 0.275810 0.622847 0.734737
Si Si6 0.557520 0.270565 0.674350
Si Si7 0.137871 0.730195 0.466218
O O1 0.233919 0.228983 0.310772
O O2 0.499456 0.348246 0.195717
O O3 0.358592 0.535869 0.292538
O O4 0.070223 0.236239 0.064978
O O5 0.379992 0.137499 0.495524
O O6 0.981035 0.929957 0.279312
O O7 0.285960 0.978195 0.172544
O O8 0.230985 0.731840 0.877869
O O9 0.232406 0.999354 0.901403
O O10 0.440482 0.219263 0.790962
O O11 0.166570 0.897717 0.596972
O O12 0.244558 0.674787 0.587103
O O13 0.098004 0.423242 0.643987
O O14 0.746817 0.245367 0.658758
#
# Coordination Sequence:
#
# PCOD9099835 Si02
#       7
#     2   2   2   2   2   2   2
#     4  11  21  39  68  93 123 168 219 256 310 375
#     4  11  23  41  62  97 126 164 215 262 312 384
#     4  10  23  45  64  94 130 165 214 259 316 382
#     4  10  22  39  63  91 131 167 205 264 322 371
#     4  10  20  37  66  95 122 166 218 265 301 371
#     4  12  22  38  66  98 125 166 212 266 317 370
#     4  10  20  37  61  97 128 159 218 267 305 372
#
# _framework density 25.320668000000001
#
# number of rings (size 3 to 8) (size 9 to 14) (size 15 to 20)
#    0.000    1.429    2.857    3.857    2.000    0.571 
#    2.571    2.857    0.000    1.714    0.000    0.000 
#    0.000    0.000    0.000    0.000    0.000    0.000 
#
# Total GULP energy -78408.074040 kJ/mol
# GULP energy per Si atom -5600.576717 kJ/mol
# Density = 2.526304 g / cm^3
# Si number density = 25.320668 Si / 1000 Ang^3
#
#
#
# Elastic Constant Matrix: (Units=GPa)
#
#
# Indices 1 2 3 4 5 6 
#
# 1 115.2149 26.7585 32.9540 4.4106 -6.9388 24.6017
# 2 26.7585 113.7321 63.3143 6.4589 -8.8005 23.4284
# 3 32.9540 63.3143 116.6994 10.5441 -1.7029 3.5630
# 4 4.4106 6.4589 10.5441 26.4001 -1.8817 -2.1425
# 5 -6.9388 -8.8005 -1.7029 -1.8817 30.3476 6.3853
# 6 24.6017 23.4284 3.5630 -2.1425 6.3853 34.5820
#
#
#
# Elastic Compliance Matrix: (Units=1/GPa)
#
#
# Indices 1 2 3 4 5 6 
#
# 1 0.011956 0.002049 -0.003963 -0.001398 0.005236 -0.010539
# 2 0.002049 0.016744 -0.009021 -0.001382 0.007541 -0.013350
# 3 -0.003963 -0.009021 0.014502 -0.002590 -0.004578 0.008122
# 4 -0.001398 -0.001382 -0.002590 0.039900 0.000651 0.004549
# 5 0.005236 0.007541 -0.004578 0.000651 0.039401 -0.015597
# 6 -0.010539 -0.013350 0.008122 0.004549 -0.015597 0.047784
#
#
# Mechanical properties :
#
#
# Convention : Reuss Voigt Hill
#
# Bulk Modulus (GPa) = 46.87761 65.74446 56.31104
# Shear Modulus (GPa) = 25.09181 33.10724 29.09953
#
# Velocity S-wave (km/s) = 3.15137 3.61989 3.39372
# Velocity P-wave (km/s) = 5.63873 6.59489 6.13546
#
# Compressibility (1/GPa) = 0.02133215
#
# Stress axis : x y z
#
# Youngs Moduli (GPa) = 83.63672 59.72157 68.95820
#
# Poissons Ratio (x) = -0.12237 0.27331
# Poissons Ratio (y) = -0.17137 0.62204
# Poissons Ratio (z) = 0.33149 0.53872
#
# Static dielectric constant tensor:
#      x y z
#    x 2.025110 -0.000770 -0.014930 
#    y -0.000770 2.048900 -0.027320 
#    z -0.014930 -0.027320 1.925650 
# 
# From -- ./inp_files/392847.got.cif
#   From: 2010.05.17/outbox.cif.g08.bks.cpg/sg2_197_cif.got.tgz:392847.got - 2010.06.03 11:33:40.
