data_PCOD9099698
_publ_section_title
;
Structure prediction by ZEFSAII (Michael W. Deem and Ramdas Pophale) SiO2 
 PCOD9099698
Probable space group: P -1
;
_chemical_formula_sum "Si O2"
_cell_formula_units_Z 14
_cell_length_a 21.827974
_cell_length_b 8.032138
_cell_length_c 7.526687
_cell_angle_alpha 85.761174
_cell_angle_beta 51.707943
_cell_angle_gamma 47.517523
_cell_volume 613.721395
_symmetry_space_group_name_H-M "P -1"
_symmetry_group_IT_number 2
_symmetry_cell_setting 'triclinic'
loop_
_space_group_symop_operation_xyz
x,y,z
-x,-y,-z
loop_
_atom_site_type_symbol
_atom_site_label
_atom_site_fract_x
_atom_site_fract_y
_atom_site_fract_z
Si Si1 0.148752 0.778075 0.794322
Si Si2 0.393894 0.890812 0.047550
Si Si3 0.753743 0.985864 0.044485
Si Si4 0.673964 0.799302 0.368800
Si Si5 0.617387 0.723666 0.097534
Si Si6 0.672263 0.248945 0.541671
Si Si7 0.872682 0.108196 0.763045
O O1 0.248912 0.452468 0.614590
O O2 0.204151 0.854065 0.611129
O O3 0.149754 0.807368 0.999673
O O4 0.000000 0.000000 0.000000
O O5 0.330214 0.918541 0.333179
O O6 0.328770 0.917180 0.989045
O O7 0.545108 0.575192 0.794456
O O8 0.381430 0.110003 0.033226
O O9 0.675929 0.215714 0.324766
O O10 0.771314 0.777111 0.126319
O O11 0.871357 0.907821 0.781735
O O12 0.637502 0.755045 0.261113
O O13 0.527671 0.107115 0.669331
O O14 0.743053 0.390358 0.865488
O O15 0.000000 0.000000 0.500000
#
# Coordination Sequence:
#
# PCOD9099698 Si02
#       7
#     2   2   2   2   2   2   2
#     4  10  21  40  60  81 123 162 187 243 300 354
#     4  10  20  37  61  89 121 151 194 253 294 347
#     4  10  22  37  62  87 116 157 195 251 296 347
#     4   9  18  36  62  89 110 153 204 233 304 347
#     4   9  18  36  62  84 118 152 193 253 285 351
#     4  10  21  37  57  92 121 149 202 240 300 353
#     4  10  23  40  57  87 117 155 203 238 297 360
#
# _framework density 22.811655999999999
#
# number of rings (size 3 to 8) (size 9 to 14) (size 15 to 20)
#    0.000    2.286    1.429    0.429   10.000    0.000 
#    5.143    4.286    0.000    0.000    0.000    0.000 
#    0.000    0.000    0.000    0.000    0.000    0.000 
#
# Total GULP energy -78114.698790 kJ/mol
# GULP energy per Si atom -5579.621342 kJ/mol
# Density = 2.275974 g / cm^3
# Si number density = 22.811656 Si / 1000 Ang^3
#
#
#
# Elastic Constant Matrix: (Units=GPa)
#
#
# Indices 1 2 3 4 5 6 
#
# 1 73.0797 27.3668 41.5970 -11.7709 -21.8674 1.0618
# 2 27.3668 89.2917 24.6900 -18.3523 -22.6869 -1.1273
# 3 41.5970 24.6900 85.4375 -27.7498 -28.5727 1.0424
# 4 -11.7709 -18.3523 -27.7498 31.5342 5.0489 -4.5840
# 5 -21.8674 -22.6869 -28.5727 5.0489 43.0972 -11.7061
# 6 1.0618 -1.1273 1.0424 -4.5840 -11.7061 21.6343
#
#
#
# Elastic Compliance Matrix: (Units=1/GPa)
#
#
# Indices 1 2 3 4 5 6 
#
# 1 0.020528 -0.003606 -0.008755 -0.002587 0.003115 0.000364
# 2 -0.003606 0.016319 0.004224 0.011473 0.010669 0.009028
# 3 -0.008755 0.004224 0.027709 0.022781 0.017125 0.013408
# 4 -0.002587 0.011473 0.022781 0.057635 0.019101 0.022175
# 5 0.003115 0.010669 0.017125 0.019101 0.047479 0.029315
# 6 0.000364 0.009028 0.013408 0.022175 0.029315 0.066590
#
#
# Mechanical properties :
#
#
# Convention : Reuss Voigt Hill
#
# Bulk Modulus (GPa) = 20.71186 48.34627 34.52906
# Shear Modulus (GPa) = 18.61307 29.53016 24.07162
#
# Velocity S-wave (km/s) = 2.85958 3.60185 3.25196
# Velocity P-wave (km/s) = 4.47237 6.20785 5.41015
#
# Compressibility (1/GPa) = 0.04828152
#
# Stress axis : x y z
#
# Youngs Moduli (GPa) = 48.71486 61.27689 36.08933
#
# Poissons Ratio (x) = 0.22098 0.31596
# Poissons Ratio (y) = 0.17568 -0.15244
# Poissons Ratio (z) = 0.42650 -0.25884
#
# Static dielectric constant tensor:
#      x y z
#    x 1.916000 0.037570 -0.007150 
#    y 0.037570 1.881740 -0.026170 
#    z -0.007150 -0.026170 1.892440 
# 
# From -- ./inp_files/172082.got.cif
#   From: 2010.05.17/outbox.cif.g08.bks.cpg/sg2_87_cif.got.tgz:172082.got - 2010.06.03 11:33:40.
