data_PCOD9099141
_publ_section_title
;
Structure prediction by ZEFSAII (Michael W. Deem and Ramdas Pophale) SiO2 
 PCOD9099141
Probable space group: P -1
;
_chemical_formula_sum "Si O2"
_cell_formula_units_Z 12
_cell_length_a 8.048370
_cell_length_b 7.599949
_cell_length_c 16.148518
_cell_angle_alpha 65.061048
_cell_angle_beta 73.718003
_cell_angle_gamma 124.266190
_cell_volume 535.099012
_symmetry_space_group_name_H-M "P -1"
_symmetry_group_IT_number 2
_symmetry_cell_setting 'triclinic'
loop_
_space_group_symop_operation_xyz
x,y,z
-x,-y,-z
loop_
_atom_site_type_symbol
_atom_site_label
_atom_site_fract_x
_atom_site_fract_y
_atom_site_fract_z
Si Si1 0.611262 0.309536 0.433307
Si Si2 0.206693 0.921669 0.975999
Si Si3 0.309585 0.702906 0.396914
Si Si4 0.441429 0.386335 0.724370
Si Si5 0.113463 0.943161 0.174255
Si Si6 0.388256 0.731622 0.870181
O O1 0.573161 0.308726 0.536515
O O2 0.477466 0.332997 0.378192
O O3 0.938816 0.617349 0.307251
O O4 0.500000 0.000000 0.500000
O O5 0.186138 0.932758 0.074590
O O6 0.892135 0.620995 0.046263
O O7 0.341062 0.848174 0.928198
O O8 0.368889 0.251726 0.852578
O O9 0.334392 0.566118 0.349302
O O10 0.000000 0.500000 0.500000
O O11 0.497010 0.045152 0.268824
O O12 0.124839 0.099288 0.786093
O O13 0.381856 0.213175 0.137918
#
# Coordination Sequence:
#
# PCOD9099141 Si02
#       6
#     2   2   2   2   2   2
#     4  10  21  36  59  85 116 161 198 244 302 351
#     4  10  20  38  60  87 123 156 199 251 294 360
#     4  11  19  39  61  82 123 154 201 248 295 360
#     4   9  22  36  61  87 117 162 196 250 301 349
#     4  10  20  37  59  86 122 157 198 249 294 353
#     4  10  21  35  62  90 115 164 202 236 308 352
#
# _framework density 22.425756
#
# number of rings (size 3 to 8) (size 9 to 14) (size 15 to 20)
#    1.000    1.000    1.667    2.500    0.000    0.667 
#    0.000    0.833    3.667    0.000    0.000    0.000 
#    0.000    0.000    0.000    0.000    0.000    0.000 
#
# Total GULP energy -66812.853326 kJ/mol
# GULP energy per Si atom -5567.737777 kJ/mol
# Density = 2.237471 g / cm^3
# Si number density = 22.425756 Si / 1000 Ang^3
#
#
#
# Elastic Constant Matrix: (Units=GPa)
#
#
# Indices 1 2 3 4 5 6 
#
# 1 67.1312 12.4071 27.5875 3.1222 -10.8194 -4.8806
# 2 12.4071 40.8479 25.5132 9.6962 -0.0475 1.5567
# 3 27.5875 25.5132 138.0792 19.9638 10.3884 -7.5207
# 4 3.1222 9.6962 19.9638 28.7912 -0.8323 -0.0517
# 5 -10.8194 -0.0475 10.3884 -0.8323 40.6093 -0.7627
# 6 -4.8806 1.5567 -7.5207 -0.0517 -0.7627 24.2989
#
#
#
# Elastic Compliance Matrix: (Units=1/GPa)
#
#
# Indices 1 2 3 4 5 6 
#
# 1 0.018096 -0.003909 -0.003442 0.001914 0.005793 0.003006
# 2 -0.003909 0.029928 -0.003945 -0.006933 -0.000213 -0.003945
# 3 -0.003442 -0.003945 0.009808 -0.005195 -0.003491 0.002476
# 4 0.001914 -0.006933 -0.005195 0.040538 0.002650 -0.000610
# 5 0.005793 -0.000213 -0.003491 0.002650 0.027133 0.000954
# 6 0.003006 -0.003945 0.002476 -0.000610 0.000954 0.042806
#
#
# Mechanical properties :
#
#
# Convention : Reuss Voigt Hill
#
# Bulk Modulus (GPa) = 28.37718 41.89712 35.13715
# Shear Modulus (GPa) = 24.67334 30.77658 27.72496
#
# Velocity S-wave (km/s) = 3.32056 3.70858 3.51992
# Velocity P-wave (km/s) = 5.23286 6.08779 5.67644
#
# Compressibility (1/GPa) = 0.03523958
#
# Stress axis : x y z
#
# Youngs Moduli (GPa) = 55.25990 33.41320 101.96231
#
# Poissons Ratio (x) = 0.13060 0.35097
# Poissons Ratio (y) = 0.21599 0.40229
# Poissons Ratio (z) = 0.19021 0.13183
#
# Static dielectric constant tensor:
#      x y z
#    x 1.915990 -0.011790 0.029900 
#    y -0.011790 1.986180 0.071750 
#    z 0.029900 0.071750 1.869800 
# 
# From -- ./inp_files/203406.got.cif
#   From: 2010.05.17/outbox.cif.g08.bks.cpg/sg2_102_cif.got.tgz:203406.got - 2010.06.03 11:33:40.
