data_PCOD9099525
_publ_section_title
;
Structure prediction by ZEFSAII (Michael W. Deem and Ramdas Pophale) SiO2 
 PCOD9099525
Probable space group: P -1
;
_chemical_formula_sum "Si O2"
_cell_formula_units_Z 16
_cell_length_a 12.231505
_cell_length_b 16.607906
_cell_length_c 19.644831
_cell_angle_alpha 29.187260
_cell_angle_beta 133.542873
_cell_angle_gamma 155.185851
_cell_volume 704.526397
_symmetry_space_group_name_H-M "P -1"
_symmetry_group_IT_number 2
_symmetry_cell_setting 'triclinic'
loop_
_space_group_symop_operation_xyz
x,y,z
-x,-y,-z
loop_
_atom_site_type_symbol
_atom_site_label
_atom_site_fract_x
_atom_site_fract_y
_atom_site_fract_z
Si Si1 0.797932 0.981296 0.255891
Si Si2 0.740495 0.651043 0.704085
Si Si3 0.598531 0.503787 0.437666
Si Si4 0.644061 0.019249 0.835534
Si Si5 0.289662 0.674173 0.470507
Si Si6 0.625439 0.287369 0.372438
Si Si7 0.642307 0.661483 0.107573
Si Si8 0.667951 0.208253 0.987905
O O1 0.741850 0.813225 0.291142
O O2 0.502323 0.683183 0.397983
O O3 0.858729 0.227870 0.078991
O O4 0.043240 0.126712 0.301834
O O5 0.693586 0.728074 0.563383
O O6 0.423678 0.376873 0.811822
O O7 0.798549 0.516452 0.805567
O O8 0.796692 0.568626 0.430224
O O9 0.530501 0.042706 0.714394
O O10 0.541900 0.963221 0.909141
O O11 0.009927 0.371193 0.730946
O O12 0.535632 0.734154 0.977593
O O13 0.459240 0.792493 0.524941
O O14 0.000000 0.500000 0.500000
O O15 0.524778 0.374625 0.240945
O O16 0.500000 0.000000 0.500000
O O17 0.000000 0.000000 0.000000
O O18 0.500000 0.000000 0.000000
#
# Coordination Sequence:
#
# PCOD9099525 Si02
#       8
#     2   2   2   2   2   2   2   2
#     4  11  24  40  63  95 127 166 217 264 314 388
#     4  11  22  39  65  92 121 166 216 261 311 388
#     4  11  22  42  63  91 132 165 207 269 329 371
#     4   9  20  38  61  83 121 169 206 252 323 386
#     4  10  20  38  62  86 121 167 205 256 323 378
#     4  10  20  37  60  94 118 153 215 266 317 378
#     4   9  19  38  63  81 120 166 203 252 323 378
#     4  11  21  41  62  88 126 173 211 257 325 379
#
# _framework density 22.710291000000002
#
# number of rings (size 3 to 8) (size 9 to 14) (size 15 to 20)
#    0.000    1.750    3.750    0.750    0.000    2.000 
#    2.250    0.625    0.000    0.000    0.000    0.000 
#    0.000    0.000    0.000    0.000    0.000    0.000 
#
# Total GULP energy -89178.825046 kJ/mol
# GULP energy per Si atom -5573.676565 kJ/mol
# Density = 2.265860 g / cm^3
# Si number density = 22.710291 Si / 1000 Ang^3
#
#
#
# Elastic Constant Matrix: (Units=GPa)
#
#
# Indices 1 2 3 4 5 6 
#
# 1 139.7939 32.2236 38.0696 -0.4351 31.7055 -18.5980
# 2 32.2236 55.1459 14.7890 6.5874 8.2391 -11.0473
# 3 38.0696 14.7890 106.2244 10.6102 32.4107 -8.3558
# 4 -0.4351 6.5874 10.6102 30.1388 -9.4488 7.7003
# 5 31.7055 8.2391 32.4107 -9.4488 44.4682 -0.7981
# 6 -18.5980 -11.0473 -8.3558 7.7003 -0.7981 30.8049
#
#
#
# Elastic Compliance Matrix: (Units=1/GPa)
#
#
# Indices 1 2 3 4 5 6 
#
# 1 0.010330 -0.003566 -0.000502 -0.002346 -0.006743 0.005234
# 2 -0.003566 0.023409 0.000871 -0.008988 -0.004185 0.008617
# 3 -0.000502 0.000871 0.015124 -0.011319 -0.013113 0.006601
# 4 -0.002346 -0.008988 -0.011319 0.051109 0.022091 -0.019913
# 5 -0.006743 -0.004185 -0.013113 0.022091 0.042079 -0.013561
# 6 0.005234 0.008617 0.006601 -0.019913 -0.013561 0.045129
#
#
# Mechanical properties :
#
#
# Convention : Reuss Voigt Hill
#
# Bulk Modulus (GPa) = 23.54625 52.36983 37.95804
# Shear Modulus (GPa) = 24.06977 35.48786 29.77882
#
# Velocity S-wave (km/s) = 3.25908 3.95730 3.62504
# Velocity P-wave (km/s) = 4.95508 6.63252 5.85419
#
# Compressibility (1/GPa) = 0.04246961
#
# Stress axis : x y z
#
# Youngs Moduli (GPa) = 96.80123 42.71921 66.12192
#
# Poissons Ratio (x) = 0.15232 0.03322
# Poissons Ratio (y) = 0.34515 -0.05762
# Poissons Ratio (z) = 0.04864 -0.03723
#
# Static dielectric constant tensor:
#      x y z
#    x 1.885280 0.065520 -0.026720 
#    y 0.065520 1.876520 -0.000350 
#    z -0.026720 -0.000350 1.976720 
# 
# From -- ./inp_files/557235.got.cif
#   From: 2010.05.17/outbox.cif.g08.bks.cpg/sg2_279_cif.got.tgz:557235.got - 2010.06.03 11:33:40.
