data_PCOD9099912
_publ_section_title
;
Structure prediction by ZEFSAII (Michael W. Deem and Ramdas Pophale) SiO2 
 PCOD9099912
Probable space group: P -1
;
_chemical_formula_sum "Si O2"
_cell_formula_units_Z 15
_cell_length_a 12.843339
_cell_length_b 10.812067
_cell_length_c 7.538377
_cell_angle_alpha 63.589027
_cell_angle_beta 104.269074
_cell_angle_gamma 54.576353
_cell_volume 552.279410
_symmetry_space_group_name_H-M "P -1"
_symmetry_group_IT_number 2
_symmetry_cell_setting 'triclinic'
loop_
_space_group_symop_operation_xyz
x,y,z
-x,-y,-z
loop_
_atom_site_type_symbol
_atom_site_label
_atom_site_fract_x
_atom_site_fract_y
_atom_site_fract_z
Si Si1 0.500000 0.500000 0.500000
Si Si2 0.024783 0.612640 0.769965
Si Si3 0.202985 0.770484 0.986955
Si Si4 0.872872 0.277236 0.556899
Si Si5 0.526256 0.267878 0.009772
Si Si6 0.580532 0.095409 0.791388
Si Si7 0.022191 0.320301 0.888122
Si Si8 0.621827 0.695248 0.747658
O O1 0.529872 0.306996 0.591510
O O2 0.716283 0.297524 0.739731
O O3 0.035281 0.715219 0.557826
O O4 0.939629 0.558385 0.698066
O O5 0.231332 0.364170 0.054855
O O6 0.952870 0.729750 0.857903
O O7 0.332598 0.754423 0.956885
O O8 0.261116 0.564237 0.068887
O O9 0.999154 0.015938 0.750704
O O10 0.668916 0.470387 0.284566
O O11 0.908709 0.327860 0.720678
O O12 0.540662 0.130192 0.960722
O O13 0.527700 0.206264 0.244592
O O14 0.458189 0.151148 0.556438
O O15 0.787067 0.870730 0.998208
#
# Coordination Sequence:
#
# PCOD9099912 Si02
#       8
#     1   2   2   2   2   2   2   2
#     4   8  16  36  54  90 120 152 204 238 298 378
#     4  10  25  41  62  95 122 166 223 250 313 371
#     4  10  20  39  63  93 130 164 204 253 325 364
#     4  11  22  42  66  93 125 168 207 263 311 372
#     4  10  21  38  61  94 125 160 207 253 311 376
#     4  10  20  37  62  86 125 166 203 253 318 362
#     4  11  22  43  66  87 128 171 206 270 305 365
#     4  10  22  41  58  94 130 160 209 263 299 388
#
# _framework density 27.160166
#
# number of rings (size 3 to 8) (size 9 to 14) (size 15 to 20)
#    0.000    1.867    2.667    1.600    1.867    2.667 
#    7.200    6.667    0.000    0.000    0.000    0.000 
#    0.000    0.000    0.000    0.000    0.000    0.000 
#
# Total GULP energy -83623.991635 kJ/mol
# GULP energy per Si atom -5574.932776 kJ/mol
# Density = 2.709835 g / cm^3
# Si number density = 27.160166 Si / 1000 Ang^3
#
#
#
# Elastic Constant Matrix: (Units=GPa)
#
#
# Indices 1 2 3 4 5 6 
#
# 1 47.9292 14.0026 16.5317 -4.4110 16.7499 3.0963
# 2 14.0026 106.8681 35.3808 1.4444 -6.4494 -18.2196
# 3 16.5317 35.3808 85.1976 -17.4161 18.9628 -8.4606
# 4 -4.4110 1.4444 -17.4161 32.8657 -12.8486 1.8652
# 5 16.7499 -6.4494 18.9628 -12.8486 38.4811 0.7450
# 6 3.0963 -18.2196 -8.4606 1.8652 0.7450 44.3707
#
#
#
# Elastic Compliance Matrix: (Units=1/GPa)
#
#
# Indices 1 2 3 4 5 6 
#
# 1 0.027014 -0.004450 -0.001331 -0.001470 -0.012268 -0.003698
# 2 -0.004450 0.013092 -0.005954 -0.002136 0.006264 0.004536
# 3 -0.001331 -0.005954 0.017414 0.006603 -0.006811 0.000805
# 4 -0.001470 -0.002136 0.006603 0.037657 0.009626 -0.001260
# 5 -0.012268 0.006264 -0.006811 0.009626 0.038926 0.001071
# 6 -0.003698 0.004536 0.000805 -0.001260 0.001071 0.024846
#
#
# Mechanical properties :
#
#
# Convention : Reuss Voigt Hill
#
# Bulk Modulus (GPa) = 29.36859 41.31390 35.34125
# Shear Modulus (GPa) = 25.80400 34.74882 30.27641
#
# Velocity S-wave (km/s) = 3.08566 3.58076 3.34239
# Velocity P-wave (km/s) = 4.85094 5.68683 5.28543
#
# Compressibility (1/GPa) = 0.03404998
#
# Stress axis : x y z
#
# Youngs Moduli (GPa) = 37.01768 76.38483 57.42601
#
# Poissons Ratio (x) = 0.33990 0.07645
# Poissons Ratio (y) = 0.16472 0.34190
# Poissons Ratio (z) = 0.04928 0.45477
#
# Static dielectric constant tensor:
#      x y z
#    x 5.216600 0.103310 -0.239820 
#    y 0.103310 2.304130 0.122860 
#    z -0.239820 0.122860 2.189990 
# 
# From -- ./inp_files/307087.got.cif
#   From: 2010.05.17/outbox.cif.g08.bks.cpg/sg2_154_cif.got.tgz:307087.got - 2010.06.03 11:33:40.
