data_PCOD9099440
_publ_section_title
;
Structure prediction by ZEFSAII (Michael W. Deem and Ramdas Pophale) SiO2 
 PCOD9099440
Probable space group: P -1
;
_chemical_formula_sum "Si O2"
_cell_formula_units_Z 16
_cell_length_a 11.562597
_cell_length_b 10.616429
_cell_length_c 11.724993
_cell_angle_alpha 123.412634
_cell_angle_beta 129.309429
_cell_angle_gamma 94.617389
_cell_volume 694.428951
_symmetry_space_group_name_H-M "P -1"
_symmetry_group_IT_number 2
_symmetry_cell_setting 'triclinic'
loop_
_space_group_symop_operation_xyz
x,y,z
-x,-y,-z
loop_
_atom_site_type_symbol
_atom_site_label
_atom_site_fract_x
_atom_site_fract_y
_atom_site_fract_z
Si Si1 0.523144 0.692600 0.589893
Si Si2 0.075942 0.959711 0.692149
Si Si3 0.705800 0.767958 0.514000
Si Si4 0.722407 0.222852 0.620794
Si Si5 0.491350 0.302950 0.155643
Si Si6 0.389024 0.772705 0.199512
Si Si7 0.015529 0.342941 0.688897
Si Si8 0.192648 0.713460 0.679737
O O1 0.500000 0.500000 0.500000
O O2 0.694438 0.820654 0.663360
O O3 0.331440 0.645291 0.389605
O O4 0.547319 0.761378 0.768131
O O5 0.162606 0.867973 0.764423
O O6 0.912822 0.922420 0.653493
O O7 0.979178 0.816973 0.447964
O O8 0.275488 0.188619 0.908290
O O9 0.635221 0.545316 0.358330
O O10 0.539808 0.749408 0.331976
O O11 0.714740 0.218980 0.750989
O O12 0.925881 0.290597 0.732853
O O13 0.533749 0.994990 0.346555
O O14 0.606820 0.238899 0.140800
O O15 0.219753 0.573175 0.923544
O O16 0.844078 0.312287 0.492486
O O17 0.000000 0.500000 0.500000
#
# Coordination Sequence:
#
# PCOD9099440 Si02
#       8
#     2   2   2   2   2   2   2   2
#     4   9  19  36  63  87 119 153 192 249 303 349
#     4  10  23  35  58  88 118 159 197 237 304 356
#     4  10  22  40  56  87 123 154 200 250 297 350
#     4  10  20  41  63  89 116 156 205 243 294 357
#     4  11  19  39  61  85 122 157 196 251 299 355
#     4  10  23  40  63  86 121 157 202 251 288 350
#     4  10  22  38  61  90 115 161 200 246 297 350
#     4  10  20  37  60  89 121 154 198 243 303 357
#
# _framework density 23.040514999999999
#
# number of rings (size 3 to 8) (size 9 to 14) (size 15 to 20)
#    0.750    1.250    2.500    0.750    0.000    5.000 
#    0.000    8.750    0.000    0.000    0.000    0.000 
#    0.000    0.000    0.000    0.000    0.000    0.000 
#
# Total GULP energy -89234.281361 kJ/mol
# GULP energy per Si atom -5577.142585 kJ/mol
# Density = 2.298807 g / cm^3
# Si number density = 23.040515 Si / 1000 Ang^3
#
#
#
# Elastic Constant Matrix: (Units=GPa)
#
#
# Indices 1 2 3 4 5 6 
#
# 1 104.0608 4.0905 5.0853 -6.5398 24.7903 13.9904
# 2 4.0905 57.4788 4.8736 -4.0245 5.5442 -8.2829
# 3 5.0853 4.8736 76.7467 9.5265 9.9296 10.6011
# 4 -6.5398 -4.0245 9.5265 22.2309 0.6018 1.8315
# 5 24.7903 5.5442 9.9296 0.6018 24.5872 7.3352
# 6 13.9904 -8.2829 10.6011 1.8315 7.3352 14.8807
#
#
#
# Elastic Compliance Matrix: (Units=1/GPa)
#
#
# Indices 1 2 3 4 5 6 
#
# 1 0.013902 -0.001043 0.001413 0.004390 -0.011637 -0.009461
# 2 -0.001043 0.021524 -0.003304 0.003670 -0.008197 0.018904
# 3 0.001413 -0.003304 0.016001 -0.005945 -0.003363 -0.012177
# 4 0.004390 0.003670 -0.005945 0.049768 -0.003383 -0.002307
# 5 -0.011637 -0.008197 -0.003363 -0.003383 0.062082 -0.021412
# 6 -0.009461 0.018904 -0.012177 -0.002307 -0.021412 0.106132
#
#
# Mechanical properties :
#
#
# Convention : Reuss Voigt Hill
#
# Bulk Modulus (GPa) = 21.94953 29.59834 25.77394
# Shear Modulus (GPa) = 17.21394 27.28889 22.25142
#
# Velocity S-wave (km/s) = 2.73631 3.44523 3.11103
# Velocity P-wave (km/s) = 4.41932 5.35726 4.91073
#
# Compressibility (1/GPa) = 0.04555906
#
# Stress axis : x y z
#
# Youngs Moduli (GPa) = 71.93275 46.46019 62.49542
#
# Poissons Ratio (x) = 0.04844 -0.08828
# Poissons Ratio (y) = 0.07500 0.20648
# Poissons Ratio (z) = -0.10161 0.15350
#
# Static dielectric constant tensor:
#      x y z
#    x 1.944460 0.058230 -0.106840 
#    y 0.058230 1.934100 -0.035650 
#    z -0.106840 -0.035650 1.975340 
# 
# From -- ./inp_files/428799.got.cif
#   From: 2010.05.17/outbox.cif.g08.bks.cpg/sg2_215_cif.got.tgz:428799.got - 2010.06.03 11:33:40.
