data_PCOD9099832
_publ_section_title
;
Structure prediction by ZEFSAII (Michael W. Deem and Ramdas Pophale) SiO2 
 PCOD9099832
Probable space group: P -1
;
_chemical_formula_sum "Si O2"
_cell_formula_units_Z 16
_cell_length_a 24.303383
_cell_length_b 26.730471
_cell_length_c 16.831370
_cell_angle_alpha 20.172136
_cell_angle_beta 160.912066
_cell_angle_gamma 169.529363
_cell_volume 641.680662
_symmetry_space_group_name_H-M "P -1"
_symmetry_group_IT_number 2
_symmetry_cell_setting 'triclinic'
loop_
_space_group_symop_operation_xyz
x,y,z
-x,-y,-z
loop_
_atom_site_type_symbol
_atom_site_label
_atom_site_fract_x
_atom_site_fract_y
_atom_site_fract_z
Si Si1 0.960541 0.235303 0.820853
Si Si2 0.799065 0.361123 0.136128
Si Si3 0.682058 0.190415 0.062014
Si Si4 0.452344 0.728215 0.475654
Si Si5 0.126685 0.970946 0.835258
Si Si6 0.037523 0.881092 0.279880
Si Si7 0.511348 0.850391 0.640388
Si Si8 0.003311 0.817701 0.712811
O O1 0.730776 0.199169 0.590720
O O2 0.281196 0.545621 0.761175
O O3 0.748854 0.999442 0.817001
O O4 0.057460 0.212243 0.064094
O O5 0.756435 0.225640 0.204808
O O6 0.148419 0.588618 0.311881
O O7 0.475461 0.153133 0.051801
O O8 0.838183 0.546810 0.869610
O O9 0.567410 0.941286 0.253369
O O10 0.000000 0.500000 0.000000
O O11 0.377277 0.073097 0.820155
O O12 0.281804 0.447567 0.644023
O O13 0.755913 0.921976 0.655786
O O14 0.148065 0.158450 0.573892
O O15 0.988624 0.820871 0.784537
O O16 0.263246 0.951045 0.423399
O O17 0.000000 0.000000 0.000000
#
# Coordination Sequence:
#
# PCOD9099832 Si02
#       8
#     2   2   2   2   2   2   2   2
#     4  10  22  39  64  92 128 170 206 275 325 393
#     4  10  20  38  65  96 125 175 220 269 322 400
#     4  10  22  43  64  98 136 175 224 279 321 399
#     4  11  23  42  69 100 123 179 226 264 342 394
#     4  10  20  37  61  96 135 169 216 269 340 399
#     4  12  25  46  70  96 136 172 225 291 328 402
#     4  10  23  42  61  95 125 164 222 265 334 383
#     4   9  21  36  61  97 133 174 219 270 330 403
#
# _framework density 24.934521
#
# number of rings (size 3 to 8) (size 9 to 14) (size 15 to 20)
#    0.000    1.750    1.250    2.250    5.250    3.000 
#    2.250    1.250    0.000    0.000    0.000    0.000 
#    0.000    0.000    0.000    0.000    0.000    0.000 
#
# Total GULP energy -89353.929797 kJ/mol
# GULP energy per Si atom -5584.620612 kJ/mol
# Density = 2.487777 g / cm^3
# Si number density = 24.934521 Si / 1000 Ang^3
#
#
#
# Elastic Constant Matrix: (Units=GPa)
#
#
# Indices 1 2 3 4 5 6 
#
# 1 55.7215 21.8556 2.2736 2.1370 -17.3156 3.7291
# 2 21.8556 156.3459 31.6403 -21.4136 -10.2799 -3.2061
# 3 2.2736 31.6403 98.1117 3.3564 -11.2559 -8.5101
# 4 2.1370 -21.4136 3.3564 31.3727 3.3961 -2.9123
# 5 -17.3156 -10.2799 -11.2559 3.3961 29.1058 -9.2557
# 6 3.7291 -3.2061 -8.5101 -2.9123 -9.2557 39.5595
#
#
#
# Elastic Compliance Matrix: (Units=1/GPa)
#
#
# Indices 1 2 3 4 5 6 
#
# 1 0.024162 -0.003725 0.002680 -0.006013 0.015146 0.001098
# 2 -0.003725 0.008327 -0.002866 0.006406 -0.000919 0.000666
# 3 0.002680 -0.002866 0.012280 -0.003875 0.006891 0.003484
# 4 -0.006013 0.006406 -0.003875 0.037940 -0.006776 0.001460
# 5 0.015146 -0.000919 0.006891 -0.006776 0.050058 0.011194
# 6 0.001098 0.000666 0.003484 0.001460 0.011194 0.028705
#
#
# Mechanical properties :
#
#
# Convention : Reuss Voigt Hill
#
# Bulk Modulus (GPa) = 27.06592 46.85757 36.96174
# Shear Modulus (GPa) = 27.53148 36.96824 32.24986
#
# Velocity S-wave (km/s) = 3.32648 3.85465 3.60026
# Velocity P-wave (km/s) = 5.06284 6.21644 5.66906
#
# Compressibility (1/GPa) = 0.03694683
#
# Stress axis : x y z
#
# Youngs Moduli (GPa) = 41.38765 120.08600 81.43367
#
# Poissons Ratio (x) = 0.44733 -0.21824
# Poissons Ratio (y) = 0.15417 0.23339
# Poissons Ratio (z) = -0.11092 0.34416
#
# Static dielectric constant tensor:
#      x y z
#    x 1.993860 -0.002000 0.074780 
#    y -0.002000 2.032590 -0.007260 
#    z 0.074780 -0.007260 2.095450 
# 
# From -- ./inp_files/579983.got.cif
#   From: 2010.05.17/outbox.cif.g08.bks.cpg/sg2_290_cif.got.tgz:579983.got - 2010.06.03 11:33:40.
