data_PCOD9099263
_publ_section_title
;
Structure prediction by ZEFSAII (Michael W. Deem and Ramdas Pophale) SiO2 
 PCOD9099263
Probable space group: P -1
;
_chemical_formula_sum "Si O2"
_cell_formula_units_Z 16
_cell_length_a 10.613680
_cell_length_b 11.359400
_cell_length_c 14.219452
_cell_angle_alpha 68.963172
_cell_angle_beta 54.912178
_cell_angle_gamma 29.695333
_cell_volume 651.942909
_symmetry_space_group_name_H-M "P -1"
_symmetry_group_IT_number 2
_symmetry_cell_setting 'triclinic'
loop_
_space_group_symop_operation_xyz
x,y,z
-x,-y,-z
loop_
_atom_site_type_symbol
_atom_site_label
_atom_site_fract_x
_atom_site_fract_y
_atom_site_fract_z
Si Si1 0.786183 0.295624 0.312384
Si Si2 0.484432 0.745685 0.867613
Si Si3 0.086660 0.432279 0.710279
Si Si4 0.955572 0.881594 0.560959
Si Si5 0.680488 0.074300 0.437443
Si Si6 0.345460 0.363903 0.787281
Si Si7 0.554611 0.111609 0.948661
Si Si8 0.961107 0.808543 0.196569
O O1 0.703494 0.208636 0.373663
O O2 0.574603 0.544491 0.276947
O O3 0.802485 0.331262 0.403777
O O4 0.116620 0.080796 0.182460
O O5 0.754754 0.648845 0.741107
O O6 0.669757 0.479804 0.864377
O O7 0.176383 0.984568 0.869977
O O8 0.444387 0.825211 0.967794
O O9 0.346278 0.281944 0.565966
O O10 0.078454 0.525720 0.779521
O O11 0.919458 0.859222 0.478073
O O12 0.629011 0.092537 0.692359
O O13 0.000000 0.000000 0.500000
O O14 0.140027 0.255192 0.782369
O O15 0.788402 0.939756 0.332478
O O16 0.311031 0.346268 0.913123
O O17 0.500000 0.000000 0.000000
#
# Coordination Sequence:
#
# PCOD9099263 Si02
#       8
#     2   2   2   2   2   2   2   2
#     4  10  22  38  63  97 132 162 217 262 340 388
#     4  10  24  42  66  94 131 167 226 277 316 384
#     4   9  21  37  64  93 133 165 221 264 327 381
#     4   8  18  36  56  89 129 161 203 253 320 383
#     4  10  20  42  62  92 130 178 211 271 316 399
#     4  10  20  37  59  99 119 165 204 270 330 395
#     4  11  23  40  68  93 129 167 215 275 334 385
#     4  10  23  45  62 100 127 176 229 261 326 378
#
# _framework density 24.542026
#
# number of rings (size 3 to 8) (size 9 to 14) (size 15 to 20)
#    0.750    1.500    0.000    1.875    1.750    8.000 
#   11.250    1.250    0.000    0.000    0.000    0.000 
#    0.000    0.000    0.000    0.000    0.000    0.000 
#
# Total GULP energy -89224.944536 kJ/mol
# GULP energy per Si atom -5576.559033 kJ/mol
# Density = 2.448617 g / cm^3
# Si number density = 24.542026 Si / 1000 Ang^3
#
#
#
# Elastic Constant Matrix: (Units=GPa)
#
#
# Indices 1 2 3 4 5 6 
#
# 1 15.6056 4.0487 14.5034 1.2948 16.5611 4.0119
# 2 4.0487 111.0254 38.1686 -9.1788 7.7582 -5.7331
# 3 14.5034 38.1686 106.6867 -5.3823 17.8228 1.0844
# 4 1.2948 -9.1788 -5.3823 47.8385 0.5128 0.7808
# 5 16.5611 7.7582 17.8228 0.5128 52.2162 -0.7731
# 6 4.0119 -5.7331 1.0844 0.7808 -0.7731 18.9343
#
#
#
# Elastic Compliance Matrix: (Units=1/GPa)
#
#
# Indices 1 2 3 4 5 6 
#
# 1 0.115939 -0.000011 -0.010051 -0.003498 -0.033678 -0.025224
# 2 -0.000011 0.010601 -0.003700 0.001566 -0.000274 0.003348
# 3 -0.010051 -0.003700 0.012179 0.000933 -0.000425 0.000256
# 4 -0.003498 0.001566 0.000933 0.021395 0.000353 0.000294
# 5 -0.033678 -0.000274 -0.000425 0.000353 0.030138 0.008293
# 6 -0.025224 0.003348 0.000256 0.000294 0.008293 0.059484
#
#
# Mechanical properties :
#
#
# Convention : Reuss Voigt Hill
#
# Bulk Modulus (GPa) = 8.99326 38.52879 23.76102
# Shear Modulus (GPa) = 15.90705 35.57094 25.73899
#
# Velocity S-wave (km/s) = 2.54865 3.81121 3.24199
# Velocity P-wave (km/s) = 3.51187 5.92455 4.86999
#
# Compressibility (1/GPa) = 0.11119441
#
# Stress axis : x y z
#
# Youngs Moduli (GPa) = 8.62521 94.33055 82.10921
#
# Poissons Ratio (x) = 0.00102 0.82530
# Poissons Ratio (y) = 0.00009 0.30383
# Poissons Ratio (z) = 0.08669 0.34906
#
# Static dielectric constant tensor:
#      x y z
#    x 1.963010 -0.076490 -0.056430 
#    y -0.076490 2.099530 0.033550 
#    z -0.056430 0.033550 1.950950 
# 
# From -- ./inp_files/518835.got.cif
#   From: 2010.05.17/outbox.cif.g08.bks.cpg/sg2_260_cif.got.tgz:518835.got - 2010.06.03 11:33:40.
