data_PCOD9099814
_publ_section_title
;
Structure prediction by ZEFSAII (Michael W. Deem and Ramdas Pophale) SiO2 
 PCOD9099814
Probable space group: P -1
;
_chemical_formula_sum "Si O2"
_cell_formula_units_Z 14
_cell_length_a 9.955975
_cell_length_b 13.225223
_cell_length_c 7.813586
_cell_angle_alpha 122.787018
_cell_angle_beta 134.494167
_cell_angle_gamma 70.625866
_cell_volume 615.000301
_symmetry_space_group_name_H-M "P -1"
_symmetry_group_IT_number 2
_symmetry_cell_setting 'triclinic'
loop_
_space_group_symop_operation_xyz
x,y,z
-x,-y,-z
loop_
_atom_site_type_symbol
_atom_site_label
_atom_site_fract_x
_atom_site_fract_y
_atom_site_fract_z
Si Si1 0.468533 0.848166 0.787224
Si Si2 0.392750 0.964471 0.156458
Si Si3 0.582218 0.392485 0.374440
Si Si4 0.348520 0.398257 0.842726
Si Si5 0.891787 0.871518 0.342825
Si Si6 0.002635 0.599266 0.243937
Si Si7 0.713394 0.856872 0.536316
O O1 0.413054 0.711377 0.575098
O O2 0.453018 0.936013 0.696639
O O3 0.344811 0.884902 0.873163
O O4 0.689357 0.861530 0.053083
O O5 0.502425 0.885668 0.313466
O O6 0.244724 0.045137 0.187854
O O7 0.500000 0.500000 0.500000
O O8 0.790452 0.410065 0.502467
O O9 0.447511 0.350216 0.059077
O O10 0.299610 0.285660 0.568891
O O11 0.155231 0.436630 0.787303
O O12 0.500000 0.500000 0.000000
O O13 0.847045 0.878173 0.511651
O O14 0.973065 0.737048 0.277066
O O15 0.000000 0.000000 0.500000
O O16 0.000000 0.500000 0.000000
#
# Coordination Sequence:
#
# PCOD9099814 Si02
#       7
#     2   2   2   2   2   2   2
#     4  10  20  37  61  94 122 165 219 258 321 387
#     4   9  18  33  61  85 120 161 211 248 318 386
#     4  12  23  41  70  93 127 174 220 273 321 385
#     4  11  24  44  63  94 133 169 214 275 327 381
#     4  10  21  38  61  92 132 163 207 274 321 383
#     4  11  23  43  67  96 129 170 225 269 320 394
#     4   9  19  38  56  88 131 161 209 259 322 386
#
# _framework density 22.764216999999999
#
# number of rings (size 3 to 8) (size 9 to 14) (size 15 to 20)
#    0.000    1.714    5.714    0.000    8.000    0.571 
#    2.571    0.714    0.000    0.000    0.000    0.000 
#    0.000    0.000    0.000    0.000    0.000    0.000 
#
# Total GULP energy -78033.675930 kJ/mol
# GULP energy per Si atom -5573.833995 kJ/mol
# Density = 2.271240 g / cm^3
# Si number density = 22.764217 Si / 1000 Ang^3
#
#
#
# Elastic Constant Matrix: (Units=GPa)
#
#
# Indices 1 2 3 4 5 6 
#
# 1 128.0717 54.9691 41.0131 30.0144 8.5672 -22.4142
# 2 54.9691 101.9401 23.6354 44.1903 -2.6635 -19.3574
# 3 41.0131 23.6354 55.4810 15.6671 6.8840 -17.5707
# 4 30.0144 44.1903 15.6671 51.1826 -6.0113 -0.4726
# 5 8.5672 -2.6635 6.8840 -6.0113 45.4265 9.0761
# 6 -22.4142 -19.3574 -17.5707 -0.4726 9.0761 45.6961
#
#
#
# Elastic Compliance Matrix: (Units=1/GPa)
#
#
# Indices 1 2 3 4 5 6 
#
# 1 0.012568 -0.003877 -0.005690 -0.002565 -0.002641 0.002832
# 2 -0.003877 0.019383 0.001260 -0.014983 -0.001700 0.006976
# 3 -0.005690 0.001260 0.027224 -0.006670 -0.005715 0.009277
# 4 -0.002565 -0.014983 -0.006670 0.036825 0.007752 -0.011328
# 5 -0.002641 -0.001700 -0.005715 0.007752 0.026168 -0.009330
# 6 0.002832 0.006976 0.009277 -0.011328 -0.009330 0.031531
#
#
# Mechanical properties :
#
#
# Convention : Reuss Voigt Hill
#
# Bulk Modulus (GPa) = 23.49581 58.30312 40.89947
# Shear Modulus (GPa) = 27.10020 39.51939 33.30980
#
# Velocity S-wave (km/s) = 3.45407 4.17109 3.82940
# Velocity P-wave (km/s) = 5.12360 6.99033 6.12845
#
# Compressibility (1/GPa) = 0.04256077
#
# Stress axis : x y z
#
# Youngs Moduli (GPa) = 79.56943 51.59074 36.73218
#
# Poissons Ratio (x) = 0.20001 0.20900
# Poissons Ratio (y) = 0.30848 -0.04627
# Poissons Ratio (z) = 0.45274 -0.06498
#
# Static dielectric constant tensor:
#      x y z
#    x 1.888930 -0.022850 0.030570 
#    y -0.022850 1.949960 -0.026310 
#    z 0.030570 -0.026310 1.973830 
# 
# From -- ./inp_files/204593.got.cif
#   From: 2010.05.17/outbox.cif.g08.bks.cpg/sg2_103_cif.got.tgz:204593.got - 2010.06.03 11:33:40.
