data_PCOD9099269
_publ_section_title
;
Structure prediction by ZEFSAII (Michael W. Deem and Ramdas Pophale) SiO2 
 PCOD9099269
Probable space group: P -1
;
_chemical_formula_sum "Si O2"
_cell_formula_units_Z 16
_cell_length_a 7.107769
_cell_length_b 20.740002
_cell_length_c 9.030081
_cell_angle_alpha 151.490556
_cell_angle_beta 75.750024
_cell_angle_gamma 104.613847
_cell_volume 613.955446
_symmetry_space_group_name_H-M "P -1"
_symmetry_group_IT_number 2
_symmetry_cell_setting 'triclinic'
loop_
_space_group_symop_operation_xyz
x,y,z
-x,-y,-z
loop_
_atom_site_type_symbol
_atom_site_label
_atom_site_fract_x
_atom_site_fract_y
_atom_site_fract_z
Si Si1 0.526561 0.293444 0.973327
Si Si2 0.096366 0.809139 0.982963
Si Si3 0.770536 0.963958 0.770496
Si Si4 0.778131 0.441359 0.732983
Si Si5 0.343622 0.918163 0.698704
Si Si6 0.095466 0.286442 0.885367
Si Si7 0.657737 0.523982 0.227259
Si Si8 0.693361 0.807201 0.911187
O O1 0.653560 0.192777 0.653284
O O2 0.309519 0.291653 0.936132
O O3 0.629719 0.441465 0.219050
O O4 0.482182 0.244837 0.050196
O O5 0.163587 0.693261 0.628373
O O6 0.882723 0.847805 0.053020
O O7 0.064988 0.746281 0.023976
O O8 0.221204 0.949172 0.207413
O O9 0.551152 0.897904 0.696665
O O10 0.905100 0.841554 0.482671
O O11 0.806424 0.067756 0.108993
O O12 0.558947 0.461642 0.763467
O O13 0.909341 0.571206 0.908386
O O14 0.768299 0.445575 0.921179
O O15 0.349908 0.064969 0.918051
O O16 0.742751 0.676553 0.543571
#
# Coordination Sequence:
#
# PCOD9099269 Si02
#       8
#     2   2   2   2   2   2   2   2
#     4   9  19  35  55  81 110 141 182 226 266 313
#     4  11  22  35  53  81 116 145 172 218 276 327
#     4  10  20  37  60  81 104 141 187 227 262 311
#     4  10  20  37  60  81 104 141 187 227 262 311
#     4  10  20  37  60  81 104 141 187 227 262 311
#     4   9  19  35  55  81 110 141 182 226 266 313
#     4  10  20  37  60  81 104 141 187 227 262 311
#     4  11  22  35  53  81 116 145 172 218 276 327
#
# _framework density 26.060523
#
# number of rings (size 3 to 8) (size 9 to 14) (size 15 to 20)
#    0.000    2.000    0.000    3.750    0.000    5.000 
#    0.000    3.750    0.000    0.000    0.000    0.000 
#    0.000    0.000    0.000    0.000    0.000    0.000 
#
# Total GULP energy -89585.906562 kJ/mol
# GULP energy per Si atom -5599.119160 kJ/mol
# Density = 2.600121 g / cm^3
# Si number density = 26.060523 Si / 1000 Ang^3
#
#
#
# Elastic Constant Matrix: (Units=GPa)
#
#
# Indices 1 2 3 4 5 6 
#
# 1 72.2214 1.4076 -11.8620 -11.1099 -4.6034 9.0251
# 2 1.4076 112.3302 16.5816 2.4483 -1.5326 -10.8585
# 3 -11.8620 16.5816 111.3446 -1.6945 -14.7011 -0.3781
# 4 -11.1099 2.4483 -1.6945 42.6196 1.1653 -3.8382
# 5 -4.6034 -1.5326 -14.7011 1.1653 21.9654 -4.4599
# 6 9.0251 -10.8585 -0.3781 -3.8382 -4.4599 28.6315
#
#
#
# Elastic Compliance Matrix: (Units=1/GPa)
#
#
# Indices 1 2 3 4 5 6 
#
# 1 0.015582 -0.000974 0.002339 0.003734 0.003718 -0.004171
# 2 -0.000974 0.009523 -0.001479 -0.000519 0.000284 0.003874
# 3 0.002339 -0.001479 0.010434 0.000918 0.007343 0.000107
# 4 0.003734 -0.000519 0.000918 0.024672 0.000462 0.002018
# 5 0.003718 0.000284 0.007343 0.000462 0.052699 0.007304
# 6 -0.004171 0.003874 0.000107 0.002018 0.007304 0.039120
#
#
# Mechanical properties :
#
#
# Convention : Reuss Voigt Hill
#
# Bulk Modulus (GPa) = 28.32107 34.23895 31.28001
# Shear Modulus (GPa) = 30.48249 37.96124 34.22186
#
# Velocity S-wave (km/s) = 3.42377 3.82076 3.62770
# Velocity P-wave (km/s) = 5.14982 5.71236 5.43837
#
# Compressibility (1/GPa) = 0.03530940
#
# Stress axis : x y z
#
# Youngs Moduli (GPa) = 64.17704 105.01429 95.83627
#
# Poissons Ratio (x) = 0.10231 -0.22413
# Poissons Ratio (y) = 0.06253 0.14175
# Poissons Ratio (z) = -0.15009 0.15533
#
# Static dielectric constant tensor:
#      x y z
#    x 2.111140 0.053820 0.029740 
#    y 0.053820 2.017450 -0.027320 
#    z 0.029740 -0.027320 1.992140 
# 
# From -- ./inp_files/208844.got.cif
#   From: 2010.05.17/outbox.cif.g08.bks.cpg/sg2_105_cif.got.tgz:208844.got - 2010.06.03 11:33:40.
