data_PCOD9099286
_publ_section_title
;
Structure prediction by ZEFSAII (Michael W. Deem and Ramdas Pophale) SiO2 
 PCOD9099286
Probable space group: P -1
;
_chemical_formula_sum "Si O2"
_cell_formula_units_Z 16
_cell_length_a 9.128751
_cell_length_b 16.094774
_cell_length_c 7.665353
_cell_angle_alpha 98.905116
_cell_angle_beta 127.254977
_cell_angle_gamma 114.590226
_cell_volume 674.257929
_symmetry_space_group_name_H-M "P -1"
_symmetry_group_IT_number 2
_symmetry_cell_setting 'triclinic'
loop_
_space_group_symop_operation_xyz
x,y,z
-x,-y,-z
loop_
_atom_site_type_symbol
_atom_site_label
_atom_site_fract_x
_atom_site_fract_y
_atom_site_fract_z
Si Si1 0.742516 0.840457 0.737047
Si Si2 0.726575 0.165184 0.353945
Si Si3 0.443606 0.588595 0.311415
Si Si4 0.219011 0.654130 0.950282
Si Si5 0.703619 0.499300 0.436303
Si Si6 0.227345 0.931242 0.958237
Si Si7 0.497020 0.738977 0.866326
Si Si8 0.323567 0.836002 0.308501
O O1 0.617483 0.717396 0.534793
O O2 0.720409 0.822383 0.925307
O O3 0.577926 0.869341 0.561319
O O4 0.006601 0.918523 0.871603
O O5 0.856882 0.156105 0.287322
O O6 0.707144 0.260202 0.365146
O O7 0.796324 0.164236 0.601403
O O8 0.446866 0.053057 0.088265
O O9 0.584829 0.552423 0.319130
O O10 0.323424 0.520261 0.380043
O O11 0.255800 0.576006 0.042460
O O12 0.462900 0.750726 0.049307
O O13 0.988065 0.583367 0.637167
O O14 0.179708 0.715102 0.083682
O O15 0.569766 0.378661 0.225155
O O16 0.331276 0.906273 0.184370
#
# Coordination Sequence:
#
# PCOD9099286 Si02
#       8
#     2   2   2   2   2   2   2   2
#     4   9  21  40  62  88 124 159 198 254 301 359
#     4  10  23  40  64  95 119 156 212 250 299 375
#     4   9  20  35  57  88 115 152 209 244 291 367
#     4  11  20  37  62  84 125 163 195 246 306 351
#     4  10  20  37  60  82 120 163 197 250 300 349
#     4  11  21  43  67  86 124 163 197 256 313 352
#     4  10  21  39  57  91 125 156 206 251 294 362
#     4  10  21  40  63  91 124 157 203 251 298 368
#
# _framework density 23.729790000000001
#
# number of rings (size 3 to 8) (size 9 to 14) (size 15 to 20)
#    0.000    2.000    1.250    2.625    0.000    2.500 
#    4.500    2.500    0.000    0.000    0.000    0.000 
#    0.000    0.000    0.000    0.000    0.000    0.000 
#
# Total GULP energy -89345.687969 kJ/mol
# GULP energy per Si atom -5584.105498 kJ/mol
# Density = 2.367578 g / cm^3
# Si number density = 23.729790 Si / 1000 Ang^3
#
#
#
# Elastic Constant Matrix: (Units=GPa)
#
#
# Indices 1 2 3 4 5 6 
#
# 1 123.0110 24.0937 20.1778 -7.4626 -15.8854 3.9322
# 2 24.0937 77.7472 11.4204 -11.2526 10.1958 -13.0316
# 3 20.1778 11.4204 24.8291 1.4342 0.0895 -0.3723
# 4 -7.4626 -11.2526 1.4342 26.9761 0.8489 1.1376
# 5 -15.8854 10.1958 0.0895 0.8489 36.3045 -1.3604
# 6 3.9322 -13.0316 -0.3723 1.1376 -1.3604 47.3564
#
#
#
# Elastic Compliance Matrix: (Units=1/GPa)
#
#
# Indices 1 2 3 4 5 6 
#
# 1 0.010841 -0.002935 -0.007625 0.002078 0.005476 -0.001661
# 2 -0.002935 0.017150 -0.005796 0.006648 -0.006070 0.004583
# 3 -0.007625 -0.005796 0.049547 -0.007089 -0.001682 -0.000450
# 4 0.002078 0.006648 -0.007089 0.040830 -0.001874 0.000566
# 5 0.005476 -0.006070 -0.001682 -0.001874 0.031649 -0.001184
# 6 -0.001661 0.004583 -0.000450 0.000566 -0.001184 0.022464
#
#
# Mechanical properties :
#
#
# Convention : Reuss Voigt Hill
#
# Bulk Modulus (GPa) = 22.30902 37.44122 29.87512
# Shear Modulus (GPa) = 22.71332 33.45375 28.08354
#
# Velocity S-wave (km/s) = 3.09716 3.75878 3.44389
# Velocity P-wave (km/s) = 4.71292 5.88645 5.33207
#
# Compressibility (1/GPa) = 0.04482491
#
# Stress axis : x y z
#
# Youngs Moduli (GPa) = 92.23955 58.31009 20.18305
#
# Poissons Ratio (x) = 0.17117 0.15389
# Poissons Ratio (y) = 0.27076 0.11698
# Poissons Ratio (z) = 0.70331 0.33797
#
# Static dielectric constant tensor:
#      x y z
#    x 1.980520 0.027110 -0.023950 
#    y 0.027110 1.926040 0.035070 
#    z -0.023950 0.035070 1.903960 
# 
# From -- ./inp_files/217611.got.cif
#   From: 2010.05.17/outbox.cif.g08.bks.cpg/sg2_109_cif.got.tgz:217611.got - 2010.06.03 11:33:40.
