data_PCOD9099582
_publ_section_title
;
Structure prediction by ZEFSAII (Michael W. Deem and Ramdas Pophale) SiO2 
 PCOD9099582
Probable space group: P -1
;
_chemical_formula_sum "Si O2"
_cell_formula_units_Z 16
_cell_length_a 10.376197
_cell_length_b 9.063219
_cell_length_c 11.574770
_cell_angle_alpha 114.086882
_cell_angle_beta 124.003547
_cell_angle_gamma 50.473706
_cell_volume 693.711423
_symmetry_space_group_name_H-M "P -1"
_symmetry_group_IT_number 2
_symmetry_cell_setting 'triclinic'
loop_
_space_group_symop_operation_xyz
x,y,z
-x,-y,-z
loop_
_atom_site_type_symbol
_atom_site_label
_atom_site_fract_x
_atom_site_fract_y
_atom_site_fract_z
Si Si1 0.274709 0.067482 0.038881
Si Si2 0.871820 0.150751 0.204813
Si Si3 0.663759 0.209002 0.339502
Si Si4 0.710060 0.837756 0.189691
Si Si5 0.792953 0.233924 0.648530
Si Si6 0.437487 0.225746 0.544856
Si Si7 0.857113 0.526332 0.338337
Si Si8 0.755201 0.609242 0.738042
O O1 0.268820 0.139378 0.927833
O O2 0.178388 0.946700 0.951985
O O3 0.185410 0.254022 0.134054
O O4 0.492772 0.922377 0.127692
O O5 0.703972 0.242102 0.241846
O O6 0.899781 0.321941 0.253634
O O7 0.044339 0.976449 0.302176
O O8 0.752066 0.265130 0.501247
O O9 0.449306 0.308178 0.284763
O O10 0.748795 0.983215 0.321768
O O11 0.844511 0.635217 0.249786
O O12 0.608749 0.252560 0.615162
O O13 0.846452 0.389095 0.751791
O O14 0.337341 0.331170 0.647061
O O15 0.291834 0.336078 0.402689
O O16 0.500000 0.000000 0.500000
O O17 0.000000 0.500000 0.500000
#
# Coordination Sequence:
#
# PCOD9099582 Si02
#       8
#     2   2   2   2   2   2   2   2
#     4   9  20  39  60  87 116 160 202 236 285 346
#     4  11  22  35  57  87 121 153 199 245 282 347
#     4   9  17  35  58  85 112 150 201 248 289 337
#     4   9  19  37  63  86 118 153 196 246 286 347
#     4  11  21  35  56  86 119 156 196 245 297 343
#     4  11  22  38  61  89 122 153 189 249 312 353
#     4  12  24  40  63  92 118 151 196 249 305 348
#     4  10  20  37  61  85 117 157 200 240 295 359
#
# _framework density 23.064344999999999
#
# number of rings (size 3 to 8) (size 9 to 14) (size 15 to 20)
#    0.000    1.750    0.000    7.875    0.000    4.000 
#    0.000    1.250    0.000    4.500    0.000    0.000 
#    0.000    0.000    0.000    0.000    0.000    0.000 
#
# Total GULP energy -89411.317074 kJ/mol
# GULP energy per Si atom -5588.207317 kJ/mol
# Density = 2.301185 g / cm^3
# Si number density = 23.064345 Si / 1000 Ang^3
#
#
#
# Elastic Constant Matrix: (Units=GPa)
#
#
# Indices 1 2 3 4 5 6 
#
# 1 59.3970 21.8651 23.1405 5.8802 -0.4344 5.1906
# 2 21.8651 165.0826 40.6382 14.5832 4.4644 40.3641
# 3 23.1405 40.6382 84.4211 15.6390 19.4369 10.7637
# 4 5.8802 14.5832 15.6390 39.0229 9.8215 3.8013
# 5 -0.4344 4.4644 19.4369 9.8215 23.6825 8.9889
# 6 5.1906 40.3641 10.7637 3.8013 8.9889 30.6030
#
#
#
# Elastic Compliance Matrix: (Units=1/GPa)
#
#
# Indices 1 2 3 4 5 6 
#
# 1 0.019905 -0.000567 -0.006199 -0.001896 0.007233 -0.002337
# 2 -0.000567 0.010927 -0.004658 -0.002841 0.008564 -0.014841
# 3 -0.006199 -0.004658 0.019131 -0.001388 -0.016437 0.005466
# 4 -0.001896 -0.002841 -0.001388 0.030268 -0.012622 0.004505
# 5 0.007233 0.008564 -0.016437 -0.012622 0.069140 -0.025481
# 6 -0.002337 -0.014841 0.005466 0.004505 -0.025481 0.057649
#
#
# Mechanical properties :
#
#
# Convention : Reuss Voigt Hill
#
# Bulk Modulus (GPa) = 36.88015 53.35425 45.11720
# Shear Modulus (GPa) = 20.92864 33.54547 27.23705
#
# Velocity S-wave (km/s) = 3.01558 3.81784 3.44017
# Velocity P-wave (km/s) = 5.30564 6.52821 5.94842
#
# Compressibility (1/GPa) = 0.02711486
#
# Stress axis : x y z
#
# Youngs Moduli (GPa) = 50.23974 91.51301 52.27034
#
# Poissons Ratio (x) = 0.05189 0.32403
# Poissons Ratio (y) = 0.02849 0.24347
# Poissons Ratio (z) = 0.31145 0.42626
#
# Static dielectric constant tensor:
#      x y z
#    x 1.989250 -0.015560 0.011370 
#    y -0.015560 1.903730 0.046720 
#    z 0.011370 0.046720 1.839290 
# 
# From -- ./inp_files/257016.got.cif
#   From: 2010.05.17/outbox.cif.g08.bks.cpg/sg2_129_cif.got.tgz:257016.got - 2010.06.03 11:33:40.
