data_PCOD9099988
_publ_section_title
;
Structure prediction by ZEFSAII (Michael W. Deem and Ramdas Pophale) SiO2 
 PCOD9099988
Probable space group: P -1
;
_chemical_formula_sum "Si O2"
_cell_formula_units_Z 16
_cell_length_a 8.779880
_cell_length_b 14.878283
_cell_length_c 8.525876
_cell_angle_alpha 127.352698
_cell_angle_beta 49.205705
_cell_angle_gamma 131.190730
_cell_volume 603.297890
_symmetry_space_group_name_H-M "P -1"
_symmetry_group_IT_number 2
_symmetry_cell_setting 'triclinic'
loop_
_space_group_symop_operation_xyz
x,y,z
-x,-y,-z
loop_
_atom_site_type_symbol
_atom_site_label
_atom_site_fract_x
_atom_site_fract_y
_atom_site_fract_z
Si Si1 0.956704 0.856249 0.838284
Si Si2 0.437624 0.732263 0.114378
Si Si3 0.702130 0.007932 0.766937
Si Si4 0.890021 0.807106 0.474579
Si Si5 0.173921 0.486580 0.242672
Si Si6 0.854702 0.390436 0.099835
Si Si7 0.606147 0.161146 0.439800
Si Si8 0.460498 0.607330 0.431400
O O1 0.970063 0.813882 0.605155
O O2 0.157751 0.836196 0.761329
O O3 0.700297 0.770181 0.965997
O O4 0.000000 0.000000 0.000000
O O5 0.290880 0.604732 0.173050
O O6 0.320121 0.718995 0.010348
O O7 0.423266 0.832517 0.349279
O O8 0.922025 0.134098 0.722312
O O9 0.777422 0.903451 0.664289
O O10 0.594776 0.960927 0.620479
O O11 0.500000 0.000000 0.000000
O O12 0.711665 0.671482 0.393129
O O13 0.373253 0.500401 0.243331
O O14 0.000000 0.500000 0.500000
O O15 0.021421 0.379635 0.109240
O O16 0.697696 0.433682 0.355266
O O17 0.000000 0.500000 0.000000
O O18 0.574021 0.276322 0.501294
#
# Coordination Sequence:
#
# PCOD9099988 Si02
#       8
#     2   2   2   2   2   2   2   2
#     4  12  24  38  60  89 126 166 208 251 308 362
#     4  10  20  37  62  89 127 161 203 249 308 369
#     4  10  21  38  57  81 117 162 205 248 299 353
#     4  10  21  36  56  84 118 156 205 248 294 359
#     4   8  16  31  62  94 115 155 204 247 304 369
#     4   9  16  32  64  95 115 159 204 244 312 374
#     4  10  23  38  58  88 127 160 209 255 297 357
#     4   9  17  36  58  89 125 156 202 254 301 363
#
# _framework density 26.520893000000001
#
# number of rings (size 3 to 8) (size 9 to 14) (size 15 to 20)
#    0.000    2.250    1.250    1.500    0.000    7.000 
#    0.000    0.000    0.000   24.000    0.000    0.000 
#    0.000    0.000    0.000    0.000    0.000    0.000 
#
# Total GULP energy -89448.860542 kJ/mol
# GULP energy per Si atom -5590.553784 kJ/mol
# Density = 2.646053 g / cm^3
# Si number density = 26.520893 Si / 1000 Ang^3
#
#
#
# Elastic Constant Matrix: (Units=GPa)
#
#
# Indices 1 2 3 4 5 6 
#
# 1 54.3668 18.5651 -12.4590 21.6273 11.4041 5.3973
# 2 18.5651 93.5465 7.7840 -2.7691 18.0636 26.7375
# 3 -12.4590 7.7840 93.1213 2.0472 16.1053 -4.9140
# 4 21.6273 -2.7691 2.0472 47.6769 9.3818 13.5926
# 5 11.4041 18.0636 16.1053 9.3818 46.1410 16.0386
# 6 5.3973 26.7375 -4.9140 13.5926 16.0386 52.9298
#
#
#
# Elastic Compliance Matrix: (Units=1/GPa)
#
#
# Indices 1 2 3 4 5 6 
#
# 1 0.028661 -0.007495 0.006137 -0.014540 -0.005736 0.006905
# 2 -0.007495 0.015394 -0.002597 0.007194 -0.001751 -0.008570
# 3 0.006137 -0.002597 0.013133 -0.003652 -0.005957 0.004648
# 4 -0.014540 0.007194 -0.003652 0.031220 -0.000719 -0.010290
# 5 -0.005736 -0.001751 -0.005957 -0.000719 0.028635 -0.007576
# 6 0.006905 -0.008570 0.004648 -0.010290 -0.007576 0.027887
#
#
# Mechanical properties :
#
#
# Convention : Reuss Voigt Hill
#
# Bulk Modulus (GPa) = 20.29316 29.86831 25.08074
# Shear Modulus (GPa) = 29.53923 44.49253 37.01588
#
# Velocity S-wave (km/s) = 3.34100 4.10034 3.73999
# Velocity P-wave (km/s) = 4.74883 5.80549 5.30354
#
# Compressibility (1/GPa) = 0.04927768
#
# Stress axis : x y z
#
# Youngs Moduli (GPa) = 34.89029 64.96037 76.14530
#
# Poissons Ratio (x) = 0.48690 -0.46732
# Poissons Ratio (y) = 0.26151 0.19776
# Poissons Ratio (z) = -0.21413 0.16871
#
# Static dielectric constant tensor:
#      x y z
#    x 2.179350 0.049100 -0.035440 
#    y 0.049100 2.102510 0.026830 
#    z -0.035440 0.026830 2.053560 
# 
# From -- ./inp_files/223764.got.cif
#   From: 2010.05.17/outbox.cif.g08.bks.cpg/sg2_112_cif.got.tgz:223764.got - 2010.06.03 11:33:40.
