data_PCOD9099282
_publ_section_title
;
Structure prediction by ZEFSAII (Michael W. Deem and Ramdas Pophale) SiO2 
 PCOD9099282
Probable space group: P -1
;
_chemical_formula_sum "Si O2"
_cell_formula_units_Z 14
_cell_length_a 6.871217
_cell_length_b 12.456919
_cell_length_c 8.885290
_cell_angle_alpha 114.730815
_cell_angle_beta 53.532649
_cell_angle_gamma 91.063845
_cell_volume 527.238168
_symmetry_space_group_name_H-M "P -1"
_symmetry_group_IT_number 2
_symmetry_cell_setting 'triclinic'
loop_
_space_group_symop_operation_xyz
x,y,z
-x,-y,-z
loop_
_atom_site_type_symbol
_atom_site_label
_atom_site_fract_x
_atom_site_fract_y
_atom_site_fract_z
Si Si1 0.701561 0.643410 0.806116
Si Si2 0.498940 0.653088 0.618187
Si Si3 0.969992 0.690628 0.313141
Si Si4 0.764949 0.354996 0.552975
Si Si5 0.748610 0.978634 0.537770
Si Si6 0.814312 0.944113 0.147266
Si Si7 0.998343 0.348687 0.060698
O O1 0.486667 0.721301 0.831350
O O2 0.693374 0.505161 0.685272
O O3 0.950916 0.683050 0.671162
O O4 0.761116 0.631735 0.951355
O O5 0.800108 0.622802 0.440514
O O6 0.405237 0.694939 0.512563
O O7 0.285019 0.585994 0.704650
O O8 0.799654 0.831825 0.448896
O O9 0.027680 0.626214 0.089068
O O10 0.200387 0.690831 0.317335
O O11 0.752628 0.009573 0.377127
O O12 0.470034 0.043912 0.776068
O O13 0.000000 0.000000 0.500000
O O14 0.954380 0.799089 0.026884
O O15 0.000000 0.000000 0.000000
#
# Coordination Sequence:
#
# PCOD9099282 Si02
#       7
#     2   2   2   2   2   2   2
#     4   9  19  36  58  86 116 152 196 240 288 349
#     4  10  20  37  60  82 116 157 194 239 292 345
#     4  10  22  38  58  87 118 152 194 242 296 353
#     4   9  19  36  59  84 116 155 194 237 291 352
#     4  10  23  40  61  88 120 156 199 248 299 358
#     4  10  22  40  62  89 120 157 200 247 300 357
#     4  10  22  37  58  89 120 149 195 246 291 353
#
# _framework density 26.553467000000001
#
# number of rings (size 3 to 8) (size 9 to 14) (size 15 to 20)
#    0.000    2.286    0.000    1.286    0.000   12.571 
#    0.000    1.429    0.000    0.000    0.000    0.000 
#    0.000    0.000    0.000    0.000    0.000    0.000 
#
# Total GULP energy -77970.798877 kJ/mol
# GULP energy per Si atom -5569.342777 kJ/mol
# Density = 2.649303 g / cm^3
# Si number density = 26.553467 Si / 1000 Ang^3
#
#
#
# Elastic Constant Matrix: (Units=GPa)
#
#
# Indices 1 2 3 4 5 6 
#
# 1 255.8097 8.6746 53.3398 -16.3746 16.2014 -20.1140
# 2 8.6746 71.2557 18.1163 -4.8253 -7.4207 -5.3620
# 3 53.3398 18.1163 97.2364 -24.2611 -8.3877 -9.4837
# 4 -16.3746 -4.8253 -24.2611 22.7027 -4.9109 6.3087
# 5 16.2014 -7.4207 -8.3877 -4.9109 68.8385 -18.5514
# 6 -20.1140 -5.3620 -9.4837 6.3087 -18.5514 34.7855
#
#
#
# Elastic Compliance Matrix: (Units=1/GPa)
#
#
# Indices 1 2 3 4 5 6 
#
# 1 0.004602 0.000080 -0.002457 0.000093 -0.000971 0.001469
# 2 0.000080 0.015066 -0.002266 0.000522 0.002117 0.002785
# 3 -0.002457 -0.002266 0.016515 0.015700 0.004012 0.002025
# 4 0.000093 0.000522 0.015700 0.063331 0.005325 -0.004231
# 5 -0.000971 0.002117 0.004012 0.005325 0.018479 0.009748
# 6 0.001469 0.002785 0.002025 -0.004231 0.009748 0.036544
#
#
# Mechanical properties :
#
#
# Convention : Reuss Voigt Hill
#
# Bulk Modulus (GPa) = 37.17990 64.95148 51.06569
# Shear Modulus (GPa) = 28.93726 48.21009 38.57367
#
# Velocity S-wave (km/s) = 3.30475 4.26559 3.81554
# Velocity P-wave (km/s) = 5.34735 6.98385 6.21966
#
# Compressibility (1/GPa) = 0.02689625
#
# Stress axis : x y z
#
# Youngs Moduli (GPa) = 217.31610 66.37552 60.55149
#
# Poissons Ratio (x) = -0.00531 0.14875
# Poissons Ratio (y) = -0.01739 0.13723
# Poissons Ratio (z) = 0.53386 0.15043
#
# Static dielectric constant tensor:
#      x y z
#    x 2.155210 -0.164110 0.077970 
#    y -0.164110 2.276280 0.070170 
#    z 0.077970 0.070170 2.322960 
# 
# From -- ./inp_files/55766.got.cif
#   From: 2010.05.17/outbox.cif.g08.bks.cpg/sg2_28_cif.got.tgz:55766.got - 2010.06.03 11:33:40.
