data_PCOD9099821
_publ_section_title
;
Structure prediction by ZEFSAII (Michael W. Deem and Ramdas Pophale) SiO2 
 PCOD9099821
Probable space group: P -1
;
_chemical_formula_sum "Si O2"
_cell_formula_units_Z 16
_cell_length_a 7.924329
_cell_length_b 5.431419
_cell_length_c 25.587065
_cell_angle_alpha 133.548809
_cell_angle_beta 133.680858
_cell_angle_gamma 62.918579
_cell_volume 576.805505
_symmetry_space_group_name_H-M "P -1"
_symmetry_group_IT_number 2
_symmetry_cell_setting 'triclinic'
loop_
_space_group_symop_operation_xyz
x,y,z
-x,-y,-z
loop_
_atom_site_type_symbol
_atom_site_label
_atom_site_fract_x
_atom_site_fract_y
_atom_site_fract_z
Si Si1 0.266344 0.398890 0.724641
Si Si2 0.732950 0.472753 0.098553
Si Si3 0.412315 0.253511 0.087316
Si Si4 0.193719 0.303183 0.574259
Si Si5 0.998488 0.612139 0.075914
Si Si6 0.349192 0.123630 0.259156
Si Si7 0.865006 0.914843 0.577614
Si Si8 0.788658 0.172314 0.702706
O O1 0.364850 0.740299 0.824382
O O2 0.285941 0.384165 0.664489
O O3 0.433516 0.109567 0.741085
O O4 0.999171 0.285637 0.660953
O O5 0.520101 0.492137 0.097812
O O6 0.785144 0.601834 0.068746
O O7 0.956079 0.656474 0.202630
O O8 0.693657 0.073394 0.014144
O O9 0.208728 0.363714 0.100662
O O10 0.067489 0.644064 0.580753
O O11 0.287198 0.164099 0.517586
O O12 0.000000 0.000000 0.500000
O O13 0.124207 0.978040 0.158733
O O14 0.000000 0.500000 0.000000
O O15 0.361610 0.515207 0.304679
O O16 0.299371 0.023789 0.293489
O O17 0.769598 0.896199 0.612524
#
# Coordination Sequence:
#
# PCOD9099821 Si02
#       8
#     2   2   2   2   2   2   2   2
#     4  10  21  41  64  96 130 173 224 278 333 405
#     4  10  21  38  61  94 138 177 233 284 328 411
#     4  10  20  37  61  94 129 181 233 276 344 396
#     4   9  21  40  68  95 126 167 223 275 337 410
#     4  10  21  39  58  88 136 187 229 282 339 394
#     4  10  25  40  65  96 137 176 225 274 342 403
#     4  10  21  40  70  94 127 171 224 272 340 406
#     4  11  23  43  66  98 136 181 219 279 342 397
#
# _framework density 27.738985
#
# number of rings (size 3 to 8) (size 9 to 14) (size 15 to 20)
#    0.000    2.000    1.250    1.125    5.250    2.500 
#    2.250    2.500    0.000    0.000    0.000    0.000 
#    0.000    0.000    0.000    0.000    0.000    0.000 
#
# Total GULP energy -89152.808057 kJ/mol
# GULP energy per Si atom -5572.050504 kJ/mol
# Density = 2.767585 g / cm^3
# Si number density = 27.738985 Si / 1000 Ang^3
#
#
#
# Elastic Constant Matrix: (Units=GPa)
#
#
# Indices 1 2 3 4 5 6 
#
# 1 103.0167 22.2801 44.6002 -0.0103 -24.3541 21.7414
# 2 22.2801 64.3465 30.1856 -16.6489 -10.0027 6.2054
# 3 44.6002 30.1856 195.7192 -53.3243 -41.5273 31.1948
# 4 -0.0103 -16.6489 -53.3243 42.0917 3.1790 -3.1442
# 5 -24.3541 -10.0027 -41.5273 3.1790 53.5497 2.1136
# 6 21.7414 6.2054 31.1948 -3.1442 2.1136 36.3724
#
#
#
# Elastic Compliance Matrix: (Units=1/GPa)
#
#
# Indices 1 2 3 4 5 6 
#
# 1 0.013832 -0.003751 -0.001678 -0.004483 0.004826 -0.006857
# 2 -0.003751 0.019032 0.000762 0.008263 0.001992 -0.001060
# 3 -0.001678 0.000762 0.012921 0.015299 0.008862 -0.009401
# 4 -0.004483 0.008263 0.015299 0.045092 0.009027 -0.008478
# 5 0.004826 0.001992 0.008862 0.009027 0.028039 -0.011674
# 6 -0.006857 -0.001060 -0.009401 -0.008478 -0.011674 0.039782
#
#
# Mechanical properties :
#
#
# Convention : Reuss Voigt Hill
#
# Bulk Modulus (GPa) = 27.43320 61.91269 44.67295
# Shear Modulus (GPa) = 27.74983 44.13717 35.94350
#
# Velocity S-wave (km/s) = 3.16633 3.99326 3.60359
# Velocity P-wave (km/s) = 4.82480 6.60528 5.78396
#
# Compressibility (1/GPa) = 0.03645218
#
# Stress axis : x y z
#
# Youngs Moduli (GPa) = 72.29372 52.54381 77.39139
#
# Poissons Ratio (x) = 0.19708 0.12988
# Poissons Ratio (y) = 0.27115 -0.05900
# Poissons Ratio (z) = 0.12133 -0.04006
#
# Static dielectric constant tensor:
#      x y z
#    x 2.782730 -0.386320 0.501330 
#    y -0.386320 2.496990 -0.242750 
#    z 0.501330 -0.242750 2.561020 
# 
# From -- ./inp_files/605939.got.cif
#   From: 2010.05.17/outbox.cif.g08.bks.cpg/sg2_303_cif.got.tgz:605939.got - 2010.06.03 11:33:40.
