data_PCOD9099047
_publ_section_title
;
Structure prediction by ZEFSAII (Michael W. Deem and Ramdas Pophale) SiO2 
 PCOD9099047
Probable space group: P -1
;
_chemical_formula_sum "Si O2"
_cell_formula_units_Z 16
_cell_length_a 11.084959
_cell_length_b 8.550764
_cell_length_c 15.520323
_cell_angle_alpha 139.615164
_cell_angle_beta 67.789179
_cell_angle_gamma 133.580305
_cell_volume 655.689258
_symmetry_space_group_name_H-M "P -1"
_symmetry_group_IT_number 2
_symmetry_cell_setting 'triclinic'
loop_
_space_group_symop_operation_xyz
x,y,z
-x,-y,-z
loop_
_atom_site_type_symbol
_atom_site_label
_atom_site_fract_x
_atom_site_fract_y
_atom_site_fract_z
Si Si1 0.842174 0.654835 0.296006
Si Si2 0.645924 0.554055 0.786861
Si Si3 0.744370 0.406854 0.541000
Si Si4 0.070831 0.690442 0.969799
Si Si5 0.242857 0.210881 0.460016
Si Si6 0.589105 0.460138 0.035365
Si Si7 0.860122 0.053106 0.303107
Si Si8 0.301352 0.764841 0.209158
O O1 0.810080 0.365087 0.133399
O O2 0.722174 0.601399 0.383105
O O3 0.852834 0.876562 0.314949
O O4 0.037851 0.873836 0.375549
O O5 0.617427 0.365777 0.628891
O O6 0.506109 0.579813 0.867984
O O7 0.666209 0.381998 0.784400
O O8 0.820034 0.932333 0.887162
O O9 0.744798 0.596489 0.542954
O O10 0.737139 0.133967 0.385620
O O11 0.936555 0.625953 0.627345
O O12 0.901116 0.508748 0.879400
O O13 0.000000 0.500000 0.000000
O O14 0.343691 0.086885 0.363890
O O15 0.784355 0.805820 0.141193
O O16 0.500000 0.500000 0.000000
O O17 0.596256 0.198646 0.888580
#
# Coordination Sequence:
#
# PCOD9099047 Si02
#       8
#     2   2   2   2   2   2   2   2
#     4   9  18  33  56  85 116 149 185 241 299 346
#     4  11  22  37  58  85 115 158 202 240 298 356
#     4  10  21  36  63  92 115 150 199 252 300 348
#     4  11  21  36  60  88 119 150 197 254 296 346
#     4   9  18  34  56  87 119 145 188 248 301 344
#     4  10  23  39  58  84 121 162 201 244 290 355
#     4  10  20  38  61  86 117 153 198 244 296 353
#     4  10  20  37  59  82 117 157 198 246 292 350
#
# _framework density 24.401803000000001
#
# number of rings (size 3 to 8) (size 9 to 14) (size 15 to 20)
#    0.000    2.000    0.000    4.875    0.000    6.500 
#    0.000    5.625    0.000    4.500    0.000    0.000 
#    0.000    0.000    0.000    0.000    0.000    0.000 
#
# Total GULP energy -89462.877098 kJ/mol
# GULP energy per Si atom -5591.429819 kJ/mol
# Density = 2.434626 g / cm^3
# Si number density = 24.401803 Si / 1000 Ang^3
#
#
#
# Elastic Constant Matrix: (Units=GPa)
#
#
# Indices 1 2 3 4 5 6 
#
# 1 54.5641 21.4155 32.8306 2.8634 -33.1788 2.3449
# 2 21.4155 40.5462 45.3435 -11.1493 -18.3819 9.2288
# 3 32.8306 45.3435 179.0683 -20.1140 -53.2494 0.0126
# 4 2.8634 -11.1493 -20.1140 34.8906 14.6346 -4.0343
# 5 -33.1788 -18.3819 -53.2494 14.6346 64.1781 -1.9234
# 6 2.3449 9.2288 0.0126 -4.0343 -1.9234 26.7594
#
#
#
# Elastic Compliance Matrix: (Units=1/GPa)
#
#
# Indices 1 2 3 4 5 6 
#
# 1 0.035997 -0.016782 0.001460 -0.015036 0.018494 0.001695
# 2 -0.016782 0.047814 -0.009449 0.012151 -0.006000 -0.013614
# 3 0.001460 -0.009449 0.009521 0.000249 0.005999 0.003595
# 4 -0.015036 0.012151 0.000249 0.039651 -0.013063 0.002166
# 5 0.018494 -0.006000 0.005999 -0.013063 0.031403 0.000733
# 6 0.001695 -0.013614 0.003595 0.002166 0.000733 0.042294
#
#
# Mechanical properties :
#
#
# Convention : Reuss Voigt Hill
#
# Bulk Modulus (GPa) = 22.83555 52.59530 37.71543
# Shear Modulus (GPa) = 18.46254 36.80487 27.63370
#
# Velocity S-wave (km/s) = 2.75363 3.88788 3.36883
# Velocity P-wave (km/s) = 4.41457 6.46179 5.53368
#
# Compressibility (1/GPa) = 0.04379136
#
# Stress axis : x y z
#
# Youngs Moduli (GPa) = 27.78007 20.91440 105.02980
#
# Poissons Ratio (x) = 0.35098 -0.15337
# Poissons Ratio (y) = 0.46620 0.99242
# Poissons Ratio (z) = -0.04057 0.19762
#
# Static dielectric constant tensor:
#      x y z
#    x 1.963060 0.105160 -0.022560 
#    y 0.105160 1.957470 0.006590 
#    z -0.022560 0.006590 1.945930 
# 
# From -- ./inp_files/200240.got.cif
#   From: 2010.05.17/outbox.cif.g08.bks.cpg/sg2_101_cif.got.tgz:200240.got - 2010.06.03 11:33:40.
