data_PCOD9099237
_publ_section_title
;
Structure prediction by ZEFSAII (Michael W. Deem and Ramdas Pophale) SiO2 
 PCOD9099237
Probable space group: P -1
;
_chemical_formula_sum "Si O2"
_cell_formula_units_Z 13
_cell_length_a 9.469132
_cell_length_b 12.118707
_cell_length_c 7.149790
_cell_angle_alpha 128.080853
_cell_angle_beta 47.652844
_cell_angle_gamma 103.614921
_cell_volume 453.869529
_symmetry_space_group_name_H-M "P -1"
_symmetry_group_IT_number 2
_symmetry_cell_setting 'triclinic'
loop_
_space_group_symop_operation_xyz
x,y,z
-x,-y,-z
loop_
_atom_site_type_symbol
_atom_site_label
_atom_site_fract_x
_atom_site_fract_y
_atom_site_fract_z
Si Si1 0.296975 0.661831 0.518813
Si Si2 0.289150 0.317246 0.695922
Si Si3 0.071657 0.968313 0.116942
Si Si4 0.701618 0.227640 0.792151
Si Si5 0.508608 0.990239 0.256509
Si Si6 0.980572 0.394206 0.722739
Si Si7 0.000000 0.500000 0.500000
O O1 0.505214 0.643865 0.422579
O O2 0.130561 0.794393 0.910030
O O3 0.334257 0.722909 0.342555
O O4 0.221861 0.522431 0.418230
O O5 0.345393 0.144547 0.501774
O O6 0.156237 0.368165 0.682914
O O7 0.123173 0.437829 0.102892
O O8 0.278049 0.004463 0.997932
O O9 0.000000 0.000000 0.000000
O O10 0.892192 0.081857 0.501939
O O11 0.792525 0.350167 0.921036
O O12 0.529109 0.160014 0.934339
O O13 0.500000 0.000000 0.500000
O O14 0.046904 0.331686 0.394942
#
# Coordination Sequence:
#
# PCOD9099237 Si02
#       7
#     2   2   2   2   2   2   1
#     4   9  19  37  57  93 117 161 201 255 301 368
#     4  10  22  42  63  84 131 159 203 252 309 373
#     4   9  17  32  55  87 122 150 201 254 291 361
#     4  10  20  37  59  92 123 152 213 254 297 372
#     4  11  19  35  65  91 115 168 201 245 323 362
#     4  10  24  42  58  92 123 165 201 256 306 364
#     4  10  22  36  62  86 120 156 212 242 304 360
#
# _framework density 28.642590999999999
#
# number of rings (size 3 to 8) (size 9 to 14) (size 15 to 20)
#    0.000    2.154    4.615    0.000    2.154    4.923 
#    8.308    3.077    0.000    0.000    0.000    0.000 
#    0.000    0.000    0.000    0.000    0.000    0.000 
#
# Total GULP energy -72633.883590 kJ/mol
# GULP energy per Si atom -5587.221815 kJ/mol
# Density = 2.857740 g / cm^3
# Si number density = 28.642591 Si / 1000 Ang^3
#
#
#
# Elastic Constant Matrix: (Units=GPa)
#
#
# Indices 1 2 3 4 5 6 
#
# 1 204.3043 90.2191 23.8909 7.4917 -20.3317 15.7844
# 2 90.2191 159.0217 28.6791 11.7111 -12.7334 26.1068
# 3 23.8909 28.6791 104.5156 20.8311 -24.0815 1.3966
# 4 7.4917 11.7111 20.8311 40.9077 -8.9971 -9.4442
# 5 -20.3317 -12.7334 -24.0815 -8.9971 43.8880 -5.6434
# 6 15.7844 26.1068 1.3966 -9.4442 -5.6434 78.1547
#
#
#
# Elastic Compliance Matrix: (Units=1/GPa)
#
#
# Indices 1 2 3 4 5 6 
#
# 1 0.006711 -0.003655 -0.000127 0.000348 0.002058 0.000058
# 2 -0.003655 0.009131 -0.001367 -0.001955 -0.000524 -0.002562
# 3 -0.000127 -0.001367 0.012092 -0.004565 0.005255 0.000094
# 4 0.000348 -0.001955 -0.004565 0.029088 0.003623 0.004441
# 5 0.002058 -0.000524 0.005255 0.003623 0.027481 0.002088
# 6 0.000058 -0.002562 0.000094 0.004441 0.002088 0.014325
#
#
# Mechanical properties :
#
#
# Convention : Reuss Voigt Hill
#
# Bulk Modulus (GPa) = 56.70343 83.71332 70.20837
# Shear Modulus (GPa) = 43.47644 54.26026 48.86835
#
# Velocity S-wave (km/s) = 3.90024 4.35718 4.13503
# Velocity P-wave (km/s) = 6.33422 7.38943 6.88208
#
# Compressibility (1/GPa) = 0.01763562
#
# Stress axis : x y z
#
# Youngs Moduli (GPa) = 149.00877 109.51526 82.70166
#
# Poissons Ratio (x) = 0.40027 0.01052
# Poissons Ratio (y) = 0.54462 0.11305
# Poissons Ratio (z) = 0.01895 0.14970
#
# Static dielectric constant tensor:
#      x y z
#    x 2.264250 0.045990 0.073900 
#    y 0.045990 2.267460 -0.003220 
#    z 0.073900 -0.003220 2.355050 
# 
# From -- ./inp_files/189649.got.cif
#   From: 2010.05.17/outbox.cif.g08.bks.cpg/sg2_95_cif.got.tgz:189649.got - 2010.06.03 11:33:40.
