data_PCOD9099720
_publ_section_title
;
Structure prediction by ZEFSAII (Michael W. Deem and Ramdas Pophale) SiO2 
 PCOD9099720
Probable space group: P -1
;
_chemical_formula_sum "Si O2"
_cell_formula_units_Z 14
_cell_length_a 9.006425
_cell_length_b 11.230365
_cell_length_c 14.111624
_cell_angle_alpha 68.565711
_cell_angle_beta 45.983654
_cell_angle_gamma 107.988750
_cell_volume 517.405452
_symmetry_space_group_name_H-M "P -1"
_symmetry_group_IT_number 2
_symmetry_cell_setting 'triclinic'
loop_
_space_group_symop_operation_xyz
x,y,z
-x,-y,-z
loop_
_atom_site_type_symbol
_atom_site_label
_atom_site_fract_x
_atom_site_fract_y
_atom_site_fract_z
Si Si1 0.347086 0.458638 0.216510
Si Si2 0.233775 0.820382 0.954023
Si Si3 0.047753 0.020187 0.743667
Si Si4 0.423473 0.182743 0.723144
Si Si5 0.671342 0.579886 0.546823
Si Si6 0.434913 0.847639 0.644137
Si Si7 0.237378 0.552991 0.069169
O O1 0.249792 0.370577 0.390972
O O2 0.091158 0.404190 0.271440
O O3 0.473055 0.396821 0.122085
O O4 0.686908 0.740793 0.997398
O O5 0.354096 0.846960 0.785574
O O6 0.468523 0.073629 0.790915
O O7 0.349344 0.756839 0.982378
O O8 0.774756 0.610057 0.220509
O O9 0.345412 0.133526 0.660142
O O10 0.056798 0.178211 0.697605
O O11 0.219314 0.068206 0.552039
O O12 0.695217 0.443692 0.547260
O O13 0.000000 0.000000 0.000000
O O14 0.068935 0.590658 0.835882
O O15 0.500000 0.000000 0.500000
#
# Coordination Sequence:
#
# PCOD9099720 Si02
#       7
#     2   2   2   2   2   2   2
#     4  11  23  41  56  91 131 156 189 249 308 359
#     4  11  20  37  62  89 121 160 196 249 302 344
#     4  12  21  37  66  93 113 161 205 245 298 354
#     4  10  20  37  61  90 119 153 209 256 282 344
#     4  11  21  39  65  86 120 161 208 244 291 353
#     4  12  19  35  62  91 117 150 202 249 288 353
#     4  11  22  38  59  88 129 159 186 247 318 349
#
# _framework density 27.058081000000001
#
# number of rings (size 3 to 8) (size 9 to 14) (size 15 to 20)
#    0.000    0.857    8.571    1.714    0.000    0.000 
#    2.571    2.857    0.000    1.714    0.000    0.000 
#    0.000    0.000    0.000    0.000    0.000    0.000 
#
# Total GULP energy -78354.842799 kJ/mol
# GULP energy per Si atom -5596.774486 kJ/mol
# Density = 2.699650 g / cm^3
# Si number density = 27.058081 Si / 1000 Ang^3
#
#
#
# Elastic Constant Matrix: (Units=GPa)
#
#
# Indices 1 2 3 4 5 6 
#
# 1 104.1956 38.1556 42.0895 -20.0553 25.3323 -22.3880
# 2 38.1556 127.5859 31.1244 -29.2193 14.6263 -35.6230
# 3 42.0895 31.1244 62.4193 -15.5158 16.5355 -13.6132
# 4 -20.0553 -29.2193 -15.5158 37.8576 -4.0700 25.2924
# 5 25.3323 14.6263 16.5355 -4.0700 36.8074 -17.7920
# 6 -22.3880 -35.6230 -13.6132 25.2924 -17.7920 56.1073
#
#
#
# Elastic Compliance Matrix: (Units=1/GPa)
#
#
# Indices 1 2 3 4 5 6 
#
# 1 0.015109 -0.001304 -0.006991 0.003519 -0.006405 -0.000113
# 2 -0.001304 0.010900 -0.002750 0.003930 0.000178 0.004018
# 3 -0.006991 -0.002750 0.024388 0.005523 -0.005878 -0.002972
# 4 0.003519 0.003930 0.005523 0.044574 -0.010294 -0.018118
# 5 -0.006405 0.000178 -0.005878 -0.010294 0.039424 0.013273
# 6 -0.000113 0.004018 -0.002972 -0.018118 0.013273 0.031984
#
#
# Mechanical properties :
#
#
# Convention : Reuss Voigt Hill
#
# Bulk Modulus (GPa) = 35.32703 57.43773 46.38238
# Shear Modulus (GPa) = 25.26465 38.34322 31.80394
#
# Velocity S-wave (km/s) = 3.05900 3.76848 3.43212
# Velocity P-wave (km/s) = 5.05578 6.34105 5.73454
#
# Compressibility (1/GPa) = 0.02830694
#
# Stress axis : x y z
#
# Youngs Moduli (GPa) = 66.18445 91.74192 41.00459
#
# Poissons Ratio (x) = 0.11967 0.28666
# Poissons Ratio (y) = 0.08634 0.11275
# Poissons Ratio (z) = 0.46268 0.25226
#
# Static dielectric constant tensor:
#      x y z
#    x 2.180420 0.037430 -0.080910 
#    y 0.037430 2.290830 -0.055100 
#    z -0.080910 -0.055100 2.235620 
# 
# From -- ./inp_files/259510.got.cif
#   From: 2010.05.17/outbox.cif.g08.bks.cpg/sg2_130_cif.got.tgz:259510.got - 2010.06.03 11:33:40.
