data_PCOD9099319
_publ_section_title
;
Structure prediction by ZEFSAII (Michael W. Deem and Ramdas Pophale) SiO2 
 PCOD9099319
Probable space group: P -1
;
_chemical_formula_sum "Si O2"
_cell_formula_units_Z 16
_cell_length_a 11.939824
_cell_length_b 16.214467
_cell_length_c 16.584119
_cell_angle_alpha 24.290103
_cell_angle_beta 34.757086
_cell_angle_gamma 40.820113
_cell_volume 752.512684
_symmetry_space_group_name_H-M "P -1"
_symmetry_group_IT_number 2
_symmetry_cell_setting 'triclinic'
loop_
_space_group_symop_operation_xyz
x,y,z
-x,-y,-z
loop_
_atom_site_type_symbol
_atom_site_label
_atom_site_fract_x
_atom_site_fract_y
_atom_site_fract_z
Si Si1 0.417469 0.776260 0.428162
Si Si2 0.549618 0.234447 0.757440
Si Si3 0.709421 0.959262 0.366994
Si Si4 0.704167 0.390848 0.005816
Si Si5 0.490673 0.370391 0.315497
Si Si6 0.414340 0.264109 0.984787
Si Si7 0.024909 0.216806 0.328727
Si Si8 0.981177 0.746694 0.521131
O O1 0.518170 0.704097 0.348045
O O2 0.471223 0.715104 0.541354
O O3 0.196165 0.701483 0.613518
O O4 0.430651 0.021959 0.199770
O O5 0.784162 0.252796 0.614432
O O6 0.455022 0.320380 0.818395
O O7 0.500000 0.000000 0.000000
O O8 0.500000 0.000000 0.500000
O O9 0.673912 0.771791 0.496962
O O10 0.884091 0.893308 0.382205
O O11 0.743689 0.184659 0.117875
O O12 0.885145 0.532139 0.758388
O O13 0.500000 0.500000 0.000000
O O14 0.662808 0.356391 0.157228
O O15 0.456145 0.607125 0.144922
O O16 0.190180 0.325211 0.085454
O O17 0.096015 0.187450 0.403940
O O18 0.000000 0.000000 0.500000
#
# Coordination Sequence:
#
# PCOD9099319 Si02
#       8
#     2   2   2   2   2   2   2   2
#     4   9  21  37  58  89 126 154 207 256 305 363
#     4   9  21  44  62  88 125 176 199 246 308 360
#     4  10  23  36  61  94 125 153 198 257 318 356
#     4  11  22  37  61  96 125 155 199 259 312 362
#     4  11  22  34  62  93 120 158 202 253 313 355
#     4  10  20  37  60  84 122 165 202 249 301 359
#     4   9  19  32  58  88 117 154 195 258 299 350
#     4  11  20  41  63  90 126 160 205 246 308 370
#
# _framework density 21.262101000000001
#
# number of rings (size 3 to 8) (size 9 to 14) (size 15 to 20)
#    0.000    2.000    3.750    0.750    8.750    1.000 
#    0.000    3.125    0.000    3.750    0.000    0.000 
#    0.000    0.000    0.000    0.000    0.000    0.000 
#
# Total GULP energy -89098.323794 kJ/mol
# GULP energy per Si atom -5568.645237 kJ/mol
# Density = 2.121371 g / cm^3
# Si number density = 21.262101 Si / 1000 Ang^3
#
#
#
# Elastic Constant Matrix: (Units=GPa)
#
#
# Indices 1 2 3 4 5 6 
#
# 1 116.2745 34.8198 48.4330 1.9905 0.6377 12.8940
# 2 34.8198 76.9838 34.9437 -3.6779 -5.1239 25.6405
# 3 48.4330 34.9437 118.3988 -7.8368 -9.9895 4.7544
# 4 1.9905 -3.6779 -7.8368 41.0158 15.4694 -1.3933
# 5 0.6377 -5.1239 -9.9895 15.4694 43.5460 -3.8694
# 6 12.8940 25.6405 4.7544 -1.3933 -3.8694 27.7934
#
#
#
# Elastic Compliance Matrix: (Units=1/GPa)
#
#
# Indices 1 2 3 4 5 6 
#
# 1 0.011326 -0.002711 -0.003917 -0.001178 -0.001170 -0.002305
# 2 -0.002711 0.022697 -0.004811 0.000731 -0.000330 -0.018867
# 3 -0.003917 -0.004811 0.011546 0.001339 0.002076 0.004637
# 4 -0.001178 0.000731 0.001339 0.028411 -0.009708 -0.000284
# 5 -0.001170 -0.000330 0.002076 -0.009708 0.027204 0.003792
# 6 -0.002305 -0.018867 0.004637 -0.000284 0.003792 0.054176
#
#
# Mechanical properties :
#
#
# Convention : Reuss Voigt Hill
#
# Bulk Modulus (GPa) = 44.07295 60.89445 52.48370
# Shear Modulus (GPa) = 26.91029 35.36841 31.13935
#
# Velocity S-wave (km/s) = 3.56145 4.08296 3.83109
# Velocity P-wave (km/s) = 6.13884 7.13649 6.65638
#
# Compressibility (1/GPa) = 0.02268965
#
# Stress axis : x y z
#
# Youngs Moduli (GPa) = 88.29197 44.05878 86.61007
#
# Poissons Ratio (x) = 0.11945 0.33926
# Poissons Ratio (y) = 0.23938 0.41672
# Poissons Ratio (z) = 0.34584 0.21199
#
# Static dielectric constant tensor:
#      x y z
#    x 1.726470 0.097920 -0.174700 
#    y 0.097920 1.687420 0.272860 
#    z -0.174700 0.272860 1.232370 
# 
# From -- ./inp_files/521298.got.cif
#   From: 2010.05.17/outbox.cif.g08.bks.cpg/sg2_261_cif.got.tgz:521298.got - 2010.06.03 11:33:40.
