data_PCOD9099553
_publ_section_title
;
Structure prediction by ZEFSAII (Michael W. Deem and Ramdas Pophale) SiO2 
 PCOD9099553
Probable space group: P -1
;
_chemical_formula_sum "Si O2"
_cell_formula_units_Z 16
_cell_length_a 10.040429
_cell_length_b 19.826582
_cell_length_c 16.144092
_cell_angle_alpha 160.389222
_cell_angle_beta 145.414085
_cell_angle_gamma 37.878351
_cell_volume 610.668487
_symmetry_space_group_name_H-M "P -1"
_symmetry_group_IT_number 2
_symmetry_cell_setting 'triclinic'
loop_
_space_group_symop_operation_xyz
x,y,z
-x,-y,-z
loop_
_atom_site_type_symbol
_atom_site_label
_atom_site_fract_x
_atom_site_fract_y
_atom_site_fract_z
Si Si1 0.921540 0.435788 0.567300
Si Si2 0.809561 0.215918 0.715201
Si Si3 0.149086 0.217708 0.286929
Si Si4 0.660291 0.264311 0.866486
Si Si5 0.289534 0.191638 0.037501
Si Si6 0.037392 0.967472 0.779620
Si Si7 0.553978 0.527315 0.848544
Si Si8 0.481581 0.117786 0.882834
O O1 0.944703 0.323642 0.361354
O O2 0.143073 0.572295 0.836953
O O3 0.954186 0.260100 0.448654
O O4 0.708913 0.600223 0.669907
O O5 0.613291 0.265360 0.745517
O O6 0.777757 0.378605 0.814450
O O7 0.055743 0.218529 0.890639
O O8 0.738115 0.007105 0.400527
O O9 0.343273 0.378574 0.558158
O O10 0.290841 0.033858 0.195614
O O11 0.065129 0.124596 0.051095
O O12 0.789711 0.047480 0.704382
O O13 0.483432 0.331692 0.926142
O O14 0.234921 0.013242 0.865710
O O15 0.488506 0.146433 0.019026
O O16 0.555052 0.672888 0.940124
#
# Coordination Sequence:
#
# PCOD9099553 Si02
#       8
#     2   2   2   2   2   2   2   2
#     4   9  19  36  59  84 110 145 186 229 279 329
#     4   9  20  37  57  81 111 145 191 234 273 334
#     4  10  22  38  58  87 114 143 191 233 274 335
#     4   9  20  35  56  90 115 139 188 235 277 334
#     4  10  24  39  56  86 114 145 193 231 272 339
#     4  10  20  37  61  82 113 151 183 233 282 323
#     4  10  21  36  57  83 118 150 179 234 285 322
#     4  11  23  38  57  83 115 153 188 224 279 337
#
# _framework density 26.200793999999998
#
# number of rings (size 3 to 8) (size 9 to 14) (size 15 to 20)
#    0.000    2.500    0.000    1.875    0.000   15.000 
#    0.000    1.250    0.000    0.000    0.000    0.000 
#    0.000    0.000    0.000    0.000    0.000    0.000 
#
# Total GULP energy -89604.169314 kJ/mol
# GULP energy per Si atom -5600.260582 kJ/mol
# Density = 2.614116 g / cm^3
# Si number density = 26.200794 Si / 1000 Ang^3
#
#
#
# Elastic Constant Matrix: (Units=GPa)
#
#
# Indices 1 2 3 4 5 6 
#
# 1 79.6470 14.7628 22.0937 1.9872 -13.4081 21.1432
# 2 14.7628 106.4871 19.1863 15.1348 27.0466 20.4517
# 3 22.0937 19.1863 122.4941 8.5387 8.3320 13.8594
# 4 1.9872 15.1348 8.5387 42.3983 18.3733 11.0654
# 5 -13.4081 27.0466 8.3320 18.3733 32.4356 0.3728
# 6 21.1432 20.4517 13.8594 11.0654 0.3728 44.2616
#
#
#
# Elastic Compliance Matrix: (Units=1/GPa)
#
#
# Indices 1 2 3 4 5 6 
#
# 1 0.017651 -0.003847 -0.002666 -0.003255 0.013092 -0.005116
# 2 -0.003847 0.014433 -0.000128 0.003096 -0.015284 -0.005437
# 3 -0.002666 -0.000128 0.009055 0.000237 -0.003438 -0.001533
# 4 -0.003255 0.003096 0.000237 0.035118 -0.023783 -0.008529
# 5 0.013092 -0.015284 -0.003438 -0.023783 0.063258 0.007298
# 6 -0.005116 -0.005437 -0.001533 -0.008529 0.007298 0.030100
#
#
# Mechanical properties :
#
#
# Convention : Reuss Voigt Hill
#
# Bulk Modulus (GPa) = 35.89548 46.74598 41.32073
# Shear Modulus (GPa) = 26.01701 40.65813 33.33757
#
# Velocity S-wave (km/s) = 3.15459 3.94355 3.57092
# Velocity P-wave (km/s) = 5.19600 6.21415 5.72774
#
# Compressibility (1/GPa) = 0.02785866
#
# Stress axis : x y z
#
# Youngs Moduli (GPa) = 56.65361 69.28486 110.43212
#
# Poissons Ratio (x) = 0.26651 0.29440
# Poissons Ratio (y) = 0.21793 0.01413
# Poissons Ratio (z) = 0.15103 0.00887
#
# Static dielectric constant tensor:
#      x y z
#    x 2.161760 -0.054070 -0.027350 
#    y -0.054070 2.048330 0.002730 
#    z -0.027350 0.002730 2.042190 
# 
# From -- ./inp_files/523523.got.cif
#   From: 2010.05.17/outbox.cif.g08.bks.cpg/sg2_262_cif.got.tgz:523523.got - 2010.06.03 11:33:40.
