data_PCOD9099829
_publ_section_title
;
Structure prediction by ZEFSAII (Michael W. Deem and Ramdas Pophale) SiO2 
 PCOD9099829
Probable space group: P -1
;
_chemical_formula_sum "Si O2"
_cell_formula_units_Z 14
_cell_length_a 17.462906
_cell_length_b 17.032542
_cell_length_c 11.212044
_cell_angle_alpha 147.845359
_cell_angle_beta 147.315915
_cell_angle_gamma 18.832921
_cell_volume 556.894699
_symmetry_space_group_name_H-M "P -1"
_symmetry_group_IT_number 2
_symmetry_cell_setting 'triclinic'
loop_
_space_group_symop_operation_xyz
x,y,z
-x,-y,-z
loop_
_atom_site_type_symbol
_atom_site_label
_atom_site_fract_x
_atom_site_fract_y
_atom_site_fract_z
Si Si1 0.484883 0.410183 0.566060
Si Si2 0.298155 0.235830 0.750390
Si Si3 0.170009 0.840210 0.882154
Si Si4 0.700317 0.079209 0.209171
Si Si5 0.307862 0.911950 0.339895
Si Si6 0.078627 0.734445 0.061318
Si Si7 0.788827 0.785631 0.135169
O O1 0.253235 0.679453 0.669088
O O2 0.493053 0.341538 0.353124
O O3 0.564494 0.228743 0.544246
O O4 0.669304 0.390670 0.772079
O O5 0.180274 0.257978 0.740543
O O6 0.353172 0.034680 0.499284
O O7 0.545049 0.101567 0.949726
O O8 0.132557 0.513185 0.848199
O O9 0.378680 0.728410 0.098444
O O10 0.972278 0.901881 0.764639
O O11 0.053404 0.090233 0.001752
O O12 0.833956 0.893486 0.258592
O O13 0.922245 0.927797 0.217424
O O14 0.000000 0.500000 0.000000
O O15 0.500000 0.000000 0.000000
#
# Coordination Sequence:
#
# PCOD9099829 Si02
#       7
#     2   2   2   2   2   2   2
#     4  11  23  42  67  92 130 173 215 270 328 405
#     4  11  23  39  65  97 131 166 218 278 341 400
#     4  10  24  45  66  92 126 171 225 270 330 400
#     4  11  23  39  64 100 132 170 217 268 343 404
#     4  10  23  44  69  93 121 170 224 277 329 390
#     4  11  24  41  61  94 136 170 212 268 334 413
#     4  10  20  37  61  95 138 173 219 279 341 415
#
# _framework density 25.139402
#
# number of rings (size 3 to 8) (size 9 to 14) (size 15 to 20)
#    0.000    1.429    2.857    1.714    0.000    8.571 
#    0.000    2.857    0.000    0.000    0.000    0.000 
#    0.000    0.000    0.000    0.000    0.000    0.000 
#
# Total GULP energy -77961.088678 kJ/mol
# GULP energy per Si atom -5568.649191 kJ/mol
# Density = 2.508218 g / cm^3
# Si number density = 25.139402 Si / 1000 Ang^3
#
#
#
# Elastic Constant Matrix: (Units=GPa)
#
#
# Indices 1 2 3 4 5 6 
#
# 1 103.8848 36.0897 13.7848 8.4989 20.1786 20.6596
# 2 36.0897 78.6909 51.8979 27.9480 2.1141 7.5084
# 3 13.7848 51.8979 134.8820 6.4498 15.1690 20.2142
# 4 8.4989 27.9480 6.4498 23.5521 19.2861 20.3848
# 5 20.1786 2.1141 15.1690 19.2861 20.8451 5.4324
# 6 20.6596 7.5084 20.2142 20.3848 5.4324 29.0273
#
#
#
# Elastic Compliance Matrix: (Units=1/GPa)
#
#
# Indices 1 2 3 4 5 6 
#
# 1 0.007981 0.002826 -0.002651 -0.015140 0.006669 0.004819
# 2 0.002826 0.005621 0.000883 0.020008 -0.018644 -0.014642
# 3 -0.002651 0.000883 0.006320 -0.012662 0.008400 0.004578
# 4 -0.015140 0.020008 -0.012662 -0.022270 0.036387 0.023247
# 5 0.006669 -0.018644 0.008400 0.036387 0.012399 -0.033647
# 6 0.004819 -0.014642 0.004578 0.023247 -0.033647 0.021591
#
#
# Mechanical properties :
#
#
# Convention : Reuss Voigt Hill
#
# Bulk Modulus (GPa) = 45.37702 57.88918 51.63310
# Shear Modulus (GPa) = 135.60130 29.06391 82.33261
#
# Velocity S-wave (km/s) = 7.35234 3.40385 5.72901
# Velocity P-wave (km/s) = 9.49553 6.20689 8.02155
#
# Compressibility (1/GPa) = 0.02203759
#
# Stress axis : x y z
#
# Youngs Moduli (GPa) = 125.30003 177.89044 158.22840
#
# Poissons Ratio (x) = -0.50281 0.41953
# Poissons Ratio (y) = -0.35416 -0.13965
# Poissons Ratio (z) = 0.33222 -0.15700
#
# Static dielectric constant tensor:
#      x y z
#    x 1.991930 0.032460 -0.035120 
#    y 0.032460 2.109350 0.152050 
#    z -0.035120 0.152050 2.275330 
# 
# From -- ./inp_files/466665.got.cif
#   From: 2010.05.17/outbox.cif.g08.bks.cpg/sg2_234_cif.got.tgz:466665.got - 2010.06.03 11:33:40.
