data_PCOD9099759
_publ_section_title
;
Structure prediction by ZEFSAII (Michael W. Deem and Ramdas Pophale) SiO2 
 PCOD9099759
Probable space group: P -1
;
_chemical_formula_sum "Si O2"
_cell_formula_units_Z 15
_cell_length_a 11.652202
_cell_length_b 8.075762
_cell_length_c 11.917116
_cell_angle_alpha 112.295447
_cell_angle_beta 42.687411
_cell_angle_gamma 89.252123
_cell_volume 622.657858
_symmetry_space_group_name_H-M "P -1"
_symmetry_group_IT_number 2
_symmetry_cell_setting 'triclinic'
loop_
_space_group_symop_operation_xyz
x,y,z
-x,-y,-z
loop_
_atom_site_type_symbol
_atom_site_label
_atom_site_fract_x
_atom_site_fract_y
_atom_site_fract_z
Si Si1 0.281740 0.549440 0.148205
Si Si2 0.768831 0.496270 0.372564
Si Si3 0.340236 0.179811 0.270222
Si Si4 0.455736 0.383907 0.647262
Si Si5 0.893244 0.916634 0.974823
Si Si6 0.450402 0.143090 0.792361
Si Si7 0.000000 0.500000 0.500000
Si Si8 0.728233 0.196123 0.970045
O O1 0.155145 0.564733 0.349523
O O2 0.500000 0.500000 0.000000
O O3 0.311058 0.353407 0.006418
O O4 0.197171 0.745684 0.180048
O O5 0.749455 0.631814 0.528718
O O6 0.639588 0.384839 0.459827
O O7 0.685591 0.616934 0.348532
O O8 0.982408 0.322973 0.167584
O O9 0.540232 0.163780 0.077333
O O10 0.173749 0.260603 0.320399
O O11 0.391821 0.988913 0.263682
O O12 0.514662 0.206900 0.649331
O O13 0.349296 0.600801 0.843775
O O14 0.674556 0.972241 0.174144
O O15 0.879211 0.013900 0.888314
O O16 0.000000 0.000000 0.000000
#
# Coordination Sequence:
#
# PCOD9099759 Si02
#       8
#     2   2   2   2   2   2   1   2
#     4  11  23  46  71  96 128 176 220 286 332 389
#     4  10  20  37  61  91 127 171 215 262 317 389
#     4  10  22  41  62  91 132 170 219 278 324 392
#     4   9  19  37  62  87 125 170 210 260 321 391
#     4  11  21  39  63  97 133 174 211 266 323 401
#     4  10  24  42  64  95 130 172 216 268 341 390
#     4  12  24  42  70  96 124 168 230 272 340 386
#     4   9  19  41  64  88 134 172 210 268 342 381
#
# _framework density 24.090278000000001
#
# number of rings (size 3 to 8) (size 9 to 14) (size 15 to 20)
#    0.000    1.867    2.667    0.800    1.867    2.667 
#    4.800    0.667    0.000    0.000    0.000    0.000 
#    0.000    0.000    0.000    0.000    0.000    0.000 
#
# Total GULP energy -83659.814478 kJ/mol
# GULP energy per Si atom -5577.320965 kJ/mol
# Density = 2.403545 g / cm^3
# Si number density = 24.090278 Si / 1000 Ang^3
#
#
#
# Elastic Constant Matrix: (Units=GPa)
#
#
# Indices 1 2 3 4 5 6 
#
# 1 70.9308 24.6731 29.5607 -8.3723 -5.6870 3.3469
# 2 24.6731 118.4051 19.2867 -15.8853 1.2548 -35.8103
# 3 29.5607 19.2867 65.8658 -8.9639 -11.1337 -7.8336
# 4 -8.3723 -15.8853 -8.9639 42.4343 -4.0970 2.6727
# 5 -5.6870 1.2548 -11.1337 -4.0970 24.5106 2.4275
# 6 3.3469 -35.8103 -7.8336 2.6727 2.4275 43.0856
#
#
#
# Elastic Compliance Matrix: (Units=1/GPa)
#
#
# Indices 1 2 3 4 5 6 
#
# 1 0.019664 -0.004891 -0.007730 0.001080 0.002194 -0.007188
# 2 -0.004891 0.013415 -0.000414 0.002996 -0.002639 0.011417
# 3 -0.007730 -0.000414 0.020976 0.003305 0.007970 0.003416
# 4 0.001080 0.002996 0.003305 0.026097 0.005856 0.001058
# 5 0.002194 -0.002639 0.007970 0.005856 0.046428 -0.003894
# 6 -0.007188 0.011417 0.003416 0.001058 -0.003894 0.034032
#
#
# Mechanical properties :
#
#
# Convention : Reuss Voigt Hill
#
# Bulk Modulus (GPa) = 35.73243 44.69363 40.21303
# Shear Modulus (GPa) = 25.50892 34.11819 29.81356
#
# Velocity S-wave (km/s) = 3.25759 3.76741 3.52174
# Velocity P-wave (km/s) = 5.38647 6.12514 5.76764
#
# Compressibility (1/GPa) = 0.02798578
#
# Stress axis : x y z
#
# Youngs Moduli (GPa) = 50.85536 74.54328 47.67319
#
# Poissons Ratio (x) = 0.36457 0.36851
# Poissons Ratio (y) = 0.24872 0.01973
# Poissons Ratio (z) = 0.39311 0.03085
#
# Static dielectric constant tensor:
#      x y z
#    x 1.990300 0.002900 -0.006420 
#    y 0.002900 1.964550 0.036200 
#    z -0.006420 0.036200 1.880040 
# 
# From -- ./inp_files/326700.got.cif
#   From: 2010.05.17/outbox.cif.g08.bks.cpg/sg2_164_cif.got.tgz:326700.got - 2010.06.03 11:33:40.
