data_PCOD9099424
_publ_section_title
;
Structure prediction by ZEFSAII (Michael W. Deem and Ramdas Pophale) SiO2 
 PCOD9099424
Probable space group: P -1
;
_chemical_formula_sum "Si O2"
_cell_formula_units_Z 14
_cell_length_a 19.018477
_cell_length_b 7.885451
_cell_length_c 9.362823
_cell_angle_alpha 93.575822
_cell_angle_beta 142.764758
_cell_angle_gamma 60.314905
_cell_volume 572.380697
_symmetry_space_group_name_H-M "P -1"
_symmetry_group_IT_number 2
_symmetry_cell_setting 'triclinic'
loop_
_space_group_symop_operation_xyz
x,y,z
-x,-y,-z
loop_
_atom_site_type_symbol
_atom_site_label
_atom_site_fract_x
_atom_site_fract_y
_atom_site_fract_z
Si Si1 0.372814 0.528345 0.602743
Si Si2 0.651857 0.940781 0.316866
Si Si3 0.080459 0.658109 0.717521
Si Si4 0.735349 0.194202 0.285583
Si Si5 0.290038 0.919503 0.303499
Si Si6 0.573763 0.733558 0.573546
Si Si7 0.041590 0.564845 0.346927
O O1 0.281521 0.640706 0.613974
O O2 0.271437 0.762260 0.345235
O O3 0.387125 0.335989 0.533781
O O4 0.567730 0.391653 0.925262
O O5 0.818447 0.644978 0.550819
O O6 0.688346 0.070899 0.288715
O O7 0.634319 0.032002 0.452483
O O8 0.500000 0.000000 0.000000
O O9 0.024612 0.537182 0.689518
O O10 0.107563 0.604869 0.589445
O O11 0.260010 0.495591 0.077666
O O12 0.921869 0.957947 0.507424
O O13 0.421153 0.774244 0.377023
O O14 0.112729 0.178405 0.969366
O O15 0.500000 0.000000 0.500000
#
# Coordination Sequence:
#
# PCOD9099424 Si02
#       7
#     2   2   2   2   2   2   2
#     4  10  23  42  62  87 126 166 202 247 313 369
#     4  10  21  35  62  94 123 157 211 258 297 357
#     4  10  21  37  62  92 117 162 207 252 304 357
#     4   9  21  42  64  86 125 171 198 245 314 368
#     4  11  22  40  59  90 126 166 202 248 314 360
#     4  12  24  38  64  95 121 156 210 260 299 361
#     4  10  20  37  60  88 126 159 202 254 305 365
#
# _framework density 24.459247000000001
#
# number of rings (size 3 to 8) (size 9 to 14) (size 15 to 20)
#    0.000    1.714    1.429    2.571    6.000    0.571 
#    0.000    7.143    0.000    0.000    0.000    0.000 
#    0.000    0.000    0.000    0.000    0.000    0.000 
#
# Total GULP energy -78384.935162 kJ/mol
# GULP energy per Si atom -5598.923940 kJ/mol
# Density = 2.440358 g / cm^3
# Si number density = 24.459247 Si / 1000 Ang^3
#
#
#
# Elastic Constant Matrix: (Units=GPa)
#
#
# Indices 1 2 3 4 5 6 
#
# 1 59.1165 21.1414 -3.7578 -3.1554 -10.4154 -10.7098
# 2 21.1414 161.6062 40.3937 -1.1281 -12.7190 -19.5223
# 3 -3.7578 40.3937 125.1723 -22.1793 -10.9654 -13.8836
# 4 -3.1554 -1.1281 -22.1793 47.9546 -8.5885 -1.1745
# 5 -10.4154 -12.7190 -10.9654 -8.5885 29.7250 -1.5090
# 6 -10.7098 -19.5223 -13.8836 -1.1745 -1.5090 37.9119
#
#
#
# Elastic Compliance Matrix: (Units=1/GPa)
#
#
# Indices 1 2 3 4 5 6 
#
# 1 0.021117 -0.002090 0.003801 0.005002 0.009699 0.006822
# 2 -0.002090 0.007421 -0.002149 -0.000609 0.001600 0.002489
# 3 0.003801 -0.002149 0.011044 0.006603 0.006621 0.004479
# 4 0.005002 -0.000609 0.006603 0.026456 0.011816 0.004807
# 5 0.009699 0.001600 0.006621 0.011816 0.043993 0.008106
# 6 0.006822 0.002489 0.004479 0.004807 0.008106 0.031697
#
#
# Mechanical properties :
#
#
# Convention : Reuss Voigt Hill
#
# Bulk Modulus (GPa) = 25.83707 51.27216 38.55462
# Shear Modulus (GPa) = 32.15336 42.32616 37.23976
#
# Velocity S-wave (km/s) = 3.62963 4.16441 3.90618
# Velocity P-wave (km/s) = 5.30583 6.64311 6.01177
#
# Compressibility (1/GPa) = 0.03870408
#
# Stress axis : x y z
#
# Youngs Moduli (GPa) = 47.35629 134.75532 90.55096
#
# Poissons Ratio (x) = 0.28167 -0.34419
# Poissons Ratio (y) = 0.09899 0.19462
# Poissons Ratio (z) = -0.18001 0.28963
#
# Static dielectric constant tensor:
#      x y z
#    x 1.941710 0.043050 0.004750 
#    y 0.043050 1.965870 0.018700 
#    z 0.004750 0.018700 1.914060 
# 
# From -- ./inp_files/160106.got.cif
#   From: 2010.05.17/outbox.cif.g08.bks.cpg/sg2_81_cif.got.tgz:160106.got - 2010.06.03 11:33:40.
