data_PCOD9099035
_publ_section_title
;
Structure prediction by ZEFSAII (Michael W. Deem and Ramdas Pophale) SiO2 
 PCOD9099035
Probable space group: P -1
;
_chemical_formula_sum "Si O2"
_cell_formula_units_Z 12
_cell_length_a 5.185599
_cell_length_b 9.082447
_cell_length_c 21.972938
_cell_angle_alpha 125.971525
_cell_angle_beta 56.320402
_cell_angle_gamma 124.023980
_cell_volume 653.609099
_symmetry_space_group_name_H-M "P -1"
_symmetry_group_IT_number 2
_symmetry_cell_setting 'triclinic'
loop_
_space_group_symop_operation_xyz
x,y,z
-x,-y,-z
loop_
_atom_site_type_symbol
_atom_site_label
_atom_site_fract_x
_atom_site_fract_y
_atom_site_fract_z
Si Si1 0.775843 0.275771 0.476868
Si Si2 0.782630 0.767869 0.148310
Si Si3 0.216572 0.531496 0.087551
Si Si4 0.126672 0.884525 0.004057
Si Si5 0.129132 0.105229 0.594152
Si Si6 0.618169 0.954605 0.330131
O O1 0.414452 0.232448 0.542892
O O2 0.000000 0.500000 0.500000
O O3 0.901792 0.123443 0.462003
O O4 0.737818 0.177741 0.391202
O O5 0.418531 0.611339 0.142306
O O6 0.741738 0.915488 0.239413
O O7 0.046994 0.675625 0.116675
O O8 0.919889 0.858171 0.087112
O O9 0.500000 0.500000 0.000000
O O10 0.931384 0.322834 0.070015
O O11 0.500000 0.000000 0.000000
O O12 0.000000 0.000000 0.000000
O O13 0.247259 0.149768 0.659464
O O14 0.776863 0.121588 0.634378
#
# Coordination Sequence:
#
# PCOD9099035 Si02
#       6
#     2   2   2   2   2   2
#     4   9  20  37  62  86 115 155 198 234 284 351
#     4  11  21  37  61  81 115 153 195 239 289 344
#     4  10  20  37  59  82 102 154 199 221 282 362
#     4  11  21  36  58  82 115 145 189 243 287 340
#     4   9  20  37  59  83 115 153 201 224 291 347
#     4  10  20  38  57  82 117 151 190 244 292 329
#
# _framework density 18.359594999999999
#
# number of rings (size 3 to 8) (size 9 to 14) (size 15 to 20)
#    1.000    1.000    0.000    6.500    0.000    0.667 
#    0.000    5.000    0.000    0.000    0.000    0.000 
#    0.000    0.000    0.000    0.000    0.000    0.000 
#
# Total GULP energy -66808.658959 kJ/mol
# GULP energy per Si atom -5567.388247 kJ/mol
# Density = 1.831781 g / cm^3
# Si number density = 18.359595 Si / 1000 Ang^3
#
#
#
# Elastic Constant Matrix: (Units=GPa)
#
#
# Indices 1 2 3 4 5 6 
#
# 1 131.3345 36.1978 38.4905 4.7011 5.5898 15.8427
# 2 36.1978 107.1173 51.0103 3.8535 2.3710 20.4750
# 3 38.4905 51.0103 118.5488 2.2624 22.3191 9.6429
# 4 4.7011 3.8535 2.2624 11.8825 2.7161 5.0677
# 5 5.5898 2.3710 22.3191 2.7161 27.6083 4.6999
# 6 15.8427 20.4750 9.6429 5.0677 4.6999 28.2351
#
#
#
# Elastic Compliance Matrix: (Units=1/GPa)
#
#
# Indices 1 2 3 4 5 6 
#
# 1 0.009042 -0.001357 -0.002207 -0.001532 0.000763 -0.003188
# 2 -0.001357 0.014102 -0.005952 -0.000622 0.005334 -0.008208
# 3 -0.002207 -0.005952 0.013462 0.001609 -0.010494 0.002415
# 4 -0.001532 -0.000622 0.001609 0.092615 -0.007563 -0.014603
# 5 0.000763 0.005334 -0.010494 -0.007563 0.046030 -0.007017
# 6 -0.003188 -0.008208 0.002415 -0.014603 -0.007017 0.046122
#
#
# Mechanical properties :
#
#
# Convention : Reuss Voigt Hill
#
# Bulk Modulus (GPa) = 56.90450 67.59977 62.25214
# Shear Modulus (GPa) = 20.30355 28.96531 24.63443
#
# Velocity S-wave (km/s) = 3.32909 3.97629 3.66700
# Velocity P-wave (km/s) = 6.77044 7.61453 7.20485
#
# Compressibility (1/GPa) = 0.01757330
#
# Stress axis : x y z
#
# Youngs Moduli (GPa) = 110.59699 70.91320 74.28587
#
# Poissons Ratio (x) = 0.09622 0.16395
# Poissons Ratio (y) = 0.15007 0.44214
# Poissons Ratio (z) = 0.24409 0.42207
#
# Static dielectric constant tensor:
#      x y z
#    x 1.669810 0.012480 0.014650 
#    y 0.012480 1.650710 0.015550 
#    z 0.014650 0.015550 1.640930 
# 
# From -- ./inp_files/603857.got.cif
#   From: 2010.05.17/outbox.cif.g08.bks.cpg/sg2_302_cif.got.tgz:603857.got - 2010.06.03 11:33:40.
