data_PCOD9099508
_publ_section_title
;
Structure prediction by ZEFSAII (Michael W. Deem and Ramdas Pophale) SiO2 
 PCOD9099508
Probable space group: P -1
;
_chemical_formula_sum "Si O2"
_cell_formula_units_Z 15
_cell_length_a 9.509276
_cell_length_b 7.853498
_cell_length_c 14.192232
_cell_angle_alpha 69.380381
_cell_angle_beta 142.888049
_cell_angle_gamma 110.604974
_cell_volume 593.782148
_symmetry_space_group_name_H-M "P -1"
_symmetry_group_IT_number 2
_symmetry_cell_setting 'triclinic'
loop_
_space_group_symop_operation_xyz
x,y,z
-x,-y,-z
loop_
_atom_site_type_symbol
_atom_site_label
_atom_site_fract_x
_atom_site_fract_y
_atom_site_fract_z
Si Si1 0.500000 0.000000 0.000000
Si Si2 0.743799 0.898208 0.585522
Si Si3 0.791969 0.845258 0.032863
Si Si4 0.599169 0.771835 0.246280
Si Si5 0.408630 0.552687 0.816023
Si Si6 0.285933 0.847446 0.217056
Si Si7 0.386312 0.724269 0.562400
Si Si8 0.094965 0.373547 0.410393
O O1 0.619117 0.972638 0.173365
O O2 0.256480 0.041645 0.921169
O O3 0.511272 0.870810 0.399479
O O4 0.641224 0.816541 0.645273
O O5 0.904483 0.763219 0.649886
O O6 0.786536 0.118068 0.565902
O O7 0.606458 0.663921 0.962339
O O8 0.745035 0.968757 0.892739
O O9 0.050913 0.793130 0.160291
O O10 0.545526 0.651771 0.146992
O O11 0.374888 0.724930 0.204202
O O12 0.825096 0.732913 0.432972
O O13 0.399419 0.647535 0.689351
O O14 0.153081 0.558733 0.719866
O O15 0.289577 0.552228 0.478763
#
# Coordination Sequence:
#
# PCOD9099508 Si02
#       8
#     1   2   2   2   2   2   2   2
#     4  10  22  42  58  88 116 162 212 252 300 370
#     4  10  20  38  62  92 121 169 209 252 312 361
#     4  10  21  39  60  82 122 158 210 253 299 368
#     4   9  20  39  63  86 121 161 202 253 311 360
#     4  11  22  40  60  93 128 162 200 251 320 378
#     4   9  19  39  59  83 116 165 206 252 299 360
#     4  10  20  37  60  92 125 160 210 252 304 375
#     4  10  22  40  61  95 134 163 197 258 317 376
#
# _framework density 25.261792
#
# number of rings (size 3 to 8) (size 9 to 14) (size 15 to 20)
#    0.000    2.133    1.333    2.000    0.000    3.733 
#    9.600    0.000    0.000    0.000    0.000    0.000 
#    0.000    0.000    0.000    0.000    0.000    0.000 
#
# Total GULP energy -83628.147696 kJ/mol
# GULP energy per Si atom -5575.209846 kJ/mol
# Density = 2.520430 g / cm^3
# Si number density = 25.261792 Si / 1000 Ang^3
#
#
#
# Elastic Constant Matrix: (Units=GPa)
#
#
# Indices 1 2 3 4 5 6 
#
# 1 149.4134 7.2564 14.4170 12.2289 8.6967 -22.1276
# 2 7.2564 55.0946 -15.5826 15.7981 -2.4596 -8.5635
# 3 14.4170 -15.5826 56.8922 -5.6950 4.2053 2.5844
# 4 12.2289 15.7981 -5.6950 20.0445 6.3455 -10.8542
# 5 8.6967 -2.4596 4.2053 6.3455 44.6325 -11.5659
# 6 -22.1276 -8.5635 2.5844 -10.8542 -11.5659 47.4477
#
#
#
# Elastic Compliance Matrix: (Units=1/GPa)
#
#
# Indices 1 2 3 4 5 6 
#
# 1 0.007665 -0.000224 -0.002499 -0.003674 -0.000016 0.002826
# 2 -0.000224 0.025361 0.004741 -0.019345 0.003939 0.000749
# 3 -0.002499 0.004741 0.020051 0.003515 -0.001917 -0.001065
# 4 -0.003674 -0.019345 0.003515 0.076604 -0.008998 0.009934
# 5 -0.000016 0.003939 -0.001917 -0.008998 0.025363 0.004932
# 6 0.002826 0.000749 -0.001065 0.009934 0.004932 0.026062
#
#
# Mechanical properties :
#
#
# Convention : Reuss Voigt Hill
#
# Bulk Modulus (GPa) = 17.50914 30.39798 23.95356
# Shear Modulus (GPa) = 25.49634 39.44558 32.47096
#
# Velocity S-wave (km/s) = 3.18037 3.95583 3.58911
# Velocity P-wave (km/s) = 4.52023 5.73796 5.16510
#
# Compressibility (1/GPa) = 0.05711302
#
# Stress axis : x y z
#
# Youngs Moduli (GPa) = 130.46332 39.43131 49.87331
#
# Poissons Ratio (x) = 0.00884 0.12462
# Poissons Ratio (y) = 0.02924 -0.23646
# Poissons Ratio (z) = 0.32600 -0.18695
#
# Static dielectric constant tensor:
#      x y z
#    x 2.078480 -0.044860 0.011600 
#    y -0.044860 2.187060 -0.048320 
#    z 0.011600 -0.048320 2.001300 
# 
# From -- ./inp_files/402510.got.cif
#   From: 2010.05.17/outbox.cif.g08.bks.cpg/sg2_202_cif.got.tgz:402510.got - 2010.06.03 11:33:40.
