data_PCOD9099037
_publ_section_title
;
Structure prediction by ZEFSAII (Michael W. Deem and Ramdas Pophale) SiO2 
 PCOD9099037
Probable space group: P -1
;
_chemical_formula_sum "Si O2"
_cell_formula_units_Z 14
_cell_length_a 9.308859
_cell_length_b 9.552956
_cell_length_c 14.381037
_cell_angle_alpha 70.072860
_cell_angle_beta 38.190465
_cell_angle_gamma 96.845538
_cell_volume 554.562676
_symmetry_space_group_name_H-M "P -1"
_symmetry_group_IT_number 2
_symmetry_cell_setting 'triclinic'
loop_
_space_group_symop_operation_xyz
x,y,z
-x,-y,-z
loop_
_atom_site_type_symbol
_atom_site_label
_atom_site_fract_x
_atom_site_fract_y
_atom_site_fract_z
Si Si1 0.673360 0.867389 0.028618
Si Si2 0.403282 0.806954 0.378870
Si Si3 0.320161 0.073690 0.596810
Si Si4 0.378684 0.093329 0.234637
Si Si5 0.716134 0.610411 0.775546
Si Si6 0.209664 0.303100 0.480810
Si Si7 0.861592 0.293259 0.805389
O O1 0.560063 0.810578 0.204986
O O2 0.390930 0.745774 0.128068
O O3 0.954758 0.887473 0.843335
O O4 0.807106 0.092219 0.897228
O O5 0.028685 0.644436 0.618117
O O6 0.553535 0.812289 0.394860
O O7 0.450048 0.007179 0.299347
O O8 0.500000 0.000000 0.500000
O O9 0.352232 0.214103 0.470411
O O10 0.212890 0.181301 0.308135
O O11 0.720269 0.285068 0.977159
O O12 0.141673 0.894427 0.333433
O O13 0.618914 0.556330 0.728235
O O14 0.500000 0.500000 0.000000
O O15 0.170470 0.406716 0.560021
#
# Coordination Sequence:
#
# PCOD9099037 Si02
#       7
#     2   2   2   2   2   2   2
#     4   9  15  28  47  77 106 124 155 202 256 294
#     4  10  19  32  51  75 102 131 167 203 252 296
#     4  11  19  27  48  85 106 124 158 207 256 301
#     4  10  16  31  54  74  97 129 164 212 247 290
#     4  11  22  34  49  72 102 138 174 206 244 292
#     4  10  17  34  54  73 104 128 164 210 254 292
#     4   9  13  28  53  76  97 125 162 207 251 289
#
# _framework density 25.245118000000002
#
# number of rings (size 3 to 8) (size 9 to 14) (size 15 to 20)
#    0.000    2.000    7.143    3.857    0.000    0.000 
#    0.000    1.429    0.000    0.000    0.000   13.000 
#    0.000    0.000    0.000    0.000    0.000    0.000 
#
# Total GULP energy -78094.620855 kJ/mol
# GULP energy per Si atom -5578.187204 kJ/mol
# Density = 2.518766 g / cm^3
# Si number density = 25.245118 Si / 1000 Ang^3
#
#
#
# Elastic Constant Matrix: (Units=GPa)
#
#
# Indices 1 2 3 4 5 6 
#
# 1 120.4151 10.8510 52.6388 -4.7557 26.0498 -26.0404
# 2 10.8510 59.0504 39.6727 15.6908 -10.8556 -18.0902
# 3 52.6388 39.6727 186.6188 13.0558 29.9275 -18.0530
# 4 -4.7557 15.6908 13.0558 46.9025 -12.3708 -1.8685
# 5 26.0498 -10.8556 29.9275 -12.3708 42.5576 7.2990
# 6 -26.0404 -18.0902 -18.0530 -1.8685 7.2990 38.6813
#
#
#
# Elastic Compliance Matrix: (Units=1/GPa)
#
#
# Indices 1 2 3 4 5 6 
#
# 1 0.012819 -0.000108 -0.001247 -0.000232 -0.008716 0.009630
# 2 -0.000108 0.025802 -0.005671 -0.004657 0.007975 0.007617
# 3 -0.001247 -0.005671 0.008509 -0.002563 -0.007723 0.001813
# 4 -0.000232 -0.004657 -0.002563 0.025765 0.008927 -0.003970
# 5 -0.008716 0.007975 -0.007723 0.008927 0.041135 -0.013073
# 6 0.009630 0.007617 0.001813 -0.003970 -0.013073 0.039019
#
#
# Mechanical properties :
#
#
# Convention : Reuss Voigt Hill
#
# Bulk Modulus (GPa) = 30.23225 63.60103 46.91664
# Shear Modulus (GPa) = 28.07002 43.15640 35.61321
#
# Velocity S-wave (km/s) = 3.33813 4.13909 3.76000
# Velocity P-wave (km/s) = 5.18257 6.93476 6.12168
#
# Compressibility (1/GPa) = 0.03307726
#
# Stress axis : x y z
#
# Youngs Moduli (GPa) = 78.01205 38.75705 117.52307
#
# Poissons Ratio (x) = 0.00419 0.14656
# Poissons Ratio (y) = 0.00843 0.66646
# Poissons Ratio (z) = 0.09729 0.21979
#
# Static dielectric constant tensor:
#      x y z
#    x 1.944990 0.084350 -0.000080 
#    y 0.084350 2.239060 -0.092240 
#    z -0.000080 -0.092240 2.232470 
# 
# From -- ./inp_files/464037.got.cif
#   From: 2010.05.17/outbox.cif.g08.bks.cpg/sg2_233_cif.got.tgz:464037.got - 2010.06.03 11:33:40.
