data_PCOD9099198
_publ_section_title
;
Structure prediction by ZEFSAII (Michael W. Deem and Ramdas Pophale) SiO2 
 PCOD9099198
Probable space group: P -1
;
_chemical_formula_sum "Si O2"
_cell_formula_units_Z 12
_cell_length_a 22.243457
_cell_length_b 15.639056
_cell_length_c 17.834789
_cell_angle_alpha 161.835172
_cell_angle_beta 14.827541
_cell_angle_gamma 157.329385
_cell_volume 494.278245
_symmetry_space_group_name_H-M "P -1"
_symmetry_group_IT_number 2
_symmetry_cell_setting 'triclinic'
loop_
_space_group_symop_operation_xyz
x,y,z
-x,-y,-z
loop_
_atom_site_type_symbol
_atom_site_label
_atom_site_fract_x
_atom_site_fract_y
_atom_site_fract_z
Si Si1 0.856972 0.206145 0.926946
Si Si2 0.057719 0.089439 0.272587
Si Si3 0.311794 0.247076 0.663538
Si Si4 0.441379 0.133369 0.573960
Si Si5 0.638048 0.264902 0.089784
Si Si6 0.331174 0.613091 0.359925
O O1 0.589252 0.220617 0.291471
O O2 0.810691 0.149350 0.847425
O O3 0.967264 0.017831 0.701087
O O4 0.000000 0.500000 0.000000
O O5 0.848290 0.963401 0.368689
O O6 0.104700 0.413571 0.475543
O O7 0.305332 0.976373 0.848593
O O8 0.294028 0.192927 0.728091
O O9 0.262431 0.547195 0.941311
O O10 0.525714 0.389925 0.737239
O O11 0.304314 0.921156 0.619215
O O12 0.500000 0.500000 0.500000
O O13 0.500000 0.000000 0.000000
O O14 0.500000 0.500000 0.000000
#
# Coordination Sequence:
#
# PCOD9099198 Si02
#       6
#     2   2   2   2   2   2
#     4  10  20  39  61  87 128 167 209 260 313 375
#     4  10  20  37  59  89 120 160 208 250 319 368
#     4  10  21  38  59  90 124 159 210 260 309 380
#     4   9  20  39  58  88 119 157 201 255 317 376
#     4  10  22  41  62  92 129 170 215 262 315 379
#     4   9  19  39  63  83 118 156 199 256 316 385
#
# _framework density 24.277825
#
# number of rings (size 3 to 8) (size 9 to 14) (size 15 to 20)
#    0.000    2.333    1.667    0.000    2.333    0.667 
#    6.000   10.833    0.000    0.000    0.000    0.000 
#    0.000    0.000    0.000    0.000    0.000    0.000 
#
# Total GULP energy -67020.842427 kJ/mol
# GULP energy per Si atom -5585.070202 kJ/mol
# Density = 2.422257 g / cm^3
# Si number density = 24.277825 Si / 1000 Ang^3
#
#
#
# Elastic Constant Matrix: (Units=GPa)
#
#
# Indices 1 2 3 4 5 6 
#
# 1 251.0331 108.0444 34.8392 6.5943 -21.4602 13.5500
# 2 108.0444 236.9084 31.0895 10.9005 -14.5677 21.7093
# 3 34.8392 31.0895 86.9984 -13.7300 -16.2952 8.3471
# 4 6.5943 10.9005 -13.7300 30.6720 -1.9682 5.4694
# 5 -21.4602 -14.5677 -16.2952 -1.9682 34.7877 0.5470
# 6 13.5500 21.7093 8.3471 5.4694 0.5470 46.9749
#
#
#
# Elastic Compliance Matrix: (Units=1/GPa)
#
#
# Indices 1 2 3 4 5 6 
#
# 1 0.005212 -0.002063 -0.001096 -0.000710 0.001802 -0.000294
# 2 -0.002063 0.005572 -0.001218 -0.001777 0.000414 -0.001562
# 3 -0.001096 -0.001218 0.015174 0.008386 0.006441 -0.002868
# 4 -0.000710 -0.001777 0.008386 0.038351 0.004994 -0.004987
# 5 0.001802 0.000414 0.006441 0.004994 0.033375 -0.002826
# 6 -0.000294 -0.001562 -0.002868 -0.004987 -0.002826 0.023218
#
#
# Mechanical properties :
#
#
# Convention : Reuss Voigt Hill
#
# Bulk Modulus (GPa) = 58.12849 102.54291 80.33570
# Shear Modulus (GPa) = 36.93018 49.21804 43.07411
#
# Velocity S-wave (km/s) = 3.90442 4.50742 4.21671
# Velocity P-wave (km/s) = 6.65740 8.33175 7.54119
#
# Compressibility (1/GPa) = 0.01720327
#
# Stress axis : x y z
#
# Youngs Moduli (GPa) = 191.86187 179.47023 65.90258
#
# Poissons Ratio (x) = 0.37020 0.07226
# Poissons Ratio (y) = 0.39576 0.08028
# Poissons Ratio (z) = 0.21036 0.21863
#
# Static dielectric constant tensor:
#      x y z
#    x 2.074520 0.000450 0.392190 
#    y 0.000450 1.911370 0.049020 
#    z 0.392190 0.049020 2.909210 
# 
# From -- ./inp_files/33427.got.cif
#   From: 2010.05.17/outbox.cif.g08.bks.cpg/sg2_17_cif.got.tgz:33427.got - 2010.06.03 11:33:40.
