data_PCOD9099613
_publ_section_title
;
Structure prediction by ZEFSAII (Michael W. Deem and Ramdas Pophale) SiO2 
 PCOD9099613
Probable space group: P -1
;
_chemical_formula_sum "Si O2"
_cell_formula_units_Z 16
_cell_length_a 12.310459
_cell_length_b 22.098909
_cell_length_c 8.898651
_cell_angle_alpha 79.106746
_cell_angle_beta 127.971747
_cell_angle_gamma 143.045499
_cell_volume 882.788694
_symmetry_space_group_name_H-M "P -1"
_symmetry_group_IT_number 2
_symmetry_cell_setting 'triclinic'
loop_
_space_group_symop_operation_xyz
x,y,z
-x,-y,-z
loop_
_atom_site_type_symbol
_atom_site_label
_atom_site_fract_x
_atom_site_fract_y
_atom_site_fract_z
Si Si1 0.669908 0.296060 0.404800
Si Si2 0.258222 0.587384 0.849425
Si Si3 0.251503 0.119509 0.416559
Si Si4 0.611049 0.910836 0.939100
Si Si5 0.236602 0.898842 0.941141
Si Si6 0.060461 0.462004 0.164909
Si Si7 0.361173 0.288258 0.598847
Si Si8 0.368332 0.816291 0.117952
O O1 0.608113 0.329057 0.224129
O O2 0.455736 0.213985 0.403414
O O3 0.606184 0.207320 0.305771
O O4 0.008115 0.438558 0.672554
O O5 0.071795 0.570473 0.773093
O O6 0.492613 0.655872 0.138137
O O7 0.310916 0.197332 0.551182
O O8 0.359810 0.098564 0.590124
O O9 0.909692 0.988871 0.151630
O O10 0.477347 0.857270 0.018392
O O11 0.703469 0.018449 0.940880
O O12 0.942575 0.797175 0.645523
O O13 0.243556 0.833630 0.047017
O O14 0.500000 0.000000 0.000000
O O15 0.404485 0.590048 0.375214
O O16 0.000000 0.500000 0.000000
O O17 0.880954 0.333929 0.009546
#
# Coordination Sequence:
#
# PCOD9099613 Si02
#       8
#     2   2   2   2   2   2   2   2
#     4  11  20  32  52  87 117 142 176 228 285 322
#     4  10  19  32  56  87 113 142 176 235 278 322
#     4  11  19  32  57  84 110 142 189 228 268 327
#     4  10  21  36  53  80 115 149 182 225 270 329
#     4   9  22  37  56  81 111 145 187 227 267 324
#     4  10  16  31  56  84 107 130 176 236 270 315
#     4  10  18  36  58  85 109 138 186 234 270 320
#     4  11  19  36  58  82 107 147 184 232 278 311
#
# _framework density 18.124381
#
# number of rings (size 3 to 8) (size 9 to 14) (size 15 to 20)
#    0.000    1.750    5.000    1.500    0.000    2.500 
#    0.000    0.625    0.000    7.500    3.250    0.000 
#    0.000    0.000    0.000    0.000    0.000    0.000 
#
# Total GULP energy -89184.508691 kJ/mol
# GULP energy per Si atom -5574.031793 kJ/mol
# Density = 1.808313 g / cm^3
# Si number density = 18.124381 Si / 1000 Ang^3
#
#
#
# Elastic Constant Matrix: (Units=GPa)
#
#
# Indices 1 2 3 4 5 6 
#
# 1 62.8320 31.2477 62.1835 -3.1193 6.6686 -13.9880
# 2 31.2477 71.0403 37.9188 2.6536 0.8803 -21.0685
# 3 62.1835 37.9188 89.1837 7.4456 8.5700 -19.2033
# 4 -3.1193 2.6536 7.4456 27.7303 -0.9121 -2.7184
# 5 6.6686 0.8803 8.5700 -0.9121 33.5945 2.1552
# 6 -13.9880 -21.0685 -19.2033 -2.7184 2.1552 35.2396
#
#
#
# Elastic Compliance Matrix: (Units=1/GPa)
#
#
# Indices 1 2 3 4 5 6 
#
# 1 0.060509 -0.005223 -0.041483 0.018395 -0.000777 -0.000243
# 2 -0.005223 0.020658 -0.003354 -0.000820 0.000794 0.008338
# 3 -0.041483 -0.003354 0.044243 -0.015891 -0.003693 0.004638
# 4 0.018395 -0.000820 -0.015891 0.042658 0.001495 0.001351
# 5 -0.000777 0.000794 -0.003693 0.001495 0.031116 -0.003634
# 6 -0.000243 0.008338 0.004638 0.001351 -0.003634 0.036120
#
#
# Mechanical properties :
#
#
# Convention : Reuss Voigt Hill
#
# Bulk Modulus (GPa) = 39.54057 53.97290 46.75673
# Shear Modulus (GPa) = 14.54109 25.42661 19.98385
#
# Velocity S-wave (km/s) = 2.83555 3.74959 3.32414
# Velocity P-wave (km/s) = 5.70825 6.97063 6.37078
#
# Compressibility (1/GPa) = 0.02529048
#
# Stress axis : x y z
#
# Youngs Moduli (GPa) = 16.52639 48.40820 22.60240
#
# Poissons Ratio (x) = 0.25284 0.93761
# Poissons Ratio (y) = 0.08632 0.07581
# Poissons Ratio (z) = 0.68556 0.16235
#
# Static dielectric constant tensor:
#      x y z
#    x 1.644880 0.008790 -0.014220 
#    y 0.008790 1.682110 0.013050 
#    z -0.014220 0.013050 1.647590 
# 
# From -- ./inp_files/203684.got.cif
#   From: 2010.05.17/outbox.cif.g08.bks.cpg/sg2_102_cif.got.tgz:203684.got - 2010.06.03 11:33:40.
