data_PCOD9099430
_publ_section_title
;
Structure prediction by ZEFSAII (Michael W. Deem and Ramdas Pophale) SiO2 
 PCOD9099430
Probable space group: P -1
;
_chemical_formula_sum "Si O2"
_cell_formula_units_Z 14
_cell_length_a 7.163879
_cell_length_b 20.320006
_cell_length_c 9.872448
_cell_angle_alpha 45.337443
_cell_angle_beta 97.549281
_cell_angle_gamma 59.417321
_cell_volume 529.595820
_symmetry_space_group_name_H-M "P -1"
_symmetry_group_IT_number 2
_symmetry_cell_setting 'triclinic'
loop_
_space_group_symop_operation_xyz
x,y,z
-x,-y,-z
loop_
_atom_site_type_symbol
_atom_site_label
_atom_site_fract_x
_atom_site_fract_y
_atom_site_fract_z
Si Si1 0.721571 0.130288 0.580671
Si Si2 0.784889 0.963760 0.075288
Si Si3 0.677843 0.366914 0.569025
Si Si4 0.827181 0.518317 0.335434
Si Si5 0.877236 0.330166 0.098442
Si Si6 0.963773 0.142307 0.188833
Si Si7 0.812194 0.487846 0.097102
O O1 0.394250 0.339187 0.238140
O O2 0.092014 0.034627 0.779919
O O3 0.698852 0.074291 0.791199
O O4 0.777908 0.042871 0.580419
O O5 0.140675 0.762526 0.349632
O O6 0.500000 0.000000 0.000000
O O7 0.810770 0.416701 0.520434
O O8 0.265943 0.548768 0.216927
O O9 0.817382 0.257338 0.874031
O O10 0.422807 0.728845 0.976991
O O11 0.000000 0.500000 0.500000
O O12 0.015905 0.437568 0.323753
O O13 0.101163 0.154838 0.300942
O O14 0.000639 0.342137 0.216381
O O15 0.518217 0.432759 0.980460
#
# Coordination Sequence:
#
# PCOD9099430 Si02
#       7
#     2   2   2   2   2   2   2
#     4  10  20  37  60  89 118 159 203 241 296 359
#     4  10  21  35  59  88 123 160 197 246 295 357
#     4   9  17  35  57  79 113 154 198 239 289 356
#     4  10  21  34  57  86 115 155 195 251 293 353
#     4   9  16  31  56  86 109 154 195 240 286 351
#     4   9  19  33  58  85 110 155 199 239 291 353
#     4   9  18  34  58  82 122 152 199 241 297 355
#
# _framework density 26.435254
#
# number of rings (size 3 to 8) (size 9 to 14) (size 15 to 20)
#    0.000    2.857    1.429    1.714    2.000    2.286 
#    0.000    0.000   12.571    8.571    0.000    0.000 
#    0.000    0.000    0.000    0.000    0.000    0.000 
#
# Total GULP energy -78239.101707 kJ/mol
# GULP energy per Si atom -5588.507265 kJ/mol
# Density = 2.637509 g / cm^3
# Si number density = 26.435254 Si / 1000 Ang^3
#
#
#
# Elastic Constant Matrix: (Units=GPa)
#
#
# Indices 1 2 3 4 5 6 
#
# 1 93.4230 30.1137 29.9158 17.9934 -4.0801 28.5326
# 2 30.1137 245.4339 46.4784 10.8630 12.9291 46.3862
# 3 29.9158 46.4784 94.3874 4.6255 -19.9189 17.6631
# 4 17.9934 10.8630 4.6255 46.9480 0.5616 11.8562
# 5 -4.0801 12.9291 -19.9189 0.5616 33.9350 7.3069
# 6 28.5326 46.3862 17.6631 11.8562 7.3069 45.7841
#
#
#
# Elastic Compliance Matrix: (Units=1/GPa)
#
#
# Indices 1 2 3 4 5 6 
#
# 1 0.014595 0.000243 -0.002778 -0.003465 0.001736 -0.007650
# 2 0.000243 0.005473 -0.002515 0.000009 -0.002603 -0.004313
# 3 -0.002778 -0.002515 0.015575 0.000907 0.010536 -0.003646
# 4 -0.003465 0.000009 0.000907 0.023648 0.000675 -0.004431
# 5 0.001736 -0.002603 0.010536 0.000675 0.038751 -0.008868
# 6 -0.007650 -0.004313 -0.003646 -0.004431 -0.008868 0.034948
#
#
# Mechanical properties :
#
#
# Convention : Reuss Voigt Hill
#
# Bulk Modulus (GPa) = 39.14915 71.80666 55.47791
# Shear Modulus (GPa) = 32.98116 47.11587 40.04851
#
# Velocity S-wave (km/s) = 3.53600 4.22632 3.89648
# Velocity P-wave (km/s) = 5.61361 7.14408 6.42459
#
# Compressibility (1/GPa) = 0.02554334
#
# Stress axis : x y z
#
# Youngs Moduli (GPa) = 68.51809 182.72684 64.20717
#
# Poissons Ratio (x) = -0.04440 0.17834
# Poissons Ratio (y) = -0.01665 0.16146
# Poissons Ratio (z) = 0.19032 0.45949
#
# Static dielectric constant tensor:
#      x y z
#    x 2.222800 -0.047560 -0.005150 
#    y -0.047560 2.147190 0.027230 
#    z -0.005150 0.027230 2.056520 
# 
# From -- ./inp_files/223212.got.cif
#   From: 2010.05.17/outbox.cif.g08.bks.cpg/sg2_112_cif.got.tgz:223212.got - 2010.06.03 11:33:40.
