data_PCOD9099429
_publ_section_title
;
Structure prediction by ZEFSAII (Michael W. Deem and Ramdas Pophale) SiO2 
 PCOD9099429
Probable space group: P -1
;
_chemical_formula_sum "Si O2"
_cell_formula_units_Z 16
_cell_length_a 15.314717
_cell_length_b 14.820011
_cell_length_c 10.873100
_cell_angle_alpha 54.402376
_cell_angle_beta 111.775457
_cell_angle_gamma 153.312894
_cell_volume 822.667989
_symmetry_space_group_name_H-M "P -1"
_symmetry_group_IT_number 2
_symmetry_cell_setting 'triclinic'
loop_
_space_group_symop_operation_xyz
x,y,z
-x,-y,-z
loop_
_atom_site_type_symbol
_atom_site_label
_atom_site_fract_x
_atom_site_fract_y
_atom_site_fract_z
Si Si1 0.980447 0.569726 0.758132
Si Si2 0.569297 0.727160 0.785142
Si Si3 0.141558 0.142773 0.082351
Si Si4 0.821920 0.174317 0.081576
Si Si5 0.555811 0.946301 0.505335
Si Si6 0.806786 0.906882 0.254221
Si Si7 0.455226 0.375851 0.423068
Si Si8 0.372941 0.673572 0.375196
O O1 0.874792 0.335998 0.897470
O O2 0.832376 0.498526 0.664483
O O3 0.207918 0.801018 0.628289
O O4 0.973890 0.342602 0.147799
O O5 0.767959 0.885398 0.834342
O O6 0.549182 0.836994 0.682964
O O7 0.601334 0.720764 0.666068
O O8 0.350380 0.440583 0.943659
O O9 0.000209 0.037421 0.204459
O O10 0.000000 0.000000 0.000000
O O11 0.845904 0.077852 0.112514
O O12 0.581266 0.927214 0.203339
O O13 0.401401 0.755960 0.460368
O O14 0.500000 0.000000 0.500000
O O15 0.593963 0.634115 0.293467
O O16 0.745187 0.830622 0.426495
O O17 0.605129 0.435721 0.508004
#
# Coordination Sequence:
#
# PCOD9099429 Si02
#       8
#     2   2   2   2   2   2   2   2
#     4  10  20  37  61  80 116 159 185 232 306 329
#     4  10  23  42  60  84 121 157 196 237 298 349
#     4  11  23  41  62  85 120 161 188 238 301 354
#     4   9  20  38  55  87 118 144 192 239 282 352
#     4  10  23  39  57  86 115 149 203 242 271 345
#     4  10  20  37  60  89 118 148 196 242 284 346
#     4   9  19  39  60  88 120 147 193 247 287 349
#     4   9  19  38  60  83 116 151 185 240 294 341
#
# _framework density 19.448915
#
# number of rings (size 3 to 8) (size 9 to 14) (size 15 to 20)
#    0.000    2.250    1.250    1.125    3.500    1.000 
#    9.000    0.000    0.000    0.000    0.000    0.000 
#    0.000    0.000    0.000    0.000    0.000    0.000 
#
# Total GULP energy -89328.374625 kJ/mol
# GULP energy per Si atom -5583.023414 kJ/mol
# Density = 1.940465 g / cm^3
# Si number density = 19.448915 Si / 1000 Ang^3
#
#
#
# Elastic Constant Matrix: (Units=GPa)
#
#
# Indices 1 2 3 4 5 6 
#
# 1 97.3577 40.2901 34.6508 -2.2714 4.7914 2.5902
# 2 40.2901 72.8131 14.8554 13.7723 7.6318 19.4914
# 3 34.6508 14.8554 60.0902 0.0765 12.2691 6.3050
# 4 -2.2714 13.7723 0.0765 19.0041 -2.0105 12.1339
# 5 4.7914 7.6318 12.2691 -2.0105 37.0669 -6.5571
# 6 2.5902 19.4914 6.3050 12.1339 -6.5571 26.3528
#
#
#
# Elastic Compliance Matrix: (Units=1/GPa)
#
#
# Indices 1 2 3 4 5 6 
#
# 1 0.018272 -0.011962 -0.009364 0.006655 0.004878 0.007441
# 2 -0.011962 0.027156 0.003776 -0.011336 -0.008882 -0.016803
# 3 -0.009364 0.003776 0.024169 0.002030 -0.009389 -0.010926
# 4 0.006655 -0.011336 0.002030 0.080740 -0.000119 -0.029961
# 5 0.004878 -0.008882 -0.009389 -0.000119 0.034271 0.016918
# 6 0.007441 -0.016803 -0.010926 -0.029961 0.016918 0.070263
#
#
# Mechanical properties :
#
#
# Convention : Reuss Voigt Hill
#
# Bulk Modulus (GPa) = 28.98983 45.53930 37.26456
# Shear Modulus (GPa) = 16.58541 25.84908 21.21724
#
# Velocity S-wave (km/s) = 2.92339 3.64960 3.30649
# Velocity P-wave (km/s) = 5.13156 6.42068 5.81197
#
# Compressibility (1/GPa) = 0.03449485
#
# Stress axis : x y z
#
# Youngs Moduli (GPa) = 54.72891 36.82467 41.37511
#
# Poissons Ratio (x) = 0.44050 0.38745
# Poissons Ratio (y) = 0.65467 -0.15621
# Poissons Ratio (z) = 0.51250 -0.13903
#
# Static dielectric constant tensor:
#      x y z
#    x 1.663470 -0.014160 0.009820 
#    y -0.014160 1.673600 -0.000940 
#    z 0.009820 -0.000940 1.702750 
# 
# From -- ./inp_files/455554.got.cif
#   From: 2010.05.17/outbox.cif.g08.bks.cpg/sg2_228_cif.got.tgz:455554.got - 2010.06.03 11:33:40.
