data_PCOD9099873
_publ_section_title
;
Structure prediction by ZEFSAII (Michael W. Deem and Ramdas Pophale) SiO2 
 PCOD9099873
Probable space group: P -1
;
_chemical_formula_sum "Si O2"
_cell_formula_units_Z 12
_cell_length_a 7.803363
_cell_length_b 9.110866
_cell_length_c 13.071204
_cell_angle_alpha 40.823321
_cell_angle_beta 127.883609
_cell_angle_gamma 106.137171
_cell_volume 446.979180
_symmetry_space_group_name_H-M "P -1"
_symmetry_group_IT_number 2
_symmetry_cell_setting 'triclinic'
loop_
_space_group_symop_operation_xyz
x,y,z
-x,-y,-z
loop_
_atom_site_type_symbol
_atom_site_label
_atom_site_fract_x
_atom_site_fract_y
_atom_site_fract_z
Si Si1 0.232500 0.472985 0.334352
Si Si2 0.217053 0.315324 0.815929
Si Si3 0.332311 0.746174 0.670348
Si Si4 0.167946 0.871526 0.961944
Si Si5 0.358216 0.038082 0.225761
Si Si6 0.932247 0.252466 0.219915
O O1 0.446202 0.227794 0.559885
O O2 0.073499 0.420531 0.213878
O O3 0.054935 0.549541 0.323870
O O4 0.289786 0.695823 0.193384
O O5 0.319147 0.521259 0.721060
O O6 0.236272 0.105794 0.854005
O O7 0.335929 0.172456 0.038244
O O8 0.245834 0.716963 0.768691
O O9 0.560845 0.810171 0.738605
O O10 0.126465 0.984727 0.431141
O O11 0.195281 0.727587 0.943392
O O12 0.894430 0.964943 0.841243
#
# Coordination Sequence:
#
# PCOD9099873 Si02
#       6
#     2   2   2   2   2   2
#     4   9  19  36  57  81 113 149 184 225 276 330
#     4  10  21  36  57  86 116 146 180 230 286 329
#     4   9  19  38  60  78 109 155 189 219 276 339
#     4  11  22  35  58  89 115 139 184 240 280 318
#     4  10  20  37  62  83 107 150 195 224 265 337
#     4   9  19  37  59  82 112 150 186 228 278 329
#
# _framework density 26.846886000000001
#
# number of rings (size 3 to 8) (size 9 to 14) (size 15 to 20)
#    0.000    2.333    0.000    4.000    0.000    6.000 
#    0.000    2.500    0.000    4.000    0.000    0.000 
#    0.000    0.000    0.000    0.000    0.000    0.000 
#
# Total GULP energy -67287.127392 kJ/mol
# GULP energy per Si atom -5607.260616 kJ/mol
# Density = 2.678578 g / cm^3
# Si number density = 26.846886 Si / 1000 Ang^3
#
#
#
# Elastic Constant Matrix: (Units=GPa)
#
#
# Indices 1 2 3 4 5 6 
#
# 1 61.6246 13.1517 21.0493 -2.4552 16.1641 4.7103
# 2 13.1517 136.2580 30.3908 -25.2087 -0.7269 24.8464
# 3 21.0493 30.3908 114.2741 -29.3503 27.3045 9.1434
# 4 -2.4552 -25.2087 -29.3503 38.2663 -1.4676 -12.3610
# 5 16.1641 -0.7269 27.3045 -1.4676 26.9332 2.8380
# 6 4.7103 24.8464 9.1434 -12.3610 2.8380 30.2483
#
#
#
# Elastic Compliance Matrix: (Units=1/GPa)
#
#
# Indices 1 2 3 4 5 6 
#
# 1 0.019827 -0.001899 -0.000717 -0.001201 -0.011210 -0.000750
# 2 -0.001899 0.009661 -0.002002 0.002845 0.004245 -0.006271
# 3 -0.000717 -0.002002 0.015631 0.010994 -0.015181 0.002948
# 4 -0.001201 0.002845 0.010994 0.039768 -0.009410 0.011661
# 5 -0.011210 0.004245 -0.015181 -0.009410 0.059543 -0.006584
# 6 -0.000750 -0.006271 0.002948 0.011661 -0.006584 0.042819
#
#
# Mechanical properties :
#
#
# Convention : Reuss Voigt Hill
#
# Bulk Modulus (GPa) = 27.86790 49.03782 38.45286
# Shear Modulus (GPa) = 23.98699 35.59388 29.79044
#
# Velocity S-wave (km/s) = 2.99235 3.64512 3.33474
# Velocity P-wave (km/s) = 4.72670 6.00177 5.40199
#
# Compressibility (1/GPa) = 0.03588358
#
# Stress axis : x y z
#
# Youngs Moduli (GPa) = 50.43518 103.50727 63.97740
#
# Poissons Ratio (x) = 0.19657 0.04588
# Poissons Ratio (y) = 0.09578 0.12806
# Poissons Ratio (z) = 0.03617 0.20718
#
# Static dielectric constant tensor:
#      x y z
#    x 2.059450 0.008360 0.007240 
#    y 0.008360 2.124880 -0.016790 
#    z 0.007240 -0.016790 2.050320 
# 
# From -- ./inp_files/176806.got.cif
#   From: 2010.05.17/outbox.cif.g08.bks.cpg/sg2_89_cif.got.tgz:176806.got - 2010.06.03 11:33:40.
