data_PCOD9099960
_publ_section_title
;
Structure prediction by ZEFSAII (Michael W. Deem and Ramdas Pophale) SiO2 
 PCOD9099960
Probable space group: P -1
;
_chemical_formula_sum "Si O2"
_cell_formula_units_Z 14
_cell_length_a 11.598056
_cell_length_b 7.778266
_cell_length_c 7.102009
_cell_angle_alpha 121.802711
_cell_angle_beta 75.058250
_cell_angle_gamma 85.509429
_cell_volume 507.882356
_symmetry_space_group_name_H-M "P -1"
_symmetry_group_IT_number 2
_symmetry_cell_setting 'triclinic'
loop_
_space_group_symop_operation_xyz
x,y,z
-x,-y,-z
loop_
_atom_site_type_symbol
_atom_site_label
_atom_site_fract_x
_atom_site_fract_y
_atom_site_fract_z
Si Si1 0.395344 0.726026 0.374217
Si Si2 0.656001 0.541459 0.452101
Si Si3 0.180079 0.528086 0.317452
Si Si4 0.780710 0.895119 0.171433
Si Si5 0.581361 0.004929 0.786052
Si Si6 0.799842 0.140889 0.955862
Si Si7 0.985631 0.714860 0.246618
O O1 0.429801 0.536294 0.399174
O O2 0.270838 0.674956 0.314999
O O3 0.348295 0.939486 0.636498
O O4 0.466929 0.791313 0.208212
O O5 0.780496 0.530426 0.518823
O O6 0.601794 0.778234 0.548147
O O7 0.708080 0.368241 0.174807
O O8 0.039588 0.646651 0.392037
O O9 0.219446 0.320355 0.053991
O O10 0.853125 0.846654 0.309214
O O11 0.840576 0.022966 0.069351
O O12 0.500000 0.000000 0.000000
O O13 0.713159 0.018587 0.819181
O O14 0.917395 0.168116 0.811945
O O15 0.000000 0.500000 0.000000
#
# Coordination Sequence:
#
# PCOD9099960 Si02
#       7
#     2   2   2   2   2   2   2
#     4   9  21  40  60  87 121 162 193 248 307 341
#     4   9  22  40  63  88 120 161 199 247 309 354
#     4   9  18  39  56  86 126 158 194 245 293 347
#     4  10  20  37  62  88 124 164 199 240 297 359
#     4  12  25  41  67  91 113 160 208 251 314 361
#     4  11  20  43  59  86 131 155 198 260 289 356
#     4  10  21  34  60  94 121 165 201 236 298 355
#
# _framework density 27.565438
#
# number of rings (size 3 to 8) (size 9 to 14) (size 15 to 20)
#    0.857    1.143    2.857    0.429    4.000    1.714 
#    0.000    5.714    0.000    0.000    0.000    0.000 
#    0.000    0.000    0.000    0.000    0.000    0.000 
#
# Total GULP energy -78378.207713 kJ/mol
# GULP energy per Si atom -5598.443408 kJ/mol
# Density = 2.750270 g / cm^3
# Si number density = 27.565438 Si / 1000 Ang^3
#
#
#
# Elastic Constant Matrix: (Units=GPa)
#
#
# Indices 1 2 3 4 5 6 
#
# 1 111.9322 48.9700 12.0756 6.5621 7.0590 -17.5309
# 2 48.9700 144.0326 19.7575 0.2760 1.2537 -15.1475
# 3 12.0756 19.7575 93.6148 20.9665 8.3084 2.3094
# 4 6.5621 0.2760 20.9665 52.9425 3.8302 6.9438
# 5 7.0590 1.2537 8.3084 3.8302 27.2713 1.3764
# 6 -17.5309 -15.1475 2.3094 6.9438 1.3764 58.6290
#
#
#
# Elastic Compliance Matrix: (Units=1/GPa)
#
#
# Indices 1 2 3 4 5 6 
#
# 1 0.011133 -0.003448 -0.000223 -0.001438 -0.002589 0.002678
# 2 -0.003448 0.008444 -0.001622 0.000822 0.000828 0.001098
# 3 -0.000223 -0.001622 0.012355 -0.004595 -0.002968 -0.000358
# 4 -0.001438 0.000822 -0.004595 0.021296 -0.001129 -0.002532
# 5 -0.002589 0.000828 -0.002968 -0.001129 0.038425 -0.001212
# 6 0.002678 0.001098 -0.000358 -0.002532 -0.001212 0.018483
#
#
# Mechanical properties :
#
#
# Convention : Reuss Voigt Hill
#
# Bulk Modulus (GPa) = 46.84498 56.79843 51.82171
# Shear Modulus (GPa) = 39.11239 45.68699 42.39969
#
# Velocity S-wave (km/s) = 3.77091 4.07554 3.92618
# Velocity P-wave (km/s) = 5.99922 6.54189 6.27642
#
# Compressibility (1/GPa) = 0.02134701
#
# Stress axis : x y z
#
# Youngs Moduli (GPa) = 89.81988 118.42346 80.94211
#
# Poissons Ratio (x) = 0.40830 0.01803
# Poissons Ratio (y) = 0.30968 0.13129
# Poissons Ratio (z) = 0.02001 0.19209
#
# Static dielectric constant tensor:
#      x y z
#    x 2.216300 -0.037320 0.022920 
#    y -0.037320 2.118250 -0.023430 
#    z 0.022920 -0.023430 2.093420 
# 
# From -- ./inp_files/225185.got.cif
#   From: 2010.05.17/outbox.cif.g08.bks.cpg/sg2_113_cif.got.tgz:225185.got - 2010.06.03 11:33:40.
