data_PCOD9099728
_publ_section_title
;
Structure prediction by ZEFSAII (Michael W. Deem and Ramdas Pophale) SiO2 
 PCOD9099728
Probable space group: P -1
;
_chemical_formula_sum "Si O2"
_cell_formula_units_Z 16
_cell_length_a 12.703892
_cell_length_b 8.840211
_cell_length_c 7.893844
_cell_angle_alpha 83.794076
_cell_angle_beta 91.370810
_cell_angle_gamma 131.476573
_cell_volume 658.957108
_symmetry_space_group_name_H-M "P -1"
_symmetry_group_IT_number 2
_symmetry_cell_setting 'triclinic'
loop_
_space_group_symop_operation_xyz
x,y,z
-x,-y,-z
loop_
_atom_site_type_symbol
_atom_site_label
_atom_site_fract_x
_atom_site_fract_y
_atom_site_fract_z
Si Si1 0.438351 0.659901 0.986080
Si Si2 0.328054 0.195756 0.532241
Si Si3 0.621084 0.407474 0.611422
Si Si4 0.714813 0.791899 0.070842
Si Si5 0.967301 0.143865 0.476821
Si Si6 0.142902 0.548397 0.544957
Si Si7 0.037568 0.782153 0.929582
Si Si8 0.215031 0.663263 0.900241
O O1 0.414691 0.625502 0.189649
O O2 0.602754 0.779896 0.954598
O O3 0.344752 0.436393 0.923313
O O4 0.372528 0.758510 0.925823
O O5 0.479074 0.261644 0.511096
O O6 0.329110 0.371678 0.450047
O O7 0.299970 0.177510 0.735449
O O8 0.195629 0.985521 0.470934
O O9 0.731400 0.378748 0.583395
O O10 0.876902 0.991828 0.017892
O O11 0.991333 0.222308 0.273476
O O12 0.071524 0.315560 0.596038
O O13 0.000000 0.000000 0.500000
O O14 0.204196 0.676810 0.698742
O O15 0.000000 0.500000 0.500000
O O16 0.150813 0.753691 0.965875
O O17 0.892762 0.575941 0.022302
#
# Coordination Sequence:
#
# PCOD9099728 Si02
#       8
#     2   2   2   2   2   2   2   2
#     4  10  21  36  65  91 122 156 199 250 313 367
#     4   9  19  36  63  89 122 154 201 250 305 354
#     4  10  20  37  61  90 122 159 199 252 303 360
#     4   9  20  40  61  93 120 155 202 253 305 367
#     4  11  21  39  66  92 120 157 203 258 309 360
#     4  12  24  41  61  87 124 166 206 249 305 369
#     4  10  23  42  60  88 125 157 205 252 303 366
#     4  11  24  39  61  86 122 167 202 248 304 367
#
# _framework density 24.28079
#
# number of rings (size 3 to 8) (size 9 to 14) (size 15 to 20)
#    0.000    1.750    2.500    1.500    3.500    3.000 
#    0.000    0.625    0.000    0.000    0.000    0.000 
#    0.000    0.000    0.000    0.000    0.000    0.000 
#
# Total GULP energy -89315.034730 kJ/mol
# GULP energy per Si atom -5582.189671 kJ/mol
# Density = 2.422553 g / cm^3
# Si number density = 24.280790 Si / 1000 Ang^3
#
#
#
# Elastic Constant Matrix: (Units=GPa)
#
#
# Indices 1 2 3 4 5 6 
#
# 1 130.4553 -2.2119 4.2931 -1.8847 12.0128 12.4496
# 2 -2.2119 47.9013 -0.6523 6.3973 -7.3242 13.4566
# 3 4.2931 -0.6523 30.0135 -4.2772 14.3359 5.3898
# 4 -1.8847 6.3973 -4.2772 25.5594 -2.9982 3.8914
# 5 12.0128 -7.3242 14.3359 -2.9982 32.6919 -2.8207
# 6 12.4496 13.4566 5.3898 3.8914 -2.8207 22.6056
#
#
#
# Elastic Compliance Matrix: (Units=1/GPa)
#
#
# Indices 1 2 3 4 5 6 
#
# 1 0.008706 0.001585 0.002300 0.001191 -0.004350 -0.007034
# 2 0.001585 0.026365 0.001216 -0.003499 0.003101 -0.015868
# 3 0.002300 0.001216 0.048019 0.007951 -0.022420 -0.017606
# 4 0.001191 -0.003499 0.007951 0.042455 -0.001502 -0.007965
# 5 -0.004350 0.003101 -0.022420 -0.001502 0.043575 0.011591
# 6 -0.007034 -0.015868 -0.017606 -0.007965 0.011591 0.064572
#
#
# Mechanical properties :
#
#
# Convention : Reuss Voigt Hill
#
# Bulk Modulus (GPa) = 10.71895 23.46978 17.09436
# Shear Modulus (GPa) = 19.63958 29.96745 24.80352
#
# Velocity S-wave (km/s) = 2.84712 3.51694 3.19960
# Velocity P-wave (km/s) = 3.90285 5.11652 4.55033
#
# Compressibility (1/GPa) = 0.09329274
#
# Stress axis : x y z
#
# Youngs Moduli (GPa) = 114.86694 37.92872 20.82498
#
# Poissons Ratio (x) = -0.06013 -0.04789
# Poissons Ratio (y) = -0.18209 -0.02533
# Poissons Ratio (z) = -0.26418 -0.04613
#
# Static dielectric constant tensor:
#      x y z
#    x 2.056440 -0.014220 -0.043940 
#    y -0.014220 2.042310 0.018780 
#    z -0.043940 0.018780 1.963090 
# 
# From -- ./inp_files/222225.got.cif
#   From: 2010.05.17/outbox.cif.g08.bks.cpg/sg2_112_cif.got.tgz:222225.got - 2010.06.03 11:33:40.
