data_PCOD9099262
_publ_section_title
;
Structure prediction by ZEFSAII (Michael W. Deem and Ramdas Pophale) SiO2 
 PCOD9099262
Probable space group: P -1
;
_chemical_formula_sum "Si O2"
_cell_formula_units_Z 16
_cell_length_a 11.276197
_cell_length_b 13.388734
_cell_length_c 11.362041
_cell_angle_alpha 63.119531
_cell_angle_beta 136.547241
_cell_angle_gamma 79.685003
_cell_volume 591.696637
_symmetry_space_group_name_H-M "P -1"
_symmetry_group_IT_number 2
_symmetry_cell_setting 'triclinic'
loop_
_space_group_symop_operation_xyz
x,y,z
-x,-y,-z
loop_
_atom_site_type_symbol
_atom_site_label
_atom_site_fract_x
_atom_site_fract_y
_atom_site_fract_z
Si Si1 0.385294 0.984002 0.764332
Si Si2 0.323573 0.391430 0.761540
Si Si3 0.996243 0.050025 0.811315
Si Si4 0.600033 0.365493 0.755016
Si Si5 0.892807 0.646057 0.989355
Si Si6 0.684568 0.544724 0.825342
Si Si7 0.004429 0.752928 0.456813
Si Si8 0.362389 0.023798 0.248386
O O1 0.095579 0.188337 0.513181
O O2 0.406348 0.017950 0.630994
O O3 0.423505 0.831420 0.891556
O O4 0.695794 0.870262 0.107515
O O5 0.399601 0.384292 0.683299
O O6 0.000000 0.500000 0.500000
O O7 0.279668 0.527607 0.732564
O O8 0.130478 0.856821 0.984364
O O9 0.327161 0.765697 0.456113
O O10 0.230272 0.998447 0.084163
O O11 0.952842 0.144242 0.611314
O O12 0.500000 0.500000 0.500000
O O13 0.699439 0.403416 0.903204
O O14 0.844217 0.541249 0.039010
O O15 0.907159 0.745042 0.033217
O O16 0.570792 0.853755 0.585986
O O17 0.160461 0.503629 0.161914
#
# Coordination Sequence:
#
# PCOD9099262 Si02
#       8
#     2   2   2   2   2   2   2   2
#     4   9  18  35  62  93 134 176 223 283 346 418
#     4  10  20  37  59  98 147 183 215 284 366 422
#     4  11  23  42  72 106 137 177 236 303 355 412
#     4  12  26  39  68 110 146 177 234 304 361 412
#     4  10  25  48  65  94 148 197 230 286 360 438
#     4  11  26  46  68  96 144 189 234 289 357 424
#     4   9  17  35  60  96 138 170 217 288 352 405
#     4  10  23  43  72 101 138 187 238 291 356 423
#
# _framework density 27.040883000000001
#
# number of rings (size 3 to 8) (size 9 to 14) (size 15 to 20)
#    0.000    1.750    2.500    0.750    7.000    1.000 
#    4.500    0.000    0.000    4.500    0.000    0.000 
#    0.000    0.000    0.000    0.000    0.000    0.000 
#
# Total GULP energy -89416.611617 kJ/mol
# GULP energy per Si atom -5588.538226 kJ/mol
# Density = 2.697934 g / cm^3
# Si number density = 27.040883 Si / 1000 Ang^3
#
#
#
# Elastic Constant Matrix: (Units=GPa)
#
#
# Indices 1 2 3 4 5 6 
#
# 1 129.6079 45.5998 26.5801 -14.4826 18.5906 -2.3067
# 2 45.5998 141.9157 71.8565 -59.9211 -4.8738 12.8003
# 3 26.5801 71.8565 83.7990 -32.9327 14.1859 5.5206
# 4 -14.4826 -59.9211 -32.9327 54.2233 -11.8508 3.4574
# 5 18.5906 -4.8738 14.1859 -11.8508 38.7368 -16.8163
# 6 -2.3067 12.8003 5.5206 3.4574 -16.8163 44.5327
#
#
#
# Elastic Compliance Matrix: (Units=1/GPa)
#
#
# Indices 1 2 3 4 5 6 
#
# 1 0.010301 -0.006775 0.001865 -0.005395 -0.008338 -0.000480
# 2 -0.006775 0.028053 -0.015717 0.023957 0.019438 -0.000986
# 3 0.001865 -0.015717 0.026084 -0.004150 -0.015496 -0.004149
# 4 -0.005395 0.023957 -0.004150 0.045469 0.019871 -0.002678
# 5 -0.008338 0.019438 -0.015496 0.019871 0.049718 0.013133
# 6 -0.000480 -0.000986 -0.004149 -0.002678 0.013133 0.028396
#
#
# Mechanical properties :
#
#
# Convention : Reuss Voigt Hill
#
# Bulk Modulus (GPa) = 43.13123 71.48840 57.30981
# Shear Modulus (GPa) = 21.09673 41.58430 31.34052
#
# Velocity S-wave (km/s) = 2.79620 3.92577 3.40811
# Velocity P-wave (km/s) = 5.13906 6.85882 6.06026
#
# Compressibility (1/GPa) = 0.02318506
#
# Stress axis : x y z
#
# Youngs Moduli (GPa) = 97.07336 35.64643 38.33733
#
# Poissons Ratio (x) = 0.24152 -0.07151
# Poissons Ratio (y) = 0.65772 0.60254
# Poissons Ratio (z) = -0.18108 0.56025
#
# Static dielectric constant tensor:
#      x y z
#    x 2.184210 0.005910 -0.021970 
#    y 0.005910 2.229590 0.096150 
#    z -0.021970 0.096150 2.152790 
# 
# From -- ./inp_files/520790.got.cif
#   From: 2010.05.17/outbox.cif.g08.bks.cpg/sg2_261_cif.got.tgz:520790.got - 2010.06.03 11:33:40.
