data_PCOD9099417
_publ_section_title
;
Structure prediction by ZEFSAII (Michael W. Deem and Ramdas Pophale) SiO2 
 PCOD9099417
Probable space group: P -1
;
_chemical_formula_sum "Si O2"
_cell_formula_units_Z 16
_cell_length_a 5.592121
_cell_length_b 18.310071
_cell_length_c 15.700036
_cell_angle_alpha 30.510486
_cell_angle_beta 56.045186
_cell_angle_gamma 49.787118
_cell_volume 623.244132
_symmetry_space_group_name_H-M "P -1"
_symmetry_group_IT_number 2
_symmetry_cell_setting 'triclinic'
loop_
_space_group_symop_operation_xyz
x,y,z
-x,-y,-z
loop_
_atom_site_type_symbol
_atom_site_label
_atom_site_fract_x
_atom_site_fract_y
_atom_site_fract_z
Si Si1 0.102884 0.016362 0.307441
Si Si2 0.469392 0.180596 0.331660
Si Si3 0.545676 0.695448 0.616147
Si Si4 0.125245 0.261610 0.660095
Si Si5 0.175610 0.284639 0.966796
Si Si6 0.785557 0.178602 0.669105
Si Si7 0.495652 0.532369 0.369356
Si Si8 0.437525 0.390455 0.971945
O O1 0.279024 0.861046 0.479712
O O2 0.996571 0.953936 0.305439
O O3 0.319659 0.103523 0.145099
O O4 0.841922 0.140543 0.292758
O O5 0.317654 0.267323 0.360801
O O6 0.500000 0.000000 0.500000
O O7 0.343645 0.303931 0.155567
O O8 0.773702 0.662349 0.521296
O O9 0.404081 0.569179 0.795193
O O10 0.444191 0.170608 0.739036
O O11 0.946592 0.169141 0.737560
O O12 0.876349 0.376068 0.661522
O O13 0.339348 0.350505 0.798832
O O14 0.246444 0.366804 0.953693
O O15 0.822984 0.315378 0.974662
O O16 0.679904 0.357593 0.473717
O O17 0.500000 0.500000 0.500000
#
# Coordination Sequence:
#
# PCOD9099417 Si02
#       8
#     2   2   2   2   2   2   2   2
#     4  10  23  42  66  97 136 177 216 271 338 397
#     4  11  23  41  67 100 136 177 218 272 337 397
#     4  11  22  42  66  97 132 177 225 275 323 393
#     4  10  21  36  61  92 124 164 216 266 314 372
#     4  11  24  44  67  98 137 174 217 277 334 392
#     4  10  20  37  60  88 123 164 211 260 314 382
#     4  10  21  40  66  97 129 174 221 270 326 389
#     4  11  25  44  68  99 132 175 225 273 328 396
#
# _framework density 25.672124
#
# number of rings (size 3 to 8) (size 9 to 14) (size 15 to 20)
#    0.000    1.500    0.000    5.625    0.000    7.000 
#    0.000    8.750    0.000    1.500    0.000    0.000 
#    0.000    0.000    0.000    0.000    0.000    0.000 
#
# Total GULP energy -89186.811270 kJ/mol
# GULP energy per Si atom -5574.175704 kJ/mol
# Density = 2.561369 g / cm^3
# Si number density = 25.672124 Si / 1000 Ang^3
#
#
#
# Elastic Constant Matrix: (Units=GPa)
#
#
# Indices 1 2 3 4 5 6 
#
# 1 117.6425 23.7187 1.4031 0.7817 -7.6652 4.2031
# 2 23.7187 103.9118 27.9716 -3.3523 -13.4821 0.6610
# 3 1.4031 27.9716 152.0777 -9.0046 -2.9864 18.5897
# 4 0.7817 -3.3523 -9.0046 33.5689 4.1130 -0.3927
# 5 -7.6652 -13.4821 -2.9864 4.1130 38.1755 -5.1504
# 6 4.2031 0.6610 18.5897 -0.3927 -5.1504 42.8514
#
#
#
# Elastic Compliance Matrix: (Units=1/GPa)
#
#
# Indices 1 2 3 4 5 6 
#
# 1 0.009009 -0.002036 0.000396 -0.000446 0.001047 -0.000902
# 2 -0.002036 0.011110 -0.002113 0.000175 0.003515 0.001369
# 3 0.000396 -0.002113 0.007460 0.001831 -0.000727 -0.003313
# 4 -0.000446 0.000175 0.001831 0.030704 -0.003310 -0.000870
# 5 0.001047 0.003515 -0.000727 -0.003310 0.028425 0.003545
# 6 -0.000902 0.001369 -0.003313 -0.000870 0.003545 0.025259
#
#
# Mechanical properties :
#
#
# Convention : Reuss Voigt Hill
#
# Bulk Modulus (GPa) = 49.81596 53.31319 51.56458
# Shear Modulus (GPa) = 39.63124 44.28839 41.95982
#
# Velocity S-wave (km/s) = 3.93332 4.15800 4.04722
# Velocity P-wave (km/s) = 6.33046 6.62299 6.47838
#
# Compressibility (1/GPa) = 0.02007389
#
# Stress axis : x y z
#
# Youngs Moduli (GPa) = 110.99404 90.00938 134.05521
#
# Poissons Ratio (x) = 0.18324 -0.05305
# Poissons Ratio (y) = 0.22596 0.28320
# Poissons Ratio (z) = -0.04393 0.19015
#
# Static dielectric constant tensor:
#      x y z
#    x 2.148680 -0.035020 -0.031570 
#    y -0.035020 2.192770 0.022280 
#    z -0.031570 0.022280 2.078300 
# 
# From -- ./inp_files/550744.got.cif
#   From: 2010.05.17/outbox.cif.g08.bks.cpg/sg2_276_cif.got.tgz:550744.got - 2010.06.03 11:33:40.
