data_PCOD9099200
_publ_section_title
;
Structure prediction by ZEFSAII (Michael W. Deem and Ramdas Pophale) SiO2 
 PCOD9099200
Probable space group: P -1
;
_chemical_formula_sum "Si O2"
_cell_formula_units_Z 14
_cell_length_a 10.930174
_cell_length_b 7.435458
_cell_length_c 9.933863
_cell_angle_alpha 80.751100
_cell_angle_beta 43.518379
_cell_angle_gamma 81.367697
_cell_volume 548.023570
_symmetry_space_group_name_H-M "P -1"
_symmetry_group_IT_number 2
_symmetry_cell_setting 'triclinic'
loop_
_space_group_symop_operation_xyz
x,y,z
-x,-y,-z
loop_
_atom_site_type_symbol
_atom_site_label
_atom_site_fract_x
_atom_site_fract_y
_atom_site_fract_z
Si Si1 0.527111 0.586153 0.612439
Si Si2 0.261941 0.005455 0.183568
Si Si3 0.413856 0.379617 0.966324
Si Si4 0.706556 0.928359 0.360739
Si Si5 0.975840 0.484227 0.858352
Si Si6 0.864271 0.177871 0.433158
Si Si7 0.216930 0.846987 0.956659
O O1 0.500000 0.500000 0.500000
O O2 0.530629 0.425314 0.737448
O O3 0.683385 0.725560 0.458618
O O4 0.356217 0.714156 0.780598
O O5 0.064418 0.102013 0.315047
O O6 0.248527 0.880364 0.340442
O O7 0.392266 0.172948 0.057170
O O8 0.285775 0.889341 0.043292
O O9 0.500000 0.500000 0.000000
O O10 0.213448 0.441318 0.066771
O O11 0.500000 0.000000 0.500000
O O12 0.794475 0.060393 0.379857
O O13 0.792893 0.965384 0.141656
O O14 0.113896 0.615110 0.660669
O O15 0.958240 0.267284 0.875335
O O16 0.000000 0.500000 0.000000
#
# Coordination Sequence:
#
# PCOD9099200 Si02
#       7
#     2   2   2   2   2   2   2
#     4  10  21  39  61  88 128 167 211 262 322 381
#     4  10  22  40  62  94 127 166 212 260 319 381
#     4  10  21  40  66  92 129 169 211 263 322 384
#     4  10  20  37  59  89 121 159 214 259 310 375
#     4  10  20  40  64  89 129 165 213 263 321 378
#     4  10  21  40  63  88 126 167 208 258 320 383
#     4  10  21  39  62  93 124 163 216 264 315 377
#
# _framework density 25.546348999999999
#
# number of rings (size 3 to 8) (size 9 to 14) (size 15 to 20)
#    0.000    2.000    1.429    1.714    0.000    1.143 
#    5.143   17.143    0.000    0.000    0.000    0.000 
#    0.000    0.000    0.000    0.000    0.000    0.000 
#
# Total GULP energy -78321.648745 kJ/mol
# GULP energy per Si atom -5594.403482 kJ/mol
# Density = 2.548820 g / cm^3
# Si number density = 25.546349 Si / 1000 Ang^3
#
#
#
# Elastic Constant Matrix: (Units=GPa)
#
#
# Indices 1 2 3 4 5 6 
#
# 1 123.1485 62.8754 80.7662 -24.7128 9.7370 19.9692
# 2 62.8754 173.5912 95.3886 -47.9474 9.2872 24.2803
# 3 80.7662 95.3886 239.1608 -45.2323 15.2023 35.7010
# 4 -24.7128 -47.9474 -45.2323 65.2959 9.8216 -2.0975
# 5 9.7370 9.2872 15.2023 9.8216 57.7068 -3.5828
# 6 19.9692 24.2803 35.7010 -2.0975 -3.5828 66.4377
#
#
#
# Elastic Compliance Matrix: (Units=1/GPa)
#
#
# Indices 1 2 3 4 5 6 
#
# 1 0.011412 -0.002213 -0.002492 0.001104 -0.001182 -0.001311
# 2 -0.002213 0.009140 -0.001596 0.004958 -0.001630 -0.001749
# 3 -0.002492 -0.001596 0.006591 0.002627 -0.001644 -0.002215
# 4 0.001104 0.004958 0.002627 0.021935 -0.005606 -0.003165
# 5 -0.001182 -0.001630 -0.001644 -0.005606 0.019346 0.002701
# 6 -0.001311 -0.001749 -0.002215 -0.003165 0.002701 0.017321
#
#
# Mechanical properties :
#
#
# Convention : Reuss Voigt Hill
#
# Bulk Modulus (GPa) = 68.76201 112.66233 90.71217
# Shear Modulus (GPa) = 48.45282 57.67941 53.06612
#
# Velocity S-wave (km/s) = 4.35979 4.75682 4.56263
# Velocity P-wave (km/s) = 7.23317 8.62361 7.95881
#
# Compressibility (1/GPa) = 0.01454291
#
# Stress axis : x y z
#
# Youngs Moduli (GPa) = 87.62893 109.40565 151.71364
#
# Poissons Ratio (x) = 0.24207 0.37801
# Poissons Ratio (y) = 0.19389 0.24214
# Poissons Ratio (z) = 0.21834 0.17462
#
# Static dielectric constant tensor:
#      x y z
#    x 2.293230 -0.274950 -0.107600 
#    y -0.274950 2.128380 0.014850 
#    z -0.107600 0.014850 2.022340 
# 
# From -- ./inp_files/234101.got.cif
#   From: 2010.05.17/outbox.cif.g08.bks.cpg/sg2_118_cif.got.tgz:234101.got - 2010.06.03 11:33:40.
