data_PCOD9099114
_publ_section_title
;
Structure prediction by ZEFSAII (Michael W. Deem and Ramdas Pophale) SiO2 
 PCOD9099114
Probable space group: P -1
;
_chemical_formula_sum "Si O2"
_cell_formula_units_Z 15
_cell_length_a 4.941341
_cell_length_b 12.602501
_cell_length_c 11.677765
_cell_angle_alpha 68.157791
_cell_angle_beta 75.167210
_cell_angle_gamma 110.767711
_cell_volume 564.595621
_symmetry_space_group_name_H-M "P -1"
_symmetry_group_IT_number 2
_symmetry_cell_setting 'triclinic'
loop_
_space_group_symop_operation_xyz
x,y,z
-x,-y,-z
loop_
_atom_site_type_symbol
_atom_site_label
_atom_site_fract_x
_atom_site_fract_y
_atom_site_fract_z
Si Si1 0.500000 0.000000 0.500000
Si Si2 0.367163 0.639473 0.334784
Si Si3 0.658508 0.642954 0.986128
Si Si4 0.148799 0.920687 0.322486
Si Si5 0.212706 0.062642 0.839649
Si Si6 0.008538 0.583981 0.158067
Si Si7 0.112244 0.705780 0.719971
Si Si8 0.840072 0.637113 0.542814
O O1 0.278164 0.964721 0.418885
O O2 0.401602 0.842957 0.588464
O O3 0.665996 0.782539 0.226458
O O4 0.122469 0.611706 0.265791
O O5 0.421040 0.514894 0.388398
O O6 0.172694 0.641723 0.466864
O O7 0.961695 0.733426 0.837513
O O8 0.500000 0.500000 0.000000
O O9 0.358163 0.665263 0.022814
O O10 0.787294 0.630511 0.100532
O O11 0.459715 0.943326 0.206001
O O12 0.980158 0.985609 0.241052
O O13 0.881219 0.764884 0.424667
O O14 0.000000 0.000000 0.000000
O O15 0.862912 0.426245 0.214316
O O16 0.847561 0.660751 0.666524
#
# Coordination Sequence:
#
# PCOD9099114 Si02
#       8
#     1   2   2   2   2   2   2   2
#     4  10  22  42  64  90 124 166 204 250 304 364
#     4   9  19  37  62  90 121 156 199 248 302 358
#     4  10  20  37  59  85 119 156 195 248 300 350
#     4  10  23  43  64  90 122 161 207 252 302 360
#     4  11  24  42  64  91 125 162 203 251 304 365
#     4  10  21  37  62  90 118 154 198 249 302 355
#     4   9  18  36  60  87 120 155 199 244 296 357
#     4   8  17  38  62  89 118 155 198 247 298 352
#
# _framework density 26.567686999999999
#
# number of rings (size 3 to 8) (size 9 to 14) (size 15 to 20)
#    0.000    2.400    0.000    2.000    0.000    5.333 
#    0.000   49.333    0.000    0.000    0.000    0.000 
#    0.000    0.000    0.000    0.000    0.000    0.000 
#
# Total GULP energy -83668.256299 kJ/mol
# GULP energy per Si atom -5577.883753 kJ/mol
# Density = 2.650722 g / cm^3
# Si number density = 26.567687 Si / 1000 Ang^3
#
#
#
# Elastic Constant Matrix: (Units=GPa)
#
#
# Indices 1 2 3 4 5 6 
#
# 1 102.7820 29.7656 29.9893 2.9977 6.8303 15.7891
# 2 29.7656 118.3962 40.0496 -16.1026 11.2083 13.4880
# 3 29.9893 40.0496 137.6654 1.9095 6.5914 14.6446
# 4 2.9977 -16.1026 1.9095 28.4138 6.2800 4.2016
# 5 6.8303 11.2083 6.5914 6.2800 29.6362 7.2019
# 6 15.7891 13.4880 14.6446 4.2016 7.2019 21.5628
#
#
#
# Elastic Compliance Matrix: (Units=1/GPa)
#
#
# Indices 1 2 3 4 5 6 
#
# 1 0.011666 -0.001994 -0.001290 -0.001392 0.000154 -0.006199
# 2 -0.001994 0.011888 -0.002454 0.008726 -0.004222 -0.004600
# 3 -0.001290 -0.002454 0.008602 -0.001445 0.000400 -0.003214
# 4 -0.001392 0.008726 -0.001445 0.043845 -0.009830 -0.008718
# 5 0.000154 -0.004222 0.000400 -0.009830 0.039489 -0.009017
# 6 -0.006199 -0.004600 -0.003214 -0.008718 -0.009017 0.060686
#
#
# Mechanical properties :
#
#
# Convention : Reuss Voigt Hill
#
# Bulk Modulus (GPa) = 48.35525 62.05029 55.20277
# Shear Modulus (GPa) = 25.70114 33.19183 29.44648
#
# Velocity S-wave (km/s) = 3.11365 3.53842 3.33281
# Velocity P-wave (km/s) = 5.58272 6.33247 5.96938
#
# Compressibility (1/GPa) = 0.02068028
#
# Stress axis : x y z
#
# Youngs Moduli (GPa) = 85.72065 84.11859 116.25710
#
# Poissons Ratio (x) = 0.16775 0.14995
# Poissons Ratio (y) = 0.17094 0.28525
# Poissons Ratio (z) = 0.11056 0.20639
#
# Static dielectric constant tensor:
#      x y z
#    x 2.038130 -0.030870 -0.057940 
#    y -0.030870 2.069290 0.025820 
#    z -0.057940 0.025820 2.136750 
# 
# From -- ./inp_files/366188.got.cif
#   From: 2010.05.17/outbox.cif.g08.bks.cpg/sg2_184_cif.got.tgz:366188.got - 2010.06.03 11:33:40.
