data_PCOD9099664
_publ_section_title
;
Structure prediction by ZEFSAII (Michael W. Deem and Ramdas Pophale) SiO2 
 PCOD9099664
Probable space group: P -1
;
_chemical_formula_sum "Si O2"
_cell_formula_units_Z 16
_cell_length_a 9.397701
_cell_length_b 7.879932
_cell_length_c 12.179266
_cell_angle_alpha 81.119022
_cell_angle_beta 80.810130
_cell_angle_gamma 86.225218
_cell_volume 878.879182
_symmetry_space_group_name_H-M "P -1"
_symmetry_group_IT_number 2
_symmetry_cell_setting 'triclinic'
loop_
_space_group_symop_operation_xyz
x,y,z
-x,-y,-z
loop_
_atom_site_type_symbol
_atom_site_label
_atom_site_fract_x
_atom_site_fract_y
_atom_site_fract_z
Si Si1 0.903516 0.476859 0.404016
Si Si2 0.550062 0.032046 0.612784
Si Si3 0.484408 0.159510 0.146265
Si Si4 0.589907 0.593866 0.386811
Si Si5 0.556940 0.474733 0.798732
Si Si6 0.863633 0.338732 0.741684
Si Si7 0.335042 0.858230 0.074579
Si Si8 0.128339 0.874534 0.457064
O O1 0.755782 0.590309 0.403196
O O2 0.857111 0.281207 0.441341
O O3 0.000000 0.500000 0.500000
O O4 0.006512 0.532468 0.286490
O O5 0.483075 0.217516 0.636417
O O6 0.722378 0.034421 0.585699
O O7 0.500000 0.000000 0.500000
O O8 0.502967 0.900666 0.723782
O O9 0.443273 0.361774 0.138281
O O10 0.370019 0.034030 0.115482
O O11 0.628247 0.127302 0.058975
O O12 0.500000 0.500000 0.500000
O O13 0.564321 0.505350 0.281277
O O14 0.714794 0.449658 0.723740
O O15 0.550690 0.292380 0.880505
O O16 0.814925 0.223176 0.862081
O O17 0.898653 0.209691 0.650044
O O18 0.000000 0.000000 0.500000
#
# Coordination Sequence:
#
# PCOD9099664 Si02
#       8
#     2   2   2   2   2   2   2   2
#     4  10  22  35  55  77 112 171 194 233 309 351
#     4  12  24  36  56  95 121 158 198 253 307 355
#     4  11  20  36  64  94 117 159 197 256 310 347
#     4  12  20  39  56  81 127 155 202 256 293 366
#     4  10  20  37  61  88 119 153 203 252 306 349
#     4   9  19  39  53  83 117 152 204 240 297 358
#     4   9  20  38  62  91 123 146 212 254 291 372
#     4  11  22  36  52  84 124 154 202 245 294 370
#
# _framework density 18.205006000000001
#
# number of rings (size 3 to 8) (size 9 to 14) (size 15 to 20)
#    0.750    0.750    5.000    1.875    5.250    0.000 
#    0.000    0.000    0.000    1.500    3.250    0.000 
#    0.000    0.000    0.000    0.000    0.000    0.000 
#
# Total GULP energy -89067.480420 kJ/mol
# GULP energy per Si atom -5566.717526 kJ/mol
# Density = 1.816357 g / cm^3
# Si number density = 18.205006 Si / 1000 Ang^3
#
#
#
# Elastic Constant Matrix: (Units=GPa)
#
#
# Indices 1 2 3 4 5 6 
#
# 1 75.9992 4.5671 31.2669 -3.3658 -16.3825 -8.6793
# 2 4.5671 69.8435 17.6360 17.2104 -2.4217 -0.0640
# 3 31.2669 17.6360 92.4435 1.4767 -19.4537 11.8132
# 4 -3.3658 17.2104 1.4767 28.7568 6.8183 -9.9801
# 5 -16.3825 -2.4217 -19.4537 6.8183 28.6610 -2.7168
# 6 -8.6793 -0.0640 11.8132 -9.9801 -2.7168 26.2245
#
#
#
# Elastic Compliance Matrix: (Units=1/GPa)
#
#
# Indices 1 2 3 4 5 6 
#
# 1 0.018833 -0.000765 -0.006587 0.005744 0.006001 0.012006
# 2 -0.000765 0.018088 -0.001982 -0.012743 0.002406 -0.003916
# 3 -0.006587 -0.001982 0.016577 -0.006152 0.007721 -0.011193
# 4 0.005744 -0.012743 -0.006152 0.054793 -0.012712 0.024176
# 5 0.006001 0.002406 0.007721 -0.012712 0.046648 -0.001491
# 6 0.012006 -0.003916 -0.011193 0.024176 -0.001491 0.056185
#
#
# Mechanical properties :
#
#
# Convention : Reuss Voigt Hill
#
# Bulk Modulus (GPa) = 28.70996 38.35846 33.53421
# Shear Modulus (GPa) = 20.71241 29.04955 24.88098
#
# Velocity S-wave (km/s) = 3.37669 3.99894 3.70092
# Velocity P-wave (km/s) = 5.56842 6.51445 6.05992
#
# Compressibility (1/GPa) = 0.03483112
#
# Stress axis : x y z
#
# Youngs Moduli (GPa) = 53.09805 55.28535 60.32454
#
# Poissons Ratio (x) = 0.04227 0.39737
# Poissons Ratio (y) = 0.04059 0.11955
# Poissons Ratio (z) = 0.34977 0.10956
#
# Static dielectric constant tensor:
#      x y z
#    x 1.643140 0.045830 0.009510 
#    y 0.045830 1.683330 -0.005370 
#    z 0.009510 -0.005370 1.694440 
# 
# From -- ./inp_files/376347.got.cif
#   From: 2010.05.17/outbox.cif.g08.bks.cpg/sg2_189_cif.got.tgz:376347.got - 2010.06.03 11:33:40.
