data_PCOD9099219
_publ_section_title
;
Structure prediction by ZEFSAII (Michael W. Deem and Ramdas Pophale) SiO2 
 PCOD9099219
Probable space group: P -1
;
_chemical_formula_sum "Si O2"
_cell_formula_units_Z 13
_cell_length_a 19.148937
_cell_length_b 5.684358
_cell_length_c 7.847809
_cell_angle_alpha 58.074770
_cell_angle_beta 132.181656
_cell_angle_gamma 110.445854
_cell_volume 537.229781
_symmetry_space_group_name_H-M "P -1"
_symmetry_group_IT_number 2
_symmetry_cell_setting 'triclinic'
loop_
_space_group_symop_operation_xyz
x,y,z
-x,-y,-z
loop_
_atom_site_type_symbol
_atom_site_label
_atom_site_fract_x
_atom_site_fract_y
_atom_site_fract_z
Si Si1 0.448261 0.589687 0.552171
Si Si2 0.000000 0.000000 0.500000
Si Si3 0.153341 0.614355 0.923301
Si Si4 0.227268 0.614033 0.672979
Si Si5 0.637753 0.841787 0.844692
Si Si6 0.974558 0.227017 0.735120
Si Si7 0.699994 0.804537 0.563077
O O1 0.500000 0.500000 0.500000
O O2 0.533218 0.716282 0.751703
O O3 0.388517 0.335638 0.622348
O O4 0.375526 0.831033 0.284039
O O5 0.104202 0.895554 0.799626
O O6 0.041241 0.929472 0.407591
O O7 0.215561 0.652622 0.842416
O O8 0.059801 0.440085 0.784843
O O9 0.212156 0.411538 0.221746
O O10 0.119667 0.601371 0.436093
O O11 0.273932 0.889379 0.569803
O O12 0.288271 0.335866 0.857101
O O13 0.669594 0.817811 0.707451
O O14 0.000000 0.000000 0.000000
#
# Coordination Sequence:
#
# PCOD9099219 Si02
#       7
#     2   1   2   2   2   2   2
#     4   9  19  39  62  85 121 159 204 264 325 391
#     4  10  22  38  64  90 122 178 220 262 326 380
#     4  10  22  40  59  89 131 166 215 269 318 381
#     4  10  20  38  62  88 124 167 210 265 323 378
#     4   9  20  39  62  85 120 165 205 262 328 386
#     4  11  22  42  64  90 133 176 218 271 319 383
#     4  10  20  37  59  90 123 161 211 264 321 385
#
# _framework density 24.198214
#
# number of rings (size 3 to 8) (size 9 to 14) (size 15 to 20)
#    0.000    2.154    1.538    1.846    0.000    4.923 
#    0.000   14.615    0.000    0.000    0.000    0.000 
#    0.000    0.000    0.000    0.000    0.000    0.000 
#
# Total GULP energy -72401.625096 kJ/mol
# GULP energy per Si atom -5569.355777 kJ/mol
# Density = 2.414314 g / cm^3
# Si number density = 24.198214 Si / 1000 Ang^3
#
#
#
# Elastic Constant Matrix: (Units=GPa)
#
#
# Indices 1 2 3 4 5 6 
#
# 1 86.6549 36.5890 51.5141 -17.5568 12.4719 18.9244
# 2 36.5890 60.4558 24.5008 -3.1066 5.8946 25.2802
# 3 51.5141 24.5008 131.2128 -29.7517 19.8645 -1.8868
# 4 -17.5568 -3.1066 -29.7517 36.3775 -5.6073 8.0713
# 5 12.4719 5.8946 19.8645 -5.6073 46.0121 -13.3071
# 6 18.9244 25.2802 -1.8868 8.0713 -13.3071 37.3074
#
#
#
# Elastic Compliance Matrix: (Units=1/GPa)
#
#
# Indices 1 2 3 4 5 6 
#
# 1 0.021523 -0.005527 -0.005130 0.007334 -0.005158 -0.010859
# 2 -0.005527 0.030278 -0.002361 0.001477 -0.007171 -0.020711
# 3 -0.005130 -0.002361 0.011761 0.006029 -0.001828 0.002841
# 4 0.007334 0.001477 0.006029 0.038604 -0.004202 -0.014267
# 5 -0.005158 -0.007171 -0.001828 -0.004202 0.029800 0.018921
# 6 -0.010859 -0.020711 0.002841 -0.014267 0.018921 0.056326
#
#
# Mechanical properties :
#
#
# Convention : Reuss Voigt Hill
#
# Bulk Modulus (GPa) = 26.64828 55.94792 41.29810
# Shear Modulus (GPa) = 22.04232 34.98737 28.51485
#
# Velocity S-wave (km/s) = 3.02140 3.80658 3.43649
# Velocity P-wave (km/s) = 4.81749 6.51851 5.73145
#
# Compressibility (1/GPa) = 0.03752588
#
# Stress axis : x y z
#
# Youngs Moduli (GPa) = 46.46168 33.02704 85.02723
#
# Poissons Ratio (x) = 0.18253 0.43622
# Poissons Ratio (y) = 0.25678 0.20077
# Poissons Ratio (z) = 0.23837 0.07798
#
# Static dielectric constant tensor:
#      x y z
#    x 1.897330 0.017420 0.043610 
#    y 0.017420 2.058870 0.000870 
#    z 0.043610 0.000870 2.089110 
# 
# From -- ./inp_files/50148.got.cif
#   From: 2010.05.17/outbox.cif.g08.bks.cpg/sg2_26_cif.got.tgz:50148.got - 2010.06.03 11:33:40.
