data_PCOD9099477
_publ_section_title
;
Structure prediction by ZEFSAII (Michael W. Deem and Ramdas Pophale) SiO2 
 PCOD9099477
Probable space group: P -1
;
_chemical_formula_sum "Si O2"
_cell_formula_units_Z 14
_cell_length_a 15.749843
_cell_length_b 9.589951
_cell_length_c 11.396921
_cell_angle_alpha 50.902724
_cell_angle_beta 58.543740
_cell_angle_gamma 100.699120
_cell_volume 716.621744
_symmetry_space_group_name_H-M "P -1"
_symmetry_group_IT_number 2
_symmetry_cell_setting 'triclinic'
loop_
_space_group_symop_operation_xyz
x,y,z
-x,-y,-z
loop_
_atom_site_type_symbol
_atom_site_label
_atom_site_fract_x
_atom_site_fract_y
_atom_site_fract_z
Si Si1 0.339357 0.384497 0.184366
Si Si2 0.987698 0.729133 0.394755
Si Si3 0.182771 0.226414 0.624679
Si Si4 0.131670 0.781110 0.025333
Si Si5 0.630280 0.193330 0.701841
Si Si6 0.850980 0.155018 0.543456
Si Si7 0.656350 0.205713 0.042357
O O1 0.303866 0.360415 0.360301
O O2 0.345048 0.592721 0.015337
O O3 0.208602 0.082637 0.373375
O O4 0.500000 0.500000 0.000000
O O5 0.055571 0.711678 0.246276
O O6 0.095863 0.855753 0.364003
O O7 0.969460 0.903581 0.262784
O O8 0.805093 0.424957 0.724793
O O9 0.250728 0.477420 0.527796
O O10 0.152803 0.000646 0.832771
O O11 0.289465 0.884477 0.869778
O O12 0.005300 0.475729 0.215369
O O13 0.720895 0.130472 0.663330
O O14 0.500000 0.000000 0.000000
O O15 0.517489 0.069453 0.737869
#
# Coordination Sequence:
#
# PCOD9099477 Si02
#       7
#     2   2   2   2   2   2   2
#     4  11  22  41  61  89 116 157 206 244 286 359
#     4  10  20  37  60  91 116 153 200 244 285 351
#     4  11  24  36  64  89 123 153 199 244 301 349
#     4  11  22  39  58  93 125 152 192 253 297 349
#     4  12  18  36  62  89 110 158 199 247 290 340
#     4  11  22  36  66  84 120 159 199 241 298 344
#     4  10  21  36  63  86 120 156 203 241 290 350
#
# _framework density 19.536107999999999
#
# number of rings (size 3 to 8) (size 9 to 14) (size 15 to 20)
#    0.000    1.143    5.714    3.000    0.000    6.286 
#    0.000    0.714    0.000    0.000    0.000    0.000 
#    0.000    0.000    0.000    0.000    0.000    0.000 
#
# Total GULP energy -78072.588546 kJ/mol
# GULP energy per Si atom -5576.613468 kJ/mol
# Density = 1.949164 g / cm^3
# Si number density = 19.536108 Si / 1000 Ang^3
#
#
#
# Elastic Constant Matrix: (Units=GPa)
#
#
# Indices 1 2 3 4 5 6 
#
# 1 180.1215 42.8483 49.2636 -21.8006 -4.4829 -27.9587
# 2 42.8483 90.9144 22.9109 -25.7031 -1.5401 -15.6815
# 3 49.2636 22.9109 33.5791 -19.3683 1.0796 0.1942
# 4 -21.8006 -25.7031 -19.3683 34.5285 -9.5949 -5.6168
# 5 -4.4829 -1.5401 1.0796 -9.5949 39.5775 -4.5463
# 6 -27.9587 -15.6815 0.1942 -5.6168 -4.5463 30.4526
#
#
#
# Elastic Compliance Matrix: (Units=1/GPa)
#
#
# Indices 1 2 3 4 5 6 
#
# 1 0.012856 0.001841 -0.019046 0.002229 0.004186 0.013908
# 2 0.001841 0.019202 -0.006858 0.016044 0.006824 0.015600
# 3 -0.019046 -0.006858 0.075112 0.021792 -0.001219 -0.017659
# 4 0.002229 0.016044 0.021792 0.063711 0.018565 0.024692
# 5 0.004186 0.006824 -0.001219 0.018565 0.032334 0.015616
# 6 0.013908 0.015600 -0.017659 0.024692 0.015616 0.060639
#
#
# Mechanical properties :
#
#
# Convention : Reuss Voigt Hill
#
# Bulk Modulus (GPa) = 16.93645 59.40672 38.17158
# Shear Modulus (GPa) = 15.07560 33.55119 24.31339
#
# Velocity S-wave (km/s) = 2.78092 4.14864 3.53163
# Velocity P-wave (km/s) = 4.35884 7.30910 6.01758
#
# Compressibility (1/GPa) = 0.05904427
#
# Stress axis : x y z
#
# Youngs Moduli (GPa) = 77.78551 52.07740 13.31341
#
# Poissons Ratio (x) = -0.09587 0.25357
# Poissons Ratio (y) = -0.14319 0.09130
# Poissons Ratio (z) = 1.48149 0.35715
#
# Static dielectric constant tensor:
#      x y z
#    x 1.750990 0.008750 0.005280 
#    y 0.008750 1.709750 0.000560 
#    z 0.005280 0.000560 1.701790 
# 
# From -- ./inp_files/154006.got.cif
#   From: 2010.05.17/outbox.cif.g08.bks.cpg/sg2_78_cif.got.tgz:154006.got - 2010.06.03 11:33:40.
