data_PCOD9099201
_publ_section_title
;
Structure prediction by ZEFSAII (Michael W. Deem and Ramdas Pophale) SiO2 
 PCOD9099201
Probable space group: P -1
;
_chemical_formula_sum "Si O2"
_cell_formula_units_Z 14
_cell_length_a 11.370377
_cell_length_b 9.778979
_cell_length_c 9.179092
_cell_angle_alpha 83.496679
_cell_angle_beta 127.248853
_cell_angle_gamma 73.521712
_cell_volume 722.747573
_symmetry_space_group_name_H-M "P -1"
_symmetry_group_IT_number 2
_symmetry_cell_setting 'triclinic'
loop_
_space_group_symop_operation_xyz
x,y,z
-x,-y,-z
loop_
_atom_site_type_symbol
_atom_site_label
_atom_site_fract_x
_atom_site_fract_y
_atom_site_fract_z
Si Si1 0.688570 0.775055 0.260765
Si Si2 0.834835 0.109810 0.948758
Si Si3 0.219442 0.550441 0.106801
Si Si4 0.660386 0.920862 0.725550
Si Si5 0.867468 0.645904 0.711528
Si Si6 0.682790 0.081340 0.116136
Si Si7 0.580026 0.706069 0.908969
O O1 0.787169 0.691508 0.487254
O O2 0.697779 0.666407 0.144666
O O3 0.737324 0.909218 0.233526
O O4 0.488182 0.866641 0.111980
O O5 0.787572 0.288128 0.874264
O O6 0.821023 0.089008 0.115586
O O7 0.709790 0.050693 0.797137
O O8 0.000000 0.000000 0.000000
O O9 0.379231 0.437406 0.148088
O O10 0.064048 0.575350 0.883503
O O11 0.195650 0.465151 0.241046
O O12 0.801479 0.797580 0.744573
O O13 0.500000 0.000000 0.500000
O O14 0.625031 0.825151 0.837715
O O15 0.605718 0.201697 0.177749
#
# Coordination Sequence:
#
# PCOD9099201 Si02
#       7
#     2   2   2   2   2   2   2
#     4   9  17  37  66  88 111 162 205 250 279 362
#     4  12  22  39  60  90 125 157 192 260 309 344
#     4  10  23  37  56  89 127 160 196 247 301 362
#     4  11  20  37  68  89 111 161 211 243 290 359
#     4  10  20  37  59  89 121 161 207 233 301 363
#     4   9  18  35  62  88 114 150 207 242 298 344
#     4   9  19  38  62  87 116 162 200 244 292 359
#
# _framework density 19.370524
#
# number of rings (size 3 to 8) (size 9 to 14) (size 15 to 20)
#    0.857    1.143    2.857    1.714    0.000    1.143 
#    0.000    7.143    3.143    0.000    0.000    0.000 
#    0.000    0.000    0.000    0.000    0.000    0.000 
#
# Total GULP energy -77947.031369 kJ/mol
# GULP energy per Si atom -5567.645098 kJ/mol
# Density = 1.932644 g / cm^3
# Si number density = 19.370524 Si / 1000 Ang^3
#
#
#
# Elastic Constant Matrix: (Units=GPa)
#
#
# Indices 1 2 3 4 5 6 
#
# 1 84.5319 39.3647 16.4995 3.4959 -15.0097 -15.0621
# 2 39.3647 150.4449 15.5137 2.2992 -17.1988 -3.6597
# 3 16.4995 15.5137 102.5557 -11.5268 -23.9841 9.2312
# 4 3.4959 2.2992 -11.5268 18.9444 -0.6007 -5.6853
# 5 -15.0097 -17.1988 -23.9841 -0.6007 15.9658 -2.2881
# 6 -15.0621 -3.6597 9.2312 -5.6853 -2.2881 24.9863
#
#
#
# Elastic Compliance Matrix: (Units=1/GPa)
#
#
# Indices 1 2 3 4 5 6 
#
# 1 0.018001 -0.002584 0.000445 0.001437 0.016605 0.012156
# 2 -0.002584 0.008118 0.001100 0.000431 0.007993 0.000055
# 3 0.000445 0.001100 0.017372 0.010962 0.027979 -0.000932
# 4 0.001437 0.000431 0.010962 0.063904 0.022620 0.013492
# 5 0.016605 0.007993 0.027979 0.022620 0.132332 0.018108
# 6 0.012156 0.000055 -0.000932 0.013492 0.018108 0.052430
#
#
# Mechanical properties :
#
#
# Convention : Reuss Voigt Hill
#
# Bulk Modulus (GPa) = 24.14582 53.36538 38.75560
# Shear Modulus (GPa) = 16.23173 29.72294 22.97733
#
# Velocity S-wave (km/s) = 2.89789 3.92144 3.44786
# Velocity P-wave (km/s) = 4.86717 6.93637 5.99177
#
# Compressibility (1/GPa) = 0.04141504
#
# Stress axis : x y z
#
# Youngs Moduli (GPa) = 55.55191 123.18155 57.56396
#
# Poissons Ratio (x) = 0.31831 -0.02564
# Poissons Ratio (y) = 0.14355 -0.06335
# Poissons Ratio (z) = -0.02475 -0.13556
#
# Static dielectric constant tensor:
#      x y z
#    x 1.799150 -0.026550 0.008720 
#    y -0.026550 1.669130 0.012580 
#    z 0.008720 0.012580 1.680840 
# 
# From -- ./inp_files/234392.got.cif
#   From: 2010.05.17/outbox.cif.g08.bks.cpg/sg2_118_cif.got.tgz:234392.got - 2010.06.03 11:33:40.
