data_PCOD9099081
_publ_section_title
;
Structure prediction by ZEFSAII (Michael W. Deem and Ramdas Pophale) SiO2 
 PCOD9099081
Probable space group: P -1
;
_chemical_formula_sum "Si O2"
_cell_formula_units_Z 16
_cell_length_a 9.101720
_cell_length_b 23.145583
_cell_length_c 11.104191
_cell_angle_alpha 19.775773
_cell_angle_beta 61.637319
_cell_angle_gamma 63.104309
_cell_volume 696.344690
_symmetry_space_group_name_H-M "P -1"
_symmetry_group_IT_number 2
_symmetry_cell_setting 'triclinic'
loop_
_space_group_symop_operation_xyz
x,y,z
-x,-y,-z
loop_
_atom_site_type_symbol
_atom_site_label
_atom_site_fract_x
_atom_site_fract_y
_atom_site_fract_z
Si Si1 0.327150 0.269565 0.449568
Si Si2 0.991921 0.428402 0.279257
Si Si3 0.378382 0.537176 0.587339
Si Si4 0.053393 0.218848 0.002282
Si Si5 0.589512 0.850041 0.598009
Si Si6 0.760639 0.015910 0.432197
Si Si7 0.152099 0.574873 0.143500
Si Si8 0.508483 0.589433 0.673504
O O1 0.127950 0.273293 0.538426
O O2 0.383069 0.140048 0.576555
O O3 0.429109 0.266399 0.542236
O O4 0.357677 0.471828 0.006610
O O5 0.059020 0.575426 0.052831
O O6 0.809787 0.387223 0.486906
O O7 0.000000 0.500000 0.000000
O O8 0.500000 0.500000 0.500000
O O9 0.473067 0.642584 0.446837
O O10 0.354328 0.345127 0.019080
O O11 0.200862 0.130284 0.195110
O O12 0.941563 0.103693 0.185522
O O13 0.916276 0.275047 0.044042
O O14 0.108680 0.392250 0.578670
O O15 0.699598 0.956624 0.440583
O O16 0.398014 0.876918 0.663219
O O17 0.348965 0.559884 0.091308
#
# Coordination Sequence:
#
# PCOD9099081 Si02
#       8
#     2   2   2   2   2   2   2   2
#     4   9  18  35  57  82 121 156 199 243 303 361
#     4  11  20  36  56  96 124 154 196 254 310 365
#     4  11  23  34  60  97 127 151 197 263 314 351
#     4  10  21  38  55  89 122 160 198 254 306 359
#     4  10  20  37  59  84 117 166 205 251 296 366
#     4  10  22  37  56  86 123 168 208 243 303 380
#     4  10  22  34  63  88 123 150 199 263 305 349
#     4   9  18  33  54  88 120 150 189 253 309 354
#
# _framework density 22.977125000000001
#
# number of rings (size 3 to 8) (size 9 to 14) (size 15 to 20)
#    0.000    2.000    2.500    2.250    7.000    0.000 
#    0.000    0.000    0.000    6.000    0.000    0.000 
#    0.000    0.000    0.000    0.000    0.000    0.000 
#
# Total GULP energy -89149.285149 kJ/mol
# GULP energy per Si atom -5571.830322 kJ/mol
# Density = 2.292483 g / cm^3
# Si number density = 22.977125 Si / 1000 Ang^3
#
#
#
# Elastic Constant Matrix: (Units=GPa)
#
#
# Indices 1 2 3 4 5 6 
#
# 1 146.8755 64.7896 13.3242 0.6492 -8.3292 11.1941
# 2 64.7896 145.3527 0.3824 -1.1111 -10.2328 14.2796
# 3 13.3242 0.3824 31.6928 -4.2736 0.9976 -1.8206
# 4 0.6492 -1.1111 -4.2736 24.2257 -0.4180 -3.1686
# 5 -8.3292 -10.2328 0.9976 -0.4180 18.7908 -2.6082
# 6 11.1941 14.2796 -1.8206 -3.1686 -2.6082 48.1651
#
#
#
# Elastic Compliance Matrix: (Units=1/GPa)
#
#
# Indices 1 2 3 4 5 6 
#
# 1 0.009047 -0.003783 -0.004051 -0.001241 0.001984 -0.001109
# 2 -0.003783 0.008921 0.001386 0.000607 0.002911 -0.001516
# 3 -0.004051 0.001386 0.034309 0.006460 -0.002424 0.002121
# 4 -0.001241 0.000607 0.006460 0.042915 0.000839 0.003221
# 5 0.001984 0.002911 -0.002424 0.000839 0.056062 0.001675
# 6 -0.001109 -0.001516 0.002121 0.003221 0.001675 0.021852
#
#
# Mechanical properties :
#
#
# Convention : Reuss Voigt Hill
#
# Bulk Modulus (GPa) = 25.39372 53.43482 39.41427
# Shear Modulus (GPa) = 25.10933 34.59797 29.85365
#
# Velocity S-wave (km/s) = 3.30933 3.88462 3.60846
# Velocity P-wave (km/s) = 5.06735 6.58988 5.87812
#
# Compressibility (1/GPa) = 0.03937981
#
# Stress axis : x y z
#
# Youngs Moduli (GPa) = 110.53072 112.09683 29.14709
#
# Poissons Ratio (x) = 0.42406 0.11809
# Poissons Ratio (y) = 0.41814 -0.04040
# Poissons Ratio (z) = 0.44781 -0.15536
#
# Static dielectric constant tensor:
#      x y z
#    x 1.967480 0.015140 -0.002250 
#    y 0.015140 1.979040 0.092320 
#    z -0.002250 0.092320 1.892600 
# 
# From -- ./inp_files/406850.got.cif
#   From: 2010.05.17/outbox.cif.g08.bks.cpg/sg2_204_cif.got.tgz:406850.got - 2010.06.03 11:33:40.
