data_PCOD9099738
_publ_section_title
;
Structure prediction by ZEFSAII (Michael W. Deem and Ramdas Pophale) SiO2 
 PCOD9099738
Probable space group: P -1
;
_chemical_formula_sum "Si O2"
_cell_formula_units_Z 16
_cell_length_a 21.500601
_cell_length_b 7.822273
_cell_length_c 14.110287
_cell_angle_alpha 125.362958
_cell_angle_beta 20.256696
_cell_angle_gamma 124.822988
_cell_volume 666.723851
_symmetry_space_group_name_H-M "P -1"
_symmetry_group_IT_number 2
_symmetry_cell_setting 'triclinic'
loop_
_space_group_symop_operation_xyz
x,y,z
-x,-y,-z
loop_
_atom_site_type_symbol
_atom_site_label
_atom_site_fract_x
_atom_site_fract_y
_atom_site_fract_z
Si Si1 0.279941 0.472429 0.407613
Si Si2 0.678221 0.719475 0.906038
Si Si3 0.349725 0.655986 0.669690
Si Si4 0.464691 0.175721 0.184562
Si Si5 0.296611 0.425551 0.975538
Si Si6 0.968027 0.661458 0.012689
Si Si7 0.812499 0.980862 0.100692
Si Si8 0.480158 0.095242 0.340222
O O1 0.471011 0.610154 0.164284
O O2 0.326187 0.318070 0.377318
O O3 0.123104 0.613933 0.702068
O O4 0.234054 0.339229 0.335794
O O5 0.763414 0.640378 0.853776
O O6 0.647377 0.957930 0.042730
O O7 0.507989 0.640626 0.361354
O O8 0.250274 0.858745 0.839921
O O9 0.423921 0.695006 0.681750
O O10 0.223116 0.437748 0.783489
O O11 0.644772 0.324477 0.010168
O O12 0.393815 0.085177 0.356822
O O13 0.500000 0.000000 0.000000
O O14 0.173815 0.257943 0.031305
O O15 0.011083 0.895850 0.065193
O O16 0.000000 0.500000 0.000000
O O17 0.659396 0.979043 0.400760
#
# Coordination Sequence:
#
# PCOD9099738 Si02
#       8
#     2   2   2   2   2   2   2   2
#     4  10  20  33  54  86 105 141 183 223 271 316
#     4  10  16  31  57  79 105 134 190 230 254 315
#     4  10  19  33  59  85 113 134 179 232 275 317
#     4  11  22  32  51  82 118 142 174 229 275 316
#     4  10  19  34  56  85 108 141 181 227 270 316
#     4  10  19  34  57  84 110 139 176 233 274 315
#     4  10  17  31  56  82 104 137 184 227 265 314
#     4  11  18  33  55  83 110 142 178 227 272 313
#
# _framework density 23.997941999999998
#
# number of rings (size 3 to 8) (size 9 to 14) (size 15 to 20)
#    0.000    1.750    5.000    3.000    0.000    2.000 
#    0.000    0.625    0.000   12.000    0.000   16.625 
#    0.000    0.000    0.000    0.000    0.000    0.000 
#
# Total GULP energy -89251.251614 kJ/mol
# GULP energy per Si atom -5578.203226 kJ/mol
# Density = 2.394332 g / cm^3
# Si number density = 23.997942 Si / 1000 Ang^3
#
#
#
# Elastic Constant Matrix: (Units=GPa)
#
#
# Indices 1 2 3 4 5 6 
#
# 1 133.6620 42.3125 38.0683 6.9879 35.5903 26.6259
# 2 42.3125 128.5699 20.2621 9.0309 6.3812 45.8634
# 3 38.0683 20.2621 28.0988 -0.3397 11.8114 20.5213
# 4 6.9879 9.0309 -0.3397 27.1689 12.5140 -0.6141
# 5 35.5903 6.3812 11.8114 12.5140 35.1120 5.3951
# 6 26.6259 45.8634 20.5213 -0.6141 5.3951 51.8157
#
#
#
# Elastic Compliance Matrix: (Units=1/GPa)
#
#
# Indices 1 2 3 4 5 6 
#
# 1 0.015078 -0.002847 -0.015371 0.001771 -0.010530 0.001977
# 2 -0.002847 0.012478 0.000691 -0.005442 0.003912 -0.010327
# 3 -0.015371 0.000691 0.076022 0.008745 -0.009903 -0.021686
# 4 0.001771 -0.005442 0.008745 0.048214 -0.021430 0.003246
# 5 -0.010530 0.003912 -0.009903 -0.021430 0.049339 0.000480
# 6 0.001977 -0.010327 -0.021686 0.003246 0.000480 0.036002
#
#
# Mechanical properties :
#
#
# Convention : Reuss Voigt Hill
#
# Bulk Modulus (GPa) = 14.59330 54.62407 34.60869
# Shear Modulus (GPa) = 16.94766 35.46516 26.20641
#
# Velocity S-wave (km/s) = 2.66035 3.84844 3.30817
# Velocity P-wave (km/s) = 3.94092 6.52371 5.38932
#
# Compressibility (1/GPa) = 0.06852458
#
# Stress axis : x y z
#
# Youngs Moduli (GPa) = 66.32141 80.14250 13.15413
#
# Poissons Ratio (x) = 0.22814 0.20219
# Poissons Ratio (y) = 0.18880 -0.00909
# Poissons Ratio (z) = 1.01942 -0.05538
#
# Static dielectric constant tensor:
#      x y z
#    x 1.972810 -0.014250 -0.045240 
#    y -0.014250 2.019640 -0.020320 
#    z -0.045240 -0.020320 1.903130 
# 
# From -- ./inp_files/452146.got.cif
#   From: 2010.05.17/outbox.cif.g08.bks.cpg/sg2_227_cif.got.tgz:452146.got - 2010.06.03 11:33:40.
