data_PCOD9099132
_publ_section_title
;
Structure prediction by ZEFSAII (Michael W. Deem and Ramdas Pophale) SiO2 
 PCOD9099132
Probable space group: P -1
;
_chemical_formula_sum "Si O2"
_cell_formula_units_Z 16
_cell_length_a 5.812347
_cell_length_b 23.932221
_cell_length_c 9.796005
_cell_angle_alpha 36.426865
_cell_angle_beta 79.991999
_cell_angle_gamma 78.685376
_cell_volume 793.112374
_symmetry_space_group_name_H-M "P -1"
_symmetry_group_IT_number 2
_symmetry_cell_setting 'triclinic'
loop_
_space_group_symop_operation_xyz
x,y,z
-x,-y,-z
loop_
_atom_site_type_symbol
_atom_site_label
_atom_site_fract_x
_atom_site_fract_y
_atom_site_fract_z
Si Si1 0.314444 0.341361 0.613185
Si Si2 0.417934 0.723508 0.015933
Si Si3 0.084890 0.013253 0.313729
Si Si4 0.644454 0.194604 0.689981
Si Si5 0.965128 0.207349 0.877490
Si Si6 0.734090 0.475236 0.620276
Si Si7 0.224179 0.006621 0.867717
Si Si8 0.458045 0.842859 0.516984
O O1 0.392952 0.313066 0.816201
O O2 0.471506 0.275630 0.620694
O O3 0.320113 0.453638 0.386254
O O4 0.058997 0.308734 0.681641
O O5 0.240268 0.792634 0.989473
O O6 0.280219 0.636720 0.144245
O O7 0.511507 0.776523 0.772228
O O8 0.280581 0.931485 0.410527
O O9 0.000000 0.000000 0.500000
O O10 0.863586 0.007061 0.249447
O O11 0.149645 0.120047 0.072347
O O12 0.877477 0.197327 0.752398
O O13 0.652251 0.207558 0.501530
O O14 0.598449 0.083969 0.931705
O O15 0.500000 0.500000 0.500000
O O16 0.000000 0.500000 0.500000
O O17 0.321428 0.107789 0.660326
O O18 0.000000 0.000000 0.000000
#
# Coordination Sequence:
#
# PCOD9099132 Si02
#       8
#     2   2   2   2   2   2   2   2
#     4  10  21  38  65  87 121 157 205 258 311 388
#     4  10  22  38  59  96 117 157 198 266 321 370
#     4  11  23  36  57  87 121 158 198 262 311 361
#     4  10  23  38  58  86 117 168 208 248 303 378
#     4  10  20  37  59  86 117 153 212 243 305 374
#     4  10  20  40  68  98 127 163 212 269 330 393
#     4  11  24  40  58  83 120 173 215 242 307 374
#     4  12  24  39  58  86 129 158 209 255 313 367
#
# _framework density 20.173687000000001
#
# number of rings (size 3 to 8) (size 9 to 14) (size 15 to 20)
#    0.000    1.500    3.750    1.125    5.250    0.500 
#    0.000    0.625    0.000    0.750    0.000    0.000 
#    0.000    0.000    0.000    0.000    0.000    0.000 
#
# Total GULP energy -89123.048431 kJ/mol
# GULP energy per Si atom -5570.190527 kJ/mol
# Density = 2.012777 g / cm^3
# Si number density = 20.173687 Si / 1000 Ang^3
#
#
#
# Elastic Constant Matrix: (Units=GPa)
#
#
# Indices 1 2 3 4 5 6 
#
# 1 47.9634 20.3554 22.5557 9.7216 -13.2436 -1.2270
# 2 20.3554 131.4303 46.4419 9.1208 -7.1660 3.3277
# 3 22.5557 46.4419 57.7978 14.8271 -1.4068 9.5696
# 4 9.7216 9.1208 14.8271 40.5274 6.7907 1.4408
# 5 -13.2436 -7.1660 -1.4068 6.7907 22.2721 -4.0292
# 6 -1.2270 3.3277 9.5696 1.4408 -4.0292 38.0622
#
#
#
# Elastic Compliance Matrix: (Units=1/GPa)
#
#
# Indices 1 2 3 4 5 6 
#
# 1 0.035012 0.000800 -0.012804 -0.008178 0.024052 0.007134
# 2 0.000800 0.010930 -0.009322 0.000073 0.003708 0.001804
# 3 -0.012804 -0.009322 0.032226 -0.004877 -0.008615 -0.008427
# 4 -0.008178 0.000073 -0.004877 0.030967 -0.014914 -0.001795
# 5 0.024052 0.003708 -0.008615 -0.014914 0.066241 0.010194
# 6 0.007134 0.001804 -0.008427 -0.001795 0.010194 0.029611
#
#
# Mechanical properties :
#
#
# Convention : Reuss Voigt Hill
#
# Bulk Modulus (GPa) = 28.15633 46.21083 37.18358
# Shear Modulus (GPa) = 19.26937 30.02824 24.64881
#
# Velocity S-wave (km/s) = 3.09394 3.86228 3.49926
# Velocity P-wave (km/s) = 5.17209 6.54567 5.89900
#
# Compressibility (1/GPa) = 0.03551599
#
# Stress axis : x y z
#
# Youngs Moduli (GPa) = 28.56126 91.49054 31.03077
#
# Poissons Ratio (x) = -0.07322 0.39733
# Poissons Ratio (y) = -0.02286 0.28927
# Poissons Ratio (z) = 0.36571 0.85289
#
# Static dielectric constant tensor:
#      x y z
#    x 1.813900 -0.002400 -0.006670 
#    y -0.002400 1.772980 -0.048710 
#    z -0.006670 -0.048710 1.745960 
# 
# From -- ./inp_files/53716.got.cif
#   From: 2010.05.17/outbox.cif.g08.bks.cpg/sg2_27_cif.got.tgz:53716.got - 2010.06.03 11:33:40.
