data_PCOD9099968
_publ_section_title
;
Structure prediction by ZEFSAII (Michael W. Deem and Ramdas Pophale) SiO2 
 PCOD9099968
Probable space group: P -1
;
_chemical_formula_sum "Si O2"
_cell_formula_units_Z 16
_cell_length_a 17.810156
_cell_length_b 20.001263
_cell_length_c 8.998238
_cell_angle_alpha 28.451662
_cell_angle_beta 152.484518
_cell_angle_gamma 151.441887
_cell_volume 630.809199
_symmetry_space_group_name_H-M "P -1"
_symmetry_group_IT_number 2
_symmetry_cell_setting 'triclinic'
loop_
_space_group_symop_operation_xyz
x,y,z
-x,-y,-z
loop_
_atom_site_type_symbol
_atom_site_label
_atom_site_fract_x
_atom_site_fract_y
_atom_site_fract_z
Si Si1 0.763161 0.842488 0.128366
Si Si2 0.438800 0.587709 0.876697
Si Si3 0.303140 0.402922 0.272154
Si Si4 0.118501 0.439828 0.428080
Si Si5 0.614248 0.062908 0.347094
Si Si6 0.847475 0.356749 0.364490
Si Si7 0.242791 0.806492 0.176211
Si Si8 0.085249 0.869313 0.490852
O O1 0.777551 0.764083 0.461517
O O2 0.958077 0.941505 0.196406
O O3 0.639266 0.698262 0.080605
O O4 0.664080 0.952590 0.759293
O O5 0.339178 0.530973 0.650379
O O6 0.353243 0.706784 0.534941
O O7 0.350954 0.428795 0.131575
O O8 0.500000 0.500000 0.500000
O O9 0.200017 0.505895 0.935335
O O10 0.034464 0.431215 0.459861
O O11 0.044352 0.262677 0.591453
O O12 0.000000 0.500000 0.000000
O O13 0.699836 0.236618 0.224795
O O14 0.719865 0.054184 0.399088
O O15 0.399358 0.985441 0.103588
O O16 0.849086 0.253519 0.709420
O O17 0.116843 0.787733 0.852629
#
# Coordination Sequence:
#
# PCOD9099968 Si02
#       8
#     2   2   2   2   2   2   2   2
#     4  10  21  39  63  85 127 163 197 247 311 362
#     4   9  20  36  59  89 123 158 198 248 307 359
#     4   9  19  36  61  93 122 155 195 250 305 356
#     4  11  21  36  58  93 129 151 204 256 296 358
#     4  10  22  41  62  86 126 156 209 251 301 360
#     4  10  22  37  65  92 118 161 205 253 295 360
#     4  10  20  37  62  89 115 160 210 250 301 360
#     4  11  22  36  61  88 120 165 204 253 302 356
#
# _framework density 25.364248
#
# number of rings (size 3 to 8) (size 9 to 14) (size 15 to 20)
#    0.000    2.000    1.250    2.625    1.750    1.500 
#    0.000    0.625   13.750    0.000    0.000    0.000 
#    0.000    0.000    0.000    0.000    0.000    0.000 
#
# Total GULP energy -89292.682511 kJ/mol
# GULP energy per Si atom -5580.792657 kJ/mol
# Density = 2.530652 g / cm^3
# Si number density = 25.364248 Si / 1000 Ang^3
#
#
#
# Elastic Constant Matrix: (Units=GPa)
#
#
# Indices 1 2 3 4 5 6 
#
# 1 65.8789 16.3076 11.5113 9.4737 -18.3437 13.6853
# 2 16.3076 94.7253 7.9773 5.4837 -10.8430 12.9625
# 3 11.5113 7.9773 60.5588 8.6664 -19.2885 4.7945
# 4 9.4737 5.4837 8.6664 36.0813 -2.0816 3.6592
# 5 -18.3437 -10.8430 -19.2885 -2.0816 25.7659 1.1845
# 6 13.6853 12.9625 4.7945 3.6592 1.1845 31.8305
#
#
#
# Elastic Compliance Matrix: (Units=1/GPa)
#
#
# Indices 1 2 3 4 5 6 
#
# 1 0.022608 -0.000398 0.003037 -0.004517 0.018304 -0.010177
# 2 -0.000398 0.011914 0.000785 -0.001085 0.005454 -0.004877
# 3 0.003037 0.000785 0.023228 -0.004819 0.019736 -0.005305
# 4 -0.004517 -0.001085 -0.004819 0.029959 -0.004853 -0.000154
# 5 0.018304 0.005454 0.019736 -0.004853 0.069214 -0.015081
# 6 -0.010177 -0.004877 -0.005305 -0.000154 -0.015081 0.039156
#
#
# Mechanical properties :
#
#
# Convention : Reuss Voigt Hill
#
# Bulk Modulus (GPa) = 15.48056 32.52838 24.00447
# Shear Modulus (GPa) = 23.72335 31.09332 27.40833
#
# Velocity S-wave (km/s) = 3.06160 3.50504 3.29080
# Velocity P-wave (km/s) = 4.31444 5.40673 4.89117
#
# Compressibility (1/GPa) = 0.06459716
#
# Stress axis : x y z
#
# Youngs Moduli (GPa) = 44.23259 83.93588 43.05188
#
# Poissons Ratio (x) = 0.03344 -0.13076
# Poissons Ratio (y) = 0.01762 -0.03379
# Poissons Ratio (z) = -0.13435 -0.06589
#
# Static dielectric constant tensor:
#      x y z
#    x 2.095660 0.016320 -0.011630 
#    y 0.016320 2.055470 0.043260 
#    z -0.011630 0.043260 2.099690 
# 
# From -- ./inp_files/251751.got.cif
#   From: 2010.05.17/outbox.cif.g08.bks.cpg/sg2_126_cif.got.tgz:251751.got - 2010.06.03 11:33:40.
