data_PCOD9099010
_publ_section_title
;
Structure prediction by ZEFSAII (Michael W. Deem and Ramdas Pophale) SiO2 
 PCOD9099010
Probable space group: P -1
;
_chemical_formula_sum "Si O2"
_cell_formula_units_Z 16
_cell_length_a 9.458066
_cell_length_b 8.213027
_cell_length_c 17.114093
_cell_angle_alpha 127.118200
_cell_angle_beta 109.212715
_cell_angle_gamma 104.342774
_cell_volume 806.229968
_symmetry_space_group_name_H-M "P -1"
_symmetry_group_IT_number 2
_symmetry_cell_setting 'triclinic'
loop_
_space_group_symop_operation_xyz
x,y,z
-x,-y,-z
loop_
_atom_site_type_symbol
_atom_site_label
_atom_site_fract_x
_atom_site_fract_y
_atom_site_fract_z
Si Si1 0.804243 0.490518 0.618328
Si Si2 0.256355 0.409368 0.859221
Si Si3 0.452440 0.764222 0.369269
Si Si4 0.412364 0.104068 0.847725
Si Si5 0.531277 0.944640 0.676696
Si Si6 0.178379 0.575683 0.730153
Si Si7 0.816882 0.811925 0.463655
Si Si8 0.874526 0.965481 0.699073
O O1 0.696126 0.467054 0.670610
O O2 0.653402 0.286799 0.468898
O O3 0.906289 0.767919 0.682259
O O4 0.958813 0.448343 0.655335
O O5 0.310260 0.210980 0.815477
O O6 0.236611 0.496931 0.795487
O O7 0.414907 0.656700 0.006287
O O8 0.055655 0.253093 0.819736
O O9 0.635538 0.782411 0.392198
O O10 0.500000 0.000000 0.500000
O O11 0.386036 0.803927 0.288033
O O12 0.481784 0.998467 0.765818
O O13 0.288063 0.873751 0.819600
O O14 0.689847 0.902489 0.687927
O O15 0.213617 0.453490 0.628194
O O16 0.840088 0.904482 0.582964
O O17 0.000000 0.000000 0.500000
#
# Coordination Sequence:
#
# PCOD9099010 Si02
#       8
#     2   2   2   2   2   2   2   2
#     4  11  23  38  63  99 134 167 205 262 338 395
#     4  11  25  47  68  90 131 173 226 276 315 373
#     4  10  20  37  58  92 133 170 200 250 329 393
#     4  11  26  46  67  96 124 177 230 267 317 378
#     4  11  23  40  64  93 134 169 207 266 326 393
#     4  12  24  41  70  98 132 167 218 272 326 389
#     4  12  22  35  65 101 131 166 210 261 333 395
#     4  12  23  40  62  94 136 170 209 266 328 390
#
# _framework density 19.845454
#
# number of rings (size 3 to 8) (size 9 to 14) (size 15 to 20)
#    0.000    0.750    5.000    4.500    3.500    1.500 
#    0.000    0.000    0.000    1.500    0.000    0.000 
#    0.000    0.000    0.000    0.000    0.000    0.000 
#
# Total GULP energy -89340.502833 kJ/mol
# GULP energy per Si atom -5583.781427 kJ/mol
# Density = 1.980028 g / cm^3
# Si number density = 19.845454 Si / 1000 Ang^3
#
#
#
# Elastic Constant Matrix: (Units=GPa)
#
#
# Indices 1 2 3 4 5 6 
#
# 1 125.6706 31.0607 43.1650 -5.7238 3.9547 -13.0121
# 2 31.0607 103.5527 30.3239 10.0017 0.8368 -6.1928
# 3 43.1650 30.3239 64.5727 13.6945 14.7648 1.4042
# 4 -5.7238 10.0017 13.6945 29.2742 0.8547 5.0094
# 5 3.9547 0.8368 14.7648 0.8547 18.9848 -7.5630
# 6 -13.0121 -6.1928 1.4042 5.0094 -7.5630 30.7993
#
#
#
# Elastic Compliance Matrix: (Units=1/GPa)
#
#
# Indices 1 2 3 4 5 6 
#
# 1 0.013068 -0.000682 -0.012177 0.007002 0.009283 0.007080
# 2 -0.000682 0.012139 -0.006315 -0.002260 0.006361 0.004370
# 3 -0.012177 -0.006315 0.036896 -0.014323 -0.030517 -0.013261
# 4 0.007002 -0.002260 -0.014323 0.043166 0.006981 -0.002150
# 5 0.009283 0.006361 -0.030517 0.006981 0.084299 0.026157
# 6 0.007080 0.004370 -0.013261 -0.002150 0.026157 0.043716
#
#
# Mechanical properties :
#
#
# Convention : Reuss Voigt Hill
#
# Bulk Modulus (GPa) = 42.09585 55.87721 48.98653
# Shear Modulus (GPa) = 17.88590 28.42809 23.15699
#
# Velocity S-wave (km/s) = 3.00536 3.78891 3.41965
# Velocity P-wave (km/s) = 5.77068 6.88174 6.35056
#
# Compressibility (1/GPa) = 0.02375531
#
# Stress axis : x y z
#
# Youngs Moduli (GPa) = 76.52126 82.37978 27.10322
#
# Poissons Ratio (x) = 0.05617 0.33004
# Poissons Ratio (y) = 0.05217 0.17115
# Poissons Ratio (z) = 0.93181 0.52022
#
# Static dielectric constant tensor:
#      x y z
#    x 1.730490 0.014230 0.017750 
#    y 0.014230 1.756440 0.019590 
#    z 0.017750 0.019590 1.694520 
# 
# From -- ./inp_files/179212.got.cif
#   From: 2010.05.17/outbox.cif.g08.bks.cpg/sg2_90_cif.got.tgz:179212.got - 2010.06.03 11:33:40.
