data_PCOD9099840
_publ_section_title
;
Structure prediction by ZEFSAII (Michael W. Deem and Ramdas Pophale) SiO2 
 PCOD9099840
Probable space group: P -1
;
_chemical_formula_sum "Si O2"
_cell_formula_units_Z 14
_cell_length_a 17.218520
_cell_length_b 18.719833
_cell_length_c 11.928519
_cell_angle_alpha 21.024162
_cell_angle_beta 30.121418
_cell_angle_gamma 29.215699
_cell_volume 644.934963
_symmetry_space_group_name_H-M "P -1"
_symmetry_group_IT_number 2
_symmetry_cell_setting 'triclinic'
loop_
_space_group_symop_operation_xyz
x,y,z
-x,-y,-z
loop_
_atom_site_type_symbol
_atom_site_label
_atom_site_fract_x
_atom_site_fract_y
_atom_site_fract_z
Si Si1 0.215674 0.616117 0.852785
Si Si2 0.669456 0.411102 0.801038
Si Si3 0.644321 0.647817 0.711095
Si Si4 0.490103 0.235751 0.691502
Si Si5 0.016529 0.897712 0.249863
Si Si6 0.067290 0.250146 0.828456
Si Si7 0.831213 0.620188 0.964263
O O1 0.340834 0.744157 0.501876
O O2 0.297996 0.442659 0.103608
O O3 0.189332 0.511784 0.924022
O O4 0.032384 0.744809 0.941294
O O5 0.705008 0.467060 0.801121
O O6 0.553367 0.630254 0.566286
O O7 0.820201 0.310949 0.674045
O O8 0.554118 0.270041 0.161207
O O9 0.735946 0.806298 0.329985
O O10 0.334757 0.331287 0.828591
O O11 0.500000 0.000000 0.000000
O O12 0.864126 0.830037 0.574069
O O13 0.036999 0.072272 0.051383
O O14 0.000000 0.000000 0.000000
O O15 0.000000 0.500000 0.500000
O O16 0.000000 0.500000 0.000000
#
# Coordination Sequence:
#
# PCOD9099840 Si02
#       7
#     2   2   2   2   2   2   2
#     4  10  21  42  69  93 135 180 228 282 341 402
#     4  10  21  40  65  98 135 177 231 281 336 419
#     4   9  19  38  65  94 134 169 220 291 336 396
#     4  11  24  45  69  99 138 185 228 281 349 412
#     4  12  23  40  70  97 134 181 229 283 346 403
#     4  10  20  37  61  97 130 170 221 277 339 402
#     4  12  25  45  71  98 142 184 234 284 339 416
#
# _framework density 21.707615000000001
#
# number of rings (size 3 to 8) (size 9 to 14) (size 15 to 20)
#    0.000    1.429    1.429    5.571    0.000    2.857 
#    2.571    1.429    0.000    0.000    0.000    0.000 
#    0.000    0.000    0.000    0.000    0.000    0.000 
#
# Total GULP energy -78110.673963 kJ/mol
# GULP energy per Si atom -5579.333854 kJ/mol
# Density = 2.165821 g / cm^3
# Si number density = 21.707615 Si / 1000 Ang^3
#
#
#
# Elastic Constant Matrix: (Units=GPa)
#
#
# Indices 1 2 3 4 5 6 
#
# 1 129.2458 38.5563 54.2951 3.9559 -26.4597 30.5897
# 2 38.5563 74.1680 37.5093 27.4496 -4.9535 32.5402
# 3 54.2951 37.5093 136.4191 33.4091 -32.5366 3.6706
# 4 3.9559 27.4496 33.4091 49.1555 -6.1307 -3.4321
# 5 -26.4597 -4.9535 -32.5366 -6.1307 36.7344 -2.0956
# 6 30.5897 32.5402 3.6706 -3.4321 -2.0956 38.7120
#
#
#
# Elastic Compliance Matrix: (Units=1/GPa)
#
#
# Indices 1 2 3 4 5 6 
#
# 1 0.012728 -0.002394 -0.003562 0.002956 0.005777 -0.007132
# 2 -0.002394 0.039219 -0.005320 -0.021201 -0.006558 -0.032804
# 3 -0.003562 -0.005320 0.012921 -0.004122 0.007823 0.006119
# 4 0.002956 -0.021201 -0.004122 0.036440 0.002800 0.019258
# 5 0.005777 -0.006558 0.007823 0.002800 0.038039 0.002513
# 6 -0.007132 -0.032804 0.006119 0.019258 0.002513 0.060305
#
#
# Mechanical properties :
#
#
# Convention : Reuss Voigt Hill
#
# Bulk Modulus (GPa) = 23.63144 66.72828 45.17986
# Shear Modulus (GPa) = 21.15870 38.88517 30.02194
#
# Velocity S-wave (km/s) = 3.12543 4.23698 3.72292
# Velocity P-wave (km/s) = 4.89227 7.39881 6.27203
#
# Compressibility (1/GPa) = 0.04231651
#
# Stress axis : x y z
#
# Youngs Moduli (GPa) = 78.56736 25.49788 77.39204
#
# Poissons Ratio (x) = 0.06105 0.27564
# Poissons Ratio (y) = 0.18812 0.41171
# Poissons Ratio (z) = 0.27982 0.13564
#
# Static dielectric constant tensor:
#      x y z
#    x 1.847470 -0.131760 0.049200 
#    y -0.131760 1.916240 -0.027590 
#    z 0.049200 -0.027590 1.830520 
# 
# From -- ./inp_files/466501.got.cif
#   From: 2010.05.17/outbox.cif.g08.bks.cpg/sg2_234_cif.got.tgz:466501.got - 2010.06.03 11:33:40.
