data_PCOD9099848
_publ_section_title
;
Structure prediction by ZEFSAII (Michael W. Deem and Ramdas Pophale) SiO2 
 PCOD9099848
Probable space group: P -1
;
_chemical_formula_sum "Si O2"
_cell_formula_units_Z 16
_cell_length_a 19.657001
_cell_length_b 23.077438
_cell_length_c 13.497864
_cell_angle_alpha 144.068490
_cell_angle_beta 25.882909
_cell_angle_gamma 162.219641
_cell_volume 763.825445
_symmetry_space_group_name_H-M "P -1"
_symmetry_group_IT_number 2
_symmetry_cell_setting 'triclinic'
loop_
_space_group_symop_operation_xyz
x,y,z
-x,-y,-z
loop_
_atom_site_type_symbol
_atom_site_label
_atom_site_fract_x
_atom_site_fract_y
_atom_site_fract_z
Si Si1 0.496054 0.387649 0.085988
Si Si2 0.712065 0.898122 0.179236
Si Si3 0.574445 0.298898 0.519603
Si Si4 0.132770 0.556023 0.013659
Si Si5 0.816095 0.091796 0.613493
Si Si6 0.753844 0.674907 0.993510
Si Si7 0.349696 0.014171 0.087546
Si Si8 0.231793 0.413374 0.788036
O O1 0.737729 0.581052 0.966418
O O2 0.633820 0.459126 0.114440
O O3 0.174638 0.276696 0.360745
O O4 0.398024 0.229570 0.945644
O O5 0.437005 0.741269 0.406029
O O6 0.000000 0.000000 0.000000
O O7 0.888686 0.098307 0.197776
O O8 0.393166 0.301996 0.745983
O O9 0.920278 0.494544 0.288185
O O10 0.385700 0.109039 0.446619
O O11 0.493787 0.794537 0.875214
O O12 0.107792 0.428003 0.895869
O O13 0.000000 0.500000 0.000000
O O14 0.797083 0.068232 0.723894
O O15 0.640072 0.095881 0.821780
O O16 0.500000 0.500000 0.000000
O O17 0.067484 0.822188 0.120736
O O18 0.500000 0.500000 0.500000
#
# Coordination Sequence:
#
# PCOD9099848 Si02
#       8
#     2   2   2   2   2   2   2   2
#     4  12  23  40  64 100 140 173 219 284 341 385
#     4  10  20  37  61  98 131 172 224 285 323 394
#     4  11  20  38  68  99 130 170 228 284 319 388
#     4  12  25  44  71  98 130 185 235 264 329 419
#     4  11  19  39  69  95 132 176 223 278 324 394
#     4  11  20  36  66 101 130 170 230 272 334 397
#     4  11  23  42  64  96 134 179 228 262 329 415
#     4  12  28  44  64 101 147 175 213 290 349 385
#
# _framework density 20.947195000000001
#
# number of rings (size 3 to 8) (size 9 to 14) (size 15 to 20)
#    0.000    0.750    8.750    1.500    1.750    1.500 
#    0.000    0.625    0.000    1.500    0.000    0.000 
#    0.000    0.000    0.000    0.000    0.000    0.000 
#
# Total GULP energy -89381.067909 kJ/mol
# GULP energy per Si atom -5586.316744 kJ/mol
# Density = 2.089952 g / cm^3
# Si number density = 20.947195 Si / 1000 Ang^3
#
#
#
# Elastic Constant Matrix: (Units=GPa)
#
#
# Indices 1 2 3 4 5 6 
#
# 1 67.9737 29.2331 17.1794 -0.3627 25.2443 9.3784
# 2 29.2331 130.9175 17.3255 -5.7629 26.6443 2.1063
# 3 17.1794 17.3255 50.5517 -2.3745 17.9960 7.3053
# 4 -0.3627 -5.7629 -2.3745 37.5447 2.0561 9.2680
# 5 25.2443 26.6443 17.9960 2.0561 23.4152 6.4046
# 6 9.3784 2.1063 7.3053 9.2680 6.4046 36.5674
#
#
#
# Elastic Compliance Matrix: (Units=1/GPa)
#
#
# Indices 1 2 3 4 5 6 
#
# 1 0.024955 0.000008 0.001947 0.002521 -0.027937 -0.002535
# 2 0.000008 0.010190 0.001043 0.002107 -0.012841 0.000918
# 3 0.001947 0.001043 0.028060 0.004008 -0.024409 -0.002906
# 4 0.002521 0.002107 0.004008 0.029574 -0.008732 -0.007535
# 5 -0.027937 -0.012841 -0.024409 -0.008732 0.108040 -0.003929
# 6 -0.002535 0.000918 -0.002906 -0.007535 -0.003929 0.031122
#
#
# Mechanical properties :
#
#
# Convention : Reuss Voigt Hill
#
# Bulk Modulus (GPa) = 14.45092 41.87986 28.16539
# Shear Modulus (GPa) = 20.07921 31.88579 25.98250
#
# Velocity S-wave (km/s) = 3.09943 3.90577 3.52573
# Velocity P-wave (km/s) = 4.44098 6.35425 5.48173
#
# Compressibility (1/GPa) = 0.06919977
#
# Stress axis : x y z
#
# Youngs Moduli (GPa) = 40.07221 98.13476 35.63765
#
# Poissons Ratio (x) = -0.00075 -0.06939
# Poissons Ratio (y) = -0.00030 -0.03715
# Poissons Ratio (z) = -0.07802 -0.10231
#
# Static dielectric constant tensor:
#      x y z
#    x 1.754960 -0.004050 0.010170 
#    y -0.004050 1.785910 -0.032890 
#    z 0.010170 -0.032890 1.801200 
# 
# From -- ./inp_files/467130.got.cif
#   From: 2010.05.17/outbox.cif.g08.bks.cpg/sg2_234_cif.got.tgz:467130.got - 2010.06.03 11:33:40.
