data_PCOD9099187
_publ_section_title
;
Structure prediction by ZEFSAII (Michael W. Deem and Ramdas Pophale) SiO2 
 PCOD9099187
Probable space group: P -1
;
_chemical_formula_sum "Si O2"
_cell_formula_units_Z 14
_cell_length_a 11.133738
_cell_length_b 13.327165
_cell_length_c 11.237954
_cell_angle_alpha 135.205127
_cell_angle_beta 70.795908
_cell_angle_gamma 142.255009
_cell_volume 606.068169
_symmetry_space_group_name_H-M "P -1"
_symmetry_group_IT_number 2
_symmetry_cell_setting 'triclinic'
loop_
_space_group_symop_operation_xyz
x,y,z
-x,-y,-z
loop_
_atom_site_type_symbol
_atom_site_label
_atom_site_fract_x
_atom_site_fract_y
_atom_site_fract_z
Si Si1 0.240169 0.165685 0.953545
Si Si2 0.867156 0.251507 0.409659
Si Si3 0.811286 0.991469 0.562919
Si Si4 0.755385 0.391587 0.233350
Si Si5 0.563945 0.018792 0.785928
Si Si6 0.487563 0.537859 0.669169
Si Si7 0.224174 0.279863 0.825399
O O1 0.153083 0.206017 0.925167
O O2 0.112681 0.894416 0.759354
O O3 0.277825 0.235224 0.138422
O O4 0.513378 0.417840 0.028673
O O5 0.000000 0.500000 0.500000
O O6 0.983323 0.365570 0.597466
O O7 0.599904 0.039554 0.293648
O O8 0.659928 0.723972 0.444310
O O9 0.815017 0.923920 0.373690
O O10 0.685604 0.018027 0.661485
O O11 0.051659 0.208278 0.739287
O O12 0.644889 0.436640 0.267293
O O13 0.598651 0.201337 0.240295
O O14 0.735655 0.270801 0.024765
O O15 0.500000 0.500000 0.500000
#
# Coordination Sequence:
#
# PCOD9099187 Si02
#       7
#     2   2   2   2   2   2   2
#     4  10  20  41  62  88 128 163 210 263 304 371
#     4  10  21  37  63  89 122 168 199 251 325 376
#     4  10  20  39  65  91 120 165 218 256 310 374
#     4  10  20  37  59  88 129 164 193 251 328 378
#     4  10  20  38  59  90 128 159 202 256 313 380
#     4  11  20  35  64  93 123 160 205 264 322 366
#     4   9  21  40  66  86 123 172 212 260 304 359
#
# _framework density 23.099712
#
# number of rings (size 3 to 8) (size 9 to 14) (size 15 to 20)
#    0.000    2.000    2.857    0.857    0.000    0.000 
#    7.714    5.714    0.000    0.000    0.000    0.000 
#    0.000    0.000    0.000    0.000    0.000    0.000 
#
# Total GULP energy -78076.780030 kJ/mol
# GULP energy per Si atom -5576.912859 kJ/mol
# Density = 2.304714 g / cm^3
# Si number density = 23.099712 Si / 1000 Ang^3
#
#
#
# Elastic Constant Matrix: (Units=GPa)
#
#
# Indices 1 2 3 4 5 6 
#
# 1 71.9201 -5.0602 28.8053 -15.9638 3.6130 -0.8655
# 2 -5.0602 44.7988 11.9658 -6.7160 -2.6414 -14.5793
# 3 28.8053 11.9658 108.8657 -5.5375 25.9972 -9.4246
# 4 -15.9638 -6.7160 -5.5375 32.1043 -6.8971 -3.6281
# 5 3.6130 -2.6414 25.9972 -6.8971 42.5206 1.3440
# 6 -0.8655 -14.5793 -9.4246 -3.6281 1.3440 24.3853
#
#
#
# Elastic Compliance Matrix: (Units=1/GPa)
#
#
# Indices 1 2 3 4 5 6 
#
# 1 0.019093 0.006968 -0.005876 0.011275 0.004105 0.004024
# 2 0.006968 0.033084 -0.004442 0.013092 0.005672 0.019945
# 3 -0.005876 -0.004442 0.013292 -0.003123 -0.008482 0.002276
# 4 0.011275 0.013092 -0.003123 0.042167 0.008199 0.012842
# 5 0.004105 0.005672 -0.008482 0.008199 0.030043 -0.000177
# 6 0.004024 0.019945 0.002276 0.012842 -0.000177 0.055876
#
#
# Mechanical properties :
#
#
# Convention : Reuss Voigt Hill
#
# Bulk Modulus (GPa) = 17.01591 33.00070 25.00831
# Shear Modulus (GPa) = 22.74330 32.46031 27.60180
#
# Velocity S-wave (km/s) = 3.14119 3.75270 3.46048
# Velocity P-wave (km/s) = 4.53193 5.75276 5.17845
#
# Compressibility (1/GPa) = 0.05876851
#
# Stress axis : x y z
#
# Youngs Moduli (GPa) = 52.37563 30.22643 75.23125
#
# Poissons Ratio (x) = -0.21061 0.44207
# Poissons Ratio (y) = -0.36494 0.33416
# Poissons Ratio (z) = 0.30777 0.13426
#
# Static dielectric constant tensor:
#      x y z
#    x 1.860390 0.018800 0.041950 
#    y 0.018800 2.060320 -0.117360 
#    z 0.041950 -0.117360 2.065170 
# 
# From -- ./inp_files/177636.got.cif
#   From: 2010.05.17/outbox.cif.g08.bks.cpg/sg2_89_cif.got.tgz:177636.got - 2010.06.03 11:33:40.
