data_PCOD9099676
_publ_section_title
;
Structure prediction by ZEFSAII (Michael W. Deem and Ramdas Pophale) SiO2 
 PCOD9099676
Probable space group: P -1
;
_chemical_formula_sum "Si O2"
_cell_formula_units_Z 14
_cell_length_a 12.121029
_cell_length_b 18.582775
_cell_length_c 15.717038
_cell_angle_alpha 28.317869
_cell_angle_beta 153.016846
_cell_angle_gamma 153.327462
_cell_volume 656.829330
_symmetry_space_group_name_H-M "P -1"
_symmetry_group_IT_number 2
_symmetry_cell_setting 'triclinic'
loop_
_space_group_symop_operation_xyz
x,y,z
-x,-y,-z
loop_
_atom_site_type_symbol
_atom_site_label
_atom_site_fract_x
_atom_site_fract_y
_atom_site_fract_z
Si Si1 0.530029 0.100241 0.577235
Si Si2 0.126407 0.458818 0.046515
Si Si3 0.600272 0.248673 0.204568
Si Si4 0.991716 0.816775 0.063525
Si Si5 0.268911 0.557123 0.754314
Si Si6 0.726148 0.176708 0.922728
Si Si7 0.710630 0.820928 0.506777
O O1 0.760377 0.069900 0.817965
O O2 0.636689 0.270483 0.414938
O O3 0.365685 0.132161 0.504368
O O4 0.357844 0.917169 0.600127
O O5 0.268073 0.351024 0.289726
O O6 0.339534 0.641002 0.955422
O O7 0.000000 0.500000 0.000000
O O8 0.905300 0.322255 0.966048
O O9 0.819376 0.394479 0.268993
O O10 0.291731 0.186013 0.099631
O O11 0.080991 0.849852 0.989966
O O12 0.951303 0.622421 0.254371
O O13 0.500000 0.500000 0.000000
O O14 0.527953 0.217891 0.685243
O O15 0.500000 0.000000 0.000000
O O16 0.000000 0.000000 0.500000
#
# Coordination Sequence:
#
# PCOD9099676 Si02
#       7
#     2   2   2   2   2   2   2
#     4  11  23  39  65  97 132 170 221 272 332 402
#     4  12  26  46  70  98 140 177 223 285 335 401
#     4  11  23  41  64 100 134 170 218 274 339 389
#     4  10  22  41  67  95 132 172 220 274 329 396
#     4  10  20  37  61  88 125 166 209 263 322 384
#     4  11  24  44  72 101 132 180 230 273 334 406
#     4  11  23  42  70  97 129 182 227 273 337 401
#
# _framework density 21.314518
#
# number of rings (size 3 to 8) (size 9 to 14) (size 15 to 20)
#    0.000    1.143    2.857    3.857    4.000    1.714 
#    0.000    0.000    0.000    0.000    0.000    0.000 
#    0.000    0.000    0.000    0.000    0.000    0.000 
#
# Total GULP energy -78048.286376 kJ/mol
# GULP energy per Si atom -5574.877598 kJ/mol
# Density = 2.126600 g / cm^3
# Si number density = 21.314518 Si / 1000 Ang^3
#
#
#
# Elastic Constant Matrix: (Units=GPa)
#
#
# Indices 1 2 3 4 5 6 
#
# 1 166.2326 35.8787 65.9123 -16.8692 -9.0588 5.8648
# 2 35.8787 67.0380 25.9861 -20.1662 -1.9338 -3.0875
# 3 65.9123 25.9861 92.6245 -24.4123 -5.0022 1.8183
# 4 -16.8692 -20.1662 -24.4123 43.4355 0.2838 -3.9846
# 5 -9.0588 -1.9338 -5.0022 0.2838 33.1781 -9.0989
# 6 5.8648 -3.0875 1.8183 -3.9846 -9.0989 46.1212
#
#
#
# Elastic Compliance Matrix: (Units=1/GPa)
#
#
# Indices 1 2 3 4 5 6 
#
# 1 0.008900 -0.002913 -0.005760 -0.001231 0.001133 -0.000982
# 2 -0.002913 0.019361 -0.001453 0.007265 0.000737 0.002497
# 3 -0.005760 -0.001453 0.017133 0.006780 0.001076 0.000758
# 4 -0.001231 0.007265 0.006780 0.030021 0.001762 0.003317
# 5 0.001133 0.000737 0.001076 0.001762 0.032397 0.006406
# 6 -0.000982 0.002497 0.000758 0.003317 0.006406 0.023495
#
#
# Mechanical properties :
#
#
# Convention : Reuss Voigt Hill
#
# Bulk Modulus (GPa) = 39.77522 64.60549 52.19036
# Shear Modulus (GPa) = 31.26199 37.75484 34.50841
#
# Velocity S-wave (km/s) = 3.83391 4.21327 4.02806
# Velocity P-wave (km/s) = 6.18870 7.35155 6.79505
#
# Compressibility (1/GPa) = 0.02514128
#
# Stress axis : x y z
#
# Youngs Moduli (GPa) = 112.36319 51.65007 58.36744
#
# Poissons Ratio (x) = 0.15047 0.33618
# Poissons Ratio (y) = 0.32735 0.08482
# Poissons Ratio (z) = 0.64718 0.07506
#
# Static dielectric constant tensor:
#      x y z
#    x 1.763550 0.013170 0.022070 
#    y 0.013170 1.835000 0.071790 
#    z 0.022070 0.071790 1.722720 
# 
# From -- ./inp_files/269403.got.cif
#   From: 2010.05.17/outbox.cif.g08.bks.cpg/sg2_135_cif.got.tgz:269403.got - 2010.06.03 11:33:40.
