data_PCOD9099822
_publ_section_title
;
Structure prediction by ZEFSAII (Michael W. Deem and Ramdas Pophale) SiO2 
 PCOD9099822
Probable space group: P -1
;
_chemical_formula_sum "Si O2"
_cell_formula_units_Z 16
_cell_length_a 15.421836
_cell_length_b 8.716955
_cell_length_c 11.429582
_cell_angle_alpha 66.440192
_cell_angle_beta 27.146786
_cell_angle_gamma 71.494684
_cell_volume 639.923703
_symmetry_space_group_name_H-M "P -1"
_symmetry_group_IT_number 2
_symmetry_cell_setting 'triclinic'
loop_
_space_group_symop_operation_xyz
x,y,z
-x,-y,-z
loop_
_atom_site_type_symbol
_atom_site_label
_atom_site_fract_x
_atom_site_fract_y
_atom_site_fract_z
Si Si1 0.992222 0.022587 0.203332
Si Si2 0.617334 0.006380 0.978131
Si Si3 0.539025 0.625299 0.521949
Si Si4 0.048261 0.759115 0.603195
Si Si5 0.673532 0.638197 0.980415
Si Si6 0.215187 0.829483 0.811317
Si Si7 0.145641 0.423630 0.680664
Si Si8 0.332913 0.243666 0.299561
O O1 0.049764 0.147438 0.201335
O O2 0.855331 0.876191 0.473453
O O3 0.850712 0.092422 0.254914
O O4 0.153837 0.946150 0.955657
O O5 0.818281 0.107178 0.672934
O O6 0.616761 0.808369 0.061924
O O7 0.502450 0.127056 0.159758
O O8 0.500000 0.000000 0.000000
O O9 0.500000 0.500000 0.500000
O O10 0.757995 0.632732 0.297819
O O11 0.425847 0.528081 0.793560
O O12 0.432310 0.789031 0.572904
O O13 0.161935 0.621727 0.576843
O O14 0.899259 0.655567 0.728954
O O15 0.620432 0.647485 0.905224
O O16 0.072080 0.657378 0.040429
O O17 0.261854 0.340868 0.464807
#
# Coordination Sequence:
#
# PCOD9099822 Si02
#       8
#     2   2   2   2   2   2   2   2
#     4  10  22  42  71  90 140 177 218 277 328 393
#     4  10  20  37  61  94 131 172 219 269 327 387
#     4  12  27  44  70 102 135 172 223 275 331 402
#     4  12  22  39  68  97 132 180 219 272 334 394
#     4  11  24  41  64 103 133 174 224 271 334 399
#     4  10  24  47  65 101 134 178 223 271 332 394
#     4  11  25  45  68 100 134 180 220 272 342 383
#     4  10  23  44  66  97 136 174 221 279 328 393
#
# _framework density 25.002980000000001
#
# number of rings (size 3 to 8) (size 9 to 14) (size 15 to 20)
#    0.000    1.250    3.750    2.625    3.500    4.500 
#    2.250    5.625    0.000    0.000    0.000    0.000 
#    0.000    0.000    0.000    0.000    0.000    0.000 
#
# Total GULP energy -89547.628740 kJ/mol
# GULP energy per Si atom -5596.726796 kJ/mol
# Density = 2.494607 g / cm^3
# Si number density = 25.002980 Si / 1000 Ang^3
#
#
#
# Elastic Constant Matrix: (Units=GPa)
#
#
# Indices 1 2 3 4 5 6 
#
# 1 70.0085 13.6428 11.8837 12.5598 -10.3604 1.1929
# 2 13.6428 54.2237 -6.0673 15.5985 -6.0349 -5.7221
# 3 11.8837 -6.0673 46.4412 -7.9449 -5.1710 2.6073
# 4 12.5598 15.5985 -7.9449 44.7993 -1.9467 -0.9854
# 5 -10.3604 -6.0349 -5.1710 -1.9467 42.2363 3.5546
# 6 1.1929 -5.7221 2.6073 -0.9854 3.5546 38.8710
#
#
#
# Elastic Compliance Matrix: (Units=1/GPa)
#
#
# Indices 1 2 3 4 5 6 
#
# 1 0.017071 -0.003386 -0.005178 -0.004420 0.002955 -0.001057
# 2 -0.003386 0.021866 0.002773 -0.006019 0.002121 0.002790
# 3 -0.005178 0.002773 0.024394 0.004893 0.002436 -0.001168
# 4 -0.004420 -0.006019 0.004893 0.026512 -0.000090 -0.000398
# 5 0.002955 0.002121 0.002436 -0.000090 0.025187 -0.002247
# 6 -0.001057 0.002790 -0.001168 -0.000398 -0.002247 0.026443
#
#
# Mechanical properties :
#
#
# Convention : Reuss Voigt Hill
#
# Bulk Modulus (GPa) = 19.32412 23.28795 21.30604
# Shear Modulus (GPa) = 29.35900 35.26227 32.31063
#
# Velocity S-wave (km/s) = 3.43041 3.75950 3.59872
# Velocity P-wave (km/s) = 4.84105 5.30843 5.08012
#
# Compressibility (1/GPa) = 0.05174879
#
# Stress axis : x y z
#
# Youngs Moduli (GPa) = 58.57843 45.73258 40.99407
#
# Poissons Ratio (x) = 0.15483 0.21228
# Poissons Ratio (y) = 0.19833 -0.11367
# Poissons Ratio (z) = 0.30334 -0.12681
#
# Static dielectric constant tensor:
#      x y z
#    x 1.969450 -0.041110 -0.024820 
#    y -0.041110 2.006660 0.015690 
#    z -0.024820 0.015690 2.000060 
# 
# From -- ./inp_files/332697.got.cif
#   From: 2010.05.17/outbox.cif.g08.bks.cpg/sg2_167_cif.got.tgz:332697.got - 2010.06.03 11:33:40.
