data_PCOD9099053
_publ_section_title
;
Structure prediction by ZEFSAII (Michael W. Deem and Ramdas Pophale) SiO2 
 PCOD9099053
Probable space group: P -1
;
_chemical_formula_sum "Si O2"
_cell_formula_units_Z 16
_cell_length_a 7.996868
_cell_length_b 7.268203
_cell_length_c 19.483298
_cell_angle_alpha 91.179348
_cell_angle_beta 40.454730
_cell_angle_gamma 95.459870
_cell_volume 729.079374
_symmetry_space_group_name_H-M "P -1"
_symmetry_group_IT_number 2
_symmetry_cell_setting 'triclinic'
loop_
_space_group_symop_operation_xyz
x,y,z
-x,-y,-z
loop_
_atom_site_type_symbol
_atom_site_label
_atom_site_fract_x
_atom_site_fract_y
_atom_site_fract_z
Si Si1 0.477277 0.789919 0.533613
Si Si2 0.748816 0.784577 0.888428
Si Si3 0.325730 0.922070 0.273925
Si Si4 0.680074 0.208480 0.873682
Si Si5 0.327756 0.893182 0.719561
Si Si6 0.738382 0.702958 0.319859
Si Si7 0.741722 0.440816 0.622471
Si Si8 0.876789 0.721981 0.700480
O O1 0.507702 0.804649 0.606616
O O2 0.662549 0.693881 0.423927
O O3 0.179098 0.700049 0.615066
O O4 0.500000 0.000000 0.500000
O O5 0.724004 0.697379 0.819753
O O6 0.047483 0.776894 0.815546
O O7 0.722574 0.003848 0.887124
O O8 0.533513 0.716905 0.011012
O O9 0.409703 0.829883 0.176936
O O10 0.230422 0.758203 0.353944
O O11 0.546049 0.051871 0.246871
O O12 0.121677 0.061661 0.318856
O O13 0.963649 0.326910 0.784552
O O14 0.279522 0.087001 0.699548
O O15 0.517347 0.584893 0.343121
O O16 0.741118 0.588910 0.684439
O O17 0.000000 0.500000 0.500000
#
# Coordination Sequence:
#
# PCOD9099053 Si02
#       8
#     2   2   2   2   2   2   2   2
#     4   9  15  30  53  76 108 149 181 219 283 329
#     4   8  16  33  59  83 109 151 186 228 283 332
#     4  10  21  36  56  86 114 146 190 230 276 333
#     4   9  17  34  57  82 114 147 190 231 275 335
#     4   8  16  29  51  82 110 142 185 230 277 331
#     4   9  17  33  51  75 114 151 180 228 286 323
#     4  11  22  39  55  81 118 151 184 232 281 331
#     4  10  20  37  59  83 112 148 189 227 278 337
#
# _framework density 21.945485000000001
#
# number of rings (size 3 to 8) (size 9 to 14) (size 15 to 20)
#    0.000    2.750    1.250    2.250    0.000    1.000 
#    2.250    5.625    0.000    0.000    0.000    0.000 
#    0.000    0.000    0.000    0.000    0.000    0.000 
#
# Total GULP energy -89378.497183 kJ/mol
# GULP energy per Si atom -5586.156074 kJ/mol
# Density = 2.189554 g / cm^3
# Si number density = 21.945485 Si / 1000 Ang^3
#
#
#
# Elastic Constant Matrix: (Units=GPa)
#
#
# Indices 1 2 3 4 5 6 
#
# 1 87.9771 40.4107 81.0597 8.6139 9.5849 39.7809
# 2 40.4107 97.1492 53.0950 8.6824 4.4159 14.3684
# 3 81.0597 53.0950 201.1156 9.8274 -9.7494 41.8830
# 4 8.6139 8.6824 9.8274 16.6909 3.2834 11.1074
# 5 9.5849 4.4159 -9.7494 3.2834 16.9217 -0.0641
# 6 39.7809 14.3684 41.8830 11.1074 -0.0641 54.0531
#
#
#
# Elastic Compliance Matrix: (Units=1/GPa)
#
#
# Indices 1 2 3 4 5 6 
#
# 1 0.031633 -0.005148 -0.009548 0.007280 -0.023549 -0.016038
# 2 -0.005148 0.013520 -0.001836 -0.004902 -0.000709 0.002624
# 3 -0.009548 -0.001836 0.009945 -0.002595 0.012122 0.000356
# 4 0.007280 -0.004902 -0.002595 0.075721 -0.019099 -0.017626
# 5 -0.023549 -0.000709 0.012122 -0.019099 0.083356 0.012150
# 6 -0.016038 0.002624 0.000356 -0.017626 0.012150 0.032966
#
#
# Mechanical properties :
#
#
# Convention : Reuss Voigt Hill
#
# Bulk Modulus (GPa) = 45.38148 81.70808 63.54478
# Shear Modulus (GPa) = 17.38820 31.64489 24.51654
#
# Velocity S-wave (km/s) = 2.81790 3.80146 3.34602
# Velocity P-wave (km/s) = 5.59567 7.52205 6.62920
#
# Compressibility (1/GPa) = 0.02203542
#
# Stress axis : x y z
#
# Youngs Moduli (GPa) = 31.61214 73.96201 100.54837
#
# Poissons Ratio (x) = 0.38078 0.96004
# Poissons Ratio (y) = 0.16275 0.18457
# Poissons Ratio (z) = 0.30183 0.13577
#
# Static dielectric constant tensor:
#      x y z
#    x 1.813230 -0.020880 0.013330 
#    y -0.020880 1.863430 -0.006500 
#    z 0.013330 -0.006500 1.775250 
# 
# From -- ./inp_files/352303.got.cif
#   From: 2010.05.17/outbox.cif.g08.bks.cpg/sg2_177_cif.got.tgz:352303.got - 2010.06.03 11:33:40.
