data_PCOD9099757
_publ_section_title
;
Structure prediction by ZEFSAII (Michael W. Deem and Ramdas Pophale) SiO2 
 PCOD9099757
Probable space group: P -1
;
_chemical_formula_sum "Si O2"
_cell_formula_units_Z 14
_cell_length_a 33.221512
_cell_length_b 10.258622
_cell_length_c 4.953000
_cell_angle_alpha 98.245334
_cell_angle_beta 93.842069
_cell_angle_gamma 26.069137
_cell_volume 726.686715
_symmetry_space_group_name_H-M "P -1"
_symmetry_group_IT_number 2
_symmetry_cell_setting 'triclinic'
loop_
_space_group_symop_operation_xyz
x,y,z
-x,-y,-z
loop_
_atom_site_type_symbol
_atom_site_label
_atom_site_fract_x
_atom_site_fract_y
_atom_site_fract_z
Si Si1 0.707166 0.960377 0.337662
Si Si2 0.290733 0.321449 0.580580
Si Si3 0.021003 0.032632 0.265327
Si Si4 0.400399 0.801342 0.177324
Si Si5 0.200455 0.679486 0.151345
Si Si6 0.109041 0.201824 0.994166
Si Si7 0.861757 0.714856 0.457868
O O1 0.619701 0.231968 0.582420
O O2 0.757109 0.682510 0.400638
O O3 0.774829 0.881765 0.384650
O O4 0.671720 0.027622 0.042658
O O5 0.241426 0.568180 0.435480
O O6 0.380351 0.003382 0.366434
O O7 0.283975 0.395690 0.900613
O O8 0.952212 0.359809 0.341162
O O9 0.123004 0.793532 0.192286
O O10 0.000000 0.000000 0.500000
O O11 0.000000 0.000000 0.000000
O O12 0.500000 0.500000 0.000000
O O13 0.152739 0.944669 0.072672
O O14 0.132616 0.252464 0.222830
O O15 0.140507 0.151863 0.696944
O O16 0.000000 0.500000 0.000000
#
# Coordination Sequence:
#
# PCOD9099757 Si02
#       7
#     2   2   2   2   2   2   2
#     4  10  20  37  61  91 124 143 190 239 302 357
#     4  10  21  36  61  87 123 141 192 240 303 351
#     4  12  25  35  58  81 115 157 195 239 309 331
#     4  10  20  37  63  96 125 146 176 231 320 383
#     4  12  22  39  55  83 117 160 205 246 277 345
#     4  12  26  41  57  78 114 173 217 246 274 324
#     4  12  24  41  57  82 118 160 207 246 282 341
#
# _framework density 19.265522000000001
#
# number of rings (size 3 to 8) (size 9 to 14) (size 15 to 20)
#    0.857    0.000    2.857    6.000    2.000    0.000 
#    0.000    0.000    0.000    0.000    0.000   20.000 
#    0.000    0.000    0.000    0.000    0.000    0.000 
#
# Total GULP energy -77958.771119 kJ/mol
# GULP energy per Si atom -5568.483651 kJ/mol
# Density = 1.922167 g / cm^3
# Si number density = 19.265522 Si / 1000 Ang^3
#
#
#
# Elastic Constant Matrix: (Units=GPa)
#
#
# Indices 1 2 3 4 5 6 
#
# 1 41.9956 16.1031 4.8041 -3.1471 -13.7035 13.6954
# 2 16.1031 49.2776 13.9305 8.2366 -1.6034 5.5472
# 3 4.8041 13.9305 120.9488 3.2820 -7.7580 -1.8819
# 4 -3.1471 8.2366 3.2820 30.0736 2.8032 -4.3172
# 5 -13.7035 -1.6034 -7.7580 2.8032 32.0379 -5.3785
# 6 13.6954 5.5472 -1.8819 -4.3172 -5.3785 23.9575
#
#
#
# Elastic Compliance Matrix: (Units=1/GPa)
#
#
# Indices 1 2 3 4 5 6 
#
# 1 0.037247 -0.010667 0.000224 0.003417 0.012573 -0.015366
# 2 -0.010667 0.026000 -0.002623 -0.007956 -0.003598 -0.002370
# 3 0.000224 -0.002623 0.008745 -0.000195 0.002379 0.001665
# 4 0.003417 -0.007956 -0.000195 0.036814 -0.001156 0.006248
# 5 0.012573 -0.003598 0.002379 -0.001156 0.037428 0.002027
# 6 -0.015366 -0.002370 0.001665 0.006248 0.002027 0.052785
#
#
# Mechanical properties :
#
#
# Convention : Reuss Voigt Hill
#
# Bulk Modulus (GPa) = 21.80572 31.32194 26.56383
# Shear Modulus (GPa) = 20.79543 29.03943 24.91743
#
# Velocity S-wave (km/s) = 3.28900 3.88664 3.60025
# Velocity P-wave (km/s) = 5.07607 6.03611 5.57679
#
# Compressibility (1/GPa) = 0.04585954
#
# Stress axis : x y z
#
# Youngs Moduli (GPa) = 26.84809 38.46168 114.35205
#
# Poissons Ratio (x) = 0.41027 -0.02559
# Poissons Ratio (y) = 0.28639 0.29991
# Poissons Ratio (z) = -0.00601 0.10087
#
# Static dielectric constant tensor:
#      x y z
#    x 1.662560 0.009850 -0.015670 
#    y 0.009850 1.728950 0.039430 
#    z -0.015670 0.039430 1.704070 
# 
# From -- ./inp_files/126301.got.cif
#   From: 2010.05.17/outbox.cif.g08.bks.cpg/sg2_64_cif.got.tgz:126301.got - 2010.06.03 11:33:40.
