data_PCOD9099910
_publ_section_title
;
Structure prediction by ZEFSAII (Michael W. Deem and Ramdas Pophale) SiO2 
 PCOD9099910
Probable space group: P -1
;
_chemical_formula_sum "Si O2"
_cell_formula_units_Z 16
_cell_length_a 20.995363
_cell_length_b 8.087776
_cell_length_c 8.711321
_cell_angle_alpha 68.275168
_cell_angle_beta 48.360708
_cell_angle_gamma 102.479838
_cell_volume 766.520738
_symmetry_space_group_name_H-M "P -1"
_symmetry_group_IT_number 2
_symmetry_cell_setting 'triclinic'
loop_
_space_group_symop_operation_xyz
x,y,z
-x,-y,-z
loop_
_atom_site_type_symbol
_atom_site_label
_atom_site_fract_x
_atom_site_fract_y
_atom_site_fract_z
Si Si1 0.630523 0.624302 0.259178
Si Si2 0.252707 0.649409 0.093670
Si Si3 0.793931 0.189293 0.319191
Si Si4 0.379692 0.808275 0.538750
Si Si5 0.578059 0.336270 0.000544
Si Si6 0.371761 0.299459 0.428996
Si Si7 0.810304 0.107248 0.666953
Si Si8 0.958794 0.575201 0.672651
O O1 0.500000 0.500000 0.500000
O O2 0.630328 0.412591 0.339793
O O3 0.675635 0.756763 0.305377
O O4 0.707707 0.824553 0.939893
O O5 0.223793 0.767735 0.217797
O O6 0.139475 0.446054 0.245754
O O7 0.342356 0.838784 0.753881
O O8 0.310343 0.566411 0.119025
O O9 0.710102 0.243326 0.423160
O O10 0.828484 0.194026 0.434097
O O11 0.716008 0.923122 0.465529
O O12 0.896793 0.377934 0.974805
O O13 0.502688 0.052114 0.209972
O O14 0.491720 0.357859 0.211583
O O15 0.606079 0.472302 0.750055
O O16 0.926457 0.184866 0.522817
O O17 0.000000 0.500000 0.500000
#
# Coordination Sequence:
#
# PCOD9099910 Si02
#       8
#     2   2   2   2   2   2   2   2
#     4  12  25  38  61  94 128 165 205 253 310 368
#     4  10  20  38  62  89 119 161 205 254 307 360
#     4  10  22  41  64  93 122 163 204 255 305 368
#     4  10  22  37  60  88 128 159 207 252 309 365
#     4  10  20  37  62  86 124 167 204 252 307 362
#     4  10  23  38  60  88 129 161 206 253 311 364
#     4  11  23  39  66  90 123 164 211 250 307 367
#     4   9  19  40  68  89 117 161 208 255 305 366
#
# _framework density 20.873536000000001
#
# number of rings (size 3 to 8) (size 9 to 14) (size 15 to 20)
#    0.000    1.750    0.000    5.250    8.750    0.500 
#    0.000    2.500    2.750    2.250    0.000    0.000 
#    0.000    0.000    0.000    0.000    0.000    0.000 
#
# Total GULP energy -89372.777436 kJ/mol
# GULP energy per Si atom -5585.798590 kJ/mol
# Density = 2.082603 g / cm^3
# Si number density = 20.873536 Si / 1000 Ang^3
#
#
#
# Elastic Constant Matrix: (Units=GPa)
#
#
# Indices 1 2 3 4 5 6 
#
# 1 128.0572 24.1766 40.3533 -9.2421 -7.4657 -2.1260
# 2 24.1766 66.8005 15.7503 -6.5966 0.4736 0.7725
# 3 40.3533 15.7503 97.3573 -8.3332 -6.6189 0.5940
# 4 -9.2421 -6.5966 -8.3332 20.0971 6.5071 5.7982
# 5 -7.4657 0.4736 -6.6189 6.5071 32.2250 -2.3163
# 6 -2.1260 0.7725 0.5940 5.7982 -2.3163 24.2048
#
#
#
# Elastic Compliance Matrix: (Units=1/GPa)
#
#
# Indices 1 2 3 4 5 6 
#
# 1 0.009535 -0.002533 -0.003327 0.001532 0.001308 0.000758
# 2 -0.002533 0.016758 -0.001364 0.005146 -0.002309 -0.002178
# 3 -0.003327 -0.001364 0.012214 0.003090 0.001049 -0.001188
# 4 0.001532 0.005146 0.003090 0.062276 -0.012829 -0.016251
# 5 0.001308 -0.002309 0.001049 -0.012829 0.034646 0.006552
# 6 0.000758 -0.002178 -0.001188 -0.016251 0.006552 0.045999
#
#
# Mechanical properties :
#
#
# Convention : Reuss Voigt Hill
#
# Bulk Modulus (GPa) = 41.56574 50.30837 45.93706
# Shear Modulus (GPa) = 24.52222 29.43436 26.97829
#
# Velocity S-wave (km/s) = 3.43125 3.75924 3.59899
# Velocity P-wave (km/s) = 5.97113 6.55716 6.27099
#
# Compressibility (1/GPa) = 0.02405827
#
# Stress axis : x y z
#
# Youngs Moduli (GPa) = 104.87609 59.67229 81.87219
#
# Poissons Ratio (x) = 0.15117 0.27238
# Poissons Ratio (y) = 0.26569 0.11170
# Poissons Ratio (z) = 0.34891 0.08141
#
# Static dielectric constant tensor:
#      x y z
#    x 1.764700 0.018260 -0.018640 
#    y 0.018260 1.782890 0.013620 
#    z -0.018640 0.013620 1.737820 
# 
# From -- ./inp_files/202181.got.cif
#   From: 2010.05.17/outbox.cif.g08.bks.cpg/sg2_102_cif.got.tgz:202181.got - 2010.06.03 11:33:40.
