data_PCOD9099639
_publ_section_title
;
Structure prediction by ZEFSAII (Michael W. Deem and Ramdas Pophale) SiO2 
 PCOD9099639
Probable space group: P -1
;
_chemical_formula_sum "Si O2"
_cell_formula_units_Z 16
_cell_length_a 7.516828
_cell_length_b 5.410763
_cell_length_c 21.648319
_cell_angle_alpha 59.056619
_cell_angle_beta 58.316741
_cell_angle_gamma 67.624338
_cell_volume 635.193665
_symmetry_space_group_name_H-M "P -1"
_symmetry_group_IT_number 2
_symmetry_cell_setting 'triclinic'
loop_
_space_group_symop_operation_xyz
x,y,z
-x,-y,-z
loop_
_atom_site_type_symbol
_atom_site_label
_atom_site_fract_x
_atom_site_fract_y
_atom_site_fract_z
Si Si1 0.287658 0.159617 0.295611
Si Si2 0.182887 0.277484 0.434877
Si Si3 0.777987 0.246827 0.937804
Si Si4 0.002298 0.682968 0.232094
Si Si5 0.289223 0.415275 0.968070
Si Si6 0.903968 0.858105 0.399612
Si Si7 0.274410 0.749037 0.802199
Si Si8 0.619433 0.373910 0.336111
O O1 0.269169 0.117403 0.377687
O O2 0.526293 0.081248 0.239322
O O3 0.202531 0.500992 0.252627
O O4 0.108802 0.992057 0.321605
O O5 0.138175 0.092020 0.525860
O O6 0.381796 0.444577 0.394509
O O7 0.977688 0.512864 0.426990
O O8 0.542736 0.361539 0.939926
O O9 0.944109 0.346781 0.846746
O O10 0.795874 0.379810 0.985185
O O11 0.789115 0.897965 0.978726
O O12 0.799655 0.541653 0.308903
O O13 0.931338 0.026560 0.208178
O O14 0.241805 0.565122 0.891566
O O15 0.703813 0.032615 0.379346
O O16 0.364796 0.581672 0.745899
#
# Coordination Sequence:
#
# PCOD9099639 Si02
#       8
#     2   2   2   2   2   2   2   2
#     4  10  21  40  58  90 122 162 208 262 316 384
#     4  10  20  37  61  87 120 162 205 256 317 383
#     4  10  23  44  67  96 130 174 221 272 329 390
#     4  11  23  39  62  89 124 166 210 264 322 386
#     4  10  23  44  67  96 130 174 221 272 329 390
#     4  10  20  37  61  87 120 162 205 256 317 383
#     4  11  23  39  62  89 124 166 210 264 322 386
#     4  10  23  38  56  92 124 158 206 264 316 384
#
# _framework density 25.189171000000002
#
# number of rings (size 3 to 8) (size 9 to 14) (size 15 to 20)
#    0.000    1.750    1.250    2.250    3.500    1.000 
#    0.000    0.000    0.000   12.000    0.000    0.000 
#    0.000    0.000    0.000    0.000    0.000    0.000 
#
# Total GULP energy -89487.012817 kJ/mol
# GULP energy per Si atom -5592.938301 kJ/mol
# Density = 2.513184 g / cm^3
# Si number density = 25.189171 Si / 1000 Ang^3
#
#
#
# Elastic Constant Matrix: (Units=GPa)
#
#
# Indices 1 2 3 4 5 6 
#
# 1 83.9488 34.5134 41.1958 -12.2440 10.1819 -25.1485
# 2 34.5134 101.4112 36.5169 -1.3477 10.7721 -4.8082
# 3 41.1958 36.5169 138.0087 6.2894 11.3540 1.0418
# 4 -12.2440 -1.3477 6.2894 23.0859 -1.8021 1.6456
# 5 10.1819 10.7721 11.3540 -1.8021 50.6790 0.8824
# 6 -25.1485 -4.8082 1.0418 1.6456 0.8824 36.6878
#
#
#
# Elastic Compliance Matrix: (Units=1/GPa)
#
#
# Indices 1 2 3 4 5 6 
#
# 1 0.023609 -0.004632 -0.006339 0.012724 -0.002151 0.015237
# 2 -0.004632 0.012077 -0.001636 -0.001303 -0.001291 -0.001456
# 3 -0.006339 -0.001636 0.009935 -0.005897 -0.000735 -0.004560
# 4 0.012724 -0.001303 -0.005897 0.051197 0.000751 0.006404
# 5 -0.002151 -0.001291 -0.000735 0.000751 0.020667 -0.002154
# 6 0.015237 -0.001456 -0.004560 0.006404 -0.002154 0.037405
#
#
# Mechanical properties :
#
#
# Convention : Reuss Voigt Hill
#
# Bulk Modulus (GPa) = 49.00772 60.86899 54.93836
# Shear Modulus (GPa) = 26.75124 36.16671 31.45897
#
# Velocity S-wave (km/s) = 3.26239 3.79331 3.53782
# Velocity P-wave (km/s) = 5.80422 6.58808 6.20854
#
# Compressibility (1/GPa) = 0.02040495
#
# Stress axis : x y z
#
# Youngs Moduli (GPa) = 42.35761 82.80038 100.65595
#
# Poissons Ratio (x) = 0.38352 0.63811
# Poissons Ratio (y) = 0.19620 0.16472
# Poissons Ratio (z) = 0.26852 0.13550
#
# Static dielectric constant tensor:
#      x y z
#    x 2.071200 0.063770 -0.047960 
#    y 0.063770 2.050940 -0.054040 
#    z -0.047960 -0.054040 1.947790 
# 
# From -- ./inp_files/46965.got.cif
#   From: 2010.05.17/outbox.cif.g08.bks.cpg/sg2_24_cif.got.tgz:46965.got - 2010.06.03 11:33:40.
