data_PCOD9099094
_publ_section_title
;
Structure prediction by ZEFSAII (Michael W. Deem and Ramdas Pophale) SiO2 
 PCOD9099094
Probable space group: P -1
;
_chemical_formula_sum "Si O2"
_cell_formula_units_Z 16
_cell_length_a 7.617613
_cell_length_b 17.990964
_cell_length_c 9.439109
_cell_angle_alpha 115.260580
_cell_angle_beta 48.241938
_cell_angle_gamma 136.999773
_cell_volume 653.478740
_symmetry_space_group_name_H-M "P -1"
_symmetry_group_IT_number 2
_symmetry_cell_setting 'triclinic'
loop_
_space_group_symop_operation_xyz
x,y,z
-x,-y,-z
loop_
_atom_site_type_symbol
_atom_site_label
_atom_site_fract_x
_atom_site_fract_y
_atom_site_fract_z
Si Si1 0.188381 0.785826 0.426972
Si Si2 0.394681 0.727492 0.777451
Si Si3 0.667995 0.320605 0.539493
Si Si4 0.475106 0.570512 0.675586
Si Si5 0.587703 0.489228 0.789654
Si Si6 0.030747 0.901678 0.755424
Si Si7 0.950955 0.066636 0.909077
Si Si8 0.222473 0.838758 0.122146
O O1 0.363072 0.746428 0.362961
O O2 0.180545 0.800187 0.275039
O O3 0.829672 0.684348 0.580711
O O4 0.253842 0.884081 0.557639
O O5 0.468276 0.748797 0.588832
O O6 0.285584 0.607916 0.764659
O O7 0.705981 0.816588 0.775060
O O8 0.178701 0.751033 0.969031
O O9 0.540071 0.381957 0.692217
O O10 0.041079 0.413871 0.371687
O O11 0.500000 0.500000 0.500000
O O12 0.390175 0.505947 0.812068
O O13 0.500000 0.500000 0.000000
O O14 0.124621 0.018838 0.779989
O O15 0.982819 0.876705 0.928416
O O16 0.976899 0.132574 0.814492
O O17 0.581504 0.955211 0.021667
#
# Coordination Sequence:
#
# PCOD9099094 Si02
#       8
#     2   2   2   2   2   2   2   2
#     4  10  22  36  57  89 120 154 200 253 299 357
#     4  10  20  37  59  84 121 161 194 253 299 353
#     4  10  21  40  58  85 127 158 201 259 301 354
#     4  10  20  39  57  80 121 159 200 249 299 355
#     4  10  22  38  61  87 113 164 212 250 306 359
#     4   9  19  38  60  84 117 155 197 246 306 359
#     4   9  19  39  62  83 117 158 195 246 308 378
#     4  10  21  36  59  91 117 154 203 245 309 368
#
# _framework density 24.484349000000002
#
# number of rings (size 3 to 8) (size 9 to 14) (size 15 to 20)
#    0.000    2.250    1.250    0.750    1.750    2.000 
#    0.000    8.750    0.000    0.000    0.000    0.000 
#    0.000    0.000    0.000    0.000    0.000    0.000 
#
# Total GULP energy -89400.303839 kJ/mol
# GULP energy per Si atom -5587.518990 kJ/mol
# Density = 2.442862 g / cm^3
# Si number density = 24.484349 Si / 1000 Ang^3
#
#
#
# Elastic Constant Matrix: (Units=GPa)
#
#
# Indices 1 2 3 4 5 6 
#
# 1 121.5528 32.7028 62.4298 -7.0361 21.2371 -45.1165
# 2 32.7028 92.7818 51.0453 5.3270 18.1685 -29.2201
# 3 62.4298 51.0453 170.1726 14.8945 28.3207 -37.5632
# 4 -7.0361 5.3270 14.8945 33.9964 4.8745 6.3164
# 5 21.2371 18.1685 28.3207 4.8745 52.4372 -14.6516
# 6 -45.1165 -29.2201 -37.5632 6.3164 -14.6516 57.8466
#
#
#
# Elastic Compliance Matrix: (Units=1/GPa)
#
#
# Indices 1 2 3 4 5 6 
#
# 1 0.013071 -0.000504 -0.003028 0.003025 -0.001753 0.007199
# 2 -0.000504 0.014397 -0.002569 -0.001891 -0.001837 0.004952
# 3 -0.003028 -0.002569 0.008888 -0.004276 -0.001685 0.002152
# 4 0.003025 -0.001891 -0.004276 0.033725 -0.003022 -0.005821
# 5 -0.001753 -0.001837 -0.001685 -0.003022 0.022334 0.002597
# 6 0.007199 0.004952 0.002152 -0.005821 0.002597 0.028095
#
#
# Mechanical properties :
#
#
# Convention : Reuss Voigt Hill
#
# Bulk Modulus (GPa) = 41.40249 75.20697 58.30473
# Shear Modulus (GPa) = 35.52059 44.74466 40.13262
#
# Velocity S-wave (km/s) = 3.81300 4.27954 4.05299
# Velocity P-wave (km/s) = 6.02758 7.42983 6.76513
#
# Compressibility (1/GPa) = 0.02415314
#
# Stress axis : x y z
#
# Youngs Moduli (GPa) = 76.50341 69.45845 112.51690
#
# Poissons Ratio (x) = 0.03504 0.34068
# Poissons Ratio (y) = 0.03859 0.28908
# Poissons Ratio (z) = 0.23164 0.17845
#
# Static dielectric constant tensor:
#      x y z
#    x 2.095430 0.096510 0.002770 
#    y 0.096510 2.053870 0.059860 
#    z 0.002770 0.059860 1.983160 
# 
# From -- ./inp_files/218188.got.cif
#   From: 2010.05.17/outbox.cif.g08.bks.cpg/sg2_110_cif.got.tgz:218188.got - 2010.06.03 11:33:40.
