data_PCOD9099537
_publ_section_title
;
Structure prediction by ZEFSAII (Michael W. Deem and Ramdas Pophale) SiO2 
 PCOD9099537
Probable space group: P -1
;
_chemical_formula_sum "Si O2"
_cell_formula_units_Z 16
_cell_length_a 12.858237
_cell_length_b 9.119645
_cell_length_c 11.655358
_cell_angle_alpha 85.464611
_cell_angle_beta 135.075661
_cell_angle_gamma 120.666081
_cell_volume 735.253547
_symmetry_space_group_name_H-M "P -1"
_symmetry_group_IT_number 2
_symmetry_cell_setting 'triclinic'
loop_
_space_group_symop_operation_xyz
x,y,z
-x,-y,-z
loop_
_atom_site_type_symbol
_atom_site_label
_atom_site_fract_x
_atom_site_fract_y
_atom_site_fract_z
Si Si1 0.568134 0.174218 0.122476
Si Si2 0.197117 0.263524 0.991402
Si Si3 0.103017 0.448666 0.753205
Si Si4 0.209042 0.118504 0.788840
Si Si5 0.416407 0.115426 0.250252
Si Si6 0.208401 0.550246 0.393808
Si Si7 0.078937 0.279079 0.517625
Si Si8 0.011643 0.685598 0.977720
O O1 0.775931 0.349315 0.228296
O O2 0.536035 0.128273 0.234398
O O3 0.425440 0.219908 0.985112
O O4 0.500000 0.000000 0.000000
O O5 0.246913 0.438892 0.940860
O O6 0.102896 0.110289 0.821368
O O7 0.335851 0.229116 0.155066
O O8 0.080207 0.265199 0.001865
O O9 0.011853 0.308093 0.582173
O O10 0.941366 0.412646 0.709120
O O11 0.202451 0.224200 0.669982
O O12 0.098272 0.902327 0.677673
O O13 0.577434 0.245641 0.466259
O O14 0.231207 0.888343 0.129089
O O15 0.198181 0.456841 0.513212
O O16 0.118748 0.389215 0.235166
O O17 0.000000 0.500000 0.000000
#
# Coordination Sequence:
#
# PCOD9099537 Si02
#       8
#     2   2   2   2   2   2   2   2
#     4  11  22  37  64 100 141 181 222 267 345 418
#     4  10  23  46  69  96 135 183 222 280 341 402
#     4  11  22  39  68  99 143 173 212 284 347 398
#     4   9  21  37  64  96 134 183 220 272 344 410
#     4  11  26  43  72 102 134 180 232 281 339 406
#     4  12  24  42  70 103 132 180 230 282 339 401
#     4  10  20  37  60  98 136 169 221 280 336 402
#     4  12  26  50  73  95 138 181 234 289 339 400
#
# _framework density 21.761199000000001
#
# number of rings (size 3 to 8) (size 9 to 14) (size 15 to 20)
#    0.000    1.250    2.500    3.750    3.500    2.500 
#    0.000    0.000    0.000    0.000    0.000    0.000 
#    0.000    0.000    0.000    0.000    0.000    0.000 
#
# Total GULP energy -89117.113245 kJ/mol
# GULP energy per Si atom -5569.819578 kJ/mol
# Density = 2.171167 g / cm^3
# Si number density = 21.761199 Si / 1000 Ang^3
#
#
#
# Elastic Constant Matrix: (Units=GPa)
#
#
# Indices 1 2 3 4 5 6 
#
# 1 116.8611 38.4683 42.0672 20.7673 -22.1577 -7.7655
# 2 38.4683 75.4727 33.3522 8.1562 8.8133 -9.6426
# 3 42.0672 33.3522 94.0807 23.1151 -3.2511 7.1273
# 4 20.7673 8.1562 23.1151 32.5173 -5.8008 1.6394
# 5 -22.1577 8.8133 -3.2511 -5.8008 32.4353 -1.9105
# 6 -7.7655 -9.6426 7.1273 1.6394 -1.9105 25.6877
#
#
#
# Elastic Compliance Matrix: (Units=1/GPa)
#
#
# Indices 1 2 3 4 5 6 
#
# 1 0.014999 -0.006531 -0.003398 -0.003724 0.011256 0.004100
# 2 -0.006531 0.020997 -0.005550 0.000694 -0.010208 0.006644
# 3 -0.003398 -0.005550 0.016613 -0.008062 -0.001019 -0.007281
# 4 -0.003724 0.000694 -0.008062 0.039347 0.003444 -0.000884
# 5 0.011256 -0.010208 -0.001019 0.003444 0.041970 0.002755
# 6 0.004100 0.006644 -0.007281 -0.000884 0.002755 0.044944
#
#
# Mechanical properties :
#
#
# Convention : Reuss Voigt Hill
#
# Bulk Modulus (GPa) = 46.18652 57.13221 51.65937
# Shear Modulus (GPa) = 23.03670 29.62984 26.33327
#
# Velocity S-wave (km/s) = 3.25716 3.69398 3.48243
# Velocity P-wave (km/s) = 5.95112 6.67122 6.32143
#
# Compressibility (1/GPa) = 0.02165134
#
# Stress axis : x y z
#
# Youngs Moduli (GPa) = 66.67229 47.62521 60.19366
#
# Poissons Ratio (x) = 0.31106 0.20452
# Poissons Ratio (y) = 0.43547 0.33406
# Poissons Ratio (z) = 0.22653 0.26431
#
# Static dielectric constant tensor:
#      x y z
#    x 1.844640 -0.022970 -0.006830 
#    y -0.022970 1.882580 -0.036150 
#    z -0.006830 -0.036150 1.855920 
# 
# From -- ./inp_files/419502.got.cif
#   From: 2010.05.17/outbox.cif.g08.bks.cpg/sg2_210_cif.got.tgz:419502.got - 2010.06.03 11:33:40.
