data_PCOD9099854
_publ_section_title
;
Structure prediction by ZEFSAII (Michael W. Deem and Ramdas Pophale) SiO2 
 PCOD9099854
Probable space group: P -1
;
_chemical_formula_sum "Si O2"
_cell_formula_units_Z 12
_cell_length_a 8.851678
_cell_length_b 19.623744
_cell_length_c 11.047596
_cell_angle_alpha 30.556590
_cell_angle_beta 120.081085
_cell_angle_gamma 139.937769
_cell_volume 550.033428
_symmetry_space_group_name_H-M "P -1"
_symmetry_group_IT_number 2
_symmetry_cell_setting 'triclinic'
loop_
_space_group_symop_operation_xyz
x,y,z
-x,-y,-z
loop_
_atom_site_type_symbol
_atom_site_label
_atom_site_fract_x
_atom_site_fract_y
_atom_site_fract_z
Si Si1 0.501293 0.157698 0.219844
Si Si2 0.948769 0.104964 0.747109
Si Si3 0.028985 0.586575 0.667941
Si Si4 0.637389 0.882295 0.521692
Si Si5 0.312423 0.337739 0.302533
Si Si6 0.896844 0.640954 0.038931
O O1 0.340271 0.134441 0.300510
O O2 0.500000 0.000000 0.500000
O O3 0.343702 0.071897 0.161538
O O4 0.789540 0.394792 0.952313
O O5 0.000267 0.272864 0.584296
O O6 0.145143 0.226346 0.525448
O O7 0.000000 0.000000 0.000000
O O8 0.330760 0.751066 0.588451
O O9 0.036573 0.476153 0.736890
O O10 0.696875 0.794452 0.590519
O O11 0.844406 0.118494 0.207846
O O12 0.627220 0.530885 0.164854
O O13 0.191407 0.386050 0.097132
#
# Coordination Sequence:
#
# PCOD9099854 Si02
#       6
#     2   2   2   2   2   2
#     4  12  22  38  69 100 124 165 215 268 317 370
#     4  12  27  44  62  93 134 174 213 255 317 388
#     4  11  23  38  65  93 128 165 214 263 313 377
#     4  11  21  37  64 101 126 155 209 272 319 369
#     4  10  23  36  61  97 131 163 205 270 325 369
#     4  10  20  37  62 100 124 160 207 274 324 361
#
# _framework density 21.816855
#
# number of rings (size 3 to 8) (size 9 to 14) (size 15 to 20)
#    0.000    1.000    5.000    1.000    7.000    0.667 
#    0.000    3.333    0.000    6.000    0.000    0.000 
#    0.000    0.000    0.000    0.000    0.000    0.000 
#
# Total GULP energy -67005.429524 kJ/mol
# GULP energy per Si atom -5583.785794 kJ/mol
# Density = 2.176720 g / cm^3
# Si number density = 21.816855 Si / 1000 Ang^3
#
#
#
# Elastic Constant Matrix: (Units=GPa)
#
#
# Indices 1 2 3 4 5 6 
#
# 1 95.9302 15.4342 47.4033 -12.6921 25.8876 10.3795
# 2 15.4342 54.9965 42.7184 -20.3663 12.3325 19.5068
# 3 47.4033 42.7184 114.6245 -29.2803 27.9556 25.3143
# 4 -12.6921 -20.3663 -29.2803 48.9322 8.9323 0.8129
# 5 25.8876 12.3325 27.9556 8.9323 56.4109 -8.9249
# 6 10.3795 19.5068 25.3143 0.8129 -8.9249 23.9773
#
#
#
# Elastic Compliance Matrix: (Units=1/GPa)
#
#
# Indices 1 2 3 4 5 6 
#
# 1 0.017509 0.014286 0.003832 0.017093 -0.020756 -0.031552
# 2 0.014286 0.074606 0.023229 0.062042 -0.062687 -0.116842
# 3 0.003832 0.023229 0.037381 0.042435 -0.044421 -0.077995
# 4 0.017093 0.062042 0.042435 0.092652 -0.078471 -0.135025
# 5 -0.020756 -0.062687 -0.044421 -0.078471 0.098529 0.146218
# 6 -0.031552 -0.116842 -0.077995 -0.135025 0.146218 0.291770
#
#
# Mechanical properties :
#
#
# Convention : Reuss Voigt Hill
#
# Bulk Modulus (GPa) = 4.71279 52.96256 28.83768
# Shear Modulus (GPa) = 8.32661 36.53043 22.42852
#
# Velocity S-wave (km/s) = 1.95573 4.09640 3.20978
# Velocity P-wave (km/s) = 2.69531 6.83393 5.19458
#
# Compressibility (1/GPa) = 0.21218841
#
# Stress axis : x y z
#
# Youngs Moduli (GPa) = 57.11368 13.40373 26.75161
#
# Poissons Ratio (x) = -0.19148 -0.10251
# Poissons Ratio (y) = -0.81590 -0.62141
# Poissons Ratio (z) = -0.21885 -0.31135
#
# Static dielectric constant tensor:
#      x y z
#    x 1.877920 0.000340 0.048610 
#    y 0.000340 1.841250 -0.061620 
#    z 0.048610 -0.061620 1.814650 
# 
# From -- ./inp_files/240420.got.cif
#   From: 2010.05.17/outbox.cif.g08.bks.cpg/sg2_121_cif.got.tgz:240420.got - 2010.06.03 11:33:40.
