data_PCOD9099682
_publ_section_title
;
Structure prediction by ZEFSAII (Michael W. Deem and Ramdas Pophale) SiO2 
 PCOD9099682
Probable space group: P -1
;
_chemical_formula_sum "Si O2"
_cell_formula_units_Z 16
_cell_length_a 8.581300
_cell_length_b 12.154423
_cell_length_c 18.939586
_cell_angle_alpha 28.558802
_cell_angle_beta 59.429135
_cell_angle_gamma 43.613910
_cell_volume 600.917381
_symmetry_space_group_name_H-M "P -1"
_symmetry_group_IT_number 2
_symmetry_cell_setting 'triclinic'
loop_
_space_group_symop_operation_xyz
x,y,z
-x,-y,-z
loop_
_atom_site_type_symbol
_atom_site_label
_atom_site_fract_x
_atom_site_fract_y
_atom_site_fract_z
Si Si1 0.444061 0.322403 0.329828
Si Si2 0.337379 0.372127 0.041096
Si Si3 0.215639 0.715939 0.021359
Si Si4 0.210927 0.300290 0.505976
Si Si5 0.584406 0.152960 0.610514
Si Si6 0.715135 0.542627 0.148700
Si Si7 0.800899 0.763962 0.131110
Si Si8 0.131830 0.668235 0.519952
O O1 0.374996 0.448504 0.195498
O O2 0.215477 0.509419 0.332163
O O3 0.621925 0.370042 0.290520
O O4 0.500000 0.000000 0.500000
O O5 0.238283 0.599736 0.002261
O O6 0.319608 0.121783 0.203995
O O7 0.630024 0.180590 0.076105
O O8 0.203212 0.545151 0.901684
O O9 0.951246 0.870171 0.024669
O O10 0.469359 0.117316 0.590068
O O11 0.000000 0.500000 0.500000
O O12 0.120331 0.152462 0.566372
O O13 0.344780 0.468544 0.524632
O O14 0.794121 0.165765 0.547928
O O15 0.863936 0.545455 0.172950
O O16 0.478658 0.914704 0.985390
O O17 0.855079 0.556017 0.302461
#
# Coordination Sequence:
#
# PCOD9099682 Si02
#       8
#     2   2   2   2   2   2   2   2
#     4  11  22  42  62  92 128 167 208 264 323 385
#     4  10  21  43  58  92 125 175 208 260 325 382
#     4  10  23  39  67  88 130 167 212 264 318 390
#     4  10  21  37  61  93 123 166 215 255 324 379
#     4  10  20  37  61  88 133 168 201 272 315 376
#     4  10  24  40  67  90 129 169 212 266 327 380
#     4  11  21  42  63  98 123 167 216 268 321 384
#     4  10  20  37  61  93 126 161 217 261 317 381
#
# _framework density 26.625957
#
# number of rings (size 3 to 8) (size 9 to 14) (size 15 to 20)
#    0.000    1.750    2.500    1.500    0.000    4.500 
#    4.500    1.250    0.000    0.000    0.000    0.000 
#    0.000    0.000    0.000    0.000    0.000    0.000 
#
# Total GULP energy -89397.410886 kJ/mol
# GULP energy per Si atom -5587.338180 kJ/mol
# Density = 2.656535 g / cm^3
# Si number density = 26.625957 Si / 1000 Ang^3
#
#
#
# Elastic Constant Matrix: (Units=GPa)
#
#
# Indices 1 2 3 4 5 6 
#
# 1 206.8372 46.8088 55.1597 18.8866 -16.8216 6.6253
# 2 46.8088 61.8652 24.5071 22.9758 -8.5188 15.9024
# 3 55.1597 24.5071 108.3889 20.6061 -29.9867 0.4070
# 4 18.8866 22.9758 20.6061 35.4269 -1.1178 -7.3396
# 5 -16.8216 -8.5188 -29.9867 -1.1178 39.9955 1.5241
# 6 6.6253 15.9024 0.4070 -7.3396 1.5241 43.0995
#
#
#
# Elastic Compliance Matrix: (Units=1/GPa)
#
#
# Indices 1 2 3 4 5 6 
#
# 1 0.006375 -0.004531 -0.002488 0.001173 -0.000152 0.000920
# 2 -0.004531 0.031937 0.000765 -0.021673 0.005435 -0.014978
# 3 -0.002488 0.000765 0.014501 -0.007643 0.009839 -0.001686
# 4 0.001173 -0.021673 -0.007643 0.049255 -0.009109 0.016599
# 5 -0.000152 0.005435 0.009839 -0.009109 0.033402 -0.004807
# 6 0.000920 -0.014978 -0.001686 0.016599 -0.004807 0.031600
#
#
# Mechanical properties :
#
#
# Convention : Reuss Voigt Hill
#
# Bulk Modulus (GPa) = 24.81108 70.00471 47.40790
# Shear Modulus (GPa) = 25.90523 40.41208 33.15865
#
# Velocity S-wave (km/s) = 3.12257 3.90008 3.53278
# Velocity P-wave (km/s) = 4.72644 6.82861 5.87235
#
# Compressibility (1/GPa) = 0.04030458
#
# Stress axis : x y z
#
# Youngs Moduli (GPa) = 156.87109 31.31183 68.96226
#
# Poissons Ratio (x) = 0.14187 0.17159
# Poissons Ratio (y) = 0.71074 -0.05276
# Poissons Ratio (z) = 0.39031 -0.02395
#
# Static dielectric constant tensor:
#      x y z
#    x 2.113050 -0.042280 0.046630 
#    y -0.042280 2.351660 -0.024480 
#    z 0.046630 -0.024480 2.043770 
# 
# From -- ./inp_files/419308.got.cif
#   From: 2010.05.17/outbox.cif.g08.bks.cpg/sg2_210_cif.got.tgz:419308.got - 2010.06.03 11:33:40.
