data_PCOD9099353
_publ_section_title
;
Structure prediction by ZEFSAII (Michael W. Deem and Ramdas Pophale) SiO2 
 PCOD9099353
Probable space group: P -1
;
_chemical_formula_sum "Si O2"
_cell_formula_units_Z 16
_cell_length_a 11.565567
_cell_length_b 20.706614
_cell_length_c 14.908914
_cell_angle_alpha 24.993532
_cell_angle_beta 28.832000
_cell_angle_gamma 34.089432
_cell_volume 717.198549
_symmetry_space_group_name_H-M "P -1"
_symmetry_group_IT_number 2
_symmetry_cell_setting 'triclinic'
loop_
_space_group_symop_operation_xyz
x,y,z
-x,-y,-z
loop_
_atom_site_type_symbol
_atom_site_label
_atom_site_fract_x
_atom_site_fract_y
_atom_site_fract_z
Si Si1 0.911574 0.801522 0.581982
Si Si2 0.320682 0.816808 0.499196
Si Si3 0.739395 0.440609 0.268246
Si Si4 0.458139 0.233376 0.961819
Si Si5 0.925421 0.159062 0.082502
Si Si6 0.248689 0.086874 0.798738
Si Si7 0.818028 0.862374 0.893420
Si Si8 0.597331 0.833675 0.596247
O O1 0.760704 0.743397 0.676096
O O2 0.167933 0.690551 0.556519
O O3 0.940791 0.977195 0.323869
O O4 0.748940 0.807128 0.775927
O O5 0.340692 0.652263 0.644615
O O6 0.077528 0.840826 0.693800
O O7 0.535194 0.847163 0.379793
O O8 0.288792 0.954296 0.273227
O O9 0.542077 0.587044 0.244411
O O10 0.000000 0.500000 0.000000
O O11 0.685780 0.099307 0.996266
O O12 0.355351 0.216876 0.952951
O O13 0.642708 0.232440 0.187853
O O14 0.115989 0.204748 0.967961
O O15 0.010618 0.162203 0.918737
O O16 0.256034 0.130838 0.635288
O O17 0.500000 0.000000 0.500000
#
# Coordination Sequence:
#
# PCOD9099353 Si02
#       8
#     2   2   2   2   2   2   2   2
#     4  10  18  35  54  82 115 147 179 235 275 328
#     4  10  17  31  56  80 117 142 185 229 280 329
#     4  10  18  32  59  86 112 153 182 224 284 343
#     4  10  19  34  57  87 117 143 188 225 282 341
#     4  11  20  34  58  83 116 144 187 232 283 323
#     4  11  22  35  58  90 108 148 187 233 279 329
#     4  10  16  31  55  79 111 146 175 235 274 321
#     4  10  20  35  56  83 116 141 189 238 277 318
#
# _framework density 22.309025999999999
#
# number of rings (size 3 to 8) (size 9 to 14) (size 15 to 20)
#    0.000    1.750    7.500    0.750    0.000    4.000 
#    0.000    0.625    0.000    6.750    0.000    4.375 
#    0.000    0.000    0.000    0.000    0.000    0.000 
#
# Total GULP energy -89355.709818 kJ/mol
# GULP energy per Si atom -5584.731864 kJ/mol
# Density = 2.225825 g / cm^3
# Si number density = 22.309026 Si / 1000 Ang^3
#
#
#
# Elastic Constant Matrix: (Units=GPa)
#
#
# Indices 1 2 3 4 5 6 
#
# 1 119.8631 23.1914 24.1224 9.6936 4.4989 21.6551
# 2 23.1914 66.9904 16.7595 -9.5252 -1.3142 17.2992
# 3 24.1224 16.7595 29.7026 5.1892 -1.0679 3.5153
# 4 9.6936 -9.5252 5.1892 30.7448 17.1311 -6.4570
# 5 4.4989 -1.3142 -1.0679 17.1311 24.9544 4.8908
# 6 21.6551 17.2992 3.5153 -6.4570 4.8908 26.8916
#
#
#
# Elastic Compliance Matrix: (Units=1/GPa)
#
#
# Indices 1 2 3 4 5 6 
#
# 1 0.012429 -0.000742 -0.006545 -0.008729 0.005748 -0.011817
# 2 -0.000742 0.021862 -0.012504 0.009540 -0.004074 -0.008800
# 3 -0.006545 -0.012504 0.050128 -0.019489 0.016215 -0.000867
# 4 -0.008729 0.009540 -0.019489 0.084351 -0.063574 0.035256
# 5 0.005748 -0.004074 0.016215 -0.063574 0.090174 -0.035793
# 6 -0.011817 -0.008800 -0.000867 0.035256 -0.035793 0.067451
#
#
# Mechanical properties :
#
#
# Convention : Reuss Voigt Hill
#
# Bulk Modulus (GPa) = 22.30345 38.30029 30.30187
# Shear Modulus (GPa) = 13.12605 26.68368 19.90487
#
# Velocity S-wave (km/s) = 2.42827 3.46221 2.99027
# Velocity P-wave (km/s) = 4.22862 5.76089 5.05317
#
# Compressibility (1/GPa) = 0.04483612
#
# Stress axis : x y z
#
# Youngs Moduli (GPa) = 80.45956 45.74239 19.94884
#
# Poissons Ratio (x) = 0.03395 0.13056
# Poissons Ratio (y) = 0.05971 0.24944
# Poissons Ratio (z) = 0.52659 0.57197
#
# Static dielectric constant tensor:
#      x y z
#    x 1.898450 -0.000650 -0.008570 
#    y -0.000650 1.837370 0.026620 
#    z -0.008570 0.026620 1.892970 
# 
# From -- ./inp_files/523871.got.cif
#   From: 2010.05.17/outbox.cif.g08.bks.cpg/sg2_262_cif.got.tgz:523871.got - 2010.06.03 11:33:40.
