data_PCOD9099409
_publ_section_title
;
Structure prediction by ZEFSAII (Michael W. Deem and Ramdas Pophale) SiO2 
 PCOD9099409
Probable space group: P -1
;
_chemical_formula_sum "Si O2"
_cell_formula_units_Z 16
_cell_length_a 11.786454
_cell_length_b 14.398090
_cell_length_c 14.548065
_cell_angle_alpha 30.644113
_cell_angle_beta 68.673964
_cell_angle_gamma 49.439646
_cell_volume 824.847362
_symmetry_space_group_name_H-M "P -1"
_symmetry_group_IT_number 2
_symmetry_cell_setting 'triclinic'
loop_
_space_group_symop_operation_xyz
x,y,z
-x,-y,-z
loop_
_atom_site_type_symbol
_atom_site_label
_atom_site_fract_x
_atom_site_fract_y
_atom_site_fract_z
Si Si1 0.329768 0.720328 0.010361
Si Si2 0.170247 0.876786 0.111488
Si Si3 0.927238 0.988487 0.439280
Si Si4 0.664709 0.568261 0.019820
Si Si5 0.953914 0.214712 0.614039
Si Si6 0.337279 0.309263 0.283019
Si Si7 0.959421 0.614959 0.198451
Si Si8 0.923544 0.512028 0.107594
O O1 0.317002 0.710626 0.132683
O O2 0.379433 0.471215 0.165178
O O3 0.462917 0.742051 0.934701
O O4 0.144774 0.974133 0.805319
O O5 0.177579 0.735360 0.317485
O O6 0.133144 0.120193 0.949165
O O7 0.000000 0.000000 0.000000
O O8 0.041137 0.888827 0.398863
O O9 0.932179 0.771886 0.646110
O O10 0.000000 0.000000 0.500000
O O11 0.748229 0.279060 0.230348
O O12 0.713731 0.621821 0.867563
O O13 0.754729 0.574253 0.073969
O O14 0.928873 0.454866 0.395068
O O15 0.166459 0.432362 0.285486
O O16 0.500000 0.000000 0.500000
O O17 0.888030 0.684479 0.055189
O O18 0.000000 0.500000 0.000000
#
# Coordination Sequence:
#
# PCOD9099409 Si02
#       8
#     2   2   2   2   2   2   2   2
#     4  11  23  38  58  86 125 164 194 247 305 357
#     4  10  21  40  59  86 118 165 207 240 289 362
#     4   9  19  33  58  84 111 156 194 238 303 354
#     4  11  21  38  56  84 127 153 196 248 306 364
#     4  10  20  37  60  88 121 156 202 251 295 350
#     4  12  23  35  59  94 127 151 193 254 319 361
#     4  11  21  39  63  89 120 155 206 251 293 359
#     4  10  21  35  58  89 115 153 200 247 300 359
#
# _framework density 19.397528000000001
#
# number of rings (size 3 to 8) (size 9 to 14) (size 15 to 20)
#    0.000    1.500    5.000    1.125    5.250    2.000 
#    2.250    0.625    0.000    6.750    0.000    0.000 
#    0.000    0.000    0.000    0.000    0.000    0.000 
#
# Total GULP energy -89163.547971 kJ/mol
# GULP energy per Si atom -5572.721748 kJ/mol
# Density = 1.935338 g / cm^3
# Si number density = 19.397528 Si / 1000 Ang^3
#
#
#
# Elastic Constant Matrix: (Units=GPa)
#
#
# Indices 1 2 3 4 5 6 
#
# 1 72.8876 27.1378 12.3709 -5.0029 -13.1240 23.3629
# 2 27.1378 82.0150 21.0543 24.7657 -4.0248 20.9395
# 3 12.3709 21.0543 73.3827 14.6144 -3.7955 10.2967
# 4 -5.0029 24.7657 14.6144 31.4220 -0.3975 -2.9728
# 5 -13.1240 -4.0248 -3.7955 -0.3975 19.7553 0.7106
# 6 23.3629 20.9395 10.2967 -2.9728 0.7106 35.1238
#
#
#
# Elastic Compliance Matrix: (Units=1/GPa)
#
#
# Indices 1 2 3 4 5 6 
#
# 1 0.022858 -0.006377 -0.001520 0.008557 0.014144 -0.010518
# 2 -0.006377 0.023496 0.000101 -0.020667 0.000570 -0.011556
# 3 -0.001520 0.000101 0.016255 -0.008286 0.002131 -0.004558
# 4 0.008557 -0.020667 -0.008286 0.054630 0.000489 0.013673
# 5 0.014144 0.000570 0.002131 0.000489 0.060967 -0.011564
# 6 -0.010518 -0.011556 -0.004558 0.013673 -0.011564 0.045084
#
#
# Mechanical properties :
#
#
# Convention : Reuss Voigt Hill
#
# Bulk Modulus (GPa) = 21.26984 38.82348 30.04666
# Shear Modulus (GPa) = 19.64212 28.44170 24.04191
#
# Velocity S-wave (km/s) = 3.18560 3.83332 3.52438
# Velocity P-wave (km/s) = 4.95175 6.29687 5.66438
#
# Compressibility (1/GPa) = 0.04701492
#
# Stress axis : x y z
#
# Youngs Moduli (GPa) = 43.74869 42.55967 61.52138
#
# Poissons Ratio (x) = 0.27141 0.09353
# Poissons Ratio (y) = 0.27900 -0.00619
# Poissons Ratio (z) = 0.06651 -0.00428
#
# Static dielectric constant tensor:
#      x y z
#    x 1.758560 -0.005530 -0.043860 
#    y -0.005530 1.752870 -0.000720 
#    z -0.043860 -0.000720 1.713430 
# 
# From -- ./inp_files/467438.got.cif
#   From: 2010.05.17/outbox.cif.g08.bks.cpg/sg2_234_cif.got.tgz:467438.got - 2010.06.03 11:33:40.
