data_PCOD9099982
_publ_section_title
;
Structure prediction by ZEFSAII (Michael W. Deem and Ramdas Pophale) SiO2 
 PCOD9099982
Probable space group: P -1
;
_chemical_formula_sum "Si O2"
_cell_formula_units_Z 12
_cell_length_a 10.830669
_cell_length_b 12.254126
_cell_length_c 10.076803
_cell_angle_alpha 34.271192
_cell_angle_beta 120.015706
_cell_angle_gamma 140.371238
_cell_volume 444.439025
_symmetry_space_group_name_H-M "P -1"
_symmetry_group_IT_number 2
_symmetry_cell_setting 'triclinic'
loop_
_space_group_symop_operation_xyz
x,y,z
-x,-y,-z
loop_
_atom_site_type_symbol
_atom_site_label
_atom_site_fract_x
_atom_site_fract_y
_atom_site_fract_z
Si Si1 0.248590 0.763172 0.891836
Si Si2 0.689397 0.731928 0.650263
Si Si3 0.653913 0.386040 0.162790
Si Si4 0.227454 0.159541 0.911145
Si Si5 0.194047 0.391474 0.416701
Si Si6 0.207600 0.835720 0.420524
O O1 0.339614 0.737998 0.842195
O O2 0.293420 0.033123 0.628617
O O3 0.310759 0.705112 0.115563
O O4 0.000000 0.500000 0.000000
O O5 0.807467 0.722858 0.609351
O O6 0.756137 0.688186 0.867341
O O7 0.437645 0.443851 0.811320
O O8 0.775433 0.379207 0.342495
O O9 0.406564 0.125389 0.316119
O O10 0.219887 0.926934 0.185226
O O11 0.264701 0.292401 0.654673
O O12 0.000000 0.000000 0.000000
O O13 0.991973 0.282216 0.489843
#
# Coordination Sequence:
#
# PCOD9099982 Si02
#       6
#     2   2   2   2   2   2
#     4  11  22  39  59  89 122 156 200 246 292 351
#     4  10  22  37  63  92 115 160 195 243 306 345
#     4   9  19  37  60  84 122 151 199 247 288 351
#     4   9  19  38  64  86 121 156 196 244 295 355
#     4  10  20  37  62  89 122 152 196 249 292 355
#     4   9  17  37  59  86 119 159 185 247 292 344
#
# _framework density 27.000330000000002
#
# number of rings (size 3 to 8) (size 9 to 14) (size 15 to 20)
#    0.000    2.333    1.667    0.500    0.000    3.333 
#    0.000   12.500    0.000   15.000    0.000    0.000 
#    0.000    0.000    0.000    0.000    0.000    0.000 
#
# Total GULP energy -66958.838421 kJ/mol
# GULP energy per Si atom -5579.903202 kJ/mol
# Density = 2.693888 g / cm^3
# Si number density = 27.000330 Si / 1000 Ang^3
#
#
#
# Elastic Constant Matrix: (Units=GPa)
#
#
# Indices 1 2 3 4 5 6 
#
# 1 89.1281 -3.5250 57.5147 -0.4388 15.0265 24.1392
# 2 -3.5250 60.9235 43.1193 14.6106 -7.6974 5.3230
# 3 57.5147 43.1193 321.5456 74.4804 1.1883 -14.6679
# 4 -0.4388 14.6106 74.4804 67.8634 4.6809 -4.8584
# 5 15.0265 -7.6974 1.1883 4.6809 46.4377 1.3076
# 6 24.1392 5.3230 -14.6679 -4.8584 1.3076 21.3104
#
#
#
# Elastic Compliance Matrix: (Units=1/GPa)
#
#
# Indices 1 2 3 4 5 6 
#
# 1 0.031818 0.010603 -0.010733 0.007087 -0.007739 -0.043987
# 2 0.010603 0.023390 -0.006046 0.000002 0.001223 -0.022089
# 3 -0.010733 -0.006046 0.008175 -0.006646 0.002435 0.017630
# 4 0.007087 0.000002 -0.006646 0.021831 -0.004116 -0.007373
# 5 -0.007739 0.001223 0.002435 -0.004116 0.024377 0.007703
# 6 -0.043987 -0.022089 0.017630 -0.007373 0.007703 0.112250
#
#
# Mechanical properties :
#
#
# Convention : Reuss Voigt Hill
#
# Bulk Modulus (GPa) = 19.59543 73.97945 46.78744
# Shear Modulus (GPa) = 19.90425 52.08817 35.99621
#
# Velocity S-wave (km/s) = 2.71806 4.39699 3.65523
# Velocity P-wave (km/s) = 4.13808 7.29637 5.93130
#
# Compressibility (1/GPa) = 0.05103230
#
# Stress axis : x y z
#
# Youngs Moduli (GPa) = 31.42884 42.75251 122.32339
#
# Poissons Ratio (x) = -0.45330 1.31285
# Poissons Ratio (y) = -0.33324 0.73956
# Poissons Ratio (z) = 0.33731 0.25848
#
# Static dielectric constant tensor:
#      x y z
#    x 2.199950 0.033850 0.017120 
#    y 0.033850 2.212830 0.039560 
#    z 0.017120 0.039560 2.164370 
# 
# From -- ./inp_files/383756.got.cif
#   From: 2010.05.17/outbox.cif.g08.bks.cpg/sg2_192_cif.got.tgz:383756.got - 2010.06.03 11:33:40.
