data_PCOD9099733
_publ_section_title
;
Structure prediction by ZEFSAII (Michael W. Deem and Ramdas Pophale) SiO2 
 PCOD9099733
Probable space group: P -1
;
_chemical_formula_sum "Si O2"
_cell_formula_units_Z 14
_cell_length_a 16.546661
_cell_length_b 14.770469
_cell_length_c 7.380815
_cell_angle_alpha 106.407197
_cell_angle_beta 119.528851
_cell_angle_gamma 24.027172
_cell_volume 562.956745
_symmetry_space_group_name_H-M "P -1"
_symmetry_group_IT_number 2
_symmetry_cell_setting 'triclinic'
loop_
_space_group_symop_operation_xyz
x,y,z
-x,-y,-z
loop_
_atom_site_type_symbol
_atom_site_label
_atom_site_fract_x
_atom_site_fract_y
_atom_site_fract_z
Si Si1 0.467432 0.359566 0.583961
Si Si2 0.871163 0.787535 0.393552
Si Si3 0.746520 0.204293 0.089574
Si Si4 0.388361 0.262171 0.707546
Si Si5 0.619390 0.675127 0.863776
Si Si6 0.026879 0.099071 0.492011
Si Si7 0.107835 0.295321 0.035693
O O1 0.422567 0.302354 0.603822
O O2 0.449659 0.351057 0.347452
O O3 0.227928 0.646833 0.532353
O O4 0.701209 0.185230 0.848292
O O5 0.098510 0.507008 0.545601
O O6 0.934679 0.837443 0.530002
O O7 0.579575 0.055675 0.269361
O O8 0.892864 0.757031 0.185343
O O9 0.975177 0.062163 0.276683
O O10 0.500000 0.500000 0.000000
O O11 0.780318 0.110123 0.255751
O O12 0.601782 0.984270 0.752953
O O13 0.425433 0.283964 0.948722
O O14 0.905905 0.432057 0.011938
O O15 0.000000 0.500000 0.000000
#
# Coordination Sequence:
#
# PCOD9099733 Si02
#       7
#     2   2   2   2   2   2   2
#     4  10  20  37  61  90 123 165 209 250 310 363
#     4  10  22  42  62  95 123 162 213 257 308 375
#     4   9  17  29  58  91 120 168 201 249 313 353
#     4  10  23  40  66  92 123 167 210 253 308 375
#     4  11  23  39  66  92 124 165 207 257 310 372
#     4   9  17  35  58  87 127 159 206 259 300 362
#     4  11  24  43  64  93 127 161 207 261 312 375
#
# _framework density 24.868696
#
# number of rings (size 3 to 8) (size 9 to 14) (size 15 to 20)
#    0.000    2.000    2.857    1.714    2.000    2.857 
#    0.000    2.143    0.000   35.143    0.000    0.000 
#    0.000    0.000    0.000    0.000    0.000    0.000 
#
# Total GULP energy -78043.763234 kJ/mol
# GULP energy per Si atom -5574.554517 kJ/mol
# Density = 2.481209 g / cm^3
# Si number density = 24.868696 Si / 1000 Ang^3
#
#
#
# Elastic Constant Matrix: (Units=GPa)
#
#
# Indices 1 2 3 4 5 6 
#
# 1 51.4428 11.2705 24.8428 7.6237 1.9533 9.3538
# 2 11.2705 105.7681 14.5795 -34.1910 -14.9588 -8.0477
# 3 24.8428 14.5795 44.7658 -35.7574 -24.5177 -22.8826
# 4 7.6237 -34.1910 -35.7574 33.3367 -1.0039 -24.2379
# 5 1.9533 -14.9588 -24.5177 -1.0039 22.0537 -1.7251
# 6 9.3538 -8.0477 -22.8826 -24.2379 -1.7251 28.1370
#
#
#
# Elastic Compliance Matrix: (Units=1/GPa)
#
#
# Indices 1 2 3 4 5 6 
#
# 1 0.014371 0.001776 0.004309 0.008079 0.005601 0.006537
# 2 0.001776 0.009711 -0.006667 -0.000112 -0.001253 -0.003408
# 3 0.004309 -0.006667 0.003240 -0.013588 -0.002905 -0.012588
# 4 0.008079 -0.000112 -0.013588 0.005957 -0.016381 -0.009641
# 5 0.005601 -0.001253 -0.002905 -0.016381 0.038745 -0.016318
# 6 0.006537 -0.003408 -0.012588 -0.009641 -0.016318 0.012850
#
#
# Mechanical properties :
#
#
# Convention : Reuss Voigt Hill
#
# Bulk Modulus (GPa) = 38.22995 33.70693 35.96844
# Shear Modulus (GPa) = 52.76634 26.79107 39.77870
#
# Velocity S-wave (km/s) = 4.61129 3.28579 4.00378
# Velocity P-wave (km/s) = 6.61499 5.28948 5.98902
#
# Compressibility (1/GPa) = 0.02615750
#
# Stress axis : x y z
#
# Youngs Moduli (GPa) = 69.58677 102.97114 308.68393
#
# Poissons Ratio (x) = -0.18286 -1.33010
# Poissons Ratio (y) = -0.12357 2.05793
# Poissons Ratio (z) = -0.29985 0.68649
#
# Static dielectric constant tensor:
#      x y z
#    x 1.988370 0.033610 0.044480 
#    y 0.033610 2.114810 -0.066590 
#    z 0.044480 -0.066590 2.083770 
# 
# From -- ./inp_files/347880.got.cif
#   From: 2010.05.17/outbox.cif.g08.bks.cpg/sg2_174_cif.got.tgz:347880.got - 2010.06.03 11:33:40.
