data_PCOD9099210
_publ_section_title
;
Structure prediction by ZEFSAII (Michael W. Deem and Ramdas Pophale) SiO2 
 PCOD9099210
Probable space group: P -1
;
_chemical_formula_sum "Si O2"
_cell_formula_units_Z 16
_cell_length_a 16.716985
_cell_length_b 9.036339
_cell_length_c 5.636903
_cell_angle_alpha 84.169105
_cell_angle_beta 130.462522
_cell_angle_gamma 92.959276
_cell_volume 644.389742
_symmetry_space_group_name_H-M "P -1"
_symmetry_group_IT_number 2
_symmetry_cell_setting 'triclinic'
loop_
_space_group_symop_operation_xyz
x,y,z
-x,-y,-z
loop_
_atom_site_type_symbol
_atom_site_label
_atom_site_fract_x
_atom_site_fract_y
_atom_site_fract_z
Si Si1 0.943250 0.159967 0.607761
Si Si2 0.164919 0.079001 0.287073
Si Si3 0.564432 0.191920 0.763516
Si Si4 0.528798 0.331922 0.164563
Si Si5 0.331587 0.068820 0.256322
Si Si6 0.967944 0.381013 0.260832
Si Si7 0.151430 0.541500 0.379072
Si Si8 0.291983 0.297340 0.789839
O O1 0.961410 0.214537 0.367166
O O2 0.887747 0.305994 0.598209
O O3 0.870594 0.023643 0.547561
O O4 0.057614 0.124882 0.941062
O O5 0.251710 0.999216 0.300535
O O6 0.226885 0.219695 0.473985
O O7 0.571634 0.300643 0.522720
O O8 0.445057 0.126623 0.553694
O O9 0.640112 0.053487 0.867461
O O10 0.584422 0.258030 0.053043
O O11 0.500000 0.500000 0.000000
O O12 0.413020 0.265269 0.977016
O O13 0.271314 0.212972 0.008274
O O14 0.000000 0.500000 0.500000
O O15 0.064983 0.411490 0.269891
O O16 0.857840 0.424860 0.921958
O O17 0.257734 0.469503 0.692818
#
# Coordination Sequence:
#
# PCOD9099210 Si02
#       8
#     2   2   2   2   2   2   2   2
#     4  10  23  38  60  90 134 175 223 280 338 391
#     4  11  22  40  61  94 132 174 228 282 333 413
#     4  10  23  44  74 101 141 181 225 289 356 417
#     4  11  24  45  71 106 142 179 224 288 356 420
#     4  10  23  40  68  96 131 176 232 278 347 417
#     4   9  17  34  58  84 118 168 215 264 331 385
#     4  10  20  37  59  89 126 175 220 275 335 401
#     4  11  23  39  65  95 130 173 230 275 340 420
#
# _framework density 24.829694
#
# number of rings (size 3 to 8) (size 9 to 14) (size 15 to 20)
#    0.000    1.750    1.250    3.375    1.750    4.500 
#    0.000    3.125    0.000    0.000    0.000    0.000 
#    0.000    0.000    0.000    0.000    0.000    0.000 
#
# Total GULP energy -89345.791010 kJ/mol
# GULP energy per Si atom -5584.111938 kJ/mol
# Density = 2.477318 g / cm^3
# Si number density = 24.829694 Si / 1000 Ang^3
#
#
#
# Elastic Constant Matrix: (Units=GPa)
#
#
# Indices 1 2 3 4 5 6 
#
# 1 87.9180 31.3542 25.9430 -3.4046 -11.1743 0.3022
# 2 31.3542 66.9068 10.4888 -20.0649 -8.2485 -2.3902
# 3 25.9430 10.4888 76.5516 -27.8290 -5.2545 5.7049
# 4 -3.4046 -20.0649 -27.8290 35.4871 3.5323 -6.2328
# 5 -11.1743 -8.2485 -5.2545 3.5323 31.9657 -11.0218
# 6 0.3022 -2.3902 5.7049 -6.2328 -11.0218 40.0199
#
#
#
# Elastic Compliance Matrix: (Units=1/GPa)
#
#
# Indices 1 2 3 4 5 6 
#
# 1 0.017155 -0.009507 -0.008054 -0.010419 0.003279 -0.000269
# 2 -0.009507 0.024524 0.006489 0.018473 0.003572 0.004472
# 3 -0.008054 0.006489 0.022332 0.020464 0.000469 0.000581
# 4 -0.010419 0.018473 0.020464 0.054824 0.000858 0.007039
# 5 0.003279 0.003572 0.000469 0.000858 0.036929 0.010426
# 6 -0.000269 0.004472 0.000581 0.007039 0.010426 0.029141
#
#
# Mechanical properties :
#
#
# Convention : Reuss Voigt Hill
#
# Bulk Modulus (GPa) = 23.88458 40.77203 32.32831
# Shear Modulus (GPa) = 22.62404 32.40058 27.51231
#
# Velocity S-wave (km/s) = 3.02183 3.61628 3.33234
# Velocity P-wave (km/s) = 4.67071 5.82176 5.27771
#
# Compressibility (1/GPa) = 0.04186802
#
# Stress axis : x y z
#
# Youngs Moduli (GPa) = 58.29088 40.77621 44.77940
#
# Poissons Ratio (x) = 0.38765 0.36064
# Poissons Ratio (y) = 0.55416 -0.29058
# Poissons Ratio (z) = 0.46946 -0.26460
#
# Static dielectric constant tensor:
#      x y z
#    x 2.080450 0.003390 -0.048500 
#    y 0.003390 1.977870 -0.040350 
#    z -0.048500 -0.040350 2.043780 
# 
# From -- ./inp_files/106804.got.cif
#   From: 2010.05.17/outbox.cif.g08.bks.cpg/sg2_54_cif.got.tgz:106804.got - 2010.06.03 11:33:40.
