data_PCOD9099610
_publ_section_title
;
Structure prediction by ZEFSAII (Michael W. Deem and Ramdas Pophale) SiO2 
 PCOD9099610
Probable space group: P -1
;
_chemical_formula_sum "Si O2"
_cell_formula_units_Z 16
_cell_length_a 8.952988
_cell_length_b 11.487379
_cell_length_c 26.340202
_cell_angle_alpha 152.805821
_cell_angle_beta 32.773074
_cell_angle_gamma 139.143901
_cell_volume 669.768855
_symmetry_space_group_name_H-M "P -1"
_symmetry_group_IT_number 2
_symmetry_cell_setting 'triclinic'
loop_
_space_group_symop_operation_xyz
x,y,z
-x,-y,-z
loop_
_atom_site_type_symbol
_atom_site_label
_atom_site_fract_x
_atom_site_fract_y
_atom_site_fract_z
Si Si1 0.824985 0.165211 0.397256
Si Si2 0.192310 0.051701 0.831958
Si Si3 0.941077 0.244270 0.077450
Si Si4 0.812938 0.365240 0.673585
Si Si5 0.603375 0.544091 0.905089
Si Si6 0.067605 0.762539 0.115222
Si Si7 0.352354 0.490379 0.335271
Si Si8 0.582561 0.809905 0.562973
O O1 0.710389 0.244019 0.515068
O O2 0.612602 0.283233 0.463252
O O3 0.122627 0.298558 0.351939
O O4 0.870245 0.863772 0.255629
O O5 0.413914 0.288970 0.863654
O O6 0.999228 0.039587 0.832826
O O7 0.402612 0.829592 0.673566
O O8 0.989685 0.125302 0.962638
O O9 0.652342 0.379031 0.216662
O O10 0.189156 0.434547 0.099168
O O11 0.000000 0.000000 0.000000
O O12 0.765771 0.541153 0.804276
O O13 0.692688 0.470492 0.696714
O O14 0.134924 0.321484 0.558548
O O15 0.673826 0.093702 0.625535
O O16 0.373467 0.755478 0.046726
O O17 0.000000 0.500000 0.000000
#
# Coordination Sequence:
#
# PCOD9099610 Si02
#       8
#     2   2   2   2   2   2   2   2
#     4  10  22  41  61  90 128 169 206 248 313 375
#     4   9  20  38  61  86 116 156 201 253 312 364
#     4  12  25  39  57  87 125 163 209 255 300 365
#     4  10  21  39  64  94 123 156 207 261 310 366
#     4  10  20  37  61  86 118 156 199 256 310 361
#     4   9  18  37  65  90 116 155 209 257 301 364
#     4  11  25  41  60  90 130 168 205 253 311 374
#     4   9  20  40  64  91 120 158 207 257 309 369
#
# _framework density 23.888839000000001
#
# number of rings (size 3 to 8) (size 9 to 14) (size 15 to 20)
#    0.000    2.000    0.000    3.375    0.000    8.000 
#    0.000    9.375    0.000    0.000    0.000    0.000 
#    0.000    0.000    0.000    0.000    0.000    0.000 
#
# Total GULP energy -89273.561445 kJ/mol
# GULP energy per Si atom -5579.597590 kJ/mol
# Density = 2.383447 g / cm^3
# Si number density = 23.888839 Si / 1000 Ang^3
#
#
#
# Elastic Constant Matrix: (Units=GPa)
#
#
# Indices 1 2 3 4 5 6 
#
# 1 76.8782 8.6850 32.5156 -8.9540 -16.4529 17.6458
# 2 8.6850 69.2194 23.5579 5.4237 -7.9693 14.0062
# 3 32.5156 23.5579 155.6087 -21.5303 -6.2925 5.0777
# 4 -8.9540 5.4237 -21.5303 26.8372 8.7592 -2.0395
# 5 -16.4529 -7.9693 -6.2925 8.7592 59.7208 -12.8407
# 6 17.6458 14.0062 5.0777 -2.0395 -12.8407 27.4926
#
#
#
# Elastic Compliance Matrix: (Units=1/GPa)
#
#
# Indices 1 2 3 4 5 6 
#
# 1 0.017101 0.001022 -0.003106 0.001549 0.002189 -0.009786
# 2 0.001022 0.018142 -0.003629 -0.007401 0.001449 -0.009100
# 3 -0.003106 -0.003629 0.008476 0.006991 -0.000968 0.002343
# 4 0.001549 -0.007401 0.006991 0.047092 -0.006293 0.002039
# 5 0.002189 0.001449 -0.000968 -0.006293 0.019831 0.006831
# 6 -0.009786 -0.009100 0.002343 0.002039 0.006831 0.050200
#
#
# Mechanical properties :
#
#
# Convention : Reuss Voigt Hill
#
# Bulk Modulus (GPa) = 30.96528 47.91371 39.43949
# Shear Modulus (GPa) = 27.31788 38.60664 32.96226
#
# Velocity S-wave (km/s) = 3.38530 4.02443 3.71862
# Velocity P-wave (km/s) = 5.31702 6.45718 5.91464
#
# Compressibility (1/GPa) = 0.03229424
#
# Stress axis : x y z
#
# Youngs Moduli (GPa) = 58.47696 55.12186 117.97402
#
# Poissons Ratio (x) = -0.05634 0.36642
# Poissons Ratio (y) = -0.05977 0.42807
# Poissons Ratio (z) = 0.18162 0.20001
#
# Static dielectric constant tensor:
#      x y z
#    x 1.943540 -0.009290 0.088890 
#    y -0.009290 2.104120 0.082570 
#    z 0.088890 0.082570 2.013970 
# 
# From -- ./inp_files/617057.got.cif
#   From: 2010.05.17/outbox.cif.g08.bks.cpg/sg2_309_cif.got.tgz:617057.got - 2010.06.03 11:33:40.
