data_PCOD9099095
_publ_section_title
;
Structure prediction by ZEFSAII (Michael W. Deem and Ramdas Pophale) SiO2 
 PCOD9099095
Probable space group: P -1
;
_chemical_formula_sum "Si O2"
_cell_formula_units_Z 14
_cell_length_a 10.634149
_cell_length_b 9.097886
_cell_length_c 13.424509
_cell_angle_alpha 59.242367
_cell_angle_beta 31.352606
_cell_angle_gamma 55.548173
_cell_volume 556.027150
_symmetry_space_group_name_H-M "P -1"
_symmetry_group_IT_number 2
_symmetry_cell_setting 'triclinic'
loop_
_space_group_symop_operation_xyz
x,y,z
-x,-y,-z
loop_
_atom_site_type_symbol
_atom_site_label
_atom_site_fract_x
_atom_site_fract_y
_atom_site_fract_z
Si Si1 0.548214 0.300137 0.574665
Si Si2 0.458332 0.208831 0.465931
Si Si3 0.889790 0.789864 0.835057
Si Si4 0.190787 0.256515 0.425735
Si Si5 0.294725 0.605980 0.207683
Si Si6 0.459794 0.897896 0.916304
Si Si7 0.306409 0.494409 0.859781
O O1 0.500000 0.500000 0.500000
O O2 0.387038 0.237705 0.620284
O O3 0.463458 0.338409 0.732231
O O4 0.844609 0.201387 0.391693
O O5 0.267298 0.278576 0.480382
O O6 0.673956 0.312996 0.261934
O O7 0.500000 0.000000 0.500000
O O8 0.677631 0.843456 0.872691
O O9 0.921311 0.588039 0.926478
O O10 0.764927 0.933544 0.955215
O O11 0.194254 0.439847 0.305185
O O12 0.388432 0.097826 0.289421
O O13 0.902750 0.261794 0.628858
O O14 0.543325 0.524031 0.131881
O O15 0.340277 0.732812 0.047462
#
# Coordination Sequence:
#
# PCOD9099095 Si02
#       7
#     2   2   2   2   2   2   2
#     4  10  22  41  64  84 119 167 205 247 294 357
#     4  10  23  38  58  87 120 159 209 243 284 367
#     4  10  22  38  63  94 120 150 208 256 303 368
#     4  10  20  37  59  84 127 163 192 246 311 358
#     4   9  19  36  62  92 118 155 200 248 308 372
#     4  10  21  36  60  96 121 149 197 261 312 354
#     4   9  20  41  65  87 118 157 200 255 309 351
#
# _framework density 25.178626999999999
#
# number of rings (size 3 to 8) (size 9 to 14) (size 15 to 20)
#    0.000    2.286    0.000    1.286    4.000    3.429 
#    0.000    6.429    0.000    0.000    0.000    0.000 
#    0.000    0.000    0.000    0.000    0.000    0.000 
#
# Total GULP energy -78004.624613 kJ/mol
# GULP energy per Si atom -5571.758901 kJ/mol
# Density = 2.512132 g / cm^3
# Si number density = 25.178627 Si / 1000 Ang^3
#
#
#
# Elastic Constant Matrix: (Units=GPa)
#
#
# Indices 1 2 3 4 5 6 
#
# 1 60.8212 25.7126 3.7368 2.6919 6.0311 14.7966
# 2 25.7126 111.3684 43.3220 0.9060 8.5874 5.2789
# 3 3.7368 43.3220 124.4904 4.1463 7.0687 -1.9830
# 4 2.6919 0.9060 4.1463 56.0551 1.2027 12.3320
# 5 6.0311 8.5874 7.0687 1.2027 20.8329 5.8252
# 6 14.7966 5.2789 -1.9830 12.3320 5.8252 34.7542
#
#
#
# Elastic Compliance Matrix: (Units=1/GPa)
#
#
# Indices 1 2 3 4 5 6 
#
# 1 0.020397 -0.004540 0.000941 0.000800 -0.002203 -0.007855
# 2 -0.004540 0.011670 -0.003802 0.000312 -0.002284 0.000215
# 3 0.000941 -0.003802 0.009512 -0.000955 -0.002280 0.001441
# 4 0.000800 0.000312 -0.000955 0.019501 0.000941 -0.007520
# 5 -0.002203 -0.002284 -0.002280 0.000941 0.052532 -0.007984
# 6 -0.007855 0.000215 0.001441 -0.007520 -0.007984 0.036174
#
#
# Mechanical properties :
#
#
# Convention : Reuss Voigt Hill
#
# Bulk Modulus (GPa) = 37.34543 49.13587 43.24065
# Shear Modulus (GPa) = 28.81635 37.25567 33.03601
#
# Velocity S-wave (km/s) = 3.38668 3.85080 3.62617
# Velocity P-wave (km/s) = 5.49156 6.27127 5.89432
#
# Compressibility (1/GPa) = 0.02677704
#
# Stress axis : x y z
#
# Youngs Moduli (GPa) = 49.02676 85.69246 105.13227
#
# Poissons Ratio (x) = 0.38900 -0.09891
# Poissons Ratio (y) = 0.22256 0.39971
# Poissons Ratio (z) = -0.04612 0.32580
#
# Static dielectric constant tensor:
#      x y z
#    x 2.668560 -0.012210 0.119930 
#    y -0.012210 2.123080 -0.012690 
#    z 0.119930 -0.012690 2.103470 
# 
# From -- ./inp_files/357038.got.cif
#   From: 2010.05.17/outbox.cif.g08.bks.cpg/sg2_179_cif.got.tgz:357038.got - 2010.06.03 11:33:40.
