data_PCOD9099066
_publ_section_title
;
Structure prediction by ZEFSAII (Michael W. Deem and Ramdas Pophale) SiO2 
 PCOD9099066
Probable space group: P -1
;
_chemical_formula_sum "Si O2"
_cell_formula_units_Z 16
_cell_length_a 18.222510
_cell_length_b 7.592841
_cell_length_c 15.844914
_cell_angle_alpha 60.271252
_cell_angle_beta 24.882272
_cell_angle_gamma 48.507389
_cell_volume 651.361721
_symmetry_space_group_name_H-M "P -1"
_symmetry_group_IT_number 2
_symmetry_cell_setting 'triclinic'
loop_
_space_group_symop_operation_xyz
x,y,z
-x,-y,-z
loop_
_atom_site_type_symbol
_atom_site_label
_atom_site_fract_x
_atom_site_fract_y
_atom_site_fract_z
Si Si1 0.165573 0.456238 0.212731
Si Si2 0.939051 0.242617 0.579361
Si Si3 0.939023 0.347558 0.040397
Si Si4 0.504573 0.217235 0.637901
Si Si5 0.404017 0.813920 0.823842
Si Si6 0.641426 0.100336 0.341038
Si Si7 0.956861 0.993534 0.248644
Si Si8 0.642083 0.256057 0.759623
O O1 0.035942 0.334269 0.386361
O O2 0.148527 0.568254 0.296988
O O3 0.423111 0.273657 0.972128
O O4 0.043808 0.702165 0.221934
O O5 0.754307 0.220240 0.742341
O O6 0.151954 0.975435 0.447741
O O7 0.729246 0.537082 0.160657
O O8 0.928259 0.167622 0.158740
O O9 0.000000 0.500000 0.000000
O O10 0.123991 0.150767 0.831606
O O11 0.706787 0.145657 0.499020
O O12 0.485897 0.985642 0.711388
O O13 0.546762 0.255708 0.487256
O O14 0.565439 0.533471 0.751073
O O15 0.369457 0.791898 0.764967
O O16 0.169102 0.950115 0.080051
O O17 0.500000 0.000000 0.500000
#
# Coordination Sequence:
#
# PCOD9099066 Si02
#       8
#     2   2   2   2   2   2   2   2
#     4  10  21  39  58  82 114 145 180 231 279 329
#     4  10  21  37  60  85 109 143 186 222 285 338
#     4  11  19  35  54  77 109 142 184 219 265 316
#     4  11  20  36  55  75 112 146 182 224 265 313
#     4   9  19  34  53  80 108 139 183 224 265 320
#     4   9  18  33  53  76 102 148 176 218 265 310
#     4  10  21  35  56  81 105 149 180 221 273 316
#     4  10  20  37  59  84 110 145 180 231 276 333
#
# _framework density 24.563924
#
# number of rings (size 3 to 8) (size 9 to 14) (size 15 to 20)
#    0.000    2.000    3.750    1.875    0.000    3.000 
#    0.000    2.500    0.000    0.000    0.000    0.000 
#    0.000    0.000    0.000    0.000    0.000    0.000 
#
# Total GULP energy -89206.219551 kJ/mol
# GULP energy per Si atom -5575.388722 kJ/mol
# Density = 2.450802 g / cm^3
# Si number density = 24.563924 Si / 1000 Ang^3
#
#
#
# Elastic Constant Matrix: (Units=GPa)
#
#
# Indices 1 2 3 4 5 6 
#
# 1 60.4233 11.2068 13.4562 -1.5220 -13.1022 -5.6731
# 2 11.2068 121.1134 41.7087 1.4448 -13.3264 -17.6861
# 3 13.4562 41.7087 118.4138 22.5299 -33.5159 -17.1083
# 4 -1.5220 1.4448 22.5299 52.5119 -2.2439 -10.7438
# 5 -13.1022 -13.3264 -33.5159 -2.2439 31.3223 5.8960
# 6 -5.6731 -17.6861 -17.1083 -10.7438 5.8960 35.9195
#
#
#
# Elastic Compliance Matrix: (Units=1/GPa)
#
#
# Indices 1 2 3 4 5 6 
#
# 1 0.018435 -0.000749 0.000343 0.001097 0.007500 0.001804
# 2 -0.000749 0.009973 -0.003281 0.001886 -0.000165 0.003821
# 3 0.000343 -0.003281 0.014707 -0.005294 0.013805 0.001594
# 4 0.001097 0.001886 -0.005294 0.022335 -0.003914 0.005904
# 5 0.007500 -0.000165 0.013805 -0.003914 0.049798 -0.001667
# 6 0.001804 0.003821 0.001594 0.005904 -0.001667 0.032805
#
#
# Mechanical properties :
#
#
# Convention : Reuss Voigt Hill
#
# Bulk Modulus (GPa) = 27.97853 48.07710 38.02782
# Shear Modulus (GPa) = 29.87917 39.52264 34.70090
#
# Velocity S-wave (km/s) = 3.49145 4.01555 3.76264
# Velocity P-wave (km/s) = 5.26008 6.41204 5.86442
#
# Compressibility (1/GPa) = 0.03574169
#
# Stress axis : x y z
#
# Youngs Moduli (GPa) = 54.24318 100.26736 67.99707
#
# Poissons Ratio (x) = 0.07506 -0.02334
# Poissons Ratio (y) = 0.04060 0.22313
# Poissons Ratio (z) = -0.01862 0.32903
#
# Static dielectric constant tensor:
#      x y z
#    x 1.964180 -0.001710 -0.012650 
#    y -0.001710 1.947850 -0.026900 
#    z -0.012650 -0.026900 1.996470 
# 
# From -- ./inp_files/601843.got.cif
#   From: 2010.05.17/outbox.cif.g08.bks.cpg/sg2_301_cif.got.tgz:601843.got - 2010.06.03 11:33:40.
