data_PCOD9099432
_publ_section_title
;
Structure prediction by ZEFSAII (Michael W. Deem and Ramdas Pophale) SiO2 
 PCOD9099432
Probable space group: P -1
;
_chemical_formula_sum "Si O2"
_cell_formula_units_Z 16
_cell_length_a 17.189810
_cell_length_b 8.475456
_cell_length_c 20.235298
_cell_angle_alpha 140.246999
_cell_angle_beta 161.017324
_cell_angle_gamma 46.975114
_cell_volume 598.925016
_symmetry_space_group_name_H-M "P -1"
_symmetry_group_IT_number 2
_symmetry_cell_setting 'triclinic'
loop_
_space_group_symop_operation_xyz
x,y,z
-x,-y,-z
loop_
_atom_site_type_symbol
_atom_site_label
_atom_site_fract_x
_atom_site_fract_y
_atom_site_fract_z
Si Si1 0.997435 0.936133 0.400971
Si Si2 0.834625 0.413374 0.669744
Si Si3 0.080044 0.790217 0.191984
Si Si4 0.693744 0.979548 0.858222
Si Si5 0.475678 0.280340 0.549417
Si Si6 0.553778 0.694704 0.320062
Si Si7 0.741259 0.311085 0.252020
Si Si8 0.474444 0.776029 0.083288
O O1 0.261703 0.084516 0.636456
O O2 0.797478 0.080266 0.263145
O O3 0.008359 0.669668 0.291486
O O4 0.000000 0.000000 0.500000
O O5 0.980930 0.364437 0.837588
O O6 0.559847 0.234060 0.404690
O O7 0.749582 0.667610 0.659123
O O8 0.280124 0.651883 0.275786
O O9 0.207858 0.073446 0.411308
O O10 0.912393 0.850944 0.015767
O O11 0.653115 0.146658 0.815718
O O12 0.705635 0.184351 0.992226
O O13 0.470604 0.413098 0.659427
O O14 0.500000 0.000000 0.500000
O O15 0.594356 0.486437 0.232159
O O16 0.000000 0.500000 0.500000
O O17 0.615020 0.159510 0.038270
O O18 0.500000 0.500000 0.000000
#
# Coordination Sequence:
#
# PCOD9099432 Si02
#       8
#     2   2   2   2   2   2   2   2
#     4  11  24  38  58  91 129 164 195 247 305 360
#     4  10  21  42  60  85 121 153 199 247 297 358
#     4  10  21  38  64  85 111 160 204 242 296 361
#     4  10  20  37  60  89 119 154 200 242 291 353
#     4  10  22  41  62  85 115 153 195 254 311 349
#     4  10  21  36  57  90 126 152 192 255 295 344
#     4  12  20  35  63  90 122 167 206 239 294 361
#     4  11  20  36  60  90 121 161 208 242 281 358
#
# _framework density 26.71453
#
# number of rings (size 3 to 8) (size 9 to 14) (size 15 to 20)
#    0.000    1.500    2.500    4.125    0.000    1.500 
#    0.000    3.750    0.000    0.000    0.000    0.000 
#    0.000    0.000    0.000    0.000    0.000    0.000 
#
# Total GULP energy -89279.681040 kJ/mol
# GULP energy per Si atom -5579.980065 kJ/mol
# Density = 2.665373 g / cm^3
# Si number density = 26.714530 Si / 1000 Ang^3
#
#
#
# Elastic Constant Matrix: (Units=GPa)
#
#
# Indices 1 2 3 4 5 6 
#
# 1 98.7592 17.8519 -3.4852 -22.3572 -18.4992 -2.9568
# 2 17.8519 119.2036 24.1985 -31.4401 -0.0057 1.5468
# 3 -3.4852 24.1985 86.5052 -27.8213 -10.5073 16.2016
# 4 -22.3572 -31.4401 -27.8213 53.6815 8.2807 -13.3218
# 5 -18.4992 -0.0057 -10.5073 8.2807 42.2268 -13.3316
# 6 -2.9568 1.5468 16.2016 -13.3218 -13.3316 47.0308
#
#
#
# Elastic Compliance Matrix: (Units=1/GPa)
#
#
# Indices 1 2 3 4 5 6 
#
# 1 0.013116 -0.000942 0.002950 0.006313 0.006321 0.003419
# 2 -0.000942 0.010240 -0.001606 0.005307 -0.001458 0.001247
# 3 0.002950 -0.001606 0.015196 0.007176 0.002999 -0.002114
# 4 0.006313 0.005307 0.007176 0.029539 0.000758 0.006332
# 5 0.006321 -0.001458 0.002999 0.000758 0.029577 0.008011
# 6 0.003419 0.001247 -0.002114 0.006332 0.008011 0.026229
#
#
# Mechanical properties :
#
#
# Convention : Reuss Voigt Hill
#
# Bulk Modulus (GPa) = 25.41038 42.39983 33.90511
# Shear Modulus (GPa) = 36.70721 46.31467 41.51094
#
# Velocity S-wave (km/s) = 3.71084 4.16828 3.94619
# Velocity P-wave (km/s) = 5.28138 6.25075 5.78640
#
# Compressibility (1/GPa) = 0.03935400
#
# Stress axis : x y z
#
# Youngs Moduli (GPa) = 76.24540 97.66046 65.80542
#
# Poissons Ratio (x) = 0.09200 -0.19410
# Poissons Ratio (y) = 0.07182 0.10570
# Poissons Ratio (z) = -0.22489 0.15687
#
# Static dielectric constant tensor:
#      x y z
#    x 2.227790 -0.074090 0.117360 
#    y -0.074090 2.153140 0.092160 
#    z 0.117360 0.092160 2.108350 
# 
# From -- ./inp_files/226076.got.cif
#   From: 2010.05.17/outbox.cif.g08.bks.cpg/sg2_114_cif.got.tgz:226076.got - 2010.06.03 11:33:40.
