data_PCOD9099376
_publ_section_title
;
Structure prediction by ZEFSAII (Michael W. Deem and Ramdas Pophale) SiO2 
 PCOD9099376
Probable space group: P -1
;
_chemical_formula_sum "Si O2"
_cell_formula_units_Z 16
_cell_length_a 15.556496
_cell_length_b 13.493044
_cell_length_c 9.481006
_cell_angle_alpha 40.876465
_cell_angle_beta 57.288099
_cell_angle_gamma 30.657911
_cell_volume 626.967787
_symmetry_space_group_name_H-M "P -1"
_symmetry_group_IT_number 2
_symmetry_cell_setting 'triclinic'
loop_
_space_group_symop_operation_xyz
x,y,z
-x,-y,-z
loop_
_atom_site_type_symbol
_atom_site_label
_atom_site_fract_x
_atom_site_fract_y
_atom_site_fract_z
Si Si1 0.084903 0.190058 0.009630
Si Si2 0.354846 0.426569 0.446103
Si Si3 0.703483 0.309742 0.527050
Si Si4 0.259304 0.246727 0.897776
Si Si5 0.616489 0.707243 0.034069
Si Si6 0.338783 0.789531 0.688958
Si Si7 0.865874 0.223336 0.999231
Si Si8 0.398225 0.821857 0.895168
O O1 0.159458 0.992852 0.281126
O O2 0.238405 0.007498 0.948619
O O3 0.089753 0.353558 0.889207
O O4 0.926465 0.293080 0.963394
O O5 0.262293 0.656117 0.388396
O O6 0.293064 0.340942 0.653560
O O7 0.567191 0.206168 0.504578
O O8 0.296751 0.525554 0.229539
O O9 0.500000 0.500000 0.500000
O O10 0.713116 0.431486 0.275791
O O11 0.261950 0.312690 0.981674
O O12 0.441005 0.928596 0.053906
O O13 0.528362 0.796806 0.862534
O O14 0.320366 0.916518 0.707167
O O15 0.173800 0.874763 0.761315
O O16 0.491954 0.470046 0.888824
O O17 0.000000 0.000000 0.000000
#
# Coordination Sequence:
#
# PCOD9099376 Si02
#       8
#     2   2   2   2   2   2   2   2
#     4  11  20  34  54  89 109 141 181 225 277 317
#     4  11  20  34  55  85 110 145 178 223 278 323
#     4  11  16  29  58  83 104 138 187 232 258 309
#     4   9  20  33  52  85 114 137 185 222 272 325
#     4   9  18  32  53  84 107 144 178 236 261 310
#     4  11  18  33  56  86 106 137 190 229 265 321
#     4  12  20  34  57  81 115 140 180 234 269 321
#     4  10  16  31  55  80 105 135 182 230 264 309
#
# _framework density 25.519649999999999
#
# number of rings (size 3 to 8) (size 9 to 14) (size 15 to 20)
#    0.000    1.500    8.750    0.000    0.000    0.500 
#    0.000    2.500    0.000    3.750    0.000    0.000 
#    0.000    0.000    0.000    0.000    0.000    0.000 
#
# Total GULP energy -89198.220200 kJ/mol
# GULP energy per Si atom -5574.888762 kJ/mol
# Density = 2.546157 g / cm^3
# Si number density = 25.519650 Si / 1000 Ang^3
#
#
#
# Elastic Constant Matrix: (Units=GPa)
#
#
# Indices 1 2 3 4 5 6 
#
# 1 271.3741 30.3088 39.4519 22.5102 -12.2295 2.3941
# 2 30.3088 61.9832 4.8148 19.0631 -10.8073 -16.0120
# 3 39.4519 4.8148 69.2842 12.2482 -20.0046 -3.5495
# 4 22.5102 19.0631 12.2482 13.3147 -7.7840 0.2310
# 5 -12.2295 -10.8073 -20.0046 -7.7840 36.0715 8.3966
# 6 2.3941 -16.0120 -3.5495 0.2310 8.3966 41.9558
#
#
#
# Elastic Compliance Matrix: (Units=1/GPa)
#
#
# Indices 1 2 3 4 5 6 
#
# 1 0.004429 -0.000607 -0.001752 -0.005416 -0.000713 -0.000460
# 2 -0.000607 0.040379 0.009938 -0.066759 -0.000922 0.016838
# 3 -0.001752 0.009938 0.021973 -0.027042 0.007720 0.004355
# 4 -0.005416 -0.066759 -0.027042 0.215259 0.017080 -0.032060
# 5 -0.000713 -0.000922 0.007720 0.017080 0.036830 -0.007123
# 6 -0.000460 0.016838 0.004355 -0.032060 -0.007123 0.032257
#
#
# Mechanical properties :
#
#
# Convention : Reuss Voigt Hill
#
# Bulk Modulus (GPa) = 12.20434 61.31028 36.75731
# Shear Modulus (GPa) = 13.76346 40.13948 26.95147
#
# Velocity S-wave (km/s) = 2.32486 3.97026 3.25330
# Velocity P-wave (km/s) = 3.46401 6.71522 5.34292
#
# Compressibility (1/GPa) = 0.08193809
#
# Stress axis : x y z
#
# Youngs Moduli (GPa) = 225.80835 24.76533 45.51089
#
# Poissons Ratio (x) = 0.01503 0.07972
# Poissons Ratio (y) = 0.13708 -0.45227
# Poissons Ratio (z) = 0.39555 -0.24611
#
# Static dielectric constant tensor:
#      x y z
#    x 2.117650 -0.048370 0.027190 
#    y -0.048370 2.053110 -0.012350 
#    z 0.027190 -0.012350 2.083770 
# 
# From -- ./inp_files/453615.got.cif
#   From: 2010.05.17/outbox.cif.g08.bks.cpg/sg2_227_cif.got.tgz:453615.got - 2010.06.03 11:33:40.
