data_PCOD9099507
_publ_section_title
;
Structure prediction by ZEFSAII (Michael W. Deem and Ramdas Pophale) SiO2 
 PCOD9099507
Probable space group: P -1
;
_chemical_formula_sum "Si O2"
_cell_formula_units_Z 16
_cell_length_a 15.858636
_cell_length_b 14.822650
_cell_length_c 11.895855
_cell_angle_alpha 28.205458
_cell_angle_beta 37.768710
_cell_angle_gamma 34.173209
_cell_volume 722.241672
_symmetry_space_group_name_H-M "P -1"
_symmetry_group_IT_number 2
_symmetry_cell_setting 'triclinic'
loop_
_space_group_symop_operation_xyz
x,y,z
-x,-y,-z
loop_
_atom_site_type_symbol
_atom_site_label
_atom_site_fract_x
_atom_site_fract_y
_atom_site_fract_z
Si Si1 0.011121 0.797466 0.405959
Si Si2 0.666925 0.928089 0.855052
Si Si3 0.220941 0.316867 0.781928
Si Si4 0.120209 0.118179 0.915264
Si Si5 0.772548 0.400241 0.022229
Si Si6 0.126318 0.883569 0.587114
Si Si7 0.274117 0.158667 0.494463
Si Si8 0.440805 0.841644 0.501190
O O1 0.098788 0.554641 0.618458
O O2 0.934934 0.951807 0.423610
O O3 0.878813 0.828001 0.423445
O O4 0.129239 0.885792 0.140986
O O5 0.720633 0.109592 0.625190
O O6 0.645182 0.949112 0.720681
O O7 0.771885 0.727502 0.042865
O O8 0.500000 0.000000 0.000000
O O9 0.171903 0.155756 0.943198
O O10 0.387749 0.275926 0.600945
O O11 0.226005 0.166597 0.664883
O O12 0.937024 0.276703 0.919629
O O13 0.652150 0.300634 0.246111
O O14 0.827988 0.346595 0.153600
O O15 0.703193 0.640009 0.790653
O O16 0.000000 0.000000 0.500000
O O17 0.416726 0.941950 0.540012
#
# Coordination Sequence:
#
# PCOD9099507 Si02
#       8
#     2   2   2   2   2   2   2   2
#     4  11  23  38  64  93 118 163 206 250 305 357
#     4   9  18  37  60  82 119 159 188 237 308 358
#     4  11  24  40  63  91 126 159 204 252 308 353
#     4  11  23  39  63  92 122 155 212 262 287 361
#     4  10  21  38  61  90 117 161 204 246 298 368
#     4  10  20  37  60  92 125 149 200 260 292 352
#     4  12  22  39  67  87 118 169 209 240 313 361
#     4  10  23  42  59  91 127 160 198 255 304 364
#
# _framework density 22.153248999999999
#
# number of rings (size 3 to 8) (size 9 to 14) (size 15 to 20)
#    0.000    1.500    5.000    2.250    0.000    3.000 
#    0.000    1.250    0.000    8.250    0.000    0.000 
#    0.000    0.000    0.000    0.000    0.000    0.000 
#
# Total GULP energy -89208.985289 kJ/mol
# GULP energy per Si atom -5575.561581 kJ/mol
# Density = 2.210283 g / cm^3
# Si number density = 22.153249 Si / 1000 Ang^3
#
#
#
# Elastic Constant Matrix: (Units=GPa)
#
#
# Indices 1 2 3 4 5 6 
#
# 1 46.1922 4.6612 8.5964 6.1228 -4.8821 1.9528
# 2 4.6612 28.3654 17.1181 8.0488 -5.2577 -0.0302
# 3 8.5964 17.1181 125.6831 7.0738 -14.2653 -0.7732
# 4 6.1228 8.0488 7.0738 34.1957 -7.8081 -2.6040
# 5 -4.8821 -5.2577 -14.2653 -7.8081 30.7656 7.5772
# 6 1.9528 -0.0302 -0.7732 -2.6040 7.5772 22.5272
#
#
#
# Elastic Compliance Matrix: (Units=1/GPa)
#
#
# Indices 1 2 3 4 5 6 
#
# 1 0.022851 -0.001840 -0.000822 -0.003064 0.002983 -0.003369
# 2 -0.001840 0.041184 -0.004709 -0.007840 0.003034 -0.001874
# 3 -0.000822 -0.004709 0.009037 0.000121 0.003478 -0.000781
# 4 -0.003064 -0.007840 0.000121 0.033171 0.006150 0.002025
# 5 0.002983 0.003034 0.003478 0.006150 0.039827 -0.012820
# 6 -0.003369 -0.001874 -0.000781 0.002025 -0.012820 0.049200
#
#
# Mechanical properties :
#
#
# Convention : Reuss Voigt Hill
#
# Bulk Modulus (GPa) = 17.14418 28.99913 23.07166
# Shear Modulus (GPa) = 21.79071 28.82202 25.30636
#
# Velocity S-wave (km/s) = 3.13970 3.61089 3.38351
# Velocity P-wave (km/s) = 4.57158 5.52299 5.06965
#
# Compressibility (1/GPa) = 0.05832883
#
# Stress axis : x y z
#
# Youngs Moduli (GPa) = 43.76146 24.28150 110.65224
#
# Poissons Ratio (x) = 0.04469 0.09096
# Poissons Ratio (y) = 0.08053 0.52109
# Poissons Ratio (z) = 0.03597 0.11435
#
# Static dielectric constant tensor:
#      x y z
#    x 1.915730 0.002260 0.017480 
#    y 0.002260 1.809120 0.030370 
#    z 0.017480 0.030370 1.890830 
# 
# From -- ./inp_files/465451.got.cif
#   From: 2010.05.17/outbox.cif.g08.bks.cpg/sg2_233_cif.got.tgz:465451.got - 2010.06.03 11:33:40.
