data_PCOD9099834
_publ_section_title
;
Structure prediction by ZEFSAII (Michael W. Deem and Ramdas Pophale) SiO2 
 PCOD9099834
Probable space group: P -1
;
_chemical_formula_sum "Si O2"
_cell_formula_units_Z 13
_cell_length_a 14.237330
_cell_length_b 9.395402
_cell_length_c 6.182777
_cell_angle_alpha 101.865469
_cell_angle_beta 93.944544
_cell_angle_gamma 35.984852
_cell_volume 468.664370
_symmetry_space_group_name_H-M "P -1"
_symmetry_group_IT_number 2
_symmetry_cell_setting 'triclinic'
loop_
_space_group_symop_operation_xyz
x,y,z
-x,-y,-z
loop_
_atom_site_type_symbol
_atom_site_label
_atom_site_fract_x
_atom_site_fract_y
_atom_site_fract_z
Si Si1 0.837936 0.746722 0.848680
Si Si2 0.248035 0.387868 0.488210
Si Si3 0.500000 0.500000 0.000000
Si Si4 0.970834 0.836337 0.162948
Si Si5 0.594371 0.031208 0.271245
Si Si6 0.263533 0.897296 0.422590
Si Si7 0.770756 0.345800 0.097295
O O1 0.872471 0.553656 0.664660
O O2 0.796476 0.911755 0.704229
O O3 0.676090 0.920209 0.016169
O O4 0.951141 0.699613 0.012655
O O5 0.309820 0.200484 0.628559
O O6 0.188296 0.602190 0.676520
O O7 0.407491 0.230668 0.330687
O O8 0.626680 0.351933 0.769202
O O9 0.419033 0.451220 0.873140
O O10 0.888582 0.966366 0.421314
O O11 0.857297 0.082466 0.069436
O O12 0.148931 0.673955 0.098739
O O13 0.634192 0.143054 0.394831
#
# Coordination Sequence:
#
# PCOD9099834 Si02
#       7
#     2   2   1   2   2   2   2
#     4  10  20  40  64  88 128 170 202 254 322 372
#     4  10  20  37  61  97 126 162 211 264 310 377
#     4  12  22  40  68  96 122 168 212 266 312 374
#     4  10  24  45  63  91 132 172 201 263 318 383
#     4   9  19  36  62  93 130 162 207 266 315 365
#     4  10  21  39  66  91 126 168 214 254 316 374
#     4  11  24  43  64  96 130 161 219 258 315 376
#
# _framework density 27.738401
#
# number of rings (size 3 to 8) (size 9 to 14) (size 15 to 20)
#    0.000    1.846    3.077    0.462    0.000    3.077 
#    2.769    6.923    0.000    0.000    0.000    0.000 
#    0.000    0.000    0.000    0.000    0.000    0.000 
#
# Total GULP energy -72650.690921 kJ/mol
# GULP energy per Si atom -5588.514686 kJ/mol
# Density = 2.767527 g / cm^3
# Si number density = 27.738401 Si / 1000 Ang^3
#
#
#
# Elastic Constant Matrix: (Units=GPa)
#
#
# Indices 1 2 3 4 5 6 
#
# 1 165.0776 37.7006 89.4791 10.3055 -1.7330 -11.9799
# 2 37.7006 69.8896 34.1569 -5.0002 4.1052 -4.9340
# 3 89.4791 34.1569 195.7973 25.8220 -15.9874 -14.4316
# 4 10.3055 -5.0002 25.8220 40.5567 1.8789 8.3417
# 5 -1.7330 4.1052 -15.9874 1.8789 87.1189 10.9300
# 6 -11.9799 -4.9340 -14.4316 8.3417 10.9300 36.5434
#
#
#
# Elastic Compliance Matrix: (Units=1/GPa)
#
#
# Indices 1 2 3 4 5 6 
#
# 1 0.008661 -0.003004 -0.003261 -0.000773 -0.000451 0.001457
# 2 -0.003004 0.017502 -0.002411 0.004561 -0.001401 -0.000196
# 3 -0.003261 -0.002411 0.007990 -0.005139 0.001307 0.002543
# 4 -0.000773 0.004561 -0.005139 0.030449 -0.000778 -0.008385
# 5 -0.000451 -0.001401 0.001307 -0.000778 0.012205 -0.003294
# 6 0.001457 -0.000196 0.002543 -0.008385 -0.003294 0.031719
#
#
# Mechanical properties :
#
#
# Convention : Reuss Voigt Hill
#
# Bulk Modulus (GPa) = 59.52147 83.71528 71.61837
# Shear Modulus (GPa) = 38.02897 50.80568 44.41733
#
# Velocity S-wave (km/s) = 3.70670 4.28436 4.00596
# Velocity P-wave (km/s) = 6.31064 7.39731 6.87548
#
# Compressibility (1/GPa) = 0.01680066
#
# Stress axis : x y z
#
# Youngs Moduli (GPa) = 115.46107 57.13745 125.15237
#
# Poissons Ratio (x) = 0.17164 0.40817
# Poissons Ratio (y) = 0.34685 0.30170
# Poissons Ratio (z) = 0.37656 0.13774
#
# Static dielectric constant tensor:
#      x y z
#    x 2.121200 0.010850 0.037550 
#    y 0.010850 2.229190 -0.060460 
#    z 0.037550 -0.060460 2.158680 
# 
# From -- ./inp_files/93899.got.cif
#   From: 2010.05.17/outbox.cif.g08.bks.cpg/sg2_47_cif.got.tgz:93899.got - 2010.06.03 11:33:40.
