data_PCOD9099925
_publ_section_title
;
Structure prediction by ZEFSAII (Michael W. Deem and Ramdas Pophale) SiO2 
 PCOD9099925
Probable space group: P -1
;
_chemical_formula_sum "Si O2"
_cell_formula_units_Z 16
_cell_length_a 18.880146
_cell_length_b 7.739457
_cell_length_c 12.254458
_cell_angle_alpha 79.569607
_cell_angle_beta 46.062336
_cell_angle_gamma 43.156554
_cell_volume 662.503884
_symmetry_space_group_name_H-M "P -1"
_symmetry_group_IT_number 2
_symmetry_cell_setting 'triclinic'
loop_
_space_group_symop_operation_xyz
x,y,z
-x,-y,-z
loop_
_atom_site_type_symbol
_atom_site_label
_atom_site_fract_x
_atom_site_fract_y
_atom_site_fract_z
Si Si1 0.845393 0.842667 0.858596
Si Si2 0.516808 0.666714 0.909579
Si Si3 0.286610 0.115232 0.795362
Si Si4 0.217790 0.315127 0.605798
Si Si5 0.338096 0.390754 0.829609
Si Si6 0.188977 0.774342 0.542219
Si Si7 0.649601 0.408834 0.398508
Si Si8 0.200132 0.678580 0.184161
O O1 0.064093 0.462225 0.673894
O O2 0.831926 0.062424 0.805642
O O3 0.774830 0.943488 0.049232
O O4 0.697384 0.955097 0.933348
O O5 0.628092 0.479148 0.698709
O O6 0.647398 0.590820 0.853936
O O7 0.500000 0.500000 0.000000
O O8 0.189774 0.284718 0.762130
O O9 0.264845 0.319877 0.868562
O O10 0.506547 0.765774 0.567047
O O11 0.176848 0.586867 0.611946
O O12 0.434072 0.953438 0.383952
O O13 0.255458 0.656646 0.801750
O O14 0.284913 0.508809 0.995349
O O15 0.212119 0.847241 0.621581
O O16 0.007132 0.090573 0.625512
O O17 0.500000 0.500000 0.500000
#
# Coordination Sequence:
#
# PCOD9099925 Si02
#       8
#     2   2   2   2   2   2   2   2
#     4  10  20  38  62  88 116 161 207 244 292 357
#     4  10  21  40  64  86 118 157 207 259 297 338
#     4  11  19  39  59  90 127 163 191 242 310 362
#     4  10  20  37  62  87 123 163 196 235 309 372
#     4  11  21  39  57  91 130 155 195 248 303 360
#     4  11  20  42  63  89 118 162 205 244 301 361
#     4  11  21  35  64  90 122 161 198 248 299 360
#     4  10  24  39  62  91 119 160 210 250 289 352
#
# _framework density 24.150803
#
# number of rings (size 3 to 8) (size 9 to 14) (size 15 to 20)
#    0.000    1.500    3.750    2.250    1.750    0.500 
#    6.750    3.125    0.000    0.000    0.000    0.000 
#    0.000    0.000    0.000    0.000    0.000    0.000 
#
# Total GULP energy -89383.308073 kJ/mol
# GULP energy per Si atom -5586.456755 kJ/mol
# Density = 2.409583 g / cm^3
# Si number density = 24.150803 Si / 1000 Ang^3
#
#
#
# Elastic Constant Matrix: (Units=GPa)
#
#
# Indices 1 2 3 4 5 6 
#
# 1 108.0246 32.4975 13.8191 19.2615 -16.3118 -38.7670
# 2 32.4975 66.6703 6.1464 -0.0284 -16.2606 -24.5497
# 3 13.8191 6.1464 55.4185 4.6314 -13.6631 -19.0548
# 4 19.2615 -0.0284 4.6314 36.2440 -16.1956 -12.8167
# 5 -16.3118 -16.2606 -13.6631 -16.1956 38.6808 12.2902
# 6 -38.7670 -24.5497 -19.0548 -12.8167 12.2902 42.6805
#
#
#
# Elastic Compliance Matrix: (Units=1/GPa)
#
#
# Indices 1 2 3 4 5 6 
#
# 1 0.014679 -0.003410 0.000624 -0.004253 -0.000110 0.010404
# 2 -0.003410 0.023288 0.004148 0.010193 0.010183 0.012278
# 3 0.000624 0.004148 0.023350 0.004797 0.008316 0.012423
# 4 -0.004253 0.010193 0.004797 0.041244 0.017835 0.011391
# 5 -0.000110 0.010183 0.008316 0.017835 0.039385 0.003485
# 6 0.010404 0.012278 0.012423 0.011391 0.003485 0.047906
#
#
# Mechanical properties :
#
#
# Convention : Reuss Voigt Hill
#
# Bulk Modulus (GPa) = 15.61521 37.22660 26.42091
# Shear Modulus (GPa) = 23.98378 35.36442 29.67410
#
# Velocity S-wave (km/s) = 3.15474 3.83079 3.50909
# Velocity P-wave (km/s) = 4.44405 5.91729 5.23278
#
# Compressibility (1/GPa) = 0.06404012
#
# Stress axis : x y z
#
# Youngs Moduli (GPa) = 68.12549 42.94037 42.82720
#
# Poissons Ratio (x) = 0.14642 -0.02671
# Poissons Ratio (y) = 0.23230 -0.17765
# Poissons Ratio (z) = -0.04249 -0.17812
#
# Static dielectric constant tensor:
#      x y z
#    x 1.964390 -0.014870 -0.058690 
#    y -0.014870 1.996650 0.026250 
#    z -0.058690 0.026250 1.928740 
# 
# From -- ./inp_files/177362.got.cif
#   From: 2010.05.17/outbox.cif.g08.bks.cpg/sg2_89_cif.got.tgz:177362.got - 2010.06.03 11:33:40.
