data_PCOD9099403
_publ_section_title
;
Structure prediction by ZEFSAII (Michael W. Deem and Ramdas Pophale) SiO2 
 PCOD9099403
Probable space group: P -1
;
_chemical_formula_sum "Si O2"
_cell_formula_units_Z 16
_cell_length_a 9.348270
_cell_length_b 5.097789
_cell_length_c 32.850942
_cell_angle_alpha 78.689342
_cell_angle_beta 151.439328
_cell_angle_gamma 107.507033
_cell_volume 705.789471
_symmetry_space_group_name_H-M "P -1"
_symmetry_group_IT_number 2
_symmetry_cell_setting 'triclinic'
loop_
_space_group_symop_operation_xyz
x,y,z
-x,-y,-z
loop_
_atom_site_type_symbol
_atom_site_label
_atom_site_fract_x
_atom_site_fract_y
_atom_site_fract_z
Si Si1 0.845078 0.196593 0.012676
Si Si2 0.593377 0.470669 0.805988
Si Si3 0.339095 0.972254 0.701699
Si Si4 0.331650 0.712238 0.566660
Si Si5 0.613297 0.680205 0.924368
Si Si6 0.112830 0.427685 0.753263
Si Si7 0.309118 0.330121 0.420060
Si Si8 0.543489 0.213313 0.658435
O O1 0.070791 0.341693 0.101423
O O2 0.090203 0.248892 0.034292
O O3 0.591449 0.364958 0.940077
O O4 0.680458 0.873515 0.974783
O O5 0.567044 0.203657 0.779939
O O6 0.380790 0.353909 0.796016
O O7 0.427307 0.682427 0.736617
O O8 0.394858 0.082811 0.666902
O O9 0.981389 0.916830 0.628702
O O10 0.449386 0.747385 0.548505
O O11 0.543828 0.535657 0.646572
O O12 0.000000 0.500000 0.500000
O O13 0.356407 0.011019 0.582694
O O14 0.314300 0.685329 0.822697
O O15 0.870808 0.493906 0.658118
O O16 0.896739 0.214492 0.736795
O O17 0.500000 0.500000 0.500000
#
# Coordination Sequence:
#
# PCOD9099403 Si02
#       8
#     2   2   2   2   2   2   2   2
#     4   9  17  30  54  85 113 145 185 239 285 336
#     4  10  20  37  60  88 119 150 194 241 292 341
#     4  11  22  38  60  86 119 157 194 239 289 344
#     4  11  23  41  61  84 115 151 197 247 291 343
#     4   9  17  30  53  83 113 145 189 234 284 336
#     4   9  21  38  59  86 117 154 195 241 287 346
#     4  10  22  40  62  89 119 153 196 243 293 343
#     4  11  23  40  60  84 115 156 198 234 291 349
#
# _framework density 22.669647999999999
#
# number of rings (size 3 to 8) (size 9 to 14) (size 15 to 20)
#    0.000    2.000    0.000    3.375    0.000   10.000 
#    0.000    5.625    0.000    4.500    0.000    0.000 
#    0.000    0.000    0.000    0.000    0.000    0.000 
#
# Total GULP energy -89220.966767 kJ/mol
# GULP energy per Si atom -5576.310423 kJ/mol
# Density = 2.261805 g / cm^3
# Si number density = 22.669648 Si / 1000 Ang^3
#
#
#
# Elastic Constant Matrix: (Units=GPa)
#
#
# Indices 1 2 3 4 5 6 
#
# 1 115.0657 16.4501 26.6342 11.5668 -12.0196 14.2660
# 2 16.4501 76.6127 17.1353 14.5537 3.3982 -1.8965
# 3 26.6342 17.1353 112.3244 20.2982 -1.1828 -8.0586
# 4 11.5668 14.5537 20.2982 30.2301 -5.4491 -8.4008
# 5 -12.0196 3.3982 -1.1828 -5.4491 15.7756 4.6062
# 6 14.2660 -1.8965 -8.0586 -8.4008 4.6062 21.8733
#
#
#
# Elastic Compliance Matrix: (Units=1/GPa)
#
#
# Indices 1 2 3 4 5 6 
#
# 1 0.013206 -0.002464 -0.003018 -0.003338 0.013307 -0.014023
# 2 -0.002464 0.015456 -0.000432 -0.007206 -0.008240 0.001756
# 3 -0.003018 -0.000432 0.010978 -0.005508 -0.004702 0.004850
# 4 -0.003338 -0.007206 -0.005508 0.047772 0.010526 0.015654
# 5 0.013307 -0.008240 -0.004702 0.010526 0.085939 -0.025181
# 6 -0.014023 0.001756 0.004850 0.015654 -0.025181 0.068118
#
#
# Mechanical properties :
#
#
# Convention : Reuss Voigt Hill
#
# Bulk Modulus (GPa) = 35.95604 47.16023 41.55813
# Shear Modulus (GPa) = 19.04272 29.82802 24.43537
#
# Velocity S-wave (km/s) = 2.90144 3.63129 3.28668
# Velocity P-wave (km/s) = 5.20766 6.19920 5.72494
#
# Compressibility (1/GPa) = 0.02781174
#
# Stress axis : x y z
#
# Youngs Moduli (GPa) = 75.72443 64.69916 91.08915
#
# Poissons Ratio (x) = 0.15940 0.27492
# Poissons Ratio (y) = 0.18656 0.03939
# Poissons Ratio (z) = 0.22855 0.02797
#
# Static dielectric constant tensor:
#      x y z
#    x 1.873540 -0.006970 0.018860 
#    y -0.006970 1.881830 -0.043110 
#    z 0.018860 -0.043110 1.933370 
# 
# From -- ./inp_files/140653.got.cif
#   From: 2010.05.17/outbox.cif.g08.bks.cpg/sg2_71_cif.got.tgz:140653.got - 2010.06.03 11:33:40.
