data_PCOD9099314
_publ_section_title
;
Structure prediction by ZEFSAII (Michael W. Deem and Ramdas Pophale) SiO2 
 PCOD9099314
Probable space group: P -1
;
_chemical_formula_sum "Si O2"
_cell_formula_units_Z 16
_cell_length_a 21.321525
_cell_length_b 11.685629
_cell_length_c 7.466919
_cell_angle_alpha 108.067605
_cell_angle_beta 59.897160
_cell_angle_gamma 150.399852
_cell_volume 759.682543
_symmetry_space_group_name_H-M "P -1"
_symmetry_group_IT_number 2
_symmetry_cell_setting 'triclinic'
loop_
_space_group_symop_operation_xyz
x,y,z
-x,-y,-z
loop_
_atom_site_type_symbol
_atom_site_label
_atom_site_fract_x
_atom_site_fract_y
_atom_site_fract_z
Si Si1 0.576769 0.925113 0.900821
Si Si2 0.046858 0.206914 0.514195
Si Si3 0.273414 0.228451 0.149688
Si Si4 0.386936 0.226434 0.510203
Si Si5 0.725881 0.379216 0.894612
Si Si6 0.160316 0.352062 0.798649
Si Si7 0.178288 0.129015 0.845192
Si Si8 0.536013 0.729358 0.200545
O O1 0.597261 0.831034 0.715813
O O2 0.694142 0.194502 0.808063
O O3 0.418306 0.753465 0.010346
O O4 0.582285 0.904256 0.092673
O O5 0.135677 0.369585 0.290187
O O6 0.153150 0.378441 0.615120
O O7 0.000000 0.000000 0.500000
O O8 0.887126 0.036682 0.676494
O O9 0.371043 0.452644 0.247658
O O10 0.250873 0.255329 0.998334
O O11 0.365817 0.242943 0.985241
O O12 0.500000 0.500000 0.500000
O O13 0.236213 0.083702 0.671458
O O14 0.427661 0.202614 0.610595
O O15 0.749750 0.432232 0.096931
O O16 0.206962 0.282150 0.746343
O O17 0.992535 0.119732 0.990480
#
# Coordination Sequence:
#
# PCOD9099314 Si02
#       8
#     2   2   2   2   2   2   2   2
#     4  11  25  42  58  83 120 159 201 245 293 357
#     4  11  22  36  61  92 118 150 199 250 293 344
#     4   9  18  34  58  90 119 145 189 244 292 348
#     4  11  22  36  61  92 118 150 199 250 293 344
#     4  11  25  42  58  83 120 159 201 245 293 357
#     4  10  20  37  60  84 119 156 186 235 303 352
#     4   9  18  34  58  90 119 145 189 244 292 348
#     4  10  20  37  60  84 119 156 186 235 303 352
#
# _framework density 21.061429
#
# number of rings (size 3 to 8) (size 9 to 14) (size 15 to 20)
#    0.000    1.750    0.000    6.750    0.000    8.000 
#    0.000    5.000    0.000    4.500    0.000    0.000 
#    0.000    0.000    0.000    0.000    0.000    0.000 
#
# Total GULP energy -89416.305667 kJ/mol
# GULP energy per Si atom -5588.519104 kJ/mol
# Density = 2.101349 g / cm^3
# Si number density = 21.061429 Si / 1000 Ang^3
#
#
#
# Elastic Constant Matrix: (Units=GPa)
#
#
# Indices 1 2 3 4 5 6 
#
# 1 87.6729 37.1007 31.8113 4.5255 5.0691 21.9315
# 2 37.1007 49.6055 16.5456 -7.6425 4.9446 -10.3008
# 3 31.8113 16.5456 75.1300 -2.3673 6.0599 3.6261
# 4 4.5255 -7.6425 -2.3673 23.1483 7.3332 -2.7191
# 5 5.0691 4.9446 6.0599 7.3332 31.2077 4.7970
# 6 21.9315 -10.3008 3.6261 -2.7191 4.7970 30.3637
#
#
#
# Elastic Compliance Matrix: (Units=1/GPa)
#
#
# Indices 1 2 3 4 5 6 
#
# 1 0.085391 -0.095720 -0.015402 -0.074187 0.037848 -0.104933
# 2 -0.095720 0.134589 0.011703 0.095601 -0.050486 0.129936
# 3 -0.015402 0.011703 0.017584 0.013094 -0.008221 0.015466
# 4 -0.074187 0.095601 0.013094 0.118282 -0.049239 0.102825
# 5 0.037848 -0.050486 -0.008221 -0.049239 0.055777 -0.056704
# 6 -0.104933 0.129936 0.015466 0.102825 -0.056704 0.169126
#
#
# Mechanical properties :
#
#
# Convention : Reuss Voigt Hill
#
# Bulk Modulus (GPa) = 25.82283 42.59150 34.20716
# Shear Modulus (GPa) = 6.30918 25.40734 15.85826
#
# Velocity S-wave (km/s) = 1.73266 3.47702 2.74698
# Velocity P-wave (km/s) = 4.03611 6.03207 5.13206
#
# Compressibility (1/GPa) = 0.03872542
#
# Stress axis : x y z
#
# Youngs Moduli (GPa) = 11.71089 7.43000 56.87120
#
# Poissons Ratio (x) = 0.71120 0.87591
# Poissons Ratio (y) = 1.12097 -0.66554
# Poissons Ratio (z) = 0.18037 -0.08695
#
# Static dielectric constant tensor:
#      x y z
#    x 1.798420 0.032170 -0.000010 
#    y 0.032170 1.764750 -0.003750 
#    z -0.000010 -0.003750 1.808200 
# 
# From -- ./inp_files/345434.got.cif
#   From: 2010.05.17/outbox.cif.g08.bks.cpg/sg2_173_cif.got.tgz:345434.got - 2010.06.03 11:33:40.
