data_PCOD9099505
_publ_section_title
;
Structure prediction by ZEFSAII (Michael W. Deem and Ramdas Pophale) SiO2 
 PCOD9099505
Probable space group: P -1
;
_chemical_formula_sum "Si O2"
_cell_formula_units_Z 16
_cell_length_a 15.380705
_cell_length_b 9.028648
_cell_length_c 12.059668
_cell_angle_alpha 51.757048
_cell_angle_beta 55.935833
_cell_angle_gamma 97.836317
_cell_volume 729.928235
_symmetry_space_group_name_H-M "P -1"
_symmetry_group_IT_number 2
_symmetry_cell_setting 'triclinic'
loop_
_space_group_symop_operation_xyz
x,y,z
-x,-y,-z
loop_
_atom_site_type_symbol
_atom_site_label
_atom_site_fract_x
_atom_site_fract_y
_atom_site_fract_z
Si Si1 0.340340 0.331172 0.758355
Si Si2 0.419306 0.067446 0.921632
Si Si3 0.989498 0.056785 0.826308
Si Si4 0.517087 0.242036 0.344632
Si Si5 0.641944 0.368476 0.953123
Si Si6 0.683664 0.674181 0.567715
Si Si7 0.117165 0.618499 0.467278
Si Si8 0.997922 0.831432 0.491252
O O1 0.500000 0.500000 0.500000
O O2 0.307579 0.074783 0.940824
O O3 0.382389 0.523819 0.740157
O O4 0.181635 0.203209 0.879011
O O5 0.563632 0.381310 0.719221
O O6 0.460035 0.945162 0.871776
O O7 0.298533 0.826161 0.210676
O O8 0.137677 0.117021 0.693655
O O9 0.052552 0.341249 0.693527
O O10 0.960194 0.041299 0.720942
O O11 0.364459 0.172538 0.481398
O O12 0.500000 0.000000 0.500000
O O13 0.592772 0.361216 0.113891
O O14 0.653897 0.553567 0.769592
O O15 0.818409 0.524366 0.758254
O O16 0.000000 0.500000 0.500000
O O17 0.104894 0.796115 0.460995
O O18 0.000000 0.000000 0.500000
#
# Coordination Sequence:
#
# PCOD9099505 Si02
#       8
#     2   2   2   2   2   2   2   2
#     4  11  22  39  66  89 119 173 216 251 305 390
#     4  11  19  36  60  93 127 161 207 256 321 373
#     4  10  19  38  58  91 123 155 208 271 311 364
#     4  11  25  43  60  87 127 173 214 254 313 388
#     4  11  20  36  62  92 127 160 202 265 320 364
#     4  10  23  38  63  95 128 162 206 269 322 367
#     4  10  16  31  55  86 127 156 195 261 315 363
#     4  10  18  29  53  91 125 159 196 253 319 364
#
# _framework density 21.919962999999999
#
# number of rings (size 3 to 8) (size 9 to 14) (size 15 to 20)
#    0.000    1.500    6.250    2.250    1.750    0.000 
#    0.000    3.125    0.000    0.000    0.000    0.000 
#    0.000    0.000    0.000    0.000    0.000    0.000 
#
# Total GULP energy -89238.113331 kJ/mol
# GULP energy per Si atom -5577.382083 kJ/mol
# Density = 2.187007 g / cm^3
# Si number density = 21.919963 Si / 1000 Ang^3
#
#
#
# Elastic Constant Matrix: (Units=GPa)
#
#
# Indices 1 2 3 4 5 6 
#
# 1 100.3784 36.1251 46.1847 7.3306 -10.5229 -27.0142
# 2 36.1251 132.4137 40.6207 11.0769 3.3422 -19.0286
# 3 46.1847 40.6207 107.4735 9.2862 -32.3916 3.7958
# 4 7.3306 11.0769 9.2862 25.9287 -3.9852 1.5849
# 5 -10.5229 3.3422 -32.3916 -3.9852 37.3224 4.5971
# 6 -27.0142 -19.0286 3.7958 1.5849 4.5971 36.5728
#
#
#
# Elastic Compliance Matrix: (Units=1/GPa)
#
#
# Indices 1 2 3 4 5 6 
#
# 1 0.018344 0.000981 -0.010400 -0.003838 -0.006335 0.016102
# 2 0.000981 0.011304 -0.007181 -0.004366 -0.008494 0.008608
# 3 -0.010400 -0.007181 0.022862 0.001858 0.019766 -0.016356
# 4 -0.003838 -0.004366 0.001858 0.042325 0.006418 -0.007941
# 5 -0.006335 -0.008494 0.019766 0.006418 0.045723 -0.017176
# 6 0.016102 0.008608 -0.016356 -0.007941 -0.017176 0.047916
#
#
# Mechanical properties :
#
#
# Convention : Reuss Voigt Hill
#
# Bulk Modulus (GPa) = 51.78639 65.12518 58.45579
# Shear Modulus (GPa) = 21.91911 34.45378 28.18644
#
# Velocity S-wave (km/s) = 3.16565 3.96889 3.58981
# Velocity P-wave (km/s) = 6.08591 7.12585 6.62631
#
# Compressibility (1/GPa) = 0.01931009
#
# Stress axis : x y z
#
# Youngs Moduli (GPa) = 54.51329 88.46336 43.74005
#
# Poissons Ratio (x) = -0.08676 0.45490
# Poissons Ratio (y) = -0.05347 0.31409
# Poissons Ratio (z) = 0.56695 0.63525
#
# Static dielectric constant tensor:
#      x y z
#    x 1.899590 0.019250 0.051230 
#    y 0.019250 1.847180 0.004160 
#    z 0.051230 0.004160 1.898820 
# 
# From -- ./inp_files/461992.got.cif
#   From: 2010.05.17/outbox.cif.g08.bks.cpg/sg2_231_cif.got.tgz:461992.got - 2010.06.03 11:33:40.
