data_PCOD9099369
_publ_section_title
;
Structure prediction by ZEFSAII (Michael W. Deem and Ramdas Pophale) SiO2 
 PCOD9099369
Probable space group: P -1
;
_chemical_formula_sum "Si O2"
_cell_formula_units_Z 14
_cell_length_a 7.501322
_cell_length_b 11.736930
_cell_length_c 7.662933
_cell_angle_alpha 96.080906
_cell_angle_beta 124.760318
_cell_angle_gamma 86.271211
_cell_volume 551.138546
_symmetry_space_group_name_H-M "P -1"
_symmetry_group_IT_number 2
_symmetry_cell_setting 'triclinic'
loop_
_space_group_symop_operation_xyz
x,y,z
-x,-y,-z
loop_
_atom_site_type_symbol
_atom_site_label
_atom_site_fract_x
_atom_site_fract_y
_atom_site_fract_z
Si Si1 0.771711 0.311685 0.881504
Si Si2 0.712638 0.549219 0.030071
Si Si3 0.368082 0.042296 0.236097
Si Si4 0.004398 0.715389 0.450409
Si Si5 0.004185 0.113068 0.830396
Si Si6 0.617506 0.826389 0.408065
Si Si7 0.424219 0.614252 0.583113
O O1 0.829900 0.432404 0.013286
O O2 0.953977 0.215348 0.956925
O O3 0.549220 0.251903 0.809568
O O4 0.694505 0.329942 0.641617
O O5 0.627085 0.622686 0.828914
O O6 0.500000 0.500000 0.000000
O O7 0.862852 0.625175 0.246436
O O8 0.432627 0.149248 0.410281
O O9 0.173907 0.980834 0.230263
O O10 0.563720 0.951869 0.319442
O O11 0.247912 0.071980 0.995729
O O12 0.846631 0.762426 0.520676
O O13 0.028100 0.831542 0.367219
O O14 0.223424 0.647202 0.608529
O O15 0.500000 0.500000 0.500000
#
# Coordination Sequence:
#
# PCOD9099369 Si02
#       7
#     2   2   2   2   2   2   2
#     4   9  19  39  57  83 123 152 199 241 291 360
#     4  11  22  39  59  91 126 153 193 255 289 352
#     4   9  20  39  60  84 118 154 198 251 294 350
#     4  11  23  39  62  92 120 159 200 241 304 351
#     4   9  20  38  60  87 112 155 203 242 296 357
#     4  10  20  37  60  87 117 157 195 246 303 349
#     4   9  22  40  57  85 121 159 200 239 286 355
#
# _framework density 25.401959000000002
#
# number of rings (size 3 to 8) (size 9 to 14) (size 15 to 20)
#    0.000    2.286    1.429    0.000    2.000    8.000 
#    5.143    0.000    0.000    0.000    0.000    0.000 
#    0.000    0.000    0.000    0.000    0.000    0.000 
#
# Total GULP energy -77944.817645 kJ/mol
# GULP energy per Si atom -5567.486975 kJ/mol
# Density = 2.534414 g / cm^3
# Si number density = 25.401959 Si / 1000 Ang^3
#
#
#
# Elastic Constant Matrix: (Units=GPa)
#
#
# Indices 1 2 3 4 5 6 
#
# 1 48.3154 32.1237 5.2775 13.1184 13.9398 -12.7949
# 2 32.1237 70.6394 28.2820 -2.6186 10.2199 -29.8902
# 3 5.2775 28.2820 63.2127 -10.0487 4.3042 -9.3778
# 4 13.1184 -2.6186 -10.0487 36.8473 -5.2927 6.4724
# 5 13.9398 10.2199 4.3042 -5.2927 25.7133 -9.7347
# 6 -12.7949 -29.8902 -9.3778 6.4724 -9.7347 49.4561
#
#
#
# Elastic Compliance Matrix: (Units=1/GPa)
#
#
# Indices 1 2 3 4 5 6 
#
# 1 0.044433 -0.019827 0.003345 -0.019102 -0.021284 -0.001543
# 2 -0.019827 0.032103 -0.010393 0.005072 0.005596 0.012740
# 3 0.003345 -0.010393 0.020556 0.003904 -0.001176 -0.002260
# 4 -0.019102 0.005072 0.003904 0.037993 0.014256 -0.003302
# 5 -0.021284 0.005596 -0.001176 0.014256 0.053746 0.006366
# 6 -0.001543 0.012740 -0.002260 -0.003302 0.006366 0.028777
#
#
# Mechanical properties :
#
#
# Convention : Reuss Voigt Hill
#
# Bulk Modulus (GPa) = 23.07224 34.83709 28.95466
# Shear Modulus (GPa) = 17.49443 30.16894 23.83169
#
# Velocity S-wave (km/s) = 2.62716 3.44999 3.06630
# Velocity P-wave (km/s) = 4.27846 5.44187 4.89485
#
# Compressibility (1/GPa) = 0.04334213
#
# Stress axis : x y z
#
# Youngs Moduli (GPa) = 22.50560 31.14974 48.64877
#
# Poissons Ratio (x) = 0.61761 -0.16273
# Poissons Ratio (y) = 0.44622 0.50559
# Poissons Ratio (z) = -0.07528 0.32373
#
# Static dielectric constant tensor:
#      x y z
#    x 1.808410 -0.052050 0.029020 
#    y -0.052050 2.055780 -0.000440 
#    z 0.029020 -0.000440 1.945790 
# 
# From -- ./inp_files/178459.got.cif
#   From: 2010.05.17/outbox.cif.g08.bks.cpg/sg2_90_cif.got.tgz:178459.got - 2010.06.03 11:33:40.
