data_PCOD9099675
_publ_section_title
;
Structure prediction by ZEFSAII (Michael W. Deem and Ramdas Pophale) SiO2 
 PCOD9099675
Probable space group: P -1
;
_chemical_formula_sum "Si O2"
_cell_formula_units_Z 16
_cell_length_a 12.883939
_cell_length_b 11.767421
_cell_length_c 8.105147
_cell_angle_alpha 58.404454
_cell_angle_beta 132.732305
_cell_angle_gamma 99.147752
_cell_volume 729.898474
_symmetry_space_group_name_H-M "P -1"
_symmetry_group_IT_number 2
_symmetry_cell_setting 'triclinic'
loop_
_space_group_symop_operation_xyz
x,y,z
-x,-y,-z
loop_
_atom_site_type_symbol
_atom_site_label
_atom_site_fract_x
_atom_site_fract_y
_atom_site_fract_z
Si Si1 0.498434 0.055603 0.770229
Si Si2 0.168457 0.440096 0.796274
Si Si3 0.832558 0.923648 0.711859
Si Si4 0.787543 0.841199 0.088486
Si Si5 0.672768 0.395370 0.965879
Si Si6 0.589502 0.649627 0.423376
Si Si7 0.112074 0.354079 0.170712
Si Si8 0.059978 0.873126 0.534972
O O1 0.341976 0.053760 0.528048
O O2 0.497767 0.216437 0.661035
O O3 0.640968 0.959487 0.901465
O O4 0.500000 0.000000 0.000000
O O5 0.000000 0.500000 0.500000
O O6 0.245840 0.302912 0.877241
O O7 0.263675 0.545892 0.849903
O O8 0.155236 0.387640 0.007178
O O9 0.848834 0.887547 0.949075
O O10 0.922937 0.789758 0.796395
O O11 0.877620 0.057185 0.603236
O O12 0.923939 0.819297 0.377302
O O13 0.638906 0.509384 0.694510
O O14 0.517047 0.362123 0.831228
O O15 0.803376 0.256970 0.158621
O O16 0.743955 0.678486 0.531148
O O17 0.000000 0.500000 0.000000
O O18 0.000000 0.000000 0.500000
#
# Coordination Sequence:
#
# PCOD9099675 Si02
#       8
#     2   2   2   2   2   2   2   2
#     4  11  22  42  69  96 124 164 221 269 320 389
#     4  10  20  37  61  88 122 169 202 255 318 373
#     4  10  23  39  61  95 131 168 210 263 335 376
#     4  11  23  42  66  92 130 170 213 270 327 387
#     4  10  20  38  60  87 131 162 213 261 318 378
#     4   9  20  37  61  92 124 164 202 272 320 369
#     4   9  20  36  61  86 123 163 209 254 308 381
#     4  12  24  38  66  97 126 169 222 272 315 377
#
# _framework density 21.920857000000002
#
# number of rings (size 3 to 8) (size 9 to 14) (size 15 to 20)
#    0.000    1.750    1.250    3.750    3.500    2.000 
#    0.000    0.000    5.500    4.500    0.000    0.000 
#    0.000    0.000    0.000    0.000    0.000    0.000 
#
# Total GULP energy -89320.481265 kJ/mol
# GULP energy per Si atom -5582.530079 kJ/mol
# Density = 2.187096 g / cm^3
# Si number density = 21.920857 Si / 1000 Ang^3
#
#
#
# Elastic Constant Matrix: (Units=GPa)
#
#
# Indices 1 2 3 4 5 6 
#
# 1 61.3382 44.8166 22.4349 -6.3085 6.2409 -12.2141
# 2 44.8166 141.5914 64.6996 -5.9869 29.5853 -12.8602
# 3 22.4349 64.6996 123.6061 4.4006 24.9925 -10.2750
# 4 -6.3085 -5.9869 4.4006 57.3295 -2.6636 13.7763
# 5 6.2409 29.5853 24.9925 -2.6636 31.9960 -2.4499
# 6 -12.2141 -12.8602 -10.2750 13.7763 -2.4499 32.0601
#
#
#
# Elastic Compliance Matrix: (Units=1/GPa)
#
#
# Indices 1 2 3 4 5 6 
#
# 1 0.022445 -0.006914 -0.000615 0.000599 0.002971 0.005549
# 2 -0.006914 0.012572 -0.003846 0.000404 -0.007204 0.000452
# 3 -0.000615 -0.003846 0.011584 -0.002202 -0.005366 0.002471
# 4 0.000599 0.000404 -0.002202 0.019915 0.002221 -0.008703
# 5 0.002971 -0.007204 -0.005366 0.002221 0.041616 -0.001252
# 6 0.005549 0.000452 0.002471 -0.008703 -0.001252 0.037923
#
#
# Mechanical properties :
#
#
# Convention : Reuss Voigt Hill
#
# Bulk Modulus (GPa) = 41.93018 65.60422 53.76720
# Shear Modulus (GPa) = 28.28784 37.24941 32.76863
#
# Velocity S-wave (km/s) = 3.59618 4.12669 3.87054
# Velocity P-wave (km/s) = 6.03431 7.25940 6.67502
#
# Compressibility (1/GPa) = 0.02384917
#
# Stress axis : x y z
#
# Youngs Moduli (GPa) = 44.55429 79.54325 86.32788
#
# Poissons Ratio (x) = 0.55000 0.05311
# Poissons Ratio (y) = 0.30807 0.33200
# Poissons Ratio (z) = 0.02741 0.30590
#
# Static dielectric constant tensor:
#      x y z
#    x 1.829580 0.058110 -0.021650 
#    y 0.058110 1.886300 -0.005950 
#    z -0.021650 -0.005950 1.841500 
# 
# From -- ./inp_files/306839.got.cif
#   From: 2010.05.17/outbox.cif.g08.bks.cpg/sg2_154_cif.got.tgz:306839.got - 2010.06.03 11:33:40.
