data_PCOD9099193
_publ_section_title
;
Structure prediction by ZEFSAII (Michael W. Deem and Ramdas Pophale) SiO2 
 PCOD9099193
Probable space group: P -1
;
_chemical_formula_sum "Si O2"
_cell_formula_units_Z 14
_cell_length_a 8.452039
_cell_length_b 10.090092
_cell_length_c 11.153866
_cell_angle_alpha 55.974452
_cell_angle_beta 71.621534
_cell_angle_gamma 42.064517
_cell_volume 519.519018
_symmetry_space_group_name_H-M "P -1"
_symmetry_group_IT_number 2
_symmetry_cell_setting 'triclinic'
loop_
_space_group_symop_operation_xyz
x,y,z
-x,-y,-z
loop_
_atom_site_type_symbol
_atom_site_label
_atom_site_fract_x
_atom_site_fract_y
_atom_site_fract_z
Si Si1 0.165703 0.639534 0.593752
Si Si2 0.362868 0.265408 0.531388
Si Si3 0.901114 0.626652 0.116026
Si Si4 0.597295 0.595222 0.809817
Si Si5 0.412705 0.992915 0.174148
Si Si6 0.121378 0.089508 0.675687
Si Si7 0.371153 0.678508 0.222030
O O1 0.252088 0.468464 0.548203
O O2 0.081956 0.569475 0.748204
O O3 0.409169 0.544328 0.637183
O O4 0.974226 0.884780 0.450037
O O5 0.387817 0.318663 0.366282
O O6 0.202747 0.217066 0.584875
O O7 0.590631 0.046361 0.665093
O O8 0.152920 0.539880 0.117545
O O9 0.688994 0.842436 0.146965
O O10 0.773857 0.747481 0.958256
O O11 0.566308 0.429798 0.869016
O O12 0.350445 0.835559 0.795259
O O13 0.363541 0.866241 0.172067
O O14 0.894052 0.205636 0.751946
#
# Coordination Sequence:
#
# PCOD9099193 Si02
#       7
#     2   2   2   2   2   2   2
#     4  10  20  37  64  86 122 153 197 244 294 342
#     4  10  20  37  59  89 115 154 198 242 284 348
#     4   9  19  39  60  90 112 156 206 236 282 358
#     4  12  23  36  63  91 120 152 199 241 295 347
#     4   9  21  39  64  83 120 159 195 240 297 342
#     4  12  22  36  60  94 119 153 192 250 294 343
#     4  10  22  39  57  91 123 154 189 245 298 353
#
# _framework density 26.948004999999998
#
# number of rings (size 3 to 8) (size 9 to 14) (size 15 to 20)
#    0.000    2.000    2.857    3.000    2.000    1.143 
#    0.000    2.857    0.000    0.000    0.000    1.000 
#    0.000    0.000    0.000    0.000    0.000    0.000 
#
# Total GULP energy -78295.525177 kJ/mol
# GULP energy per Si atom -5592.537513 kJ/mol
# Density = 2.688667 g / cm^3
# Si number density = 26.948005 Si / 1000 Ang^3
#
#
#
# Elastic Constant Matrix: (Units=GPa)
#
#
# Indices 1 2 3 4 5 6 
#
# 1 120.1121 37.6081 -0.8699 -24.7658 19.3835 -1.2586
# 2 37.6081 94.2973 19.0523 -30.3806 17.8851 -20.1713
# 3 -0.8699 19.0523 142.5500 -22.3696 22.5331 -17.4724
# 4 -24.7658 -30.3806 -22.3696 39.5158 -12.5519 18.7778
# 5 19.3835 17.8851 22.5331 -12.5519 32.9685 -5.2253
# 6 -1.2586 -20.1713 -17.4724 18.7778 -5.2253 26.2298
#
#
#
# Elastic Compliance Matrix: (Units=1/GPa)
#
#
# Indices 1 2 3 4 5 6 
#
# 1 0.011537 -0.003148 0.001495 0.007748 -0.004301 -0.007275
# 2 -0.003148 0.015932 0.000230 0.005733 -0.003588 0.007435
# 3 0.001495 0.000230 0.008649 0.002977 -0.005335 0.002816
# 4 0.007748 0.005733 0.002977 0.051907 0.005415 -0.029317
# 5 -0.004301 -0.003588 -0.005335 0.005415 0.040135 -0.002401
# 6 -0.007275 0.007435 0.002816 -0.029317 -0.002401 0.065878
#
#
# Mechanical properties :
#
#
# Convention : Reuss Voigt Hill
#
# Bulk Modulus (GPa) = 30.05502 52.06003 41.05753
# Shear Modulus (GPa) = 24.04144 39.82077 31.93110
#
# Velocity S-wave (km/s) = 2.99011 3.84824 3.44599
# Velocity P-wave (km/s) = 4.80606 6.25347 5.57692
#
# Compressibility (1/GPa) = 0.03327231
#
# Stress axis : x y z
#
# Youngs Moduli (GPa) = 86.67553 62.76778 115.61791
#
# Poissons Ratio (x) = 0.19757 -0.17286
# Poissons Ratio (y) = 0.27282 -0.02654
# Poissons Ratio (z) = -0.12959 -0.01441
#
# Static dielectric constant tensor:
#      x y z
#    x 2.076260 0.008210 -0.022310 
#    y 0.008210 2.180480 -0.029860 
#    z -0.022310 -0.029860 2.236610 
# 
# From -- ./inp_files/498940.got.cif
#   From: 2010.05.17/outbox.cif.g08.bks.cpg/sg2_250_cif.got.tgz:498940.got - 2010.06.03 11:33:40.
