data_PCOD9099899
_publ_section_title
;
Structure prediction by ZEFSAII (Michael W. Deem and Ramdas Pophale) SiO2 
 PCOD9099899
Probable space group: P -1
;
_chemical_formula_sum "Si O2"
_cell_formula_units_Z 14
_cell_length_a 12.692292
_cell_length_b 11.108403
_cell_length_c 12.163585
_cell_angle_alpha 70.178411
_cell_angle_beta 143.440979
_cell_angle_gamma 81.608129
_cell_volume 639.416185
_symmetry_space_group_name_H-M "P -1"
_symmetry_group_IT_number 2
_symmetry_cell_setting 'triclinic'
loop_
_space_group_symop_operation_xyz
x,y,z
-x,-y,-z
loop_
_atom_site_type_symbol
_atom_site_label
_atom_site_fract_x
_atom_site_fract_y
_atom_site_fract_z
Si Si1 0.820738 0.208736 0.538022
Si Si2 0.620799 0.570433 0.047183
Si Si3 0.401031 0.967120 0.028807
Si Si4 0.725387 0.539305 0.387780
Si Si5 0.092071 0.466776 0.882466
Si Si6 0.373519 0.141989 0.518549
Si Si7 0.656250 0.085057 0.577408
O O1 0.642241 0.227981 0.292490
O O2 0.665654 0.420332 0.383229
O O3 0.844090 0.098584 0.692419
O O4 0.085650 0.119507 0.731450
O O5 0.500000 0.500000 0.000000
O O6 0.741621 0.558165 0.264532
O O7 0.834818 0.457752 0.164355
O O8 0.517259 0.759664 0.183087
O O9 0.515731 0.963255 0.238872
O O10 0.500000 0.000000 0.000000
O O11 0.978608 0.424976 0.713728
O O12 0.863642 0.633030 0.721865
O O13 0.356680 0.281848 0.223477
O O14 0.611737 0.079004 0.669384
O O15 0.269752 0.083436 0.373560
#
# Coordination Sequence:
#
# PCOD9099899 Si02
#       7
#     2   2   2   2   2   2   2
#     4  10  23  39  59  88 124 161 201 252 299 355
#     4   9  20  33  56  87 121 158 191 241 299 350
#     4  11  26  39  61  93 122 162 203 245 306 366
#     4  10  22  38  59  89 124 164 196 243 303 361
#     4  10  20  37  62  86 118 158 202 245 298 358
#     4  10  23  41  64  89 121 159 207 248 296 363
#     4  10  22  42  64  90 118 161 206 249 302 352
#
# _framework density 21.894974000000001
#
# number of rings (size 3 to 8) (size 9 to 14) (size 15 to 20)
#    0.000    2.000    0.000    1.714   14.000    4.571 
#    0.000    2.857    0.000    0.000    0.000    0.000 
#    0.000    0.000    0.000    0.000    0.000    0.000 
#
# Total GULP energy -78035.594977 kJ/mol
# GULP energy per Si atom -5573.971070 kJ/mol
# Density = 2.184514 g / cm^3
# Si number density = 21.894974 Si / 1000 Ang^3
#
#
#
# Elastic Constant Matrix: (Units=GPa)
#
#
# Indices 1 2 3 4 5 6 
#
# 1 121.8466 43.3114 -0.8919 12.0021 1.4052 -8.3152
# 2 43.3114 86.5297 16.2701 -0.3044 6.6131 -0.4411
# 3 -0.8919 16.2701 58.7183 11.5538 5.7838 -12.9225
# 4 12.0021 -0.3044 11.5538 26.4622 3.0775 -2.5991
# 5 1.4052 6.6131 5.7838 3.0775 24.3570 4.3668
# 6 -8.3152 -0.4411 -12.9225 -2.5991 4.3668 30.8137
#
#
#
# Elastic Compliance Matrix: (Units=1/GPa)
#
#
# Indices 1 2 3 4 5 6 
#
# 1 0.011529 -0.006586 0.004231 -0.006767 0.000222 0.004189
# 2 -0.006586 0.016231 -0.006206 0.005878 -0.002710 -0.003268
# 3 0.004231 -0.006206 0.023778 -0.010756 -0.004782 0.010795
# 4 -0.006767 0.005878 -0.010756 0.045927 -0.004133 -0.001793
# 5 0.000222 -0.002710 -0.004782 -0.004133 0.044998 -0.008710
# 6 0.004189 -0.003268 0.010795 -0.001793 -0.008710 0.039147
#
#
# Mechanical properties :
#
#
# Convention : Reuss Voigt Hill
#
# Bulk Modulus (GPa) = 29.05574 42.71933 35.88754
# Shear Modulus (GPa) = 23.78653 30.22024 27.00338
#
# Velocity S-wave (km/s) = 3.29962 3.71918 3.51567
# Velocity P-wave (km/s) = 5.27409 6.16413 5.73640
#
# Compressibility (1/GPa) = 0.03441661
#
# Stress axis : x y z
#
# Youngs Moduli (GPa) = 86.73943 61.60980 42.05641
#
# Poissons Ratio (x) = 0.40574 -0.17796
# Poissons Ratio (y) = 0.57124 0.26101
# Poissons Ratio (z) = -0.36703 0.38237
#
# Static dielectric constant tensor:
#      x y z
#    x 1.872900 0.008420 -0.070240 
#    y 0.008420 1.812040 0.017630 
#    z -0.070240 0.017630 1.908830 
# 
# From -- ./inp_files/315027.got.cif
#   From: 2010.05.17/outbox.cif.g08.bks.cpg/sg2_158_cif.got.tgz:315027.got - 2010.06.03 11:33:40.
