data_PCOD9099343
_publ_section_title
;
Structure prediction by ZEFSAII (Michael W. Deem and Ramdas Pophale) SiO2 
 PCOD9099343
Probable space group: P -1
;
_chemical_formula_sum "Si O2"
_cell_formula_units_Z 16
_cell_length_a 5.141252
_cell_length_b 17.740861
_cell_length_c 10.167879
_cell_angle_alpha 64.398685
_cell_angle_beta 91.157771
_cell_angle_gamma 63.754594
_cell_volume 724.095368
_symmetry_space_group_name_H-M "P -1"
_symmetry_group_IT_number 2
_symmetry_cell_setting 'triclinic'
loop_
_space_group_symop_operation_xyz
x,y,z
-x,-y,-z
loop_
_atom_site_type_symbol
_atom_site_label
_atom_site_fract_x
_atom_site_fract_y
_atom_site_fract_z
Si Si1 0.263315 0.142896 0.781906
Si Si2 0.743623 0.851397 0.510506
Si Si3 0.353635 0.319564 0.665350
Si Si4 0.878277 0.953242 0.638889
Si Si5 0.691623 0.666525 0.655328
Si Si6 0.618249 0.445888 0.178391
Si Si7 0.314940 0.576653 0.326773
Si Si8 0.876639 0.950775 0.935888
O O1 0.097053 0.171651 0.615390
O O2 0.404011 0.211914 0.749942
O O3 0.529238 0.032941 0.853203
O O4 0.100834 0.138635 0.915443
O O5 0.907032 0.860544 0.633887
O O6 0.632859 0.774859 0.588602
O O7 0.463311 0.959500 0.414293
O O8 0.312331 0.349262 0.489287
O O9 0.602634 0.339651 0.713207
O O10 0.035654 0.384001 0.685741
O O11 0.011185 0.930925 0.804846
O O12 0.000000 0.000000 0.500000
O O13 0.462828 0.638939 0.739814
O O14 0.027572 0.597817 0.764235
O O15 0.438475 0.523058 0.232119
O O16 0.500000 0.500000 0.000000
O O17 0.500000 0.500000 0.500000
O O18 0.000000 0.000000 0.000000
#
# Coordination Sequence:
#
# PCOD9099343 Si02
#       8
#     2   2   2   2   2   2   2   2
#     4   9  21  38  58  88 120 159 201 250 308 355
#     4   9  21  38  61  87 115 161 206 251 296 361
#     4  11  22  39  69  98 119 159 217 265 299 371
#     4  10  20  37  60  88 122 160 205 245 300 365
#     4  11  22  42  68  93 124 162 214 257 307 376
#     4  12  26  44  64  92 129 168 201 255 325 378
#     4  12  22  42  68  92 124 159 210 259 317 364
#     4  10  20  37  60  85 127 161 196 248 310 362
#
# _framework density 22.096537999999999
#
# number of rings (size 3 to 8) (size 9 to 14) (size 15 to 20)
#    0.000    1.500    2.500    2.250    3.500    1.000 
#    4.500    0.000    0.000    0.000    0.000    0.000 
#    0.000    0.000    0.000    0.000    0.000    0.000 
#
# Total GULP energy -89373.847041 kJ/mol
# GULP energy per Si atom -5585.865440 kJ/mol
# Density = 2.204624 g / cm^3
# Si number density = 22.096538 Si / 1000 Ang^3
#
#
#
# Elastic Constant Matrix: (Units=GPa)
#
#
# Indices 1 2 3 4 5 6 
#
# 1 54.6860 7.1384 29.4756 6.2358 -0.7688 14.0705
# 2 7.1384 93.7335 52.7661 8.8099 4.7743 24.0270
# 3 29.4756 52.7661 164.8968 28.8824 -8.5125 26.5046
# 4 6.2358 8.8099 28.8824 41.2400 2.5901 5.8489
# 5 -0.7688 4.7743 -8.5125 2.5901 25.6414 -6.3674
# 6 14.0705 24.0270 26.5046 5.8489 -6.3674 44.0735
#
#
#
# Elastic Compliance Matrix: (Units=1/GPa)
#
#
# Indices 1 2 3 4 5 6 
#
# 1 0.021546 0.002138 -0.003646 -0.000126 -0.002488 -0.006194
# 2 0.002138 0.015146 -0.004571 0.001055 -0.006174 -0.007222
# 3 -0.003646 -0.004571 0.009429 -0.005241 0.004226 -0.000708
# 4 -0.000126 0.001055 -0.005241 0.028313 -0.005272 -0.001902
# 5 -0.002488 -0.006174 0.004226 -0.005272 0.044170 0.008700
# 6 -0.006194 -0.007222 -0.000708 -0.001902 0.008700 0.030539
#
#
# Mechanical properties :
#
#
# Convention : Reuss Voigt Hill
#
# Bulk Modulus (GPa) = 29.44543 54.67517 42.06030
# Shear Modulus (GPa) = 28.96506 37.12007 33.04257
#
# Velocity S-wave (km/s) = 3.62448 4.10311 3.87120
# Velocity P-wave (km/s) = 5.55613 6.87349 6.24962
#
# Compressibility (1/GPa) = 0.03396112
#
# Stress axis : x y z
#
# Youngs Moduli (GPa) = 46.41332 66.02546 106.05769
#
# Poissons Ratio (x) = -0.14117 0.38671
# Poissons Ratio (y) = -0.09923 0.48482
# Poissons Ratio (z) = 0.16923 0.30182
#
# Static dielectric constant tensor:
#      x y z
#    x 1.854470 -0.006980 -0.000460 
#    y -0.006980 1.833920 0.011590 
#    z -0.000460 0.011590 1.834650 
# 
# From -- ./inp_files/55615.got.cif
#   From: 2010.05.17/outbox.cif.g08.bks.cpg/sg2_28_cif.got.tgz:55615.got - 2010.06.03 11:33:40.
