data_PCOD9099055
_publ_section_title
;
Structure prediction by ZEFSAII (Michael W. Deem and Ramdas Pophale) SiO2 
 PCOD9099055
Probable space group: P -1
;
_chemical_formula_sum "Si O2"
_cell_formula_units_Z 14
_cell_length_a 8.405462
_cell_length_b 10.579636
_cell_length_c 14.173340
_cell_angle_alpha 139.063087
_cell_angle_beta 51.844178
_cell_angle_gamma 138.858091
_cell_volume 539.835897
_symmetry_space_group_name_H-M "P -1"
_symmetry_group_IT_number 2
_symmetry_cell_setting 'triclinic'
loop_
_space_group_symop_operation_xyz
x,y,z
-x,-y,-z
loop_
_atom_site_type_symbol
_atom_site_label
_atom_site_fract_x
_atom_site_fract_y
_atom_site_fract_z
Si Si1 0.741406 0.171552 0.206838
Si Si2 0.947442 0.587490 0.224961
Si Si3 0.961602 0.707484 0.657765
Si Si4 0.421606 0.184540 0.677527
Si Si5 0.678348 0.001353 0.584649
Si Si6 0.706152 0.945881 0.914217
Si Si7 0.797832 0.576855 0.062411
O O1 0.970889 0.256509 0.236904
O O2 0.517366 0.105242 0.319744
O O3 0.265938 0.260863 0.249847
O O4 0.706642 0.965297 0.038287
O O5 0.056500 0.833133 0.373370
O O6 0.795828 0.382097 0.238223
O O7 0.815372 0.534625 0.142860
O O8 0.188059 0.595664 0.108359
O O9 0.000000 0.500000 0.500000
O O10 0.180947 0.936635 0.654973
O O11 0.638328 0.173002 0.632327
O O12 0.414059 0.382545 0.844495
O O13 0.397985 0.192300 0.577316
O O14 0.952192 0.176663 0.914780
O O15 0.500000 0.000000 0.000000
#
# Coordination Sequence:
#
# PCOD9099055 Si02
#       7
#     2   2   2   2   2   2   2
#     4  10  21  38  59  90 123 154 203 254 299 356
#     4  10  20  37  59  83 114 154 198 244 297 355
#     4  10  20  38  63  89 122 162 202 250 305 358
#     4   9  20  38  57  82 119 157 196 247 302 355
#     4  10  20  37  59  83 114 154 198 244 297 355
#     4  10  20  38  63  89 122 162 202 250 305 358
#     4   9  20  38  57  82 119 157 196 247 302 355
#
# _framework density 25.933806000000001
#
# number of rings (size 3 to 8) (size 9 to 14) (size 15 to 20)
#    0.000    2.286    0.000    2.143    0.000    2.286 
#    0.000   24.286    0.000    0.000    0.000    0.000 
#    0.000    0.000    0.000    0.000    0.000    0.000 
#
# Total GULP energy -78104.965943 kJ/mol
# GULP energy per Si atom -5578.926139 kJ/mol
# Density = 2.587478 g / cm^3
# Si number density = 25.933806 Si / 1000 Ang^3
#
#
#
# Elastic Constant Matrix: (Units=GPa)
#
#
# Indices 1 2 3 4 5 6 
#
# 1 59.6848 0.9763 44.8276 16.1869 -12.1073 -7.9242
# 2 0.9763 119.3056 46.3177 -21.9920 -10.6253 -3.0039
# 3 44.8276 46.3177 149.1915 18.5820 -8.2406 -33.0598
# 4 16.1869 -21.9920 18.5820 54.3453 -20.0959 -2.6994
# 5 -12.1073 -10.6253 -8.2406 -20.0959 43.5148 7.9083
# 6 -7.9242 -3.0039 -33.0598 -2.6994 7.9083 17.6707
#
#
#
# Elastic Compliance Matrix: (Units=1/GPa)
#
#
# Indices 1 2 3 4 5 6 
#
# 1 0.025314 0.005179 -0.012016 0.001379 0.009245 -0.014176
# 2 0.005179 0.016048 -0.012211 0.012822 0.012896 -0.021608
# 3 -0.012016 -0.012211 0.024531 -0.013426 -0.015774 0.043439
# 4 0.001379 0.012822 -0.013426 0.034488 0.021769 -0.026794
# 5 0.009245 0.012896 -0.015774 0.021769 0.042861 -0.039030
# 6 -0.014176 -0.021608 0.043439 -0.026794 -0.039030 0.141204
#
#
# Mechanical properties :
#
#
# Convention : Reuss Voigt Hill
#
# Bulk Modulus (GPa) = 35.97663 56.93613 46.45638
# Shear Modulus (GPa) = 15.06885 38.84352 26.95619
#
# Velocity S-wave (km/s) = 2.41311 3.87433 3.22751
# Velocity P-wave (km/s) = 4.65476 6.48198 5.64282
#
# Compressibility (1/GPa) = 0.02779582
#
# Stress axis : x y z
#
# Youngs Moduli (GPa) = 39.50309 62.31222 40.76469
#
# Poissons Ratio (x) = -0.32269 0.48984
# Poissons Ratio (y) = -0.20457 0.49779
# Poissons Ratio (z) = 0.47468 0.76091
#
# Static dielectric constant tensor:
#      x y z
#    x 2.109910 -0.048100 -0.042190 
#    y -0.048100 1.940850 -0.019180 
#    z -0.042190 -0.019180 2.022550 
# 
# From -- ./inp_files/388175.got.cif
#   From: 2010.05.17/outbox.cif.g08.bks.cpg/sg2_195_cif.got.tgz:388175.got - 2010.06.03 11:33:40.
