data_PCOD9099400
_publ_section_title
;
Structure prediction by ZEFSAII (Michael W. Deem and Ramdas Pophale) SiO2 
 PCOD9099400
Probable space group: P -1
;
_chemical_formula_sum "Si O2"
_cell_formula_units_Z 16
_cell_length_a 15.039396
_cell_length_b 11.186271
_cell_length_c 6.675781
_cell_angle_alpha 129.936420
_cell_angle_beta 115.143038
_cell_angle_gamma 62.677894
_cell_volume 750.963017
_symmetry_space_group_name_H-M "P -1"
_symmetry_group_IT_number 2
_symmetry_cell_setting 'triclinic'
loop_
_space_group_symop_operation_xyz
x,y,z
-x,-y,-z
loop_
_atom_site_type_symbol
_atom_site_label
_atom_site_fract_x
_atom_site_fract_y
_atom_site_fract_z
Si Si1 0.909857 0.827160 0.247847
Si Si2 0.771098 0.708308 0.724772
Si Si3 0.742650 0.881058 0.487381
Si Si4 0.935976 0.092476 0.232919
Si Si5 0.382195 0.026333 0.877224
Si Si6 0.280086 0.770241 0.005217
Si Si7 0.612392 0.512237 0.428896
Si Si8 0.612657 0.330320 0.618287
O O1 0.824720 0.890574 0.405882
O O2 0.009430 0.804879 0.458463
O O3 0.914725 0.956918 0.218489
O O4 0.871106 0.691992 0.941486
O O5 0.786406 0.745219 0.547066
O O6 0.710405 0.573689 0.538152
O O7 0.689364 0.866505 0.909002
O O8 0.647369 0.873931 0.252112
O O9 0.711788 0.050420 0.754576
O O10 0.831047 0.204120 0.166318
O O11 0.000000 0.000000 0.000000
O O12 0.362719 0.849946 0.644266
O O13 0.500000 0.000000 0.000000
O O14 0.368095 0.663941 0.837940
O O15 0.303600 0.679761 0.142343
O O16 0.611059 0.476018 0.623428
O O17 0.505642 0.629607 0.381345
#
# Coordination Sequence:
#
# PCOD9099400 Si02
#       8
#     2   2   2   2   2   2   2   2
#     4  10  21  37  65  93 121 150 198 257 307 354
#     4  11  21  39  58  90 122 161 203 250 304 356
#     4  10  21  37  60  88 121 154 204 255 295 358
#     4  11  21  38  65  98 120 151 198 258 309 358
#     4  10  20  37  60  88 117 161 208 255 301 347
#     4  11  22  38  62  90 119 159 202 247 301 363
#     4  11  24  40  59  85 128 169 198 246 302 363
#     4  10  23  42  59  87 125 163 210 245 296 361
#
# _framework density 21.305976000000001
#
# number of rings (size 3 to 8) (size 9 to 14) (size 15 to 20)
#    0.000    1.500    3.750    1.125    3.500    2.500 
#    2.250    0.625    0.000    3.750    0.000    0.000 
#    0.000    0.000    0.000    0.000    0.000    0.000 
#
# Total GULP energy -89177.908203 kJ/mol
# GULP energy per Si atom -5573.619263 kJ/mol
# Density = 2.125748 g / cm^3
# Si number density = 21.305976 Si / 1000 Ang^3
#
#
#
# Elastic Constant Matrix: (Units=GPa)
#
#
# Indices 1 2 3 4 5 6 
#
# 1 36.0013 14.6685 26.7551 -16.1695 1.5809 11.7494
# 2 14.6685 57.9776 35.6337 -28.0698 1.3473 -2.1625
# 3 26.7551 35.6337 87.3068 -38.7123 7.9619 5.5751
# 4 -16.1695 -28.0698 -38.7123 36.8341 -14.1537 3.5673
# 5 1.5809 1.3473 7.9619 -14.1537 32.5028 -4.3683
# 6 11.7494 -2.1625 5.5751 3.5673 -4.3683 28.6247
#
#
#
# Elastic Compliance Matrix: (Units=1/GPa)
#
#
# Indices 1 2 3 4 5 6 
#
# 1 0.046033 -0.000738 -0.005008 0.017880 0.004175 -0.019566
# 2 -0.000738 0.030378 -0.002703 0.023649 0.009966 0.001698
# 3 -0.005008 -0.002703 0.024478 0.023464 0.003871 -0.005249
# 4 0.017880 0.023649 0.023464 0.090702 0.029628 -0.016905
# 5 0.004175 0.009966 0.003871 0.029628 0.042243 0.001039
# 6 -0.019566 0.001698 -0.005249 -0.016905 0.001039 0.046382
#
#
# Mechanical properties :
#
#
# Convention : Reuss Voigt Hill
#
# Bulk Modulus (GPa) = 11.90633 37.26672 24.58652
# Shear Modulus (GPa) = 15.37928 26.54087 20.96008
#
# Velocity S-wave (km/s) = 2.68960 3.53328 3.13991
# Velocity P-wave (km/s) = 3.90457 5.84590 4.97093
#
# Compressibility (1/GPa) = 0.08398895
#
# Stress axis : x y z
#
# Youngs Moduli (GPa) = 21.72363 32.91873 40.85299
#
# Poissons Ratio (x) = 0.02430 0.20461
# Poissons Ratio (y) = 0.01604 0.11043
# Poissons Ratio (z) = 0.10880 0.08899
#
# Static dielectric constant tensor:
#      x y z
#    x 1.807970 0.016960 0.022240 
#    y 0.016960 1.786160 -0.031640 
#    z 0.022240 -0.031640 1.852750 
# 
# From -- ./inp_files/94140.got.cif
#   From: 2010.05.17/outbox.cif.g08.bks.cpg/sg2_48_cif.got.tgz:94140.got - 2010.06.03 11:33:40.
