data_PCOD9099911
_publ_section_title
;
Structure prediction by ZEFSAII (Michael W. Deem and Ramdas Pophale) SiO2 
 PCOD9099911
Probable space group: P -1
;
_chemical_formula_sum "Si O2"
_cell_formula_units_Z 16
_cell_length_a 15.976945
_cell_length_b 14.020372
_cell_length_c 6.944002
_cell_angle_alpha 125.400894
_cell_angle_beta 100.154005
_cell_angle_gamma 45.707414
_cell_volume 835.217219
_symmetry_space_group_name_H-M "P -1"
_symmetry_group_IT_number 2
_symmetry_cell_setting 'triclinic'
loop_
_space_group_symop_operation_xyz
x,y,z
-x,-y,-z
loop_
_atom_site_type_symbol
_atom_site_label
_atom_site_fract_x
_atom_site_fract_y
_atom_site_fract_z
Si Si1 0.298131 0.893280 0.938777
Si Si2 0.696175 0.850660 0.781795
Si Si3 0.398732 0.191472 0.969121
Si Si4 0.150682 0.736150 0.215087
Si Si5 0.304225 0.352341 0.712955
Si Si6 0.628044 0.355642 0.010867
Si Si7 0.074564 0.954689 0.783554
Si Si8 0.438277 0.356569 0.451523
O O1 0.350437 0.789428 0.042608
O O2 0.190039 0.919076 0.848047
O O3 0.416078 0.774789 0.699892
O O4 0.250301 0.075522 0.142485
O O5 0.756847 0.685674 0.487900
O O6 0.547521 0.011076 0.844985
O O7 0.683888 0.817784 0.956772
O O8 0.364207 0.233079 0.783809
O O9 0.380302 0.337974 0.233758
O O10 0.123764 0.792860 0.492737
O O11 0.210414 0.549698 0.975856
O O12 0.252849 0.727164 0.167213
O O13 0.022914 0.882856 0.211801
O O14 0.410953 0.306431 0.570491
O O15 0.619300 0.459209 0.303104
O O16 0.500000 0.500000 0.000000
O O17 0.000000 0.000000 0.000000
#
# Coordination Sequence:
#
# PCOD9099911 Si02
#       8
#     2   2   2   2   2   2   2   2
#     4  11  22  38  61  85 129 164 189 250 295 357
#     4   9  20  35  52  91 119 158 201 227 302 355
#     4   9  18  35  56  83 125 163 194 233 289 366
#     4  10  24  40  63  90 112 157 209 244 296 357
#     4  10  20  37  62  86 125 157 191 250 292 356
#     4  11  22  36  58  96 125 153 192 249 309 362
#     4  11  23  45  62  83 117 160 207 248 296 347
#     4   9  21  33  56  92 121 155 195 234 301 356
#
# _framework density 19.156692
#
# number of rings (size 3 to 8) (size 9 to 14) (size 15 to 20)
#    0.000    2.000    1.250    2.250    8.750    1.000 
#    2.250    0.625    0.000    1.500    0.000    0.000 
#    0.000    0.000    0.000    0.000    0.000    0.000 
#
# Total GULP energy -89297.537313 kJ/mol
# GULP energy per Si atom -5581.096082 kJ/mol
# Density = 1.911309 g / cm^3
# Si number density = 19.156692 Si / 1000 Ang^3
#
#
#
# Elastic Constant Matrix: (Units=GPa)
#
#
# Indices 1 2 3 4 5 6 
#
# 1 83.8920 33.9412 42.2310 -3.6650 8.2578 9.3695
# 2 33.9412 58.0410 16.8457 -12.8624 -2.7695 -2.8762
# 3 42.2310 16.8457 122.5636 -1.0297 -4.5571 13.3321
# 4 -3.6650 -12.8624 -1.0297 24.9483 2.8583 2.3621
# 5 8.2578 -2.7695 -4.5571 2.8583 19.2863 4.9311
# 6 9.3695 -2.8762 13.3321 2.3621 4.9311 24.2811
#
#
#
# Elastic Compliance Matrix: (Units=1/GPa)
#
#
# Indices 1 2 3 4 5 6 
#
# 1 0.020860 -0.011642 -0.005554 -0.001563 -0.010645 -0.004065
# 2 -0.011642 0.027027 0.000017 0.011041 0.005847 0.005423
# 3 -0.005554 0.000017 0.010848 -0.000607 0.006321 -0.005036
# 4 -0.001563 0.011041 -0.000607 0.046151 -0.004382 -0.001356
# 5 -0.010645 0.005847 0.006321 -0.004382 0.062170 -0.010870
# 6 -0.004065 0.005423 -0.005036 -0.001356 -0.010870 0.048500
#
#
# Mechanical properties :
#
#
# Convention : Reuss Voigt Hill
#
# Bulk Modulus (GPa) = 41.02322 50.05917 45.54120
# Shear Modulus (GPa) = 19.37693 25.13506 22.25600
#
# Velocity S-wave (km/s) = 3.18385 3.62619 3.41220
# Velocity P-wave (km/s) = 5.91413 6.61215 6.27286
#
# Compressibility (1/GPa) = 0.02437644
#
# Stress axis : x y z
#
# Youngs Moduli (GPa) = 47.93941 37.00035 92.18139
#
# Poissons Ratio (x) = 0.43076 0.51199
# Poissons Ratio (y) = 0.55811 -0.00156
# Poissons Ratio (z) = 0.26626 -0.00063
#
# Static dielectric constant tensor:
#      x y z
#    x 1.666780 0.029320 0.026520 
#    y 0.029320 1.675460 0.020990 
#    z 0.026520 0.020990 1.703370 
# 
# From -- ./inp_files/69888.got.cif
#   From: 2010.05.17/outbox.cif.g08.bks.cpg/sg2_35_cif.got.tgz:69888.got - 2010.06.03 11:33:40.
