data_PCOD9099542
_publ_section_title
;
Structure prediction by ZEFSAII (Michael W. Deem and Ramdas Pophale) SiO2 
 PCOD9099542
Probable space group: P -1
;
_chemical_formula_sum "Si O2"
_cell_formula_units_Z 16
_cell_length_a 10.514300
_cell_length_b 8.115330
_cell_length_c 10.353512
_cell_angle_alpha 104.945905
_cell_angle_beta 51.091138
_cell_angle_gamma 119.535791
_cell_volume 596.358850
_symmetry_space_group_name_H-M "P -1"
_symmetry_group_IT_number 2
_symmetry_cell_setting 'triclinic'
loop_
_space_group_symop_operation_xyz
x,y,z
-x,-y,-z
loop_
_atom_site_type_symbol
_atom_site_label
_atom_site_fract_x
_atom_site_fract_y
_atom_site_fract_z
Si Si1 0.067297 0.359943 0.751207
Si Si2 0.343851 0.802059 0.105616
Si Si3 0.329668 0.442241 0.000712
Si Si4 0.281190 0.811736 0.651374
Si Si5 0.941527 0.009233 0.337448
Si Si6 0.462513 0.721743 0.294487
Si Si7 0.886795 0.082674 0.005884
Si Si8 0.881408 0.614233 0.620594
O O1 0.871470 0.264023 0.783477
O O2 0.169611 0.583653 0.705519
O O3 0.159896 0.218238 0.628716
O O4 0.014421 0.299937 0.923321
O O5 0.393247 0.784953 0.220750
O O6 0.359629 0.644042 0.969158
O O7 0.500000 0.000000 0.000000
O O8 0.353908 0.297817 0.858388
O O9 0.500000 0.500000 0.000000
O O10 0.166403 0.388813 0.196290
O O11 0.443244 0.817565 0.457746
O O12 0.280359 0.910297 0.809966
O O13 0.178460 0.906613 0.647437
O O14 0.018958 0.164159 0.431246
O O15 0.121452 0.024904 0.144875
O O16 0.305233 0.503245 0.358841
O O17 0.000000 0.000000 0.000000
O O18 0.000000 0.500000 0.500000
#
# Coordination Sequence:
#
# PCOD9099542 Si02
#       8
#     2   2   2   2   2   2   2   2
#     4  10  22  34  62  93 112 168 203 251 313 355
#     4  10  21  37  55  82 120 159 208 247 294 379
#     4   8  19  34  50  75 110 164 196 218 309 357
#     4  11  18  40  58  86 130 151 205 251 306 368
#     4   9  20  32  56  88 115 151 197 249 304 346
#     4  10  22  34  59  83 119 172 185 243 326 355
#     4   8  19  36  59  86 123 158 198 259 306 357
#     4  10  16  31  56  78 115 152 192 244 291 362
#
# _framework density 26.829483
#
# number of rings (size 3 to 8) (size 9 to 14) (size 15 to 20)
#    0.750    2.000    1.250    1.875    5.250    0.000 
#    2.250    1.250    0.000    3.750    0.000    0.000 
#    0.000    0.000    0.000    0.000    0.000    0.000 
#
# Total GULP energy -89121.829909 kJ/mol
# GULP energy per Si atom -5570.114369 kJ/mol
# Density = 2.676842 g / cm^3
# Si number density = 26.829483 Si / 1000 Ang^3
#
#
#
# Elastic Constant Matrix: (Units=GPa)
#
#
# Indices 1 2 3 4 5 6 
#
# 1 79.1398 39.9021 20.3130 -3.3482 -10.7666 -3.8326
# 2 39.9021 185.9663 69.8051 31.3951 -7.8951 -27.4043
# 3 20.3130 69.8051 206.6992 36.0679 -22.6256 -15.6126
# 4 -3.3482 31.3951 36.0679 58.9306 -7.8911 6.0170
# 5 -10.7666 -7.8951 -22.6256 -7.8911 36.3664 -2.2335
# 6 -3.8326 -27.4043 -15.6126 6.0170 -2.2335 40.7331
#
#
#
# Elastic Compliance Matrix: (Units=1/GPa)
#
#
# Indices 1 2 3 4 5 6 
#
# 1 0.015364 -0.003828 -0.000596 0.004004 0.004110 -0.001725
# 2 -0.003828 0.008173 -0.001305 -0.004417 -0.000807 0.005246
# 3 -0.000596 -0.001305 0.006353 -0.003046 0.002961 0.002113
# 4 0.004004 -0.004417 -0.003046 0.022495 0.002787 -0.006932
# 5 0.004110 -0.000807 0.002961 0.002787 0.031126 0.002274
# 6 -0.001725 0.005246 0.002113 -0.006932 0.002274 0.029876
#
#
# Mechanical properties :
#
#
# Convention : Reuss Voigt Hill
#
# Bulk Modulus (GPa) = 54.25901 81.31619 67.78760
# Shear Modulus (GPa) = 38.17101 49.99170 44.08136
#
# Velocity S-wave (km/s) = 3.77600 4.32129 4.05781
# Velocity P-wave (km/s) = 6.26725 7.43454 6.87571
#
# Compressibility (1/GPa) = 0.01843012
#
# Stress axis : x y z
#
# Youngs Moduli (GPa) = 65.08677 122.35066 157.41704
#
# Poissons Ratio (x) = 0.46842 0.09382
# Poissons Ratio (y) = 0.24918 0.20549
# Poissons Ratio (z) = 0.03879 0.15972
#
# Static dielectric constant tensor:
#      x y z
#    x 2.106530 -0.032480 0.034880 
#    y -0.032480 2.303920 -0.076050 
#    z 0.034880 -0.076050 2.275960 
# 
# From -- ./inp_files/444867.got.cif
#   From: 2010.05.17/outbox.cif.g08.bks.cpg/sg2_223_cif.got.tgz:444867.got - 2010.06.03 11:33:40.
