data_PCOD9099529
_publ_section_title
;
Structure prediction by ZEFSAII (Michael W. Deem and Ramdas Pophale) SiO2 
 PCOD9099529
Probable space group: P -1
;
_chemical_formula_sum "Si O2"
_cell_formula_units_Z 14
_cell_length_a 9.510642
_cell_length_b 9.515834
_cell_length_c 11.482865
_cell_angle_alpha 140.239883
_cell_angle_beta 125.202677
_cell_angle_gamma 59.086419
_cell_volume 538.126139
_symmetry_space_group_name_H-M "P -1"
_symmetry_group_IT_number 2
_symmetry_cell_setting 'triclinic'
loop_
_space_group_symop_operation_xyz
x,y,z
-x,-y,-z
loop_
_atom_site_type_symbol
_atom_site_label
_atom_site_fract_x
_atom_site_fract_y
_atom_site_fract_z
Si Si1 0.059457 0.703063 0.224530
Si Si2 0.672226 0.915326 0.193025
Si Si3 0.671006 0.760635 0.601315
Si Si4 0.730062 0.934230 0.499360
Si Si5 0.816970 0.152498 0.034876
Si Si6 0.428717 0.686494 0.771646
Si Si7 0.996155 0.468393 0.671282
O O1 0.881352 0.873961 0.256746
O O2 0.105103 0.603443 0.310422
O O3 0.204825 0.827033 0.314391
O O4 0.000000 0.500000 0.000000
O O5 0.650003 0.908513 0.317422
O O6 0.596152 0.143304 0.238840
O O7 0.587660 0.733277 0.960698
O O8 0.635752 0.860916 0.520578
O O9 0.553773 0.563269 0.425884
O O10 0.860220 0.613138 0.616235
O O11 0.688194 0.976157 0.825572
O O12 0.904197 0.755529 0.473434
O O13 0.740726 0.244618 0.181492
O O14 0.853252 0.376770 0.128400
O O15 0.000000 0.000000 0.000000
#
# Coordination Sequence:
#
# PCOD9099529 Si02
#       7
#     2   2   2   2   2   2   2
#     4  11  23  38  63  96 130 157 218 269 304 376
#     4  10  25  43  65  89 127 180 202 255 332 365
#     4  11  22  37  68  95 125 167 209 262 322 366
#     4  11  21  40  64  93 124 167 212 263 318 368
#     4  10  23  37  66 100 123 162 220 261 309 371
#     4  11  23  47  64  89 136 168 212 256 312 399
#     4  10  20  37  60  95 122 164 210 257 320 365
#
# _framework density 26.016204999999999
#
# number of rings (size 3 to 8) (size 9 to 14) (size 15 to 20)
#    0.000    1.429    1.429    4.714   10.000    0.571 
#    2.571    2.143    0.000    0.000    0.000    0.000 
#    0.000    0.000    0.000    0.000    0.000    0.000 
#
# Total GULP energy -78255.898661 kJ/mol
# GULP energy per Si atom -5589.707047 kJ/mol
# Density = 2.595699 g / cm^3
# Si number density = 26.016205 Si / 1000 Ang^3
#
#
#
# Elastic Constant Matrix: (Units=GPa)
#
#
# Indices 1 2 3 4 5 6 
#
# 1 55.3289 29.7653 9.2091 -0.6476 15.3352 1.8069
# 2 29.7653 155.0954 61.8644 -5.2147 15.1475 21.1568
# 3 9.2091 61.8644 177.5358 25.5454 16.5369 13.8725
# 4 -0.6476 -5.2147 25.5454 56.8802 7.0036 11.4280
# 5 15.3352 15.1475 16.5369 7.0036 35.9720 0.9373
# 6 1.8069 21.1568 13.8725 11.4280 0.9373 47.8526
#
#
#
# Elastic Compliance Matrix: (Units=1/GPa)
#
#
# Indices 1 2 3 4 5 6 
#
# 1 0.022327 -0.003895 0.000867 0.000399 -0.008373 0.000696
# 2 -0.003895 0.009132 -0.003007 0.003051 -0.001300 -0.003722
# 3 0.000867 -0.003007 0.007280 -0.003316 -0.001805 0.000014
# 4 0.000399 0.003051 -0.003316 0.020898 -0.003861 -0.005318
# 5 -0.008373 -0.001300 -0.001805 -0.003861 0.033454 0.001681
# 6 0.000696 -0.003722 0.000014 -0.005318 0.001681 0.023750
#
#
# Mechanical properties :
#
#
# Convention : Reuss Voigt Hill
#
# Bulk Modulus (GPa) = 37.49652 65.51529 51.50591
# Shear Modulus (GPa) = 36.28463 47.28239 41.78351
#
# Velocity S-wave (km/s) = 3.73861 4.26775 4.01191
# Velocity P-wave (km/s) = 5.75155 7.03719 6.42660
#
# Compressibility (1/GPa) = 0.02666914
#
# Stress axis : x y z
#
# Youngs Moduli (GPa) = 44.78852 109.50711 137.36765
#
# Poissons Ratio (x) = 0.42649 -0.11911
# Poissons Ratio (y) = 0.17444 0.41310
# Poissons Ratio (z) = -0.03884 0.32931
#
# Static dielectric constant tensor:
#      x y z
#    x 2.171030 -0.055980 0.013020 
#    y -0.055980 1.986580 -0.016110 
#    z 0.013020 -0.016110 2.075400 
# 
# From -- ./inp_files/402803.got.cif
#   From: 2010.05.17/outbox.cif.g08.bks.cpg/sg2_202_cif.got.tgz:402803.got - 2010.06.03 11:33:40.
