data_PCOD9099270
_publ_section_title
;
Structure prediction by ZEFSAII (Michael W. Deem and Ramdas Pophale) SiO2 
 PCOD9099270
Probable space group: P -1
;
_chemical_formula_sum "Si O2"
_cell_formula_units_Z 14
_cell_length_a 11.956355
_cell_length_b 11.034115
_cell_length_c 7.166562
_cell_angle_alpha 88.757921
_cell_angle_beta 76.563086
_cell_angle_gamma 38.418099
_cell_volume 550.939338
_symmetry_space_group_name_H-M "P -1"
_symmetry_group_IT_number 2
_symmetry_cell_setting 'triclinic'
loop_
_space_group_symop_operation_xyz
x,y,z
-x,-y,-z
loop_
_atom_site_type_symbol
_atom_site_label
_atom_site_fract_x
_atom_site_fract_y
_atom_site_fract_z
Si Si1 0.438032 0.763795 0.516230
Si Si2 0.907620 0.823688 0.765377
Si Si3 0.312414 0.609312 0.968510
Si Si4 0.541923 0.783368 0.124951
Si Si5 0.953306 0.813279 0.187799
Si Si6 0.907436 0.562681 0.829292
Si Si7 0.753664 0.310268 0.447015
O O1 0.535293 0.786961 0.352988
O O2 0.611090 0.541678 0.548422
O O3 0.328473 0.747165 0.443303
O O4 0.263348 0.969335 0.687896
O O5 0.953890 0.645840 0.698636
O O6 0.034266 0.815540 0.607766
O O7 0.680658 0.031688 0.841600
O O8 0.962106 0.790812 0.961888
O O9 0.357035 0.429711 0.944455
O O10 0.275684 0.685108 0.768524
O O11 0.500000 0.500000 0.000000
O O12 0.114537 0.781665 0.157803
O O13 0.678567 0.755597 0.956065
O O14 0.014442 0.633388 0.259964
O O15 0.000000 0.500000 0.000000
#
# Coordination Sequence:
#
# PCOD9099270 Si02
#       7
#     2   2   2   2   2   2   2
#     4  10  20  38  52  81 118 143 179 217 284 329
#     4  10  20  37  60  81 105 147 188 226 265 320
#     4   9  19  34  53  80 110 144 186 224 260 325
#     4  10  21  35  56  85 110 142 181 226 277 320
#     4   9  20  35  58  79 107 146 184 223 270 323
#     4   9  18  39  60  78 107 145 188 226 265 320
#     4   9  21  37  54  77 118 149 174 221 280 330
#
# _framework density 25.411147
#
# number of rings (size 3 to 8) (size 9 to 14) (size 15 to 20)
#    0.000    2.571    0.000    3.000    4.000    1.714 
#    5.143    7.143    0.000    0.000    0.000    0.000 
#    0.000    0.000    0.000    0.000    0.000    0.000 
#
# Total GULP energy -78142.088760 kJ/mol
# GULP energy per Si atom -5581.577769 kJ/mol
# Density = 2.535331 g / cm^3
# Si number density = 25.411147 Si / 1000 Ang^3
#
#
#
# Elastic Constant Matrix: (Units=GPa)
#
#
# Indices 1 2 3 4 5 6 
#
# 1 54.4320 17.8127 16.4182 5.0978 -18.0244 -8.6541
# 2 17.8127 102.1003 14.7615 24.1862 -3.9693 -13.7436
# 3 16.4182 14.7615 97.6609 7.2035 -8.2173 7.1564
# 4 5.0978 24.1862 7.2035 42.2532 -2.3608 -6.8664
# 5 -18.0244 -3.9693 -8.2173 -2.3608 20.6138 4.6417
# 6 -8.6541 -13.7436 7.1564 -6.8664 4.6417 35.9697
#
#
#
# Elastic Compliance Matrix: (Units=1/GPa)
#
#
# Indices 1 2 3 4 5 6 
#
# 1 0.028075 -0.003399 -0.002635 0.000778 0.022198 0.003264
# 2 -0.003399 0.012358 -0.001311 -0.006040 -0.002560 0.003342
# 3 -0.002635 -0.001311 0.011515 -0.001398 0.002786 -0.004052
# 4 0.000778 -0.006040 -0.001398 0.027883 0.001411 0.003298
# 5 0.022198 -0.002560 0.002786 0.001411 0.069810 -0.004931
# 6 0.003264 0.003342 -0.004052 0.003298 -0.004931 0.031936
#
#
# Mechanical properties :
#
#
# Convention : Reuss Voigt Hill
#
# Bulk Modulus (GPa) = 26.84000 39.13088 32.98544
# Shear Modulus (GPa) = 23.95927 33.44741 28.70334
#
# Velocity S-wave (km/s) = 3.07394 3.63195 3.36453
# Velocity P-wave (km/s) = 4.81498 5.74636 5.30116
#
# Compressibility (1/GPa) = 0.03725783
#
# Stress axis : x y z
#
# Youngs Moduli (GPa) = 35.61871 80.91866 86.84211
#
# Poissons Ratio (x) = 0.27505 0.22882
# Poissons Ratio (y) = 0.12107 0.11387
# Poissons Ratio (z) = 0.09385 0.10610
#
# Static dielectric constant tensor:
#      x y z
#    x 2.084190 -0.032330 -0.032990 
#    y -0.032330 2.021710 -0.023030 
#    z -0.032990 -0.023030 2.129270 
# 
# From -- ./inp_files/176660.got.cif
#   From: 2010.05.17/outbox.cif.g08.bks.cpg/sg2_89_cif.got.tgz:176660.got - 2010.06.03 11:33:40.
