data_PCOD9099500
_publ_section_title
;
Structure prediction by ZEFSAII (Michael W. Deem and Ramdas Pophale) SiO2 
 PCOD9099500
Probable space group: P -1
;
_chemical_formula_sum "Si O2"
_cell_formula_units_Z 16
_cell_length_a 5.221187
_cell_length_b 8.671337
_cell_length_c 26.011178
_cell_angle_alpha 138.854380
_cell_angle_beta 119.768577
_cell_angle_gamma 79.034716
_cell_volume 636.883148
_symmetry_space_group_name_H-M "P -1"
_symmetry_group_IT_number 2
_symmetry_cell_setting 'triclinic'
loop_
_space_group_symop_operation_xyz
x,y,z
-x,-y,-z
loop_
_atom_site_type_symbol
_atom_site_label
_atom_site_fract_x
_atom_site_fract_y
_atom_site_fract_z
Si Si1 0.817415 0.759774 0.888626
Si Si2 0.442780 0.236547 0.376391
Si Si3 0.606593 0.125871 0.800607
Si Si4 0.050293 0.821748 0.416098
Si Si5 0.189913 0.722260 0.725477
Si Si6 0.642789 0.759205 0.511667
Si Si7 0.624660 0.426650 0.110144
Si Si8 0.106156 0.054083 0.893306
O O1 0.508225 0.643154 0.862564
O O2 0.029381 0.580523 0.864505
O O3 0.866661 0.876834 0.865989
O O4 0.000000 0.000000 0.000000
O O5 0.694333 0.493441 0.445725
O O6 0.464020 0.229424 0.437866
O O7 0.123464 0.281071 0.337210
O O8 0.418928 0.971955 0.284263
O O9 0.420410 0.312208 0.839707
O O10 0.451484 0.866053 0.748257
O O11 0.943984 0.217921 0.884397
O O12 0.372391 0.766893 0.446987
O O13 0.805140 0.549043 0.326905
O O14 0.082646 0.988619 0.410587
O O15 0.000000 0.000000 0.500000
O O16 0.200345 0.886057 0.818334
O O17 0.396545 0.224665 0.998044
#
# Coordination Sequence:
#
# PCOD9099500 Si02
#       8
#     2   2   2   2   2   2   2   2
#     4  10  23  44  67  94 128 171 225 277 330 388
#     4   9  20  40  58  89 122 168 204 264 326 382
#     4  11  24  39  62  93 131 165 219 272 328 388
#     4  10  20  37  60  92 116 159 208 256 318 390
#     4  10  23  38  59  87 129 161 207 267 322 386
#     4   9  19  38  65  82 123 163 207 258 319 394
#     4  11  25  42  70  96 131 176 227 274 326 397
#     4  10  23  42  64  88 126 175 214 266 333 386
#
# _framework density 25.122347999999999
#
# number of rings (size 3 to 8) (size 9 to 14) (size 15 to 20)
#    0.000    2.000    0.000    2.625    8.750    3.500 
#    2.250    3.750    0.000    0.000    0.000    0.000 
#    0.000    0.000    0.000    0.000    0.000    0.000 
#
# Total GULP energy -89437.429800 kJ/mol
# GULP energy per Si atom -5589.839363 kJ/mol
# Density = 2.506517 g / cm^3
# Si number density = 25.122348 Si / 1000 Ang^3
#
#
#
# Elastic Constant Matrix: (Units=GPa)
#
#
# Indices 1 2 3 4 5 6 
#
# 1 52.8881 1.7382 7.9015 -0.7591 -15.7039 -4.1525
# 2 1.7382 94.5840 37.4958 9.6271 -5.4755 2.6517
# 3 7.9015 37.4958 81.1661 6.9693 -20.2777 4.3213
# 4 -0.7591 9.6271 6.9693 45.2132 -1.9524 4.8165
# 5 -15.7039 -5.4755 -20.2777 -1.9524 38.2159 0.7795
# 6 -4.1525 2.6517 4.3213 4.8165 0.7795 47.7501
#
#
#
# Elastic Compliance Matrix: (Units=1/GPa)
#
#
# Indices 1 2 3 4 5 6 
#
# 1 0.021694 0.000027 -0.000042 0.000569 0.008891 0.001686
# 2 0.000027 0.013179 -0.006318 -0.001905 -0.001551 0.000060
# 3 -0.000042 -0.006318 0.017465 -0.000851 0.008327 -0.001283
# 4 0.000569 -0.001905 -0.000851 0.022918 0.000723 -0.002091
# 5 0.008891 -0.001551 0.008327 0.000723 0.034064 -0.000523
# 6 0.001686 0.000060 -0.001283 -0.002091 -0.000523 0.021421
#
#
# Mechanical properties :
#
#
# Convention : Reuss Voigt Hill
#
# Bulk Modulus (GPa) = 25.20634 35.87881 30.54257
# Shear Modulus (GPa) = 31.92208 38.33602 35.12905
#
# Velocity S-wave (km/s) = 3.56851 3.91061 3.74347
# Velocity P-wave (km/s) = 5.19944 5.89093 5.55596
#
# Compressibility (1/GPa) = 0.03967256
#
# Stress axis : x y z
#
# Youngs Moduli (GPa) = 46.09632 75.87681 57.25696
#
# Poissons Ratio (x) = -0.00208 0.00241
# Poissons Ratio (y) = -0.00127 0.36176
# Poissons Ratio (z) = 0.00194 0.47941
#
# Static dielectric constant tensor:
#      x y z
#    x 2.040390 -0.003650 0.097000 
#    y -0.003650 2.028030 -0.032570 
#    z 0.097000 -0.032570 2.069520 
# 
# From -- ./inp_files/56783.got.cif
#   From: 2010.05.17/outbox.cif.g08.bks.cpg/sg2_29_cif.got.tgz:56783.got - 2010.06.03 11:33:40.
