data_PCOD9099531
_publ_section_title
;
Structure prediction by ZEFSAII (Michael W. Deem and Ramdas Pophale) SiO2 
 PCOD9099531
Probable space group: P -1
;
_chemical_formula_sum "Si O2"
_cell_formula_units_Z 16
_cell_length_a 7.104964
_cell_length_b 12.034351
_cell_length_c 9.028671
_cell_angle_alpha 106.513508
_cell_angle_beta 72.278994
_cell_angle_gamma 96.768402
_cell_volume 704.606951
_symmetry_space_group_name_H-M "P -1"
_symmetry_group_IT_number 2
_symmetry_cell_setting 'triclinic'
loop_
_space_group_symop_operation_xyz
x,y,z
-x,-y,-z
loop_
_atom_site_type_symbol
_atom_site_label
_atom_site_fract_x
_atom_site_fract_y
_atom_site_fract_z
Si Si1 0.019971 0.743021 0.064173
Si Si2 0.315668 0.037794 0.457820
Si Si3 0.536171 0.938566 0.120900
Si Si4 0.867242 0.784424 0.622940
Si Si5 0.851579 0.596829 0.795798
Si Si6 0.592417 0.690372 0.116874
Si Si7 0.825668 0.335833 0.698594
Si Si8 0.061296 0.005294 0.785910
O O1 0.792701 0.725712 0.169863
O O2 0.047020 0.880513 0.089588
O O3 0.147280 0.692275 0.144663
O O4 0.013275 0.668740 0.886134
O O5 0.131717 0.024840 0.606624
O O6 0.295180 0.161064 0.426078
O O7 0.500000 0.000000 0.500000
O O8 0.348482 0.954233 0.279450
O O9 0.564625 0.801873 0.060167
O O10 0.734359 0.995225 0.170554
O O11 0.500000 0.000000 0.000000
O O12 0.055286 0.750194 0.465303
O O13 0.807947 0.672477 0.691254
O O14 0.934995 0.886091 0.761226
O O15 0.904825 0.466589 0.699788
O O16 0.662732 0.591997 0.950637
O O17 0.410818 0.671251 0.262003
#
# Coordination Sequence:
#
# PCOD9099531 Si02
#       8
#     2   2   2   2   2   2   2   2
#     4   9  22  41  64  95 125 167 225 268 314 393
#     4  10  21  37  60  89 134 171 211 261 326 401
#     4  10  20  37  60  95 132 164 206 270 330 386
#     4  12  24  39  66 100 135 168 212 278 332 385
#     4  10  24  44  62  96 134 167 220 282 320 372
#     4   9  22  40  65  92 123 170 220 261 321 381
#     4  12  22  43  73  89 125 185 226 258 322 393
#     4  10  21  39  58  95 128 166 208 259 328 401
#
# _framework density 22.707695000000001
#
# number of rings (size 3 to 8) (size 9 to 14) (size 15 to 20)
#    0.750    1.000    1.250    3.000    1.750    2.500 
#    0.000    0.000    0.000    1.500    0.000    0.000 
#    0.000    0.000    0.000    0.000    0.000    0.000 
#
# Total GULP energy -89287.236913 kJ/mol
# GULP energy per Si atom -5580.452307 kJ/mol
# Density = 2.265601 g / cm^3
# Si number density = 22.707695 Si / 1000 Ang^3
#
#
#
# Elastic Constant Matrix: (Units=GPa)
#
#
# Indices 1 2 3 4 5 6 
#
# 1 68.8196 26.6793 14.7552 -2.2997 13.3185 -0.5620
# 2 26.6793 103.6767 22.7056 13.2697 13.8121 -2.5046
# 3 14.7552 22.7056 74.5496 -5.4397 8.2422 -0.9288
# 4 -2.2997 13.2697 -5.4397 35.5603 -5.6662 -2.1686
# 5 13.3185 13.8121 8.2422 -5.6662 34.5605 -3.3081
# 6 -0.5620 -2.5046 -0.9288 -2.1686 -3.3081 23.8095
#
#
#
# Elastic Compliance Matrix: (Units=1/GPa)
#
#
# Indices 1 2 3 4 5 6 
#
# 1 0.017244 -0.003654 -0.001693 0.001454 -0.004595 -0.000549
# 2 -0.003654 0.012549 -0.003111 -0.006006 -0.003847 0.000031
# 3 -0.001693 -0.003111 0.015060 0.003196 -0.001138 0.000353
# 4 0.001454 -0.006006 0.003196 0.032217 0.006685 0.003390
# 5 -0.004595 -0.003847 -0.001138 0.006685 0.034068 0.004785
# 6 -0.000549 0.000031 0.000353 0.003390 0.004785 0.042978
#
#
# Mechanical properties :
#
#
# Convention : Reuss Voigt Hill
#
# Bulk Modulus (GPa) = 35.79536 41.70291 38.74914
# Shear Modulus (GPa) = 27.72478 30.97976 29.35227
#
# Velocity S-wave (km/s) = 3.49799 3.69763 3.59919
# Velocity P-wave (km/s) = 5.66677 6.05268 5.86290
#
# Compressibility (1/GPa) = 0.02793658
#
# Stress axis : x y z
#
# Youngs Moduli (GPa) = 57.99265 79.68772 66.40120
#
# Poissons Ratio (x) = 0.29116 0.11240
# Poissons Ratio (y) = 0.21189 0.20660
# Poissons Ratio (z) = 0.09817 0.24794
#
# Static dielectric constant tensor:
#      x y z
#    x 1.904540 -0.000710 0.003360 
#    y -0.000710 1.858600 0.002540 
#    z 0.003360 0.002540 1.844630 
# 
# From -- ./inp_files/180171.got.cif
#   From: 2010.05.17/outbox.cif.g08.bks.cpg/sg2_91_cif.got.tgz:180171.got - 2010.06.03 11:33:40.
