data_PCOD9099805
_publ_section_title
;
Structure prediction by ZEFSAII (Michael W. Deem and Ramdas Pophale) SiO2 
 PCOD9099805
Probable space group: P -1
;
_chemical_formula_sum "Si O2"
_cell_formula_units_Z 16
_cell_length_a 9.184917
_cell_length_b 20.916986
_cell_length_c 26.864133
_cell_angle_alpha 18.057026
_cell_angle_beta 32.402711
_cell_angle_gamma 30.524033
_cell_volume 801.951519
_symmetry_space_group_name_H-M "P -1"
_symmetry_group_IT_number 2
_symmetry_cell_setting 'triclinic'
loop_
_space_group_symop_operation_xyz
x,y,z
-x,-y,-z
loop_
_atom_site_type_symbol
_atom_site_label
_atom_site_fract_x
_atom_site_fract_y
_atom_site_fract_z
Si Si1 0.898291 0.991772 0.478728
Si Si2 0.238899 0.308718 0.426996
Si Si3 0.838238 0.270760 0.928337
Si Si4 0.664704 0.337263 0.528715
Si Si5 0.405824 0.018325 0.253719
Si Si6 0.886465 0.715377 0.406106
Si Si7 0.850055 0.514136 0.248200
Si Si8 0.667193 0.118824 0.897038
O O1 0.078086 0.086912 0.317404
O O2 0.975153 0.732489 0.637125
O O3 0.560625 0.131784 0.465236
O O4 0.000000 0.000000 0.500000
O O5 0.217212 0.537497 0.237935
O O6 0.131507 0.345325 0.487389
O O7 0.003019 0.230216 0.525185
O O8 0.933824 0.368735 0.878881
O O9 0.561204 0.195240 0.069579
O O10 0.123177 0.050629 0.998589
O O11 0.500000 0.500000 0.500000
O O12 0.553746 0.145429 0.684049
O O13 0.666689 0.485139 0.370602
O O14 0.578065 0.867034 0.361787
O O15 0.000000 0.500000 0.500000
O O16 0.105549 0.837625 0.238398
O O17 0.598484 0.659217 0.175461
O O18 0.500000 0.000000 0.000000
#
# Coordination Sequence:
#
# PCOD9099805 Si02
#       8
#     2   2   2   2   2   2   2   2
#     4  11  22  40  65  91 123 168 226 251 293 381
#     4  11  23  39  63  94 126 162 213 260 306 376
#     4   9  21  39  61  95 129 159 203 265 330 360
#     4  10  20  37  61  93 124 158 212 255 309 368
#     4  10  21  39  63  88 125 166 204 260 310 368
#     4  11  20  36  63  87 118 165 213 255 304 364
#     4   9  19  37  63  89 125 171 206 255 308 372
#     4   9  18  36  61  88 122 163 195 252 319 370
#
# _framework density 19.951331
#
# number of rings (size 3 to 8) (size 9 to 14) (size 15 to 20)
#    0.000    2.000    1.250    3.000    0.000    5.000 
#    0.000   13.125    2.750    0.000    0.000    0.000 
#    0.000    0.000    0.000    0.000    0.000    0.000 
#
# Total GULP energy -89225.594448 kJ/mol
# GULP energy per Si atom -5576.599653 kJ/mol
# Density = 1.990592 g / cm^3
# Si number density = 19.951331 Si / 1000 Ang^3
#
#
#
# Elastic Constant Matrix: (Units=GPa)
#
#
# Indices 1 2 3 4 5 6 
#
# 1 86.5369 39.5834 45.3173 -9.3902 -5.2071 -11.5422
# 2 39.5834 96.2381 44.6990 -14.8887 -2.9772 -20.3532
# 3 45.3173 44.6990 115.0984 -8.0898 -22.0064 0.0674
# 4 -9.3902 -14.8887 -8.0898 21.4537 -15.0856 2.9425
# 5 -5.2071 -2.9772 -22.0064 -15.0856 37.0735 -3.8638
# 6 -11.5422 -20.3532 0.0674 2.9425 -3.8638 40.3550
#
#
#
# Elastic Compliance Matrix: (Units=1/GPa)
#
#
# Indices 1 2 3 4 5 6 
#
# 1 0.016372 -0.003420 -0.004745 0.003176 0.000794 0.002810
# 2 -0.003420 0.016723 -0.003765 0.010189 0.003509 0.007056
# 3 -0.004745 -0.003765 0.014828 0.009236 0.011292 -0.002873
# 4 0.003176 0.010189 0.009236 0.088340 0.043081 0.003715
# 5 0.000794 0.003509 0.011292 0.043081 0.051997 0.003815
# 6 0.002810 0.007056 -0.002873 0.003715 0.003815 0.029242
#
#
# Mechanical properties :
#
#
# Convention : Reuss Voigt Hill
#
# Bulk Modulus (GPa) = 41.55520 61.89698 51.72609
# Shear Modulus (GPa) = 20.04946 30.99466 25.52206
#
# Velocity S-wave (km/s) = 3.17348 3.94574 3.58049
# Velocity P-wave (km/s) = 5.85675 7.20068 6.56320
#
# Compressibility (1/GPa) = 0.02406438
#
# Stress axis : x y z
#
# Youngs Moduli (GPa) = 61.08000 59.79662 67.43833
#
# Poissons Ratio (x) = 0.20451 0.31996
# Poissons Ratio (y) = 0.20889 0.25391
# Poissons Ratio (z) = 0.28980 0.22514
#
# Static dielectric constant tensor:
#      x y z
#    x 1.773320 -0.048470 0.014640 
#    y -0.048470 1.737190 -0.038610 
#    z 0.014640 -0.038610 1.692670 
# 
# From -- ./inp_files/617498.got.cif
#   From: 2010.05.17/outbox.cif.g08.bks.cpg/sg2_309_cif.got.tgz:617498.got - 2010.06.03 11:33:40.
