data_PCOD9099851
_publ_section_title
;
Structure prediction by ZEFSAII (Michael W. Deem and Ramdas Pophale) SiO2 
 PCOD9099851
Probable space group: P -1
;
_chemical_formula_sum "Si O2"
_cell_formula_units_Z 14
_cell_length_a 5.964390
_cell_length_b 15.871253
_cell_length_c 24.896408
_cell_angle_alpha 17.979616
_cell_angle_beta 96.226327
_cell_angle_gamma 106.080555
_cell_volume 595.961485
_symmetry_space_group_name_H-M "P -1"
_symmetry_group_IT_number 2
_symmetry_cell_setting 'triclinic'
loop_
_space_group_symop_operation_xyz
x,y,z
-x,-y,-z
loop_
_atom_site_type_symbol
_atom_site_label
_atom_site_fract_x
_atom_site_fract_y
_atom_site_fract_z
Si Si1 0.187301 0.396727 0.252391
Si Si2 0.752487 0.708613 0.800106
Si Si3 0.577325 0.199216 0.192894
Si Si4 0.968767 0.419217 0.485843
Si Si5 0.194140 0.316945 0.776659
Si Si6 0.275265 0.325811 0.471159
Si Si7 0.308259 0.629726 0.695942
O O1 0.218861 0.441079 0.162253
O O2 0.500762 0.514967 0.203898
O O3 0.997804 0.515220 0.199471
O O4 0.000000 0.000000 0.500000
O O5 0.476397 0.685057 0.822178
O O6 0.762222 0.507748 0.972163
O O7 0.994429 0.097287 0.570555
O O8 0.657042 0.943677 0.356034
O O9 0.283263 0.961393 0.299765
O O10 0.230100 0.443325 0.454547
O O11 0.000000 0.500000 0.500000
O O12 0.921660 0.637158 0.309942
O O13 0.478008 0.364509 0.740832
O O14 0.276274 0.609381 0.643411
O O15 0.000000 0.000000 0.000000
O O16 0.500000 0.000000 0.500000
#
# Coordination Sequence:
#
# PCOD9099851 Si02
#       7
#     2   2   2   2   2   2   2
#     4  10  22  36  63  96 139 175 224 280 356 417
#     4  10  20  37  61  99 132 176 222 287 347 426
#     4   9  21  37  63  95 129 173 231 278 349 416
#     4  10  24  45  68  94 133 180 232 289 353 422
#     4  11  26  45  68 100 134 184 237 289 356 426
#     4  10  21  40  70  87 136 175 228 283 357 415
#     4  10  23  41  65 100 136 179 228 284 356 418
#
# _framework density 23.491451000000001
#
# number of rings (size 3 to 8) (size 9 to 14) (size 15 to 20)
#    0.000    2.000    0.000    2.143   16.000    4.000 
#    5.143    0.000    0.000    0.000    0.000    0.000 
#    0.000    0.000    0.000    0.000    0.000    0.000 
#
# Total GULP energy -77972.504180 kJ/mol
# GULP energy per Si atom -5569.464584 kJ/mol
# Density = 2.343798 g / cm^3
# Si number density = 23.491451 Si / 1000 Ang^3
#
#
#
# Elastic Constant Matrix: (Units=GPa)
#
#
# Indices 1 2 3 4 5 6 
#
# 1 166.7578 59.4283 26.1446 21.2988 -10.0557 -26.8977
# 2 59.4283 148.1197 13.1415 18.8746 -12.8053 -30.7043
# 3 26.1446 13.1415 89.4715 21.2991 -24.0770 7.1832
# 4 21.2988 18.8746 21.2991 26.7610 -6.9288 -7.0687
# 5 -10.0557 -12.8053 -24.0770 -6.9288 29.1012 8.2180
# 6 -26.8977 -30.7043 7.1832 -7.0687 8.2180 36.9046
#
#
#
# Elastic Compliance Matrix: (Units=1/GPa)
#
#
# Indices 1 2 3 4 5 6 
#
# 1 0.007987 -0.001883 -0.002386 -0.002392 -0.001937 0.004693
# 2 -0.001883 0.009136 -0.000277 -0.003047 0.000859 0.005507
# 3 -0.002386 -0.000277 0.020351 -0.013096 0.016174 -0.012041
# 4 -0.002392 -0.003047 -0.013096 0.053526 -0.002844 0.009156
# 5 -0.001937 0.000859 0.016174 -0.002844 0.051237 -0.015800
# 6 0.004693 0.005507 -0.012041 0.009156 -0.015800 0.042715
#
#
# Mechanical properties :
#
#
# Convention : Reuss Voigt Hill
#
# Bulk Modulus (GPa) = 35.23397 66.86422 51.04910
# Shear Modulus (GPa) = 24.56929 38.92898 31.74914
#
# Velocity S-wave (km/s) = 3.23752 4.07523 3.68029
# Velocity P-wave (km/s) = 5.38577 7.11817 6.31169
#
# Compressibility (1/GPa) = 0.02838170
#
# Stress axis : x y z
#
# Youngs Moduli (GPa) = 125.19605 109.46260 49.13684
#
# Poissons Ratio (x) = 0.20611 0.11725
# Poissons Ratio (y) = 0.23573 0.01362
# Poissons Ratio (z) = 0.29874 0.03035
#
# Static dielectric constant tensor:
#      x y z
#    x 1.865380 0.144320 0.113890 
#    y 0.144320 1.833180 -0.083340 
#    z 0.113890 -0.083340 1.838150 
# 
# From -- ./inp_files/80270.got.cif
#   From: 2010.05.17/outbox.cif.g08.bks.cpg/sg2_41_cif.got.tgz:80270.got - 2010.06.03 11:33:40.
