data_PCOD9099153
_publ_section_title
;
Structure prediction by ZEFSAII (Michael W. Deem and Ramdas Pophale) SiO2 
 PCOD9099153
Probable space group: P -1
;
_chemical_formula_sum "Si O2"
_cell_formula_units_Z 16
_cell_length_a 7.393753
_cell_length_b 11.152940
_cell_length_c 10.130818
_cell_angle_alpha 121.290522
_cell_angle_beta 58.232404
_cell_angle_gamma 104.459820
_cell_volume 606.621746
_symmetry_space_group_name_H-M "P -1"
_symmetry_group_IT_number 2
_symmetry_cell_setting 'triclinic'
loop_
_space_group_symop_operation_xyz
x,y,z
-x,-y,-z
loop_
_atom_site_type_symbol
_atom_site_label
_atom_site_fract_x
_atom_site_fract_y
_atom_site_fract_z
Si Si1 0.127933 0.058809 0.358695
Si Si2 0.269153 0.775412 0.052039
Si Si3 0.499375 0.765804 0.395830
Si Si4 0.610331 0.470187 0.298271
Si Si5 0.156733 0.879061 0.754175
Si Si6 0.950996 0.604506 0.791637
Si Si7 0.827402 0.834230 0.115860
Si Si8 0.894776 0.310975 0.658902
O O1 0.695700 0.065335 0.815367
O O2 0.986553 0.070532 0.286606
O O3 0.118738 0.224788 0.498333
O O4 0.000000 0.000000 0.500000
O O5 0.172265 0.687624 0.160955
O O6 0.070259 0.802156 0.044832
O O7 0.432589 0.675766 0.847809
O O8 0.566961 0.606047 0.304397
O O9 0.400280 0.834222 0.603476
O O10 0.684546 0.851581 0.309003
O O11 0.300475 0.770420 0.375940
O O12 0.500000 0.500000 0.500000
O O13 0.862169 0.460575 0.224944
O O14 0.055031 0.731869 0.747060
O O15 0.185733 0.031965 0.897773
O O16 0.881838 0.460287 0.673723
O O17 0.762832 0.689400 0.988681
#
# Coordination Sequence:
#
# PCOD9099153 Si02
#       8
#     2   2   2   2   2   2   2   2
#     4   8  17  35  59  87 113 152 198 245 290 354
#     4   9  19  38  63  86 116 160 208 247 292 357
#     4  11  22  37  61  90 124 156 200 249 304 352
#     4  11  22  39  58  86 123 163 202 248 300 355
#     4  10  20  37  59  87 118 157 201 249 299 354
#     4  11  22  38  61  88 121 161 198 246 306 362
#     4  10  21  37  62  89 116 156 207 253 292 355
#     4  10  21  37  64  93 121 156 200 247 304 364
#
# _framework density 26.375579999999999
#
# number of rings (size 3 to 8) (size 9 to 14) (size 15 to 20)
#    0.000    2.000    1.250    2.250    0.000    6.000 
#    0.000    1.250    0.000    0.750    0.000    0.000 
#    0.000    0.000    0.000    0.000    0.000    0.000 
#
# Total GULP energy -89131.979948 kJ/mol
# GULP energy per Si atom -5570.748747 kJ/mol
# Density = 2.631555 g / cm^3
# Si number density = 26.375580 Si / 1000 Ang^3
#
#
#
# Elastic Constant Matrix: (Units=GPa)
#
#
# Indices 1 2 3 4 5 6 
#
# 1 45.5597 11.3829 -7.4182 -0.1412 2.8101 -11.8432
# 2 11.3829 184.4844 77.8648 32.8253 -7.7075 -10.5270
# 3 -7.4182 77.8648 126.3506 25.1844 12.2750 2.9285
# 4 -0.1412 32.8253 25.1844 47.7538 2.5072 2.2245
# 5 2.8101 -7.7075 12.2750 2.5072 23.9942 4.9609
# 6 -11.8432 -10.5270 2.9285 2.2245 4.9609 25.9986
#
#
#
# Elastic Compliance Matrix: (Units=1/GPa)
#
#
# Indices 1 2 3 4 5 6 
#
# 1 0.027111 -0.003022 0.004035 -0.000087 -0.008755 0.012350
# 2 -0.003022 0.009008 -0.005642 -0.003641 0.006089 0.002056
# 3 0.004035 -0.005642 0.012966 -0.002492 -0.008649 -0.000043
# 4 -0.000087 -0.003641 -0.002492 0.024996 -0.001873 -0.003014
# 5 -0.008755 0.006089 -0.008649 -0.001873 0.051386 -0.010193
# 6 0.012350 0.002056 -0.000043 -0.003014 -0.010193 0.047130
#
#
# Mechanical properties :
#
#
# Convention : Reuss Voigt Hill
#
# Bulk Modulus (GPa) = 25.10747 57.78374 41.44561
# Shear Modulus (GPa) = 25.62397 37.85367 31.73882
#
# Velocity S-wave (km/s) = 3.12028 3.79249 3.47268
# Velocity P-wave (km/s) = 4.74567 6.41349 5.64155
#
# Compressibility (1/GPa) = 0.03982879
#
# Stress axis : x y z
#
# Youngs Moduli (GPa) = 36.88499 111.01496 77.12279
#
# Poissons Ratio (x) = 0.33545 -0.31122
# Poissons Ratio (y) = 0.11145 0.43513
# Poissons Ratio (z) = -0.14885 0.62636
#
# Static dielectric constant tensor:
#      x y z
#    x 2.177090 0.124150 0.161610 
#    y 0.124150 2.145720 0.080880 
#    z 0.161610 0.080880 2.343390 
# 
# From -- ./inp_files/392788.got.cif
#   From: 2010.05.17/outbox.cif.g08.bks.cpg/sg2_197_cif.got.tgz:392788.got - 2010.06.03 11:33:40.
