data_PCOD9099665
_publ_section_title
;
Structure prediction by ZEFSAII (Michael W. Deem and Ramdas Pophale) SiO2 
 PCOD9099665
Probable space group: P -1
;
_chemical_formula_sum "Si O2"
_cell_formula_units_Z 16
_cell_length_a 6.894768
_cell_length_b 20.001007
_cell_length_c 8.376706
_cell_angle_alpha 66.712726
_cell_angle_beta 123.837116
_cell_angle_gamma 133.167148
_cell_volume 699.631147
_symmetry_space_group_name_H-M "P -1"
_symmetry_group_IT_number 2
_symmetry_cell_setting 'triclinic'
loop_
_space_group_symop_operation_xyz
x,y,z
-x,-y,-z
loop_
_atom_site_type_symbol
_atom_site_label
_atom_site_fract_x
_atom_site_fract_y
_atom_site_fract_z
Si Si1 0.314513 0.535407 0.938224
Si Si2 0.164458 0.286549 0.585272
Si Si3 0.880904 0.113028 0.434038
Si Si4 0.246981 0.017561 0.216700
Si Si5 0.106798 0.627689 0.544023
Si Si6 0.307410 0.170180 0.307533
Si Si7 0.824922 0.353822 0.815248
Si Si8 0.103208 0.265991 0.927903
O O1 0.176407 0.565662 0.719632
O O2 0.018748 0.436770 0.952761
O O3 0.500000 0.500000 0.000000
O O4 0.574803 0.633838 0.039041
O O5 0.488795 0.313560 0.709090
O O6 0.008943 0.238127 0.728569
O O7 0.996880 0.216195 0.429851
O O8 0.152416 0.372340 0.497792
O O9 0.562745 0.052111 0.261475
O O10 0.122414 0.121825 0.426555
O O11 0.862850 0.066623 0.636524
O O12 0.338600 0.102310 0.290818
O O13 0.000000 0.000000 0.000000
O O14 0.392526 0.732134 0.604570
O O15 0.072738 0.611116 0.354643
O O16 0.135655 0.196207 0.095837
O O17 0.899959 0.282293 0.922031
#
# Coordination Sequence:
#
# PCOD9099665 Si02
#       8
#     2   2   2   2   2   2   2   2
#     4   9  19  38  57  87 127 164 205 263 311 360
#     4  11  21  39  61  90 123 161 211 256 312 372
#     4  11  24  42  66  95 127 166 208 255 316 381
#     4  11  25  44  65  96 131 161 202 265 315 373
#     4  10  20  37  61  88 122 162 206 255 306 366
#     4  11  21  42  64  90 123 165 208 250 312 378
#     4  10  20  37  61  88 119 169 208 255 315 370
#     4   9  22  37  60  90 125 163 209 262 309 364
#
# _framework density 22.869191000000001
#
# number of rings (size 3 to 8) (size 9 to 14) (size 15 to 20)
#    0.000    1.750    2.500    1.500    0.000    3.500 
#    0.000    0.000    0.000    0.000    0.000    0.000 
#    0.000    0.000    0.000    0.000    0.000    0.000 
#
# Total GULP energy -89272.192437 kJ/mol
# GULP energy per Si atom -5579.512027 kJ/mol
# Density = 2.281714 g / cm^3
# Si number density = 22.869191 Si / 1000 Ang^3
#
#
#
# Elastic Constant Matrix: (Units=GPa)
#
#
# Indices 1 2 3 4 5 6 
#
# 1 82.1349 18.3455 -1.9814 -2.5634 25.9662 -0.2919
# 2 18.3455 69.1172 -6.4054 0.6504 6.3928 -9.7013
# 3 -1.9814 -6.4054 66.4588 -5.7863 24.1692 -8.2696
# 4 -2.5634 0.6504 -5.7863 30.7645 -9.5596 7.2610
# 5 25.9662 6.3928 24.1692 -9.5596 27.8916 -0.0622
# 6 -0.2919 -9.7013 -8.2696 7.2610 -0.0622 26.2950
#
#
#
# Elastic Compliance Matrix: (Units=1/GPa)
#
#
# Indices 1 2 3 4 5 6 
#
# 1 0.024652 -0.000490 0.014906 -0.008866 -0.038778 0.007137
# 2 -0.000490 0.017613 0.006400 -0.004878 -0.010777 0.009827
# 3 0.014906 0.006400 0.035337 -0.011722 -0.049945 0.016759
# 4 -0.008866 -0.004878 -0.011722 0.044692 0.034808 -0.017843
# 5 -0.038778 -0.010777 -0.049945 0.034808 0.129568 -0.029419
# 6 0.007137 0.009827 0.016759 -0.017843 -0.029419 0.051863
#
#
# Mechanical properties :
#
#
# Convention : Reuss Voigt Hill
#
# Bulk Modulus (GPa) = 8.38678 26.40317 17.39497
# Shear Modulus (GPa) = 16.56524 30.84035 23.70279
#
# Velocity S-wave (km/s) = 2.69429 3.67625 3.22289
# Velocity P-wave (km/s) = 3.65434 5.43968 4.63381
#
# Compressibility (1/GPa) = 0.11923533
#
# Stress axis : x y z
#
# Youngs Moduli (GPa) = 40.56472 56.77486 28.29931
#
# Poissons Ratio (x) = 0.02782 -0.42184
# Poissons Ratio (y) = 0.01988 -0.18113
# Poissons Ratio (z) = -0.60467 -0.36338
#
# Static dielectric constant tensor:
#      x y z
#    x 1.895210 -0.002560 0.039550 
#    y -0.002560 1.866710 0.019540 
#    z 0.039550 0.019540 1.870500 
# 
# From -- ./inp_files/47563.got.cif
#   From: 2010.05.17/outbox.cif.g08.bks.cpg/sg2_24_cif.got.tgz:47563.got - 2010.06.03 11:33:40.
