data_PCOD9099290
_publ_section_title
;
Structure prediction by ZEFSAII (Michael W. Deem and Ramdas Pophale) SiO2 
 PCOD9099290
Probable space group: P -1
;
_chemical_formula_sum "Si O2"
_cell_formula_units_Z 16
_cell_length_a 11.531122
_cell_length_b 17.875728
_cell_length_c 7.622264
_cell_angle_alpha 68.716977
_cell_angle_beta 126.444561
_cell_angle_gamma 150.227834
_cell_volume 579.944759
_symmetry_space_group_name_H-M "P -1"
_symmetry_group_IT_number 2
_symmetry_cell_setting 'triclinic'
loop_
_space_group_symop_operation_xyz
x,y,z
-x,-y,-z
loop_
_atom_site_type_symbol
_atom_site_label
_atom_site_fract_x
_atom_site_fract_y
_atom_site_fract_z
Si Si1 0.167511 0.693889 0.451556
Si Si2 0.089636 0.142991 0.786279
Si Si3 0.549460 0.154720 0.985208
Si Si4 0.794609 0.671260 0.778068
Si Si5 0.827349 0.644648 0.430176
Si Si6 0.725229 0.386312 0.106041
Si Si7 0.916057 0.894953 0.771990
Si Si8 0.563392 0.054186 0.746259
O O1 0.301637 0.683203 0.683530
O O2 0.407523 0.876814 0.458449
O O3 0.921924 0.615659 0.421448
O O4 0.994296 0.575079 0.228445
O O5 0.011965 0.195789 0.621425
O O6 0.875114 0.970594 0.660991
O O7 0.420597 0.285162 0.897968
O O8 0.094680 0.132753 0.008686
O O9 0.760904 0.333459 0.038345
O O10 0.611726 0.111187 0.213821
O O11 0.514000 0.093020 0.825164
O O12 0.240792 0.040087 0.866464
O O13 0.830863 0.644252 0.647330
O O14 0.520138 0.509923 0.779866
O O15 0.738180 0.740008 0.642313
O O16 0.096350 0.808285 0.035854
#
# Coordination Sequence:
#
# PCOD9099290 Si02
#       8
#     2   2   2   2   2   2   2   2
#     4  11  23  38  59  85 113 151 191 230 280 335
#     4  10  20  38  62  85 113 149 188 232 281 334
#     4   9  19  37  57  82 115 149 187 232 281 333
#     4  10  21  36  57  86 117 146 185 236 281 333
#     4  11  22  37  60  86 112 149 192 230 278 336
#     4  10  22  39  57  84 119 146 184 236 282 335
#     4   9  19  37  58  82 114 149 186 232 282 332
#     4  10  20  37  60  83 113 151 189 232 281 333
#
# _framework density 27.588835
#
# number of rings (size 3 to 8) (size 9 to 14) (size 15 to 20)
#    0.000    2.000    0.000    3.750    0.000    3.000 
#    0.000   23.750    0.000    0.000    0.000    0.000 
#    0.000    0.000    0.000    0.000    0.000    0.000 
#
# Total GULP energy -89604.973243 kJ/mol
# GULP energy per Si atom -5600.310828 kJ/mol
# Density = 2.752604 g / cm^3
# Si number density = 27.588835 Si / 1000 Ang^3
#
#
#
# Elastic Constant Matrix: (Units=GPa)
#
#
# Indices 1 2 3 4 5 6 
#
# 1 150.1730 36.7770 21.3613 -6.2565 -5.1766 -25.7837
# 2 36.7770 128.9043 -10.3044 -3.4599 -1.4087 -24.5675
# 3 21.3613 -10.3044 50.8629 -19.3318 -2.6955 1.1855
# 4 -6.2565 -3.4599 -19.3318 37.4034 -15.2577 -4.4174
# 5 -5.1766 -1.4087 -2.6955 -15.2577 37.6767 -5.6111
# 6 -25.7837 -24.5675 1.1855 -4.4174 -5.6111 46.7410
#
#
#
# Elastic Compliance Matrix: (Units=1/GPa)
#
#
# Indices 1 2 3 4 5 6 
#
# 1 0.008417 -0.001926 -0.003796 0.000366 0.001549 0.003948
# 2 -0.001926 0.009753 0.004670 0.004821 0.003097 0.004773
# 3 -0.003796 0.004670 0.030275 0.019972 0.010312 0.002718
# 4 0.000366 0.004821 0.019972 0.047833 0.022436 0.009443
# 5 0.001549 0.003097 0.010312 0.022436 0.038020 0.008905
# 6 0.003948 0.004773 0.002718 0.009443 0.008905 0.027974
#
#
# Mechanical properties :
#
#
# Convention : Reuss Voigt Hill
#
# Bulk Modulus (GPa) = 21.57872 47.28976 34.43424
# Shear Modulus (GPa) = 27.80526 43.17132 35.48829
#
# Velocity S-wave (km/s) = 3.17810 3.96006 3.59043
# Velocity P-wave (km/s) = 4.61580 6.17151 5.44946
#
# Compressibility (1/GPa) = 0.04634195
#
# Stress axis : x y z
#
# Youngs Moduli (GPa) = 118.80755 102.52873 33.03061
#
# Poissons Ratio (x) = 0.19744 0.12538
# Poissons Ratio (y) = 0.22879 -0.15425
# Poissons Ratio (z) = 0.45098 -0.47880
#
# Static dielectric constant tensor:
#      x y z
#    x 2.128730 -0.054740 -0.009140 
#    y -0.054740 2.211360 0.053790 
#    z -0.009140 0.053790 2.208150 
# 
# From -- ./inp_files/262668.got.cif
#   From: 2010.05.17/outbox.cif.g08.bks.cpg/sg2_132_cif.got.tgz:262668.got - 2010.06.03 11:33:40.
