data_PCOD9099368
_publ_section_title
;
Structure prediction by ZEFSAII (Michael W. Deem and Ramdas Pophale) SiO2 
 PCOD9099368
Probable space group: P -1
;
_chemical_formula_sum "Si O2"
_cell_formula_units_Z 16
_cell_length_a 13.801408
_cell_length_b 10.210360
_cell_length_c 11.890268
_cell_angle_alpha 93.766007
_cell_angle_beta 40.427671
_cell_angle_gamma 123.984356
_cell_volume 669.534269
_symmetry_space_group_name_H-M "P -1"
_symmetry_group_IT_number 2
_symmetry_cell_setting 'triclinic'
loop_
_space_group_symop_operation_xyz
x,y,z
-x,-y,-z
loop_
_atom_site_type_symbol
_atom_site_label
_atom_site_fract_x
_atom_site_fract_y
_atom_site_fract_z
Si Si1 0.345684 0.565116 0.052476
Si Si2 0.309341 0.156429 0.424974
Si Si3 0.529219 0.295795 0.709004
Si Si4 0.993406 0.457037 0.723076
Si Si5 0.788348 0.941679 0.234319
Si Si6 0.780197 0.815204 0.829075
Si Si7 0.472005 0.956870 0.755927
Si Si8 0.827696 0.276138 0.204129
O O1 0.445841 0.622235 0.838057
O O2 0.596480 0.764197 0.907362
O O3 0.146889 0.541355 0.235681
O O4 0.246398 0.359443 0.174317
O O5 0.333678 0.016002 0.376849
O O6 0.282613 0.150521 0.582528
O O7 0.061788 0.043517 0.587962
O O8 0.814007 0.519205 0.484403
O O9 0.441401 0.236303 0.654739
O O10 0.518966 0.138914 0.751306
O O11 0.336757 0.241756 0.948323
O O12 0.141232 0.651020 0.692273
O O13 0.777332 0.243383 0.970794
O O14 0.880559 0.156737 0.155201
O O15 0.000000 0.000000 0.000000
O O16 0.410794 0.886123 0.674165
O O17 0.000000 0.500000 0.000000
#
# Coordination Sequence:
#
# PCOD9099368 Si02
#       8
#     2   2   2   2   2   2   2   2
#     4  10  24  42  62  86 113 167 213 247 294 368
#     4  11  21  41  65  85 121 164 201 247 304 371
#     4  11  22  37  60  91 123 156 186 256 313 351
#     4  10  20  37  60  87 117 156 207 241 295 360
#     4  11  21  36  60  97 129 157 199 254 315 370
#     4  11  23  41  61  86 124 156 205 256 307 356
#     4   9  20  36  60  88 117 157 203 241 290 372
#     4   9  18  35  60  85 124 166 199 240 296 375
#
# _framework density 23.897207999999999
#
# number of rings (size 3 to 8) (size 9 to 14) (size 15 to 20)
#    0.000    1.750    1.250    3.375    0.000    4.500 
#    2.250    3.125    0.000    0.000    0.000    0.000 
#    0.000    0.000    0.000    0.000    0.000    0.000 
#
# Total GULP energy -89325.414182 kJ/mol
# GULP energy per Si atom -5582.838386 kJ/mol
# Density = 2.384282 g / cm^3
# Si number density = 23.897208 Si / 1000 Ang^3
#
#
#
# Elastic Constant Matrix: (Units=GPa)
#
#
# Indices 1 2 3 4 5 6 
#
# 1 88.8098 5.8821 8.9560 -8.6833 -20.2749 4.7097
# 2 5.8821 28.2751 7.5667 1.8695 0.2573 -7.2389
# 3 8.9560 7.5667 75.7981 -5.6445 -27.5138 6.9870
# 4 -8.6833 1.8695 -5.6445 14.4096 -0.0086 0.4048
# 5 -20.2749 0.2573 -27.5138 -0.0086 47.1337 -1.2445
# 6 4.7097 -7.2389 6.9870 0.4048 -1.2445 22.5583
#
#
#
# Elastic Compliance Matrix: (Units=1/GPa)
#
#
# Indices 1 2 3 4 5 6 
#
# 1 0.014543 -0.006125 0.003128 0.010949 0.007966 -0.005728
# 2 -0.006125 0.044802 -0.009298 -0.013666 -0.007825 0.018349
# 3 0.003128 -0.009298 0.020137 0.011250 0.012906 -0.009364
# 4 0.010949 -0.013666 0.011250 0.082493 0.011076 -0.011025
# 5 0.007966 -0.007825 0.012906 0.011076 0.032047 -0.006602
# 6 -0.005728 0.018349 -0.009364 -0.011025 -0.006602 0.054148
#
#
# Mechanical properties :
#
#
# Convention : Reuss Voigt Hill
#
# Bulk Modulus (GPa) = 18.21786 26.41027 22.31407
# Shear Modulus (GPa) = 17.17873 28.18554 22.68214
#
# Velocity S-wave (km/s) = 2.68406 3.43804 3.08418
# Velocity P-wave (km/s) = 4.15278 5.18032 4.69475
#
# Compressibility (1/GPa) = 0.05489119
#
# Stress axis : x y z
#
# Youngs Moduli (GPa) = 68.76060 22.32050 49.65931
#
# Poissons Ratio (x) = 0.13672 -0.15534
# Poissons Ratio (y) = 0.42118 0.46174
# Poissons Ratio (z) = -0.21509 0.20754
#
# Static dielectric constant tensor:
#      x y z
#    x 1.960430 0.028540 0.037800 
#    y 0.028540 1.913720 0.000830 
#    z 0.037800 0.000830 1.992440 
# 
# From -- ./inp_files/398724.got.cif
#   From: 2010.05.17/outbox.cif.g08.bks.cpg/sg2_200_cif.got.tgz:398724.got - 2010.06.03 11:33:40.
