data_PCOD9099543
_publ_section_title
;
Structure prediction by ZEFSAII (Michael W. Deem and Ramdas Pophale) SiO2 
 PCOD9099543
Probable space group: P -1
;
_chemical_formula_sum "Si O2"
_cell_formula_units_Z 12
_cell_length_a 12.972093
_cell_length_b 14.028759
_cell_length_c 7.139679
_cell_angle_alpha 81.843106
_cell_angle_beta 115.876587
_cell_angle_gamma 149.459959
_cell_volume 510.321156
_symmetry_space_group_name_H-M "P -1"
_symmetry_group_IT_number 2
_symmetry_cell_setting 'triclinic'
loop_
_space_group_symop_operation_xyz
x,y,z
-x,-y,-z
loop_
_atom_site_type_symbol
_atom_site_label
_atom_site_fract_x
_atom_site_fract_y
_atom_site_fract_z
Si Si1 0.172251 0.721075 0.140266
Si Si2 0.734976 0.672657 0.787366
Si Si3 0.451000 0.268003 0.272179
Si Si4 0.303178 0.556541 0.978856
Si Si5 0.989099 0.244220 0.281702
Si Si6 0.364455 0.064288 0.573787
O O1 0.455070 0.890172 0.348219
O O2 0.996198 0.633874 0.190003
O O3 0.000000 0.500000 0.000000
O O4 0.173802 0.801367 0.953819
O O5 0.500000 0.500000 0.500000
O O6 0.715211 0.759370 0.851281
O O7 0.307282 0.447709 0.070772
O O8 0.973460 0.822448 0.798882
O O9 0.554657 0.317510 0.137846
O O10 0.723962 0.495772 0.533100
O O11 0.307807 0.080453 0.336342
O O12 0.463279 0.736491 0.210704
O O13 0.873806 0.139180 0.423379
#
# Coordination Sequence:
#
# PCOD9099543 Si02
#       6
#     2   2   2   2   2   2
#     4   9  17  38  60  77 111 153 179 222 282 325
#     4   9  17  38  60  77 111 153 179 222 282 325
#     4  11  21  38  57  83 113 147 184 229 275 326
#     4  10  20  37  61  80 112 149 183 227 277 326
#     4  10  20  37  61  80 112 149 183 227 277 326
#     4  11  21  38  57  83 113 147 184 229 275 326
#
# _framework density 23.514603999999999
#
# number of rings (size 3 to 8) (size 9 to 14) (size 15 to 20)
#    0.000    2.000    6.667    1.000    0.000    1.333 
#    6.000    1.667    0.000    0.000    0.000    0.000 
#    0.000    0.000    0.000    0.000    0.000    0.000 
#
# Total GULP energy -67104.337593 kJ/mol
# GULP energy per Si atom -5592.028133 kJ/mol
# Density = 2.346108 g / cm^3
# Si number density = 23.514604 Si / 1000 Ang^3
#
#
#
# Elastic Constant Matrix: (Units=GPa)
#
#
# Indices 1 2 3 4 5 6 
#
# 1 159.5393 54.3041 51.9227 -42.2857 13.3500 9.2078
# 2 54.3041 137.2523 20.9458 -38.6243 -8.4505 17.5427
# 3 51.9227 20.9458 54.0606 -20.3033 -17.8918 4.1142
# 4 -42.2857 -38.6243 -20.3033 53.2572 6.7285 -10.6121
# 5 13.3500 -8.4505 -17.8918 6.7285 34.8910 -15.5666
# 6 9.2078 17.5427 4.1142 -10.6121 -15.5666 22.5595
#
#
#
# Elastic Compliance Matrix: (Units=1/GPa)
#
#
# Indices 1 2 3 4 5 6 
#
# 1 0.021337 -0.002052 -0.027466 0.004615 -0.034104 -0.023466
# 2 -0.002052 0.009983 0.000435 0.004841 0.000554 -0.004345
# 3 -0.027466 0.000435 0.063138 0.003464 0.061783 0.043619
# 4 0.004615 0.004841 0.003464 0.028692 -0.001633 0.006091
# 5 -0.034104 0.000554 0.061783 -0.001633 0.107620 0.075714
# 6 -0.023466 -0.004345 0.043619 0.006091 0.075714 0.104438
#
#
# Mechanical properties :
#
#
# Convention : Reuss Voigt Hill
#
# Bulk Modulus (GPa) = 27.55425 67.24416 47.39920
# Shear Modulus (GPa) = 12.33130 37.05353 24.69241
#
# Velocity S-wave (km/s) = 2.29248 3.97390 3.24402
# Velocity P-wave (km/s) = 4.33021 7.05086 5.85087
#
# Compressibility (1/GPa) = 0.03629204
#
# Stress axis : x y z
#
# Youngs Moduli (GPa) = 46.86740 100.16851 15.83833
#
# Poissons Ratio (x) = 0.20557 0.43501
# Poissons Ratio (y) = 0.09618 -0.00689
# Poissons Ratio (z) = 1.28726 -0.04360
#
# Static dielectric constant tensor:
#      x y z
#    x 1.898830 -0.006310 -0.045710 
#    y -0.006310 1.894180 0.070080 
#    z -0.045710 0.070080 1.914400 
# 
# From -- ./inp_files/265114.got.cif
#   From: 2010.05.17/outbox.cif.g08.bks.cpg/sg2_133_cif.got.tgz:265114.got - 2010.06.03 11:33:40.
