data_PCOD9099902
_publ_section_title
;
Structure prediction by ZEFSAII (Michael W. Deem and Ramdas Pophale) SiO2 
 PCOD9099902
Probable space group: P -1
;
_chemical_formula_sum "Si O2"
_cell_formula_units_Z 14
_cell_length_a 11.336158
_cell_length_b 14.662161
_cell_length_c 8.931330
_cell_angle_alpha 56.197500
_cell_angle_beta 120.373355
_cell_angle_gamma 152.617289
_cell_volume 567.090502
_symmetry_space_group_name_H-M "P -1"
_symmetry_group_IT_number 2
_symmetry_cell_setting 'triclinic'
loop_
_space_group_symop_operation_xyz
x,y,z
-x,-y,-z
loop_
_atom_site_type_symbol
_atom_site_label
_atom_site_fract_x
_atom_site_fract_y
_atom_site_fract_z
Si Si1 0.924872 0.111923 0.403281
Si Si2 0.446446 0.513880 0.246244
Si Si3 0.860792 0.508796 0.469377
Si Si4 0.117163 0.337318 0.920453
Si Si5 0.511357 0.777646 0.225903
Si Si6 0.965807 0.153421 0.707743
Si Si7 0.832036 0.279605 0.042394
O O1 0.231627 0.311352 0.397122
O O2 0.843192 0.018924 0.602567
O O3 0.786776 0.959344 0.315610
O O4 0.849983 0.189553 0.250830
O O5 0.463917 0.650028 0.193677
O O6 0.731147 0.662715 0.288627
O O7 0.317233 0.421353 0.085282
O O8 0.738524 0.487882 0.267350
O O9 0.679992 0.364914 0.624456
O O10 0.073850 0.743607 0.436279
O O11 0.000000 0.500000 0.500000
O O12 0.949165 0.136906 0.893913
O O13 0.949397 0.305874 0.942984
O O14 0.439910 0.846742 0.046400
O O15 0.000000 0.500000 0.000000
#
# Coordination Sequence:
#
# PCOD9099902 Si02
#       7
#     2   2   2   2   2   2   2
#     4  11  24  36  62  93 119 156 202 247 292 356
#     4  11  21  41  62  86 121 162 199 247 294 350
#     4  10  20  37  62  86 119 154 196 241 303 354
#     4   9  20  35  67  84 114 161 198 242 296 355
#     4  12  22  39  63  91 119 158 200 245 299 352
#     4  10  21  39  61  87 122 160 199 241 303 351
#     4  11  19  40  65  88 120 155 196 250 298 348
#
# _framework density 24.687418000000001
#
# number of rings (size 3 to 8) (size 9 to 14) (size 15 to 20)
#    0.857    0.571    5.714    1.286    0.000    0.571 
#    0.000    5.714    0.000    5.143    0.000    0.000 
#    0.000    0.000    0.000    0.000    0.000    0.000 
#
# Total GULP energy -78042.903006 kJ/mol
# GULP energy per Si atom -5574.493072 kJ/mol
# Density = 2.463123 g / cm^3
# Si number density = 24.687418 Si / 1000 Ang^3
#
#
#
# Elastic Constant Matrix: (Units=GPa)
#
#
# Indices 1 2 3 4 5 6 
#
# 1 107.2264 0.1167 22.5470 4.1509 -15.2045 -1.4477
# 2 0.1167 49.3094 5.3471 13.6410 -5.9529 -1.4924
# 3 22.5470 5.3471 157.6870 16.8433 -28.6933 -9.9516
# 4 4.1509 13.6410 16.8433 29.5757 -7.0869 -0.2566
# 5 -15.2045 -5.9529 -28.6933 -7.0869 34.6641 -1.3385
# 6 -1.4477 -1.4924 -9.9516 -0.2566 -1.3385 19.7090
#
#
#
# Elastic Compliance Matrix: (Units=1/GPa)
#
#
# Indices 1 2 3 4 5 6 
#
# 1 0.010044 0.000650 -0.000658 -0.000389 0.003921 0.000716
# 2 0.000650 0.023592 0.000957 -0.010774 0.003019 0.002382
# 3 -0.000658 0.000957 0.008172 -0.003503 0.006099 0.004519
# 4 -0.000389 -0.010774 -0.003503 0.041659 0.003526 -0.001831
# 5 0.003921 0.003019 0.006099 0.003526 0.037094 0.006161
# 6 0.000716 0.002382 0.004519 -0.001831 0.006161 0.053648
#
#
# Mechanical properties :
#
#
# Convention : Reuss Voigt Hill
#
# Bulk Modulus (GPa) = 22.87927 41.13828 32.00877
# Shear Modulus (GPa) = 26.75534 35.87058 31.31296
#
# Velocity S-wave (km/s) = 3.29563 3.81595 3.56529
# Velocity P-wave (km/s) = 4.87537 6.00958 5.47194
#
# Compressibility (1/GPa) = 0.04370768
#
# Stress axis : x y z
#
# Youngs Moduli (GPa) = 99.55784 42.38789 122.36247
#
# Poissons Ratio (x) = -0.02756 0.08052
# Poissons Ratio (y) = -0.06474 -0.11715
# Poissons Ratio (z) = 0.06552 -0.04058
#
# Static dielectric constant tensor:
#      x y z
#    x 1.974910 -0.031920 -0.011780 
#    y -0.031920 2.028630 0.034640 
#    z -0.011780 0.034640 2.088570 
# 
# From -- ./inp_files/273202.got.cif
#   From: 2010.05.17/outbox.cif.g08.bks.cpg/sg2_137_cif.got.tgz:273202.got - 2010.06.03 11:33:40.
