data_PCOD9099498
_publ_section_title
;
Structure prediction by ZEFSAII (Michael W. Deem and Ramdas Pophale) SiO2 
 PCOD9099498
Probable space group: P -1
;
_chemical_formula_sum "Si O2"
_cell_formula_units_Z 15
_cell_length_a 12.224414
_cell_length_b 8.818501
_cell_length_c 7.618790
_cell_angle_alpha 51.857345
_cell_angle_beta 86.634574
_cell_angle_gamma 81.008774
_cell_volume 637.248936
_symmetry_space_group_name_H-M "P -1"
_symmetry_group_IT_number 2
_symmetry_cell_setting 'triclinic'
loop_
_space_group_symop_operation_xyz
x,y,z
-x,-y,-z
loop_
_atom_site_type_symbol
_atom_site_label
_atom_site_fract_x
_atom_site_fract_y
_atom_site_fract_z
Si Si1 0.110214 0.028564 0.871981
Si Si2 0.964386 0.233477 0.453835
Si Si3 0.604616 0.417493 0.432636
Si Si4 0.272419 0.716445 0.931468
Si Si5 0.177295 0.427831 0.569199
Si Si6 0.841438 0.625402 0.811501
Si Si7 0.500000 0.500000 0.000000
Si Si8 0.740750 0.048153 0.569646
O O1 0.158603 0.217856 0.794875
O O2 0.061773 0.081973 0.644057
O O3 0.200527 0.837057 0.003380
O O4 0.000000 0.000000 0.000000
O O5 0.920086 0.410523 0.462801
O O6 0.858466 0.124004 0.528540
O O7 0.034161 0.321595 0.230882
O O8 0.500000 0.500000 0.500000
O O9 0.708072 0.517202 0.413178
O O10 0.574236 0.464567 0.198793
O O11 0.649308 0.182929 0.599207
O O12 0.292602 0.887205 0.672692
O O13 0.193968 0.568716 0.963276
O O14 0.388623 0.593003 0.057813
O O15 0.177154 0.410080 0.370341
O O16 0.759225 0.815930 0.749043
#
# Coordination Sequence:
#
# PCOD9099498 Si02
#       8
#     2   2   2   2   2   2   1   2
#     4  11  21  37  62  96 133 172 217 272 332 402
#     4  10  20  37  60  91 137 166 214 271 330 411
#     4  10  22  44  72  93 131 180 223 287 343 392
#     4  11  22  40  63  89 131 174 219 279 327 389
#     4  10  20  38  63  97 130 175 223 267 337 406
#     4  11  20  37  65  93 130 176 216 265 340 398
#     4  10  24  46  66  94 134 168 234 286 324 392
#     4  10  22  41  61  96 134 168 221 276 331 405
#
# _framework density 23.538682999999999
#
# number of rings (size 3 to 8) (size 9 to 14) (size 15 to 20)
#    0.000    1.600    2.667    4.400    0.000    1.600 
#    9.600    2.667    0.000    0.000    0.000    0.000 
#    0.000    0.000    0.000    0.000    0.000    0.000 
#
# Total GULP energy -83573.317757 kJ/mol
# GULP energy per Si atom -5571.554517 kJ/mol
# Density = 2.348511 g / cm^3
# Si number density = 23.538683 Si / 1000 Ang^3
#
#
#
# Elastic Constant Matrix: (Units=GPa)
#
#
# Indices 1 2 3 4 5 6 
#
# 1 99.9191 47.8322 4.9210 -12.3874 22.4285 -37.5899
# 2 47.8322 175.2655 23.6128 -32.8230 -6.1882 -37.5163
# 3 4.9210 23.6128 53.3669 -11.0697 -7.4068 -2.0015
# 4 -12.3874 -32.8230 -11.0697 39.4088 5.1544 1.6148
# 5 22.4285 -6.1882 -7.4068 5.1544 26.9208 5.4129
# 6 -37.5899 -37.5163 -2.0015 1.6148 5.4129 49.0334
#
#
#
# Elastic Compliance Matrix: (Units=1/GPa)
#
#
# Indices 1 2 3 4 5 6 
#
# 1 0.027588 -0.001450 -0.003307 0.009608 -0.030687 0.022976
# 2 -0.001450 0.008606 -0.002214 0.005824 0.000427 0.005144
# 3 -0.003307 -0.002214 0.021514 0.002211 0.008622 -0.004375
# 4 0.009608 0.005824 0.002211 0.035362 -0.015329 0.012439
# 5 -0.030687 0.000427 0.008622 -0.015329 0.074257 -0.030538
# 6 0.022976 0.005144 -0.004375 0.012439 -0.030538 0.044727
#
#
# Mechanical properties :
#
#
# Convention : Reuss Voigt Hill
#
# Bulk Modulus (GPa) = 22.84809 53.47595 38.16202
# Shear Modulus (GPa) = 20.78266 39.88498 30.33382
#
# Velocity S-wave (km/s) = 2.97461 4.12083 3.59371
# Velocity P-wave (km/s) = 4.63955 6.73864 5.78510
#
# Compressibility (1/GPa) = 0.04376734
#
# Stress axis : x y z
#
# Youngs Moduli (GPa) = 36.24780 116.19171 46.48155
#
# Poissons Ratio (x) = 0.16843 0.15371
# Poissons Ratio (y) = 0.05254 0.10291
# Poissons Ratio (z) = 0.11987 0.25726
#
# Static dielectric constant tensor:
#      x y z
#    x 1.851370 -0.005490 -0.009110 
#    y -0.005490 1.952480 0.047800 
#    z -0.009110 0.047800 2.033970 
# 
# From -- ./inp_files/236612.got.cif
#   From: 2010.05.17/outbox.cif.g08.bks.cpg/sg2_119_cif.got.tgz:236612.got - 2010.06.03 11:33:40.
