data_PCOD9099433
_publ_section_title
;
Structure prediction by ZEFSAII (Michael W. Deem and Ramdas Pophale) SiO2 
 PCOD9099433
Probable space group: P -1
;
_chemical_formula_sum "Si O2"
_cell_formula_units_Z 12
_cell_length_a 17.175106
_cell_length_b 8.467369
_cell_length_c 11.069175
_cell_angle_alpha 41.286328
_cell_angle_beta 43.624636
_cell_angle_gamma 73.436691
_cell_volume 602.808075
_symmetry_space_group_name_H-M "P -1"
_symmetry_group_IT_number 2
_symmetry_cell_setting 'triclinic'
loop_
_space_group_symop_operation_xyz
x,y,z
-x,-y,-z
loop_
_atom_site_type_symbol
_atom_site_label
_atom_site_fract_x
_atom_site_fract_y
_atom_site_fract_z
Si Si1 0.125635 0.332992 0.159582
Si Si2 0.823516 0.447744 0.293446
Si Si3 0.794614 0.661732 0.532749
Si Si4 0.309489 0.243524 0.154763
Si Si5 0.584788 0.327323 0.766765
Si Si6 0.961549 0.283448 0.883205
O O1 0.258091 0.344653 0.044559
O O2 0.097757 0.523625 0.168803
O O3 0.133517 0.444917 0.951766
O O4 0.000000 0.000000 0.500000
O O5 0.705514 0.494398 0.436925
O O6 0.944602 0.614267 0.159142
O O7 0.763375 0.105700 0.566410
O O8 0.743310 0.692048 0.701346
O O9 0.670102 0.384858 0.760706
O O10 0.932537 0.667616 0.368402
O O11 0.841322 0.948626 0.235387
O O12 0.472281 0.394505 0.878715
O O13 0.500000 0.000000 0.000000
#
# Coordination Sequence:
#
# PCOD9099433 Si02
#       6
#     2   2   2   2   2   2
#     4  12  22  34  63  93 119 154 197 238 295 352
#     4  10  20  40  60  86 124 154 196 243 282 352
#     4  10  20  37  63  84 121 155 193 246 291 349
#     4  11  21  37  62  88 118 159 195 239 292 347
#     4   9  21  39  64  83 112 164 202 234 294 348
#     4  10  20  37  60  89 119 158 190 239 303 337
#
# _framework density 19.906835000000001
#
# number of rings (size 3 to 8) (size 9 to 14) (size 15 to 20)
#    0.000    1.667    3.333    2.000    0.000    1.333 
#    0.000    0.833    0.000    0.000    0.000    0.000 
#    0.000    0.000    0.000    0.000    0.000    0.000 
#
# Total GULP energy -66948.428294 kJ/mol
# GULP energy per Si atom -5579.035691 kJ/mol
# Density = 1.986153 g / cm^3
# Si number density = 19.906835 Si / 1000 Ang^3
#
#
#
# Elastic Constant Matrix: (Units=GPa)
#
#
# Indices 1 2 3 4 5 6 
#
# 1 48.3781 16.3184 20.7440 8.4237 -3.9163 -8.1594
# 2 16.3184 101.6535 29.9308 22.7488 11.9514 0.1018
# 3 20.7440 29.9308 50.2370 9.2925 -9.5865 -7.5843
# 4 8.4237 22.7488 9.2925 45.8180 -1.7654 -9.0294
# 5 -3.9163 11.9514 -9.5865 -1.7654 16.6265 -5.6804
# 6 -8.1594 0.1018 -7.5843 -9.0294 -5.6804 37.2063
#
#
#
# Elastic Compliance Matrix: (Units=1/GPa)
#
#
# Indices 1 2 3 4 5 6 
#
# 1 0.026053 -0.002339 -0.007520 -0.000983 0.004987 0.004710
# 2 -0.002339 0.021155 -0.017334 -0.009944 -0.030632 -0.011194
# 3 -0.007520 -0.017334 0.042219 0.005877 0.040656 0.014638
# 4 -0.000983 -0.009944 0.005877 0.028473 0.016917 0.010502
# 5 0.004987 -0.030632 0.040656 0.016917 0.119443 0.031806
# 6 0.004710 -0.011194 0.014638 0.010502 0.031806 0.038329
#
#
# Mechanical properties :
#
#
# Convention : Reuss Voigt Hill
#
# Bulk Modulus (GPa) = 28.53767 37.13945 32.83856
# Shear Modulus (GPa) = 14.63111 28.81519 21.72315
#
# Velocity S-wave (km/s) = 2.71399 3.80873 3.30698
# Velocity P-wave (km/s) = 4.91810 6.16758 5.57794
#
# Compressibility (1/GPa) = 0.03504140
#
# Stress axis : x y z
#
# Youngs Moduli (GPa) = 38.38308 47.27112 23.68606
#
# Poissons Ratio (x) = 0.11058 0.17811
# Poissons Ratio (y) = 0.08979 0.41057
# Poissons Ratio (z) = 0.28862 0.81938
#
# Static dielectric constant tensor:
#      x y z
#    x 1.702720 -0.001110 -0.027300 
#    y -0.001110 1.755170 0.017900 
#    z -0.027300 0.017900 1.700590 
# 
# From -- ./inp_files/23364.got.cif
#   From: 2010.05.17/outbox.cif.g08.bks.cpg/sg2_12_cif.got.tgz:23364.got - 2010.06.03 11:33:40.
