data_PCOD9099612
_publ_section_title
;
Structure prediction by ZEFSAII (Michael W. Deem and Ramdas Pophale) SiO2 
 PCOD9099612
Probable space group: P -1
;
_chemical_formula_sum "Si O2"
_cell_formula_units_Z 16
_cell_length_a 20.365394
_cell_length_b 9.612757
_cell_length_c 12.180058
_cell_angle_alpha 137.633773
_cell_angle_beta 23.631607
_cell_angle_gamma 135.654712
_cell_volume 637.607644
_symmetry_space_group_name_H-M "P -1"
_symmetry_group_IT_number 2
_symmetry_cell_setting 'triclinic'
loop_
_space_group_symop_operation_xyz
x,y,z
-x,-y,-z
loop_
_atom_site_type_symbol
_atom_site_label
_atom_site_fract_x
_atom_site_fract_y
_atom_site_fract_z
Si Si1 0.359471 0.991115 0.305037
Si Si2 0.001289 0.720888 0.229386
Si Si3 0.610770 0.366281 0.821830
Si Si4 0.966483 0.594530 0.430689
Si Si5 0.242085 0.937936 0.803915
Si Si6 0.776279 0.612845 0.320912
Si Si7 0.017786 0.214500 0.244773
Si Si8 0.513566 0.333297 0.661252
O O1 0.424195 0.881408 0.249669
O O2 0.180788 0.846135 0.478189
O O3 0.295473 0.213881 0.537793
O O4 0.500000 0.000000 0.000000
O O5 0.013856 0.768296 0.366806
O O6 0.827585 0.704405 0.419188
O O7 0.131346 0.862555 0.036064
O O8 0.057726 0.487413 0.015752
O O9 0.797405 0.464547 0.571346
O O10 0.500000 0.500000 0.000000
O O11 0.566373 0.464191 0.065428
O O12 0.937954 0.703538 0.652711
O O13 0.070587 0.408961 0.196359
O O14 0.357405 0.757281 0.504378
O O15 0.374191 0.142162 0.740616
O O16 0.110776 0.013958 0.964563
O O17 0.634300 0.415277 0.425720
#
# Coordination Sequence:
#
# PCOD9099612 Si02
#       8
#     2   2   2   2   2   2   2   2
#     4  11  22  39  62  88 117 161 206 249 307 364
#     4  10  21  39  62  91 120 159 208 252 299 362
#     4  11  22  38  58  89 125 156 200 253 307 358
#     4  10  22  38  61  87 123 160 202 258 304 364
#     4  10  20  38  64  85 116 160 206 246 300 363
#     4  10  20  38  65  87 123 161 201 254 306 355
#     4  10  21  40  60  87 120 165 204 251 312 358
#     4  10  20  37  61  86 120 160 198 246 306 358
#
# _framework density 25.093802
#
# number of rings (size 3 to 8) (size 9 to 14) (size 15 to 20)
#    0.000    1.750    3.750    0.750    0.000    0.500 
#    4.500    1.250    0.000    3.000    0.000    0.000 
#    0.000    0.000    0.000    0.000    0.000    0.000 
#
# Total GULP energy -89176.493049 kJ/mol
# GULP energy per Si atom -5573.530816 kJ/mol
# Density = 2.503669 g / cm^3
# Si number density = 25.093802 Si / 1000 Ang^3
#
#
#
# Elastic Constant Matrix: (Units=GPa)
#
#
# Indices 1 2 3 4 5 6 
#
# 1 62.4770 31.0084 6.5600 -9.6395 -9.8997 -24.3448
# 2 31.0084 167.6989 43.9422 10.5531 -16.0016 -39.5202
# 3 6.5600 43.9422 116.8143 12.4600 -18.6106 -15.2518
# 4 -9.6395 10.5531 12.4600 59.1417 -5.3205 -13.0402
# 5 -9.8997 -16.0016 -18.6106 -5.3205 21.2516 1.2877
# 6 -24.3448 -39.5202 -15.2518 -13.0402 1.2877 44.9011
#
#
#
# Elastic Compliance Matrix: (Units=1/GPa)
#
#
# Indices 1 2 3 4 5 6 
#
# 1 0.026365 -0.000703 0.002409 0.008946 0.015093 0.016660
# 2 -0.000703 0.008442 -0.001655 0.000555 0.004323 0.006524
# 3 0.002409 -0.001655 0.010959 -0.000063 0.009258 0.003289
# 4 0.008946 0.000555 -0.000063 0.021611 0.009255 0.011329
# 5 0.015093 0.004323 0.009258 0.009255 0.066802 0.015905
# 6 0.016660 0.006524 0.003289 0.011329 0.015905 0.040997
#
#
# Mechanical properties :
#
#
# Convention : Reuss Voigt Hill
#
# Bulk Modulus (GPa) = 21.80128 56.66794 39.23461
# Shear Modulus (GPa) = 26.26559 42.75752 34.51155
#
# Velocity S-wave (km/s) = 3.23878 4.13232 3.71253
# Velocity P-wave (km/s) = 4.76372 6.73792 5.83492
#
# Compressibility (1/GPa) = 0.04586886
#
# Stress axis : x y z
#
# Youngs Moduli (GPa) = 37.92854 118.45941 91.25053
#
# Poissons Ratio (x) = 0.08330 -0.21985
# Poissons Ratio (y) = 0.02667 0.15099
# Poissons Ratio (z) = -0.09138 0.19601
#
# Static dielectric constant tensor:
#      x y z
#    x 2.308110 -0.055030 0.060760 
#    y -0.055030 2.026740 0.082620 
#    z 0.060760 0.082620 2.062250 
# 
# From -- ./inp_files/252128.got.cif
#   From: 2010.05.17/outbox.cif.g08.bks.cpg/sg2_127_cif.got.tgz:252128.got - 2010.06.03 11:33:40.
