data_PCOD9099268
_publ_section_title
;
Structure prediction by ZEFSAII (Michael W. Deem and Ramdas Pophale) SiO2 
 PCOD9099268
Probable space group: P -1
;
_chemical_formula_sum "Si O2"
_cell_formula_units_Z 9
_cell_length_a 7.040279
_cell_length_b 8.527019
_cell_length_c 6.965641
_cell_angle_alpha 56.529066
_cell_angle_beta 80.972527
_cell_angle_gamma 88.392728
_cell_volume 343.629268
_symmetry_space_group_name_H-M "P -1"
_symmetry_group_IT_number 2
_symmetry_cell_setting 'triclinic'
loop_
_space_group_symop_operation_xyz
x,y,z
-x,-y,-z
loop_
_atom_site_type_symbol
_atom_site_label
_atom_site_fract_x
_atom_site_fract_y
_atom_site_fract_z
Si Si1 0.000000 0.000000 0.000000
Si Si2 0.548501 0.565809 0.162015
Si Si3 0.667001 0.792837 0.466017
Si Si4 0.068371 0.362786 0.744225
Si Si5 0.331272 0.044340 0.234700
O O1 0.156854 0.974911 0.177699
O O2 0.924830 0.214373 0.973269
O O3 0.395350 0.429736 0.391510
O O4 0.768196 0.539359 0.212229
O O5 0.500000 0.500000 0.000000
O O6 0.545133 0.789518 0.012184
O O7 0.833224 0.818019 0.261861
O O8 0.733457 0.857168 0.622581
O O9 0.476930 0.893525 0.378170
O O10 0.000000 0.500000 0.500000
#
# Coordination Sequence:
#
# PCOD9099268 Si02
#       5
#     1   2   2   2   2
#     4  10  22  38  54  84 116 140 178 226 274 320
#     4   9  19  37  58  81 107 140 183 226 269 319
#     4  10  20  37  60  80 106 146 184 221 267 323
#     4  11  23  37  55  81 113 146 180 222 270 321
#     4   9  20  38  58  82 109 140 181 225 272 320
#
# _framework density 26.191015
#
# number of rings (size 3 to 8) (size 9 to 14) (size 15 to 20)
#    0.000    2.222    0.000    2.000    0.000    6.222 
#    0.000   12.222    0.000    0.000    0.000    0.000 
#    0.000    0.000    0.000    0.000    0.000    0.000 
#
# Total GULP energy -50150.657466 kJ/mol
# GULP energy per Si atom -5572.295274 kJ/mol
# Density = 2.613140 g / cm^3
# Si number density = 26.191015 Si / 1000 Ang^3
#
#
#
# Elastic Constant Matrix: (Units=GPa)
#
#
# Indices 1 2 3 4 5 6 
#
# 1 123.0023 63.8428 46.9110 14.8627 18.9839 55.8862
# 2 63.8428 129.6702 34.1099 27.5835 5.5163 51.4300
# 3 46.9110 34.1099 126.0122 -8.5367 19.0332 28.7313
# 4 14.8627 27.5835 -8.5367 54.2766 16.3889 7.6695
# 5 18.9839 5.5163 19.0332 16.3889 59.6374 9.1528
# 6 55.8862 51.4300 28.7313 7.6695 9.1528 61.0065
#
#
#
# Elastic Compliance Matrix: (Units=1/GPa)
#
#
# Indices 1 2 3 4 5 6 
#
# 1 0.015664 -0.002464 -0.002542 -0.001349 -0.001948 -0.010613
# 2 -0.002464 0.013949 -0.001889 -0.006494 0.003151 -0.008268
# 3 -0.002542 -0.001889 0.010454 0.004482 -0.003423 -0.001053
# 4 -0.001349 -0.006494 0.004482 0.024721 -0.007598 0.002631
# 5 -0.001948 0.003151 -0.003423 -0.007598 0.020488 -0.001379
# 6 -0.010613 -0.008268 -0.001053 0.002631 -0.001379 0.033456
#
#
# Mechanical properties :
#
#
# Convention : Reuss Voigt Hill
#
# Bulk Modulus (GPa) = 38.05648 74.26802 56.16225
# Shear Modulus (GPa) = 35.39035 50.57217 42.98126
#
# Velocity S-wave (km/s) = 3.67991 4.39897 4.05541
# Velocity P-wave (km/s) = 5.71118 7.36336 6.58926
#
# Compressibility (1/GPa) = 0.02627673
#
# Stress axis : x y z
#
# Youngs Moduli (GPa) = 63.84087 71.69000 95.65833
#
# Poissons Ratio (x) = 0.17668 0.24313
# Poissons Ratio (y) = 0.15733 0.18070
# Poissons Ratio (z) = 0.16226 0.13542
#
# Static dielectric constant tensor:
#      x y z
#    x 2.106720 -0.039950 -0.028500 
#    y -0.039950 2.164400 -0.052610 
#    z -0.028500 -0.052610 2.248600 
# 
# From -- ./inp_files/15395.got.cif
#   From: 2010.05.17/outbox.cif.g08.bks.cpg/sg2_8_cif.got.tgz:15395.got - 2010.06.03 11:33:40.
