data_PCOD9099472
_publ_section_title
;
Structure prediction by ZEFSAII (Michael W. Deem and Ramdas Pophale) SiO2 
 PCOD9099472
Probable space group: P -1
;
_chemical_formula_sum "Si O2"
_cell_formula_units_Z 16
_cell_length_a 11.605614
_cell_length_b 13.106167
_cell_length_c 5.325964
_cell_angle_alpha 55.605150
_cell_angle_beta 77.209037
_cell_angle_gamma 98.408945
_cell_volume 613.714744
_symmetry_space_group_name_H-M "P -1"
_symmetry_group_IT_number 2
_symmetry_cell_setting 'triclinic'
loop_
_space_group_symop_operation_xyz
x,y,z
-x,-y,-z
loop_
_atom_site_type_symbol
_atom_site_label
_atom_site_fract_x
_atom_site_fract_y
_atom_site_fract_z
Si Si1 0.427873 0.017511 0.760756
Si Si2 0.788279 0.218320 0.605177
Si Si3 0.785516 0.447976 0.551557
Si Si4 0.604001 0.536057 0.191312
Si Si5 0.586385 0.293064 0.245651
Si Si6 0.228715 0.200063 0.225816
Si Si7 0.890442 0.730748 0.316580
Si Si8 0.095355 0.922535 0.646189
O O1 0.458690 0.173336 0.522100
O O2 0.500000 0.000000 0.500000
O O3 0.500000 0.000000 0.000000
O O4 0.293232 0.905596 0.015025
O O5 0.855910 0.355071 0.529213
O O6 0.688411 0.256223 0.421703
O O7 0.875249 0.167612 0.453450
O O8 0.730194 0.516003 0.267784
O O9 0.857164 0.572766 0.519865
O O10 0.663755 0.337651 0.888221
O O11 0.500000 0.500000 0.500000
O O12 0.569112 0.428373 0.144668
O O13 0.640291 0.690128 0.931039
O O14 0.143862 0.228173 0.451751
O O15 0.218811 0.049030 0.456304
O O16 0.190997 0.229007 0.920690
O O17 0.028759 0.826788 0.037783
O O18 0.000000 0.000000 0.500000
#
# Coordination Sequence:
#
# PCOD9099472 Si02
#       8
#     2   2   2   2   2   2   2   2
#     4  10  20  37  60  90 126 163 203 251 310 379
#     4  10  22  40  63  93 124 168 213 260 323 375
#     4  10  20  40  64  88 130 164 210 266 314 381
#     4  10  22  37  62  94 126 167 210 258 319 381
#     4  10  20  39  60  89 129 162 207 262 312 383
#     4  10  21  42  63  90 129 168 205 262 320 380
#     4  10  21  42  66  88 124 167 211 264 319 374
#     4  10  23  44  65  91 127 167 216 269 318 379
#
# _framework density 26.070744999999999
#
# number of rings (size 3 to 8) (size 9 to 14) (size 15 to 20)
#    0.000    2.000    2.500    0.375    1.750    1.000 
#    9.000    0.625    0.000    0.000    0.000    0.000 
#    0.000    0.000    0.000    0.000    0.000    0.000 
#
# Total GULP energy -89414.415300 kJ/mol
# GULP energy per Si atom -5588.400956 kJ/mol
# Density = 2.601141 g / cm^3
# Si number density = 26.070745 Si / 1000 Ang^3
#
#
#
# Elastic Constant Matrix: (Units=GPa)
#
#
# Indices 1 2 3 4 5 6 
#
# 1 69.8395 14.5819 20.6800 -9.4860 21.6561 -8.0096
# 2 14.5819 133.0803 20.7270 2.2651 -1.8125 -13.2753
# 3 20.6800 20.7270 146.6572 -7.0695 -2.1933 -8.3155
# 4 -9.4860 2.2651 -7.0695 62.3743 -5.6268 -5.6037
# 5 21.6561 -1.8125 -2.1933 -5.6268 51.4860 -6.6915
# 6 -8.0096 -13.2753 -8.3155 -5.6037 -6.6915 39.2646
#
#
#
# Elastic Compliance Matrix: (Units=1/GPa)
#
#
# Indices 1 2 3 4 5 6 
#
# 1 0.018050 -0.001593 -0.002233 0.002046 -0.007296 0.001719
# 2 -0.001593 0.008071 -0.000776 -0.000299 0.001200 0.002401
# 3 -0.002233 -0.000776 0.007370 0.000764 0.001466 0.001202
# 4 0.002046 -0.000299 0.000764 0.016848 0.001409 0.003123
# 5 -0.007296 0.001200 0.001466 0.001409 0.023190 0.003381
# 6 0.001719 0.002401 0.001202 0.003123 0.003381 0.027907
#
#
# Mechanical properties :
#
#
# Convention : Reuss Voigt Hill
#
# Bulk Modulus (GPa) = 41.17542 51.28387 46.22964
# Shear Modulus (GPa) = 42.11033 50.19753 46.15393
#
# Velocity S-wave (km/s) = 4.02336 4.39274 4.21210
# Velocity P-wave (km/s) = 6.11647 6.74106 6.43635
#
# Compressibility (1/GPa) = 0.02428633
#
# Stress axis : x y z
#
# Youngs Moduli (GPa) = 55.40213 123.90561 135.68298
#
# Poissons Ratio (x) = 0.19734 0.30300
# Poissons Ratio (y) = 0.08824 0.10534
# Poissons Ratio (z) = 0.12372 0.09620
#
# Static dielectric constant tensor:
#      x y z
#    x 2.152340 0.125670 -0.014660 
#    y 0.125670 1.932410 -0.163260 
#    z -0.014660 -0.163260 1.992490 
# 
# From -- ./inp_files/81661.got.cif
#   From: 2010.05.17/outbox.cif.g08.bks.cpg/sg2_41_cif.got.tgz:81661.got - 2010.06.03 11:33:40.
