data_PCOD9099790
_publ_section_title
;
Structure prediction by ZEFSAII (Michael W. Deem and Ramdas Pophale) SiO2 
 PCOD9099790
Probable space group: P -1
;
_chemical_formula_sum "Si O2"
_cell_formula_units_Z 16
_cell_length_a 16.968356
_cell_length_b 11.324068
_cell_length_c 11.598150
_cell_angle_alpha 111.354186
_cell_angle_beta 109.521913
_cell_angle_gamma 22.076972
_cell_volume 780.082229
_symmetry_space_group_name_H-M "P -1"
_symmetry_group_IT_number 2
_symmetry_cell_setting 'triclinic'
loop_
_space_group_symop_operation_xyz
x,y,z
-x,-y,-z
loop_
_atom_site_type_symbol
_atom_site_label
_atom_site_fract_x
_atom_site_fract_y
_atom_site_fract_z
Si Si1 0.723697 0.680693 0.830400
Si Si2 0.504930 0.421147 0.234577
Si Si3 0.196364 0.824107 0.019747
Si Si4 0.383276 0.343765 0.810393
Si Si5 0.746270 0.380320 0.642007
Si Si6 0.119937 0.539162 0.916779
Si Si7 0.238796 0.675297 0.642969
Si Si8 0.889219 0.715740 0.136383
O O1 0.656682 0.638431 0.735755
O O2 0.956353 0.385856 0.792311
O O3 0.589905 0.983920 0.824787
O O4 0.735569 0.657236 0.967410
O O5 0.315521 0.690769 0.147273
O O6 0.396921 0.528867 0.339354
O O7 0.636768 0.366542 0.289899
O O8 0.660362 0.092704 0.151105
O O9 0.356469 0.522609 0.912405
O O10 0.096182 0.093035 0.019447
O O11 0.000000 0.000000 0.000000
O O12 0.209666 0.497308 0.842156
O O13 0.341236 0.424459 0.684311
O O14 0.746345 0.375959 0.502981
O O15 0.990135 0.030905 0.678018
O O16 0.106646 0.412844 0.826749
O O17 0.000000 0.500000 0.000000
#
# Coordination Sequence:
#
# PCOD9099790 Si02
#       8
#     2   2   2   2   2   2   2   2
#     4  11  21  39  63  88 132 166 215 264 312 386
#     4  12  23  43  69  95 132 171 214 263 327 386
#     4  10  21  35  62  97 129 161 203 258 323 387
#     4  11  22  38  60  95 128 166 210 262 330 381
#     4  11  23  46  70  90 128 172 223 272 316 375
#     4  10  20  37  61  92 129 169 207 254 332 391
#     4  11  26  43  67  99 125 169 224 273 316 376
#     4  10  22  37  61  97 129 167 215 257 315 392
#
# _framework density 20.510657999999999
#
# number of rings (size 3 to 8) (size 9 to 14) (size 15 to 20)
#    0.000    1.250    1.250    6.750    3.500    1.000 
#    0.000    0.000    0.000    1.500    0.000    0.000 
#    0.000    0.000    0.000    0.000    0.000    0.000 
#
# Total GULP energy -89303.456594 kJ/mol
# GULP energy per Si atom -5581.466037 kJ/mol
# Density = 2.046397 g / cm^3
# Si number density = 20.510658 Si / 1000 Ang^3
#
#
#
# Elastic Constant Matrix: (Units=GPa)
#
#
# Indices 1 2 3 4 5 6 
#
# 1 122.7694 34.1055 29.8453 -8.3876 -12.1512 2.4073
# 2 34.1055 66.1864 -59.8982 -15.7763 -32.7208 -12.0072
# 3 29.8453 -59.8982 -52.1908 -19.5007 -39.4910 -36.3596
# 4 -8.3876 -15.7763 -19.5007 23.4173 0.7515 -8.3397
# 5 -12.1512 -32.7208 -39.4910 0.7515 26.7847 -11.1616
# 6 2.4073 -12.0072 -36.3596 -8.3397 -11.1616 21.3717
#
#
#
# Elastic Compliance Matrix: (Units=1/GPa)
#
#
# Indices 1 2 3 4 5 6 
#
# 1 0.008965 -0.001068 0.000297 0.003457 0.004098 0.002385
# 2 -0.001068 0.008774 -0.005796 -0.001287 -0.000626 -0.005640
# 3 0.000297 -0.005796 0.001182 -0.005269 -0.008237 -0.007636
# 4 0.003457 -0.001287 -0.005269 0.039235 -0.008553 0.000767
# 5 0.004098 -0.000626 -0.008237 -0.008553 0.024229 -0.005510
# 6 0.002385 -0.005640 -0.007636 0.000767 -0.005510 0.027784
#
#
# Mechanical properties :
#
#
# Convention : Reuss Voigt Hill
#
# Bulk Modulus (GPa) = 172.77116 16.09667 94.43392
# Shear Modulus (GPa) = 39.92608 23.16224 31.54416
#
# Velocity S-wave (km/s) = 4.41682 3.36412 3.92591
# Velocity P-wave (km/s) = 10.50851 4.79111 8.16650
#
# Compressibility (1/GPa) = 0.00578800
#
# Stress axis : x y z
#
# Youngs Moduli (GPa) = 111.54860 113.97337 845.68459
#
# Poissons Ratio (x) = 0.12168 -0.25139
# Poissons Ratio (y) = 0.11909 4.90176
# Poissons Ratio (z) = -0.03316 0.66061
#
# Static dielectric constant tensor:
#      x y z
#    x 1.803030 -0.036330 -0.003270 
#    y -0.036330 1.808130 0.015050 
#    z -0.003270 0.015050 1.725210 
# 
# From -- ./inp_files/419724.got.cif
#   From: 2010.05.17/outbox.cif.g08.bks.cpg/sg2_210_cif.got.tgz:419724.got - 2010.06.03 11:33:40.
