data_PCOD9099478
_publ_section_title
;
Structure prediction by ZEFSAII (Michael W. Deem and Ramdas Pophale) SiO2 
 PCOD9099478
Probable space group: P -1
;
_chemical_formula_sum "Si O2"
_cell_formula_units_Z 16
_cell_length_a 13.610542
_cell_length_b 7.516428
_cell_length_c 8.542963
_cell_angle_alpha 94.488776
_cell_angle_beta 125.443442
_cell_angle_gamma 112.046224
_cell_volume 607.159161
_symmetry_space_group_name_H-M "P -1"
_symmetry_group_IT_number 2
_symmetry_cell_setting 'triclinic'
loop_
_space_group_symop_operation_xyz
x,y,z
-x,-y,-z
loop_
_atom_site_type_symbol
_atom_site_label
_atom_site_fract_x
_atom_site_fract_y
_atom_site_fract_z
Si Si1 0.532035 0.507994 0.850571
Si Si2 0.719619 0.227454 0.670788
Si Si3 0.045458 0.519625 0.293993
Si Si4 0.648940 0.560136 0.566504
Si Si5 0.831665 0.852565 0.213660
Si Si6 0.208780 0.754585 0.773484
Si Si7 0.109287 0.158756 0.371503
Si Si8 0.537440 0.096169 0.782780
O O1 0.416828 0.546689 0.668624
O O2 0.512772 0.289471 0.767744
O O3 0.500000 0.500000 0.000000
O O4 0.692846 0.685344 0.984702
O O5 0.880086 0.322344 0.770770
O O6 0.709427 0.433674 0.694525
O O7 0.645793 0.099873 0.750821
O O8 0.613207 0.093692 0.422639
O O9 0.143320 0.640505 0.542551
O O10 0.060955 0.317109 0.280289
O O11 0.884417 0.422507 0.193070
O O12 0.500000 0.500000 0.500000
O O13 0.768289 0.792410 0.637934
O O14 0.838757 0.786525 0.394619
O O15 0.821867 0.058390 0.236583
O O16 0.974623 0.928194 0.254120
O O17 0.372873 0.860381 0.972837
#
# Coordination Sequence:
#
# PCOD9099478 Si02
#       8
#     2   2   2   2   2   2   2   2
#     4  12  24  38  62  93 120 156 205 254 303 356
#     4  10  23  41  62  85 121 165 202 245 302 360
#     4   9  20  38  62  90 118 158 198 248 306 359
#     4  11  21  41  63  88 123 160 198 251 304 363
#     4  10  20  37  60  91 120 151 202 251 298 358
#     4  10  21  37  62  91 121 154 200 251 303 359
#     4   9  19  37  62  86 121 157 197 247 300 358
#     4  11  24  41  59  88 124 159 204 249 298 365
#
# _framework density 26.352235
#
# number of rings (size 3 to 8) (size 9 to 14) (size 15 to 20)
#    0.000    1.750    2.500    1.500    3.500    2.000 
#    0.000    0.625    2.750    0.000    0.000    0.000 
#    0.000    0.000    0.000    0.000    0.000    0.000 
#
# Total GULP energy -89364.013292 kJ/mol
# GULP energy per Si atom -5585.250831 kJ/mol
# Density = 2.629226 g / cm^3
# Si number density = 26.352235 Si / 1000 Ang^3
#
#
#
# Elastic Constant Matrix: (Units=GPa)
#
#
# Indices 1 2 3 4 5 6 
#
# 1 99.0371 47.2551 -6.5091 17.0394 5.2009 35.0902
# 2 47.2551 87.9411 3.5848 21.1480 4.0924 29.7026
# 3 -6.5091 3.5848 56.3147 16.7985 18.5635 1.3905
# 4 17.0394 21.1480 16.7985 38.5187 4.3875 13.9423
# 5 5.2009 4.0924 18.5635 4.3875 28.5630 8.8503
# 6 35.0902 29.7026 1.3905 13.9423 8.8503 51.0389
#
#
#
# Elastic Compliance Matrix: (Units=1/GPa)
#
#
# Indices 1 2 3 4 5 6 
#
# 1 0.016085 -0.005731 0.004036 -0.003086 -0.002209 -0.006607
# 2 -0.005731 0.017308 -0.000526 -0.005089 0.001217 -0.004939
# 3 0.004036 -0.000526 0.027895 -0.012851 -0.017862 0.003379
# 4 -0.003086 -0.005089 -0.012851 0.037139 0.005705 -0.005701
# 5 -0.002209 0.001217 -0.017862 0.005705 0.048667 -0.008700
# 6 -0.006607 -0.004939 0.003379 -0.005701 -0.008700 0.029984
#
#
# Mechanical properties :
#
#
# Convention : Reuss Voigt Hill
#
# Bulk Modulus (GPa) = 17.59129 36.88383 27.23756
# Shear Modulus (GPa) = 24.94171 36.88824 30.91498
#
# Velocity S-wave (km/s) = 3.07982 3.74547 3.42884
# Velocity P-wave (km/s) = 4.39738 5.72115 5.10238
#
# Compressibility (1/GPa) = 0.05684631
#
# Stress axis : x y z
#
# Youngs Moduli (GPa) = 62.16895 57.77825 35.84834
#
# Poissons Ratio (x) = 0.33115 -0.14468
# Poissons Ratio (y) = 0.35631 0.01884
# Poissons Ratio (z) = -0.25091 0.03036
#
# Static dielectric constant tensor:
#      x y z
#    x 2.173500 0.103840 -0.010040 
#    y 0.103840 2.104590 -0.081210 
#    z -0.010040 -0.081210 2.212090 
# 
# From -- ./inp_files/295613.got.cif
#   From: 2010.05.17/outbox.cif.g08.bks.cpg/sg2_148_cif.got.tgz:295613.got - 2010.06.03 11:33:40.
