data_PCOD9099760
_publ_section_title
;
Structure prediction by ZEFSAII (Michael W. Deem and Ramdas Pophale) SiO2 
 PCOD9099760
Probable space group: P -1
;
_chemical_formula_sum "Si O2"
_cell_formula_units_Z 16
_cell_length_a 18.888027
_cell_length_b 8.575844
_cell_length_c 5.235954
_cell_angle_alpha 83.349229
_cell_angle_beta 124.204523
_cell_angle_gamma 92.267420
_cell_volume 696.372013
_symmetry_space_group_name_H-M "P -1"
_symmetry_group_IT_number 2
_symmetry_cell_setting 'triclinic'
loop_
_space_group_symop_operation_xyz
x,y,z
-x,-y,-z
loop_
_atom_site_type_symbol
_atom_site_label
_atom_site_fract_x
_atom_site_fract_y
_atom_site_fract_z
Si Si1 0.093386 0.940906 0.103502
Si Si2 0.072648 0.369679 0.132493
Si Si3 0.202939 0.626369 0.412109
Si Si4 0.427502 0.159999 0.043186
Si Si5 0.700205 0.277376 0.914231
Si Si6 0.895860 0.813432 0.283212
Si Si7 0.754651 0.928856 0.261149
Si Si8 0.513880 0.208919 0.709865
O O1 0.170560 0.030073 0.392663
O O2 0.126243 0.761502 0.226091
O O3 0.093453 0.004734 0.801779
O O4 0.000000 0.000000 0.000000
O O5 0.161266 0.459833 0.317935
O O6 0.059290 0.253876 0.363853
O O7 0.073421 0.287070 0.876321
O O8 0.000000 0.500000 0.000000
O O9 0.247907 0.636937 0.774885
O O10 0.268281 0.669484 0.309621
O O11 0.443516 0.229822 0.341738
O O12 0.462691 0.978528 0.176501
O O13 0.328464 0.145235 0.773246
O O14 0.478400 0.249282 0.910187
O O15 0.724871 0.092124 0.036996
O O16 0.599534 0.289613 0.771357
O O17 0.796209 0.813274 0.156329
#
# Coordination Sequence:
#
# PCOD9099760 Si02
#       8
#     2   2   2   2   2   2   2   2
#     4  11  24  42  65  93 127 164 209 257 316 368
#     4  12  27  45  63  89 124 166 218 261 304 366
#     4  11  23  40  62  91 124 168 201 264 307 364
#     4   9  18  29  52  85 128 155 196 239 316 361
#     4  10  20  37  61  91 129 156 210 250 316 368
#     4  12  24  44  65  89 123 167 209 257 313 363
#     4  10  22  37  61  94 126 163 205 261 305 372
#     4   9  17  30  52  86 122 164 185 248 307 375
#
# _framework density 22.976223000000001
#
# number of rings (size 3 to 8) (size 9 to 14) (size 15 to 20)
#    0.000    1.500    2.500    2.625    1.750    5.500 
#    0.000    0.000    0.000    0.000    0.000   17.500 
#    0.000    0.000    0.000    0.000    0.000    0.000 
#
# Total GULP energy -89381.727874 kJ/mol
# GULP energy per Si atom -5586.357992 kJ/mol
# Density = 2.292393 g / cm^3
# Si number density = 22.976223 Si / 1000 Ang^3
#
#
#
# Elastic Constant Matrix: (Units=GPa)
#
#
# Indices 1 2 3 4 5 6 
#
# 1 122.4441 8.5904 37.3189 6.8276 -6.3618 12.1511
# 2 8.5904 43.3474 18.7541 8.7684 -5.9661 8.0935
# 3 37.3189 18.7541 95.1736 7.9197 -7.4615 -1.0717
# 4 6.8276 8.7684 7.9197 22.3323 3.3221 -6.6748
# 5 -6.3618 -5.9661 -7.4615 3.3221 42.1242 10.7487
# 6 12.1511 8.0935 -1.0717 -6.6748 10.7487 19.3833
#
#
#
# Elastic Compliance Matrix: (Units=1/GPa)
#
#
# Indices 1 2 3 4 5 6 
#
# 1 0.011959 0.006322 -0.004637 -0.011077 0.007431 -0.018328
# 2 0.006322 0.042148 -0.007109 -0.031878 0.019315 -0.043643
# 3 -0.004637 -0.007109 0.013520 0.002106 -0.001576 0.008222
# 4 -0.011077 -0.031878 0.002106 0.083801 -0.029103 0.065368
# 5 0.007431 0.019315 -0.001576 -0.029103 0.041280 -0.045724
# 6 -0.018328 -0.043643 0.008222 0.065368 -0.045724 0.129624
#
#
# Mechanical properties :
#
#
# Convention : Reuss Voigt Hill
#
# Bulk Modulus (GPa) = 17.61217 43.36575 30.48896
# Shear Modulus (GPa) = 14.20025 29.85475 22.02750
#
# Velocity S-wave (km/s) = 2.48874 3.60860 3.09966
# Velocity P-wave (km/s) = 3.99255 6.02310 5.10971
#
# Compressibility (1/GPa) = 0.05677893
#
# Stress axis : x y z
#
# Youngs Moduli (GPa) = 83.61599 23.72612 73.96492
#
# Poissons Ratio (x) = -0.14999 0.34299
# Poissons Ratio (y) = -0.52860 0.52579
# Poissons Ratio (z) = 0.38775 0.16866
#
# Static dielectric constant tensor:
#      x y z
#    x 1.882260 0.004710 0.017750 
#    y 0.004710 1.896190 0.007050 
#    z 0.017750 0.007050 1.859470 
# 
# From -- ./inp_files/105063.got.cif
#   From: 2010.05.17/outbox.cif.g08.bks.cpg/sg2_53_cif.got.tgz:105063.got - 2010.06.03 11:33:40.
