data_PCOD9099673
_publ_section_title
;
Structure prediction by ZEFSAII (Michael W. Deem and Ramdas Pophale) SiO2 
 PCOD9099673
Probable space group: P -1
;
_chemical_formula_sum "Si O2"
_cell_formula_units_Z 16
_cell_length_a 7.580858
_cell_length_b 16.274033
_cell_length_c 7.820961
_cell_angle_alpha 109.962923
_cell_angle_beta 99.418069
_cell_angle_gamma 125.483616
_cell_volume 650.744822
_symmetry_space_group_name_H-M "P -1"
_symmetry_group_IT_number 2
_symmetry_cell_setting 'triclinic'
loop_
_space_group_symop_operation_xyz
x,y,z
-x,-y,-z
loop_
_atom_site_type_symbol
_atom_site_label
_atom_site_fract_x
_atom_site_fract_y
_atom_site_fract_z
Si Si1 0.265176 0.426643 0.288042
Si Si2 0.419097 0.882835 0.240280
Si Si3 0.078232 0.994044 0.742042
Si Si4 0.329567 0.003304 0.090892
Si Si5 0.209384 0.644053 0.838897
Si Si6 0.510934 0.809178 0.512262
Si Si7 0.299155 0.260012 0.015402
Si Si8 0.362625 0.595254 0.138120
O O1 0.500000 0.500000 0.500000
O O2 0.188688 0.302586 0.135035
O O3 0.321257 0.493095 0.162766
O O4 0.042835 0.409025 0.321315
O O5 0.712558 0.981567 0.321522
O O6 0.379443 0.836846 0.391623
O O7 0.298545 0.932919 0.202704
O O8 0.318520 0.769801 0.028062
O O9 0.105210 0.955210 0.901965
O O10 0.156866 0.121571 0.867699
O O11 0.799394 0.895130 0.569152
O O12 0.469748 0.138282 0.264664
O O13 0.500000 0.000000 0.000000
O O14 0.438621 0.675812 0.805222
O O15 0.173426 0.566717 0.941462
O O16 0.391687 0.678275 0.349205
O O17 0.391870 0.322024 0.884874
#
# Coordination Sequence:
#
# PCOD9099673 Si02
#       8
#     2   2   2   2   2   2   2   2
#     4  12  24  38  68  93 116 157 215 255 302 368
#     4   9  19  38  58  88 120 156 200 246 292 368
#     4  10  20  37  61  88 122 161 190 251 309 352
#     4  10  22  35  54  84 127 160 194 243 302 360
#     4   8  20  41  65  82 125 158 198 250 311 349
#     4  11  20  36  64  87 123 159 205 242 296 369
#     4   9  22  42  65  85 126 162 202 248 312 364
#     4   9  22  43  60  87 124 163 201 253 305 363
#
# _framework density 24.587209999999999
#
# number of rings (size 3 to 8) (size 9 to 14) (size 15 to 20)
#    0.750    1.500    1.250    1.875    3.500    1.500 
#    0.000    0.000    0.000    0.000    0.000    0.000 
#    0.000    0.000    0.000    0.000    0.000    0.000 
#
# Total GULP energy -89275.669462 kJ/mol
# GULP energy per Si atom -5579.729341 kJ/mol
# Density = 2.453125 g / cm^3
# Si number density = 24.587210 Si / 1000 Ang^3
#
#
#
# Elastic Constant Matrix: (Units=GPa)
#
#
# Indices 1 2 3 4 5 6 
#
# 1 108.6920 14.4221 16.8587 0.4599 24.2213 -14.1601
# 2 14.4221 97.6086 12.3269 -1.8546 11.8184 -29.7629
# 3 16.8587 12.3269 78.3595 5.6454 15.9915 -17.9493
# 4 0.4599 -1.8546 5.6454 38.0487 -3.1692 7.0709
# 5 24.2213 11.8184 15.9915 -3.1692 37.0342 -4.5263
# 6 -14.1601 -29.7629 -17.9493 7.0709 -4.5263 32.5937
#
#
#
# Elastic Compliance Matrix: (Units=1/GPa)
#
#
# Indices 1 2 3 4 5 6 
#
# 1 0.011358 0.000672 0.000201 -0.001671 -0.007260 0.005013
# 2 0.000672 0.014976 0.002073 -0.002764 -0.004507 0.015083
# 3 0.000201 0.002073 0.016810 -0.005098 -0.007100 0.011358
# 4 -0.001671 -0.002764 -0.005098 0.029544 0.005270 -0.011735
# 5 -0.007260 -0.004507 -0.007100 0.005270 0.035807 -0.007350
# 6 0.005013 0.015083 0.011358 -0.011735 -0.007350 0.054412
#
#
# Mechanical properties :
#
#
# Convention : Reuss Voigt Hill
#
# Bulk Modulus (GPa) = 20.39248 41.31951 30.85600
# Shear Modulus (GPa) = 28.84189 37.60550 33.22370
#
# Velocity S-wave (km/s) = 3.42869 3.91509 3.67994
# Velocity P-wave (km/s) = 4.89760 6.10566 5.53469
#
# Compressibility (1/GPa) = 0.04903769
#
# Stress axis : x y z
#
# Youngs Moduli (GPa) = 88.04413 66.77265 59.48783
#
# Poissons Ratio (x) = -0.04490 -0.01195
# Poissons Ratio (y) = -0.05920 -0.12334
# Poissons Ratio (z) = -0.01769 -0.13845
#
# Static dielectric constant tensor:
#      x y z
#    x 1.991180 0.060110 0.002830 
#    y 0.060110 1.998980 -0.036370 
#    z 0.002830 -0.036370 1.964190 
# 
# From -- ./inp_files/213108.got.cif
#   From: 2010.05.17/outbox.cif.g08.bks.cpg/sg2_107_cif.got.tgz:213108.got - 2010.06.03 11:33:40.
