data_PCOD9099886
_publ_section_title
;
Structure prediction by ZEFSAII (Michael W. Deem and Ramdas Pophale) SiO2 
 PCOD9099886
Probable space group: P -1
;
_chemical_formula_sum "Si O2"
_cell_formula_units_Z 14
_cell_length_a 11.352726
_cell_length_b 14.262198
_cell_length_c 12.880678
_cell_angle_alpha 42.455316
_cell_angle_beta 129.585502
_cell_angle_gamma 149.785897
_cell_volume 708.447014
_symmetry_space_group_name_H-M "P -1"
_symmetry_group_IT_number 2
_symmetry_cell_setting 'triclinic'
loop_
_space_group_symop_operation_xyz
x,y,z
-x,-y,-z
loop_
_atom_site_type_symbol
_atom_site_label
_atom_site_fract_x
_atom_site_fract_y
_atom_site_fract_z
Si Si1 0.008095 0.271412 0.659386
Si Si2 0.871149 0.299109 0.164221
Si Si3 0.875982 0.963540 0.114842
Si Si4 0.138061 0.536727 0.318608
Si Si5 0.386225 0.059628 0.834393
Si Si6 0.437112 0.145777 0.156650
Si Si7 0.820122 0.577866 0.138992
O O1 0.062481 0.154304 0.744943
O O2 0.065795 0.420434 0.481402
O O3 0.159206 0.402336 0.741195
O O4 0.734300 0.077366 0.696621
O O5 0.626374 0.193602 0.154794
O O6 0.023609 0.377270 0.287857
O O7 0.818445 0.132707 0.198565
O O8 0.000000 0.500000 0.000000
O O9 0.712173 0.907271 0.160306
O O10 0.735344 0.891364 0.987363
O O11 0.103655 0.219795 0.026763
O O12 0.411283 0.733811 0.289798
O O13 0.025501 0.613185 0.189272
O O14 0.500000 0.000000 0.000000
O O15 0.584528 0.349838 0.146735
#
# Coordination Sequence:
#
# PCOD9099886 Si02
#       7
#     2   2   2   2   2   2   2
#     4  11  25  38  53  88 129 151 183 237 300 348
#     4  11  20  36  63  92 108 144 206 247 275 331
#     4  11  22  38  59  88 116 152 196 238 284 347
#     4  11  23  38  60  89 116 149 195 243 287 342
#     4  12  19  38  64  83 111 149 197 243 285 332
#     4  10  20  37  62  85 116 154 195 240 281 337
#     4  10  20  38  64  83 110 157 200 230 279 346
#
# _framework density 19.761534000000001
#
# number of rings (size 3 to 8) (size 9 to 14) (size 15 to 20)
#    0.000    1.143    4.286    3.857    0.000    6.286 
#    0.000    0.714    0.000    0.000    0.000    0.000 
#    0.000    0.000    0.000    0.000    0.000    0.000 
#
# Total GULP energy -78267.089814 kJ/mol
# GULP energy per Si atom -5590.506415 kJ/mol
# Density = 1.971656 g / cm^3
# Si number density = 19.761534 Si / 1000 Ang^3
#
#
#
# Elastic Constant Matrix: (Units=GPa)
#
#
# Indices 1 2 3 4 5 6 
#
# 1 93.1315 25.3678 25.3910 -7.7953 -20.8516 -7.0842
# 2 25.3678 97.6914 16.0872 -11.9545 -16.1730 -13.7464
# 3 25.3910 16.0872 48.6186 -18.8350 -17.4645 10.7453
# 4 -7.7953 -11.9545 -18.8350 19.3617 5.7170 -12.1977
# 5 -20.8516 -16.1730 -17.4645 5.7170 25.6535 -9.4387
# 6 -7.0842 -13.7464 10.7453 -12.1977 -9.4387 36.0965
#
#
#
# Elastic Compliance Matrix: (Units=1/GPa)
#
#
# Indices 1 2 3 4 5 6 
#
# 1 0.015668 0.000707 -0.003879 0.005232 0.012923 0.009646
# 2 0.000707 0.016585 0.003617 0.019662 0.014975 0.015938
# 3 -0.003879 0.003617 0.043872 0.041382 0.022504 0.007424
# 4 0.005232 0.019662 0.041382 0.126129 0.034294 0.047785
# 5 0.012923 0.014975 0.022504 0.034294 0.079038 0.033796
# 6 0.009646 0.015938 0.007424 0.047785 0.033796 0.058441
#
#
# Mechanical properties :
#
#
# Convention : Reuss Voigt Hill
#
# Bulk Modulus (GPa) = 12.98458 41.45929 27.22194
# Shear Modulus (GPa) = 13.71691 27.72871 20.72281
#
# Velocity S-wave (km/s) = 2.63748 3.74995 3.24179
# Velocity P-wave (km/s) = 3.98245 6.30673 5.27422
#
# Compressibility (1/GPa) = 0.07701443
#
# Stress axis : x y z
#
# Youngs Moduli (GPa) = 63.82621 60.29554 22.79374
#
# Poissons Ratio (x) = -0.04265 0.08842
# Poissons Ratio (y) = -0.04515 -0.08244
# Poissons Ratio (z) = 0.24760 -0.21809
#
# Static dielectric constant tensor:
#      x y z
#    x 1.707220 -0.010210 -0.004620 
#    y -0.010210 1.711160 -0.000510 
#    z -0.004620 -0.000510 1.668520 
# 
# From -- ./inp_files/188818.got.cif
#   From: 2010.05.17/outbox.cif.g08.bks.cpg/sg2_95_cif.got.tgz:188818.got - 2010.06.03 11:33:40.
