data_PCOD9099727
_publ_section_title
;
Structure prediction by ZEFSAII (Michael W. Deem and Ramdas Pophale) SiO2 
 PCOD9099727
Probable space group: P -1
;
_chemical_formula_sum "Si O2"
_cell_formula_units_Z 16
_cell_length_a 21.517255
_cell_length_b 18.470990
_cell_length_c 14.365226
_cell_angle_alpha 160.409280
_cell_angle_beta 148.310538
_cell_angle_gamma 22.747384
_cell_volume 733.111165
_symmetry_space_group_name_H-M "P -1"
_symmetry_group_IT_number 2
_symmetry_cell_setting 'triclinic'
loop_
_space_group_symop_operation_xyz
x,y,z
-x,-y,-z
loop_
_atom_site_type_symbol
_atom_site_label
_atom_site_fract_x
_atom_site_fract_y
_atom_site_fract_z
Si Si1 0.391565 0.151795 0.337483
Si Si2 0.043011 0.495351 0.325306
Si Si3 0.557664 0.601153 0.771312
Si Si4 0.290769 0.047787 0.469383
Si Si5 0.975142 0.049488 0.823050
Si Si6 0.310176 0.759294 0.961757
Si Si7 0.926996 0.222049 0.760722
Si Si8 0.373951 0.594629 0.168802
O O1 0.229595 0.263114 0.314164
O O2 0.570189 0.947935 0.364484
O O3 0.348954 0.455793 0.634896
O O4 0.428979 0.952391 0.054945
O O5 0.014776 0.765400 0.571683
O O6 0.895185 0.645637 0.391265
O O7 0.011610 0.348218 0.031820
O O8 0.500000 0.500000 0.500000
O O9 0.732077 0.481167 0.819612
O O10 0.585851 0.452232 0.727415
O O11 0.329344 0.885468 0.421021
O O12 0.310378 0.840284 0.165567
O O13 0.126587 0.009934 0.995111
O O14 0.963792 0.059995 0.709868
O O15 0.794071 0.325812 0.964195
O O16 0.461600 0.679730 0.006097
O O17 0.000000 0.000000 0.500000
#
# Coordination Sequence:
#
# PCOD9099727 Si02
#       8
#     2   2   2   2   2   2   2   2
#     4  10  20  37  61  90 122 155 208 245 302 375
#     4  10  21  39  65  87 126 163 198 263 303 364
#     4  11  23  40  62  91 123 161 203 253 317 367
#     4  10  20  41  62  90 120 162 209 247 308 360
#     4   9  22  39  61  92 122 158 210 251 304 376
#     4  10  21  38  66  88 119 166 202 253 307 359
#     4  11  23  41  66  88 124 165 203 262 312 362
#     4   9  20  37  61  85 124 155 200 255 296 365
#
# _framework density 21.824794000000001
#
# number of rings (size 3 to 8) (size 9 to 14) (size 15 to 20)
#    0.000    2.000    1.250    2.250    3.500    6.000 
#    0.000    9.375    0.000    0.000    0.000    0.000 
#    0.000    0.000    0.000    0.000    0.000    0.000 
#
# Total GULP energy -89233.222271 kJ/mol
# GULP energy per Si atom -5577.076392 kJ/mol
# Density = 2.177512 g / cm^3
# Si number density = 21.824794 Si / 1000 Ang^3
#
#
#
# Elastic Constant Matrix: (Units=GPa)
#
#
# Indices 1 2 3 4 5 6 
#
# 1 88.8300 61.7390 46.7878 -4.0777 4.2563 -33.9271
# 2 61.7390 170.5294 49.0741 9.2860 -6.1690 -51.0571
# 3 46.7878 49.0741 134.3233 10.0202 -8.7387 -20.8776
# 4 -4.0777 9.2860 10.0202 29.2660 0.2366 2.1208
# 5 4.2563 -6.1690 -8.7387 0.2366 32.9031 -2.1929
# 6 -33.9271 -51.0571 -20.8776 2.1208 -2.1929 53.3141
#
#
#
# Elastic Compliance Matrix: (Units=1/GPa)
#
#
# Indices 1 2 3 4 5 6 
#
# 1 0.019660 -0.004327 -0.005020 0.005430 -0.004326 0.006007
# 2 -0.004327 0.009970 -0.000588 -0.004083 0.002758 0.006840
# 3 -0.005020 -0.000588 0.009987 -0.003991 0.003250 0.000445
# 4 0.005430 -0.004083 -0.003991 0.037877 -0.003043 -0.003649
# 5 -0.004326 0.002758 0.003250 -0.003043 0.032529 0.002620
# 6 0.006007 0.006840 0.000445 -0.003649 0.002620 0.029557
#
#
# Mechanical properties :
#
#
# Convention : Reuss Voigt Hill
#
# Bulk Modulus (GPa) = 50.64250 78.76494 64.70372
# Shear Modulus (GPa) = 30.11499 38.83544 34.47522
#
# Velocity S-wave (km/s) = 3.71867 4.22289 3.97877
# Velocity P-wave (km/s) = 6.45697 7.74242 7.12873
#
# Compressibility (1/GPa) = 0.01974626
#
# Stress axis : x y z
#
# Youngs Moduli (GPa) = 50.86554 100.30330 100.13484
#
# Poissons Ratio (x) = 0.43397 0.50268
# Poissons Ratio (y) = 0.22007 0.05890
# Poissons Ratio (z) = 0.25535 0.05900
#
# Static dielectric constant tensor:
#      x y z
#    x 1.833910 -0.019360 0.059010 
#    y -0.019360 1.869570 0.046970 
#    z 0.059010 0.046970 1.779700 
# 
# From -- ./inp_files/543248.got.cif
#   From: 2010.05.17/outbox.cif.g08.bks.cpg/sg2_272_cif.got.tgz:543248.got - 2010.06.03 11:33:40.
