data_PCOD9099817
_publ_section_title
;
Structure prediction by ZEFSAII (Michael W. Deem and Ramdas Pophale) SiO2 
 PCOD9099817
Probable space group: P -1
;
_chemical_formula_sum "Si O2"
_cell_formula_units_Z 16
_cell_length_a 11.170130
_cell_length_b 14.752395
_cell_length_c 14.594484
_cell_angle_alpha 29.167034
_cell_angle_beta 54.211146
_cell_angle_gamma 73.991342
_cell_volume 764.788991
_symmetry_space_group_name_H-M "P -1"
_symmetry_group_IT_number 2
_symmetry_cell_setting 'triclinic'
loop_
_space_group_symop_operation_xyz
x,y,z
-x,-y,-z
loop_
_atom_site_type_symbol
_atom_site_label
_atom_site_fract_x
_atom_site_fract_y
_atom_site_fract_z
Si Si1 0.885828 0.125168 0.728300
Si Si2 0.673038 0.169187 0.339082
Si Si3 0.112865 0.618833 0.118352
Si Si4 0.555970 0.615623 0.274891
Si Si5 0.522889 0.405533 0.298526
Si Si6 0.096922 0.002185 0.862358
Si Si7 0.504577 0.193509 0.114401
Si Si8 0.602064 0.152349 0.912128
O O1 0.786455 0.170899 0.812697
O O2 0.972858 0.344083 0.430886
O O3 0.033066 0.098285 0.728558
O O4 0.731619 0.880137 0.968722
O O5 0.638909 0.344965 0.243296
O O6 0.500000 0.000000 0.500000
O O7 0.653397 0.003132 0.574789
O O8 0.841363 0.295478 0.082546
O O9 0.042290 0.751359 0.082860
O O10 0.300064 0.694929 0.020419
O O11 0.500000 0.500000 0.500000
O O12 0.595510 0.489535 0.294470
O O13 0.387848 0.619184 0.311945
O O14 0.317092 0.175067 0.608689
O O15 0.518307 0.605702 0.076262
O O16 0.000000 0.000000 0.000000
O O17 0.508800 0.080013 0.117289
O O18 0.500000 0.000000 0.000000
#
# Coordination Sequence:
#
# PCOD9099817 Si02
#       8
#     2   2   2   2   2   2   2   2
#     4  11  24  40  60  91 134 164 203 266 324 376
#     4  10  22  40  62  92 127 171 218 258 306 382
#     4  11  24  40  61  94 131 169 211 261 325 364
#     4  10  23  41  63  94 126 172 209 252 318 392
#     4  11  22  40  65  94 124 166 218 260 311 379
#     4  12  24  36  63  99 130 161 209 269 331 373
#     4  10  20  37  61  94 125 161 214 261 311 370
#     4   9  21  38  60  88 126 168 204 251 317 384
#
# _framework density 20.920802999999999
#
# number of rings (size 3 to 8) (size 9 to 14) (size 15 to 20)
#    0.000    1.500    3.750    1.500    8.750    4.000 
#    0.000    0.625    0.000    9.000    0.000    0.000 
#    0.000    0.000    0.000    0.000    0.000    0.000 
#
# Total GULP energy -89316.687477 kJ/mol
# GULP energy per Si atom -5582.292967 kJ/mol
# Density = 2.087319 g / cm^3
# Si number density = 20.920803 Si / 1000 Ang^3
#
#
#
# Elastic Constant Matrix: (Units=GPa)
#
#
# Indices 1 2 3 4 5 6 
#
# 1 28.2590 21.9431 29.2827 3.4494 21.3346 4.2249
# 2 21.9431 122.7934 36.8234 -2.9339 3.5146 9.3860
# 3 29.2827 36.8234 131.4728 -4.6732 14.1670 12.0474
# 4 3.4494 -2.9339 -4.6732 25.9558 -1.6574 10.0267
# 5 21.3346 3.5146 14.1670 -1.6574 27.1560 2.4240
# 6 4.2249 9.3860 12.0474 10.0267 2.4240 28.1383
#
#
#
# Elastic Compliance Matrix: (Units=1/GPa)
#
#
# Indices 1 2 3 4 5 6 
#
# 1 0.176445 -0.023693 -0.022092 -0.045283 -0.128406 0.018067
# 2 -0.023693 0.012241 0.000696 0.007752 0.017596 -0.005102
# 3 -0.022092 0.000696 0.011867 0.008231 0.012111 -0.005972
# 4 -0.045283 0.007752 0.008231 0.058124 0.035889 -0.023114
# 5 -0.128406 0.017596 0.012111 0.035889 0.132727 -0.015998
# 6 0.018067 -0.005102 -0.005972 -0.023114 -0.015998 0.046700
#
#
# Mechanical properties :
#
#
# Convention : Reuss Voigt Hill
#
# Bulk Modulus (GPa) = 9.06014 50.95816 30.00915
# Shear Modulus (GPa) = 8.84841 29.21508 19.03175
#
# Velocity S-wave (km/s) = 2.05880 3.74098 3.01940
# Velocity P-wave (km/s) = 3.16096 6.56281 5.15083
#
# Compressibility (1/GPa) = 0.11037352
#
# Stress axis : x y z
#
# Youngs Moduli (GPa) = 5.66748 81.69503 84.27039
#
# Poissons Ratio (x) = 1.93563 1.86169
# Poissons Ratio (y) = 0.13428 -0.05863
# Poissons Ratio (z) = 0.12521 -0.05684
#
# Static dielectric constant tensor:
#      x y z
#    x 2.159480 0.130520 -0.166200 
#    y 0.130520 1.783100 -0.082590 
#    z -0.166200 -0.082590 1.831570 
# 
# From -- ./inp_files/500458.got.cif
#   From: 2010.05.17/outbox.cif.g08.bks.cpg/sg2_251_cif.got.tgz:500458.got - 2010.06.03 11:33:40.
