data_PCOD9099539
_publ_section_title
;
Structure prediction by ZEFSAII (Michael W. Deem and Ramdas Pophale) SiO2 
 PCOD9099539
Probable space group: P -1
;
_chemical_formula_sum "Si O2"
_cell_formula_units_Z 16
_cell_length_a 5.355851
_cell_length_b 17.504100
_cell_length_c 12.977467
_cell_angle_alpha 49.732152
_cell_angle_beta 110.746912
_cell_angle_gamma 129.330535
_cell_volume 714.889966
_symmetry_space_group_name_H-M "P -1"
_symmetry_group_IT_number 2
_symmetry_cell_setting 'triclinic'
loop_
_space_group_symop_operation_xyz
x,y,z
-x,-y,-z
loop_
_atom_site_type_symbol
_atom_site_label
_atom_site_fract_x
_atom_site_fract_y
_atom_site_fract_z
Si Si1 0.367851 0.621935 0.147735
Si Si2 0.171809 0.640007 0.743846
Si Si3 0.875116 0.192954 0.574163
Si Si4 0.229828 0.389017 0.625409
Si Si5 0.083343 0.210325 0.048417
Si Si6 0.236568 0.363082 0.120711
Si Si7 0.213749 0.061798 0.714030
Si Si8 0.333375 0.769459 0.193472
O O1 0.014918 0.501468 0.192716
O O2 0.584674 0.579954 0.265622
O O3 0.421394 0.716802 0.158860
O O4 0.541246 0.691568 0.008860
O O5 0.979924 0.637847 0.818751
O O6 0.128566 0.716002 0.585255
O O7 0.543926 0.685853 0.771222
O O8 0.512735 0.105903 0.642199
O O9 0.109736 0.272898 0.634698
O O10 0.010851 0.118939 0.611384
O O11 0.500000 0.500000 0.500000
O O12 0.872817 0.342452 0.657172
O O13 0.014390 0.276015 0.070447
O O14 0.004186 0.082676 0.183778
O O15 0.887137 0.194373 0.928720
O O16 0.500000 0.500000 0.000000
O O17 0.383488 0.117785 0.800872
#
# Coordination Sequence:
#
# PCOD9099539 Si02
#       8
#     2   2   2   2   2   2   2   2
#     4  11  22  38  67 101 131 171 215 277 341 392
#     4  12  26  44  71 100 136 171 227 282 331 392
#     4  11  24  45  66  99 139 179 217 274 330 395
#     4  10  20  37  60  98 139 172 215 264 335 410
#     4  11  26  43  68  95 134 175 226 279 330 393
#     4  12  26  47  69 102 132 175 226 281 339 385
#     4  11  25  45  68  99 136 180 220 265 334 412
#     4  10  23  39  64 103 135 175 216 273 338 401
#
# _framework density 22.381067000000002
#
# number of rings (size 3 to 8) (size 9 to 14) (size 15 to 20)
#    0.000    1.000    3.750    2.250    5.250    2.000 
#    0.000    3.750    0.000    0.000    0.000    0.000 
#    0.000    0.000    0.000    0.000    0.000    0.000 
#
# Total GULP energy -89298.914513 kJ/mol
# GULP energy per Si atom -5581.182157 kJ/mol
# Density = 2.233013 g / cm^3
# Si number density = 22.381067 Si / 1000 Ang^3
#
#
#
# Elastic Constant Matrix: (Units=GPa)
#
#
# Indices 1 2 3 4 5 6 
#
# 1 87.2621 8.6614 23.7160 0.6374 9.1466 -3.2260
# 2 8.6614 68.5429 38.9192 -3.4295 3.2665 -3.8284
# 3 23.7160 38.9192 90.6611 -12.7227 5.6792 12.6809
# 4 0.6374 -3.4295 -12.7227 34.6646 0.9486 0.4745
# 5 9.1466 3.2665 5.6792 0.9486 33.1845 6.8256
# 6 -3.2260 -3.8284 12.6809 0.4745 6.8256 24.7173
#
#
#
# Elastic Compliance Matrix: (Units=1/GPa)
#
#
# Indices 1 2 3 4 5 6 
#
# 1 0.013302 0.001544 -0.004943 -0.001872 -0.004086 0.005675
# 2 0.001544 0.021230 -0.011026 -0.002039 -0.002608 0.009906
# 3 -0.004943 -0.011026 0.019668 0.006353 0.001574 -0.013000
# 4 -0.001872 -0.002039 0.006353 0.031082 -0.000372 -0.004314
# 5 -0.004086 -0.002608 0.001574 -0.000372 0.033520 -0.010994
# 6 0.005675 0.009906 -0.013000 -0.004314 -0.010994 0.052521
#
#
# Mechanical properties :
#
#
# Convention : Reuss Voigt Hill
#
# Bulk Modulus (GPa) = 39.44836 43.22883 41.33859
# Shear Modulus (GPa) = 23.96678 30.19123 27.07900
#
# Velocity S-wave (km/s) = 3.27594 3.67681 3.48214
# Velocity P-wave (km/s) = 5.65447 6.11409 5.88876
#
# Compressibility (1/GPa) = 0.02534960
#
# Stress axis : x y z
#
# Youngs Moduli (GPa) = 75.17875 47.10208 50.84502
#
# Poissons Ratio (x) = -0.07271 0.25132
# Poissons Ratio (y) = -0.11606 0.56062
# Poissons Ratio (z) = 0.37159 0.51935
#
# Static dielectric constant tensor:
#      x y z
#    x 1.958310 0.042360 0.094740 
#    y 0.042360 1.807010 0.032410 
#    z 0.094740 0.032410 1.896410 
# 
# From -- ./inp_files/68976.got.cif
#   From: 2010.05.17/outbox.cif.g08.bks.cpg/sg2_35_cif.got.tgz:68976.got - 2010.06.03 11:33:40.
