data_PCOD9099874
_publ_section_title
;
Structure prediction by ZEFSAII (Michael W. Deem and Ramdas Pophale) SiO2 
 PCOD9099874
Probable space group: P -1
;
_chemical_formula_sum "Si O2"
_cell_formula_units_Z 14
_cell_length_a 21.635679
_cell_length_b 7.301582
_cell_length_c 9.060443
_cell_angle_alpha 131.793467
_cell_angle_beta 137.192604
_cell_angle_gamma 38.316348
_cell_volume 588.854529
_symmetry_space_group_name_H-M "P -1"
_symmetry_group_IT_number 2
_symmetry_cell_setting 'triclinic'
loop_
_space_group_symop_operation_xyz
x,y,z
-x,-y,-z
loop_
_atom_site_type_symbol
_atom_site_label
_atom_site_fract_x
_atom_site_fract_y
_atom_site_fract_z
Si Si1 0.068117 0.122322 0.247531
Si Si2 0.681157 0.171156 0.578220
Si Si3 0.426831 0.436279 0.644333
Si Si4 0.278418 0.200116 0.296562
Si Si5 0.243910 0.445802 0.661009
Si Si6 0.329378 0.843286 0.949790
Si Si7 0.015665 0.751440 0.508582
O O1 0.196380 0.925858 0.310299
O O2 0.013543 0.473232 0.298448
O O3 0.060340 0.117911 0.409708
O O4 0.000000 0.000000 0.000000
O O5 0.684096 0.111969 0.724964
O O6 0.668036 0.911187 0.355595
O O7 0.588280 0.487159 0.513452
O O8 0.374806 0.253385 0.488633
O O9 0.548651 0.275480 0.838448
O O10 0.348241 0.760345 0.766145
O O11 0.197389 0.437878 0.409581
O O12 0.249309 0.170877 0.063036
O O13 0.147605 0.576465 0.683166
O O14 0.291217 0.638557 0.830747
O O15 0.000000 0.000000 0.500000
#
# Coordination Sequence:
#
# PCOD9099874 Si02
#       7
#     2   2   2   2   2   2   2
#     4  10  23  41  60  90 122 151 202 247 294 356
#     4   9  21  40  58  81 124 149 185 247 287 337
#     4  10  21  39  57  89 116 150 195 239 287 344
#     4   9  20  39  56  80 121 152 187 244 286 337
#     4   8  20  38  56  84 119 147 190 241 284 341
#     4  10  20  37  62  83 118 153 192 238 286 349
#     4  10  22  40  65  85 121 159 193 250 302 344
#
# _framework density 23.774974
#
# number of rings (size 3 to 8) (size 9 to 14) (size 15 to 20)
#    0.857    1.714    0.000    0.429    6.000    1.714 
#    5.143    0.000    0.000    0.000    0.000    0.000 
#    0.000    0.000    0.000    0.000    0.000    0.000 
#
# Total GULP energy -77937.000489 kJ/mol
# GULP energy per Si atom -5566.928606 kJ/mol
# Density = 2.372086 g / cm^3
# Si number density = 23.774974 Si / 1000 Ang^3
#
#
#
# Elastic Constant Matrix: (Units=GPa)
#
#
# Indices 1 2 3 4 5 6 
#
# 1 86.6698 8.6842 20.8457 14.9646 -4.1798 9.3075
# 2 8.6842 63.0662 17.9242 8.8303 -1.4070 17.2692
# 3 20.8457 17.9242 104.5343 31.9820 -1.0158 4.4540
# 4 14.9646 8.8303 31.9820 20.3949 1.6836 7.6727
# 5 -4.1798 -1.4070 -1.0158 1.6836 35.7028 5.2494
# 6 9.3075 17.2692 4.4540 7.6727 5.2494 27.5917
#
#
#
# Elastic Compliance Matrix: (Units=1/GPa)
#
#
# Indices 1 2 3 4 5 6 
#
# 1 0.013514 0.000113 0.000474 -0.010011 0.002422 -0.002383
# 2 0.000113 0.020214 -0.003130 0.000703 0.002580 -0.012871
# 3 0.000474 -0.003130 0.019765 -0.032918 0.000931 0.007585
# 4 -0.010011 0.000703 -0.032918 0.116860 -0.004142 -0.023457
# 5 0.002422 0.002580 0.000931 -0.004142 0.029656 -0.007073
# 6 -0.002383 -0.012871 0.007585 -0.023457 -0.007073 0.051746
#
#
# Mechanical properties :
#
#
# Convention : Reuss Voigt Hill
#
# Bulk Modulus (GPa) = 20.65853 38.79760 29.72806
# Shear Modulus (GPa) = 18.31649 30.52562 24.42106
#
# Velocity S-wave (km/s) = 2.77864 3.58710 3.20843
# Velocity P-wave (km/s) = 4.35919 5.78882 5.12411
#
# Compressibility (1/GPa) = 0.04840617
#
# Stress axis : x y z
#
# Youngs Moduli (GPa) = 73.99703 49.47095 50.59321
#
# Poissons Ratio (x) = -0.00558 -0.02396
# Poissons Ratio (y) = -0.00834 0.15836
# Poissons Ratio (z) = -0.03505 0.15484
#
# Static dielectric constant tensor:
#      x y z
#    x 1.972080 -0.099770 -0.058070 
#    y -0.099770 2.054380 0.034620 
#    z -0.058070 0.034620 1.877530 
# 
# From -- ./inp_files/340778.got.cif
#   From: 2010.05.17/outbox.cif.g08.bks.cpg/sg2_171_cif.got.tgz:340778.got - 2010.06.03 11:33:40.
