data_PCOD9099428
_publ_section_title
;
Structure prediction by ZEFSAII (Michael W. Deem and Ramdas Pophale) SiO2 
 PCOD9099428
Probable space group: P -1
;
_chemical_formula_sum "Si O2"
_cell_formula_units_Z 15
_cell_length_a 12.047086
_cell_length_b 12.138770
_cell_length_c 14.376757
_cell_angle_alpha 136.837413
_cell_angle_beta 150.971482
_cell_angle_gamma 59.266860
_cell_volume 645.002379
_symmetry_space_group_name_H-M "P -1"
_symmetry_group_IT_number 2
_symmetry_cell_setting 'triclinic'
loop_
_space_group_symop_operation_xyz
x,y,z
-x,-y,-z
loop_
_atom_site_type_symbol
_atom_site_label
_atom_site_fract_x
_atom_site_fract_y
_atom_site_fract_z
Si Si1 0.487652 0.433380 0.132582
Si Si2 0.763120 0.549384 0.848574
Si Si3 0.598829 0.800711 0.610029
Si Si4 0.893660 0.891213 0.446949
Si Si5 0.147540 0.883914 0.273599
Si Si6 0.997184 0.126660 0.188794
Si Si7 0.058333 0.662838 0.546732
Si Si8 0.500000 0.500000 0.000000
O O1 0.313097 0.417632 0.082341
O O2 0.721360 0.403197 0.325732
O O3 0.522286 0.586069 0.178279
O O4 0.353697 0.281133 0.861722
O O5 0.541328 0.376718 0.544389
O O6 0.000000 0.500000 0.000000
O O7 0.877405 0.726665 0.983991
O O8 0.374375 0.820855 0.399349
O O9 0.814840 0.771461 0.691526
O O10 0.739209 0.983812 0.876038
O O11 0.083286 0.812043 0.580317
O O12 0.834838 0.009904 0.552339
O O13 0.000000 0.000000 0.500000
O O14 0.136847 0.009296 0.261847
O O15 0.947771 0.244535 0.303135
O O16 0.791278 0.516396 0.237516
#
# Coordination Sequence:
#
# PCOD9099428 Si02
#       8
#     2   2   2   2   2   2   2   1
#     4  11  21  40  62  92 124 160 207 253 314 372
#     4  10  22  40  61  87 126 165 202 254 309 372
#     4  10  21  38  60  83 118 165 201 248 297 365
#     4  10  20  37  60  89 117 156 199 251 313 360
#     4  10  20  39  60  87 119 157 200 253 307 363
#     4  10  21  39  60  89 118 155 209 249 300 361
#     4  10  22  38  62  92 121 156 203 261 307 367
#     4  10  22  38  62  90 124 160 198 254 316 368
#
# _framework density 23.255725999999999
#
# number of rings (size 3 to 8) (size 9 to 14) (size 15 to 20)
#    0.000    1.867    1.333    2.400    0.000    1.067 
#    2.400   14.667    0.000    0.000    0.000    0.000 
#    0.000    0.000    0.000    0.000    0.000    0.000 
#
# Total GULP energy -83524.625026 kJ/mol
# GULP energy per Si atom -5568.308335 kJ/mol
# Density = 2.320279 g / cm^3
# Si number density = 23.255726 Si / 1000 Ang^3
#
#
#
# Elastic Constant Matrix: (Units=GPa)
#
#
# Indices 1 2 3 4 5 6 
#
# 1 77.9365 32.3355 44.8966 -14.7238 10.3469 -7.7863
# 2 32.3355 83.3179 42.8865 -8.7257 3.2092 -4.5607
# 3 44.8966 42.8865 148.1278 -5.8866 16.0477 -15.3106
# 4 -14.7238 -8.7257 -5.8866 38.1494 6.9391 4.1820
# 5 10.3469 3.2092 16.0477 6.9391 22.8507 4.1267
# 6 -7.7863 -4.5607 -15.3106 4.1820 4.1267 27.9419
#
#
#
# Elastic Compliance Matrix: (Units=1/GPa)
#
#
# Indices 1 2 3 4 5 6 
#
# 1 0.019318 -0.004731 -0.002912 0.007170 -0.008801 0.003242
# 2 -0.004731 0.015529 -0.003385 0.000914 0.002262 -0.001110
# 3 -0.002912 -0.003385 0.009771 0.000168 -0.005995 0.004850
# 4 0.007170 0.000914 0.000168 0.031642 -0.012998 -0.000577
# 5 -0.008801 0.002262 -0.005995 -0.012998 0.057745 -0.011951
# 6 0.003242 -0.001110 0.004850 -0.000577 -0.011951 0.041020
#
#
# Mechanical properties :
#
#
# Convention : Reuss Voigt Hill
#
# Bulk Modulus (GPa) = 44.32400 61.06883 52.69641
# Shear Modulus (GPa) = 24.43757 30.40596 27.42177
#
# Velocity S-wave (km/s) = 3.24515 3.61981 3.43759
# Velocity P-wave (km/s) = 5.75692 6.61720 6.20199
#
# Compressibility (1/GPa) = 0.02256114
#
# Stress axis : x y z
#
# Youngs Moduli (GPa) = 51.76472 64.39658 102.34151
#
# Poissons Ratio (x) = 0.30467 0.29802
# Poissons Ratio (y) = 0.24491 0.34647
# Poissons Ratio (z) = 0.15074 0.21801
#
# Static dielectric constant tensor:
#      x y z
#    x 1.819090 -0.060040 -0.041700 
#    y -0.060040 1.755750 0.011330 
#    z -0.041700 0.011330 1.922150 
# 
# From -- ./inp_files/362807.got.cif
#   From: 2010.05.17/outbox.cif.g08.bks.cpg/sg2_182_cif.got.tgz:362807.got - 2010.06.03 11:33:40.
