data_PCOD9099672
_publ_section_title
;
Structure prediction by ZEFSAII (Michael W. Deem and Ramdas Pophale) SiO2 
 PCOD9099672
Probable space group: P -1
;
_chemical_formula_sum "Si O2"
_cell_formula_units_Z 16
_cell_length_a 8.386852
_cell_length_b 16.167816
_cell_length_c 7.554090
_cell_angle_alpha 127.331897
_cell_angle_beta 118.826567
_cell_angle_gamma 76.785254
_cell_volume 710.543018
_symmetry_space_group_name_H-M "P -1"
_symmetry_group_IT_number 2
_symmetry_cell_setting 'triclinic'
loop_
_space_group_symop_operation_xyz
x,y,z
-x,-y,-z
loop_
_atom_site_type_symbol
_atom_site_label
_atom_site_fract_x
_atom_site_fract_y
_atom_site_fract_z
Si Si1 0.430074 0.818595 0.660663
Si Si2 0.083639 0.656114 0.216262
Si Si3 0.066599 0.468385 0.688901
Si Si4 0.354037 0.987277 0.565600
Si Si5 0.171687 0.185391 0.638152
Si Si6 0.187859 0.938565 0.882436
Si Si7 0.755615 0.719960 0.570247
Si Si8 0.013919 0.885769 0.081343
O O1 0.261489 0.736505 0.407959
O O2 0.450822 0.920263 0.676532
O O3 0.361349 0.873876 0.870856
O O4 0.598865 0.749987 0.655341
O O5 0.059566 0.607351 0.340354
O O6 0.899848 0.716614 0.169436
O O7 0.103027 0.568915 0.964571
O O8 0.229879 0.398510 0.632340
O O9 0.000000 0.500000 0.500000
O O10 0.159332 0.912356 0.346354
O O11 0.500000 0.000000 0.500000
O O12 0.280769 0.102019 0.689773
O O13 0.271454 0.222641 0.557824
O O14 0.981977 0.127475 0.389326
O O15 0.136021 0.940963 0.060883
O O16 0.166979 0.051222 0.931801
O O17 0.944574 0.770572 0.828160
#
# Coordination Sequence:
#
# PCOD9099672 Si02
#       8
#     2   2   2   2   2   2   2   2
#     4  11  22  36  60  94 126 157 199 258 308 363
#     4   9  21  41  66  92 123 161 210 264 320 364
#     4  10  22  43  69  89 116 164 216 261 321 385
#     4  11  21  35  58  93 128 164 206 238 294 380
#     4   8  16  36  57  83 122 163 200 240 296 372
#     4   8  17  33  55  76 115 160 199 235 291 356
#     4  10  20  37  61  88 122 160 203 256 317 364
#     4   9  19  36  57  78 119 169 199 238 294 364
#
# _framework density 22.517992
#
# number of rings (size 3 to 8) (size 9 to 14) (size 15 to 20)
#    0.000    2.500    1.250    1.500    1.750    5.500 
#    0.000    0.625    0.000    0.000    0.000    0.000 
#    0.000    0.000    0.000    0.000    0.000    0.000 
#
# Total GULP energy -89149.236775 kJ/mol
# GULP energy per Si atom -5571.827298 kJ/mol
# Density = 2.246674 g / cm^3
# Si number density = 22.517992 Si / 1000 Ang^3
#
#
#
# Elastic Constant Matrix: (Units=GPa)
#
#
# Indices 1 2 3 4 5 6 
#
# 1 98.1037 45.4816 35.4946 5.6338 -17.0776 -22.2048
# 2 45.4816 109.4542 43.6359 6.3038 -14.3860 -6.4701
# 3 35.4946 43.6359 67.6889 19.4367 -11.0391 -18.7609
# 4 5.6338 6.3038 19.4367 41.7070 -5.7992 -12.6894
# 5 -17.0776 -14.3860 -11.0391 -5.7992 35.3702 3.4014
# 6 -22.2048 -6.4701 -18.7609 -12.6894 3.4014 46.2263
#
#
#
# Elastic Compliance Matrix: (Units=1/GPa)
#
#
# Indices 1 2 3 4 5 6 
#
# 1 0.015402 -0.004065 -0.003942 0.002708 0.004454 0.005645
# 2 -0.004065 0.013895 -0.007746 0.001427 0.001783 -0.002891
# 3 -0.003942 -0.007746 0.025915 -0.008673 0.001124 0.005076
# 4 0.002708 0.001427 -0.008673 0.029711 0.003487 0.005880
# 5 0.004454 0.001783 0.001124 0.003487 0.031931 0.001453
# 6 0.005645 -0.002891 0.005076 0.005880 0.001453 0.027507
#
#
# Mechanical properties :
#
#
# Convention : Reuss Voigt Hill
#
# Bulk Modulus (GPa) = 42.18619 58.27455 50.23037
# Shear Modulus (GPa) = 27.20814 34.70301 30.95558
#
# Velocity S-wave (km/s) = 3.47981 3.92997 3.71172
# Velocity P-wave (km/s) = 5.90936 6.82116 6.38157
#
# Compressibility (1/GPa) = 0.02370444
#
# Stress axis : x y z
#
# Youngs Moduli (GPa) = 64.92781 71.96965 38.58776
#
# Poissons Ratio (x) = 0.29256 0.15213
# Poissons Ratio (y) = 0.26394 0.29890
# Poissons Ratio (z) = 0.25597 0.55747
#
# Static dielectric constant tensor:
#      x y z
#    x 1.909230 0.001730 -0.001690 
#    y 0.001730 1.895920 -0.014950 
#    z -0.001690 -0.014950 1.899240 
# 
# From -- ./inp_files/213656.got.cif
#   From: 2010.05.17/outbox.cif.g08.bks.cpg/sg2_107_cif.got.tgz:213656.got - 2010.06.03 11:33:40.
