data_PCOD9099266
_publ_section_title
;
Structure prediction by ZEFSAII (Michael W. Deem and Ramdas Pophale) SiO2 
 PCOD9099266
Probable space group: P -1
;
_chemical_formula_sum "Si O2"
_cell_formula_units_Z 16
_cell_length_a 14.508968
_cell_length_b 10.164959
_cell_length_c 12.774758
_cell_angle_alpha 86.474737
_cell_angle_beta 151.562653
_cell_angle_gamma 111.288749
_cell_volume 680.420634
_symmetry_space_group_name_H-M "P -1"
_symmetry_group_IT_number 2
_symmetry_cell_setting 'triclinic'
loop_
_space_group_symop_operation_xyz
x,y,z
-x,-y,-z
loop_
_atom_site_type_symbol
_atom_site_label
_atom_site_fract_x
_atom_site_fract_y
_atom_site_fract_z
Si Si1 0.010820 0.847109 0.123622
Si Si2 0.891529 0.263590 0.367348
Si Si3 0.234354 0.453688 0.262903
Si Si4 0.425067 0.165216 0.383420
Si Si5 0.343810 0.834652 0.577674
Si Si6 0.318667 0.379879 0.921816
Si Si7 0.234794 0.474804 0.499827
Si Si8 0.622643 0.893939 0.052402
O O1 0.110986 0.832300 0.332614
O O2 0.232013 0.036002 0.286683
O O3 0.957276 0.699465 0.000866
O O4 0.751440 0.815364 0.864835
O O5 0.069763 0.353031 0.643479
O O6 0.038551 0.360885 0.402929
O O7 0.813606 0.075387 0.291717
O O8 0.635065 0.232621 0.130363
O O9 0.500000 0.500000 0.500000
O O10 0.326920 0.646371 0.336639
O O11 0.162037 0.396834 0.314492
O O12 0.507410 0.089560 0.388256
O O13 0.263653 0.645879 0.513031
O O14 0.527197 0.933894 0.853593
O O15 0.279547 0.204775 0.879181
O O16 0.500000 0.500000 0.000000
O O17 0.496834 0.472761 0.197606
#
# Coordination Sequence:
#
# PCOD9099266 Si02
#       8
#     2   2   2   2   2   2   2   2
#     4  10  20  37  60  79 116 161 179 238 294 327
#     4  10  21  39  59  83 119 150 192 240 296 347
#     4   9  19  36  57  84 117 147 192 236 280 343
#     4   9  20  37  55  83 114 146 201 232 277 349
#     4  10  21  36  55  85 112 147 189 232 284 340
#     4   9  19  37  61  82 111 153 190 237 292 344
#     4   9  20  36  57  87 111 149 195 237 282 347
#     4  10  22  37  58  87 118 149 192 244 285 350
#
# _framework density 23.514866000000001
#
# number of rings (size 3 to 8) (size 9 to 14) (size 15 to 20)
#    0.000    2.500    0.000    0.750    1.750   10.500 
#    2.250    3.750    8.250    0.000    0.000    0.000 
#    0.000    0.000    0.000    0.000    0.000    0.000 
#
# Total GULP energy -89338.973890 kJ/mol
# GULP energy per Si atom -5583.685868 kJ/mol
# Density = 2.346134 g / cm^3
# Si number density = 23.514866 Si / 1000 Ang^3
#
#
#
# Elastic Constant Matrix: (Units=GPa)
#
#
# Indices 1 2 3 4 5 6 
#
# 1 73.2797 2.7179 -0.8477 1.8356 1.9357 14.1513
# 2 2.7179 53.6426 19.1611 -4.7180 4.2469 13.8915
# 3 -0.8477 19.1611 73.6655 -9.1185 -7.8261 4.3833
# 4 1.8356 -4.7180 -9.1185 34.8578 -2.1301 4.0388
# 5 1.9357 4.2469 -7.8261 -2.1301 32.6016 -4.7402
# 6 14.1513 13.8915 4.3833 4.0388 -4.7402 44.3455
#
#
#
# Elastic Compliance Matrix: (Units=1/GPa)
#
#
# Indices 1 2 3 4 5 6 
#
# 1 0.014647 0.000647 0.000101 -0.000175 -0.001675 -0.005050
# 2 0.000647 0.023345 -0.005924 0.002135 -0.005484 -0.007714
# 3 0.000101 -0.005924 0.016066 0.003647 0.004923 0.000430
# 4 -0.000175 0.002135 0.003647 0.030476 0.002086 -0.003526
# 5 -0.001675 -0.005484 0.004923 0.002086 0.033556 0.005163
# 6 -0.005050 -0.007714 0.000430 -0.003526 0.005163 0.027409
#
#
# Mechanical properties :
#
#
# Convention : Reuss Voigt Hill
#
# Bulk Modulus (GPa) = 22.88025 26.96114 24.92069
# Shear Modulus (GPa) = 29.33935 34.33142 31.83539
#
# Velocity S-wave (km/s) = 3.53610 3.82512 3.68345
# Velocity P-wave (km/s) = 5.14036 5.56770 5.35829
#
# Compressibility (1/GPa) = 0.04370582
#
# Stress axis : x y z
#
# Youngs Moduli (GPa) = 68.27158 42.83600 62.24407
#
# Poissons Ratio (x) = -0.02770 -0.00630
# Poissons Ratio (y) = -0.04416 0.36874
# Poissons Ratio (z) = -0.00691 0.25376
#
# Static dielectric constant tensor:
#      x y z
#    x 1.904690 0.014420 0.026810 
#    y 0.014420 1.907230 -0.008500 
#    z 0.026810 -0.008500 1.930430 
# 
# From -- ./inp_files/306012.got.cif
#   From: 2010.05.17/outbox.cif.g08.bks.cpg/sg2_154_cif.got.tgz:306012.got - 2010.06.03 11:33:40.
