data_PCOD9099020
_publ_section_title
;
Structure prediction by ZEFSAII (Michael W. Deem and Ramdas Pophale) SiO2 
 PCOD9099020
Probable space group: P -1
;
_chemical_formula_sum "Si O2"
_cell_formula_units_Z 16
_cell_length_a 7.776833
_cell_length_b 12.613013
_cell_length_c 9.194643
_cell_angle_alpha 119.283424
_cell_angle_beta 71.611411
_cell_angle_gamma 111.183339
_cell_volume 722.741686
_symmetry_space_group_name_H-M "P -1"
_symmetry_group_IT_number 2
_symmetry_cell_setting 'triclinic'
loop_
_space_group_symop_operation_xyz
x,y,z
-x,-y,-z
loop_
_atom_site_type_symbol
_atom_site_label
_atom_site_fract_x
_atom_site_fract_y
_atom_site_fract_z
Si Si1 0.550165 0.926501 0.575622
Si Si2 0.752119 0.174502 0.867038
Si Si3 0.404561 0.491491 0.693779
Si Si4 0.810403 0.732771 0.610228
Si Si5 0.200846 0.547864 0.053276
Si Si6 0.424217 0.770719 0.761551
Si Si7 0.917534 0.855854 0.396224
Si Si8 0.162881 0.464020 0.338033
O O1 0.398455 0.826657 0.646826
O O2 0.697920 0.846267 0.433366
O O3 0.500000 0.000000 0.500000
O O4 0.644898 0.044593 0.733718
O O5 0.723219 0.301152 0.882364
O O6 0.973267 0.187726 0.792760
O O7 0.682387 0.173065 0.049016
O O8 0.289187 0.382162 0.548952
O O9 0.379721 0.622869 0.719543
O O10 0.619597 0.485578 0.639527
O O11 0.333511 0.487699 0.875772
O O12 0.652110 0.805894 0.735944
O O13 0.964701 0.801179 0.501987
O O14 0.872138 0.682626 0.709105
O O15 0.165178 0.502569 0.196997
O O16 0.000000 0.500000 0.000000
O O17 0.000000 0.000000 0.500000
O O18 0.000000 0.500000 0.500000
#
# Coordination Sequence:
#
# PCOD9099020 Si02
#       8
#     2   2   2   2   2   2   2   2
#     4  10  21  37  59  85 110 144 190 237 288 347
#     4  10  20  37  59  79 109 151 190 232 287 344
#     4  10  21  38  59  85 118 157 196 240 294 351
#     4  10  20  38  60  83 114 155 196 238 291 349
#     4  11  23  38  56  85 121 159 197 240 293 347
#     4   9  19  35  57  81 111 147 184 229 285 341
#     4   9  19  37  57  78 109 148 185 229 285 341
#     4  11  21  34  56  86 116 151 194 243 289 344
#
# _framework density 22.137924000000002
#
# number of rings (size 3 to 8) (size 9 to 14) (size 15 to 20)
#    0.000    2.000    0.000    4.500    0.000    4.000 
#    0.000    9.375    0.000    0.000    0.000    0.000 
#    0.000    0.000    0.000    0.000    0.000    0.000 
#
# Total GULP energy -89135.612394 kJ/mol
# GULP energy per Si atom -5570.975775 kJ/mol
# Density = 2.208754 g / cm^3
# Si number density = 22.137924 Si / 1000 Ang^3
#
#
#
# Elastic Constant Matrix: (Units=GPa)
#
#
# Indices 1 2 3 4 5 6 
#
# 1 36.5610 32.2945 50.0258 -12.9393 -17.8677 -6.6569
# 2 32.2945 126.4784 56.9329 -36.8837 12.2072 -13.2679
# 3 50.0258 56.9329 179.5198 -39.8617 -39.0531 -12.4321
# 4 -12.9393 -36.8837 -39.8617 47.6815 2.5899 7.6255
# 5 -17.8677 12.2072 -39.0531 2.5899 40.6402 -3.2450
# 6 -6.6569 -13.2679 -12.4321 7.6255 -3.2450 30.3174
#
#
#
# Elastic Compliance Matrix: (Units=1/GPa)
#
#
# Indices 1 2 3 4 5 6 
#
# 1 0.065331 -0.016273 -0.007361 -0.003797 0.027426 0.008096
# 2 -0.016273 0.016690 -0.002441 0.007388 -0.015044 -0.000739
# 3 -0.007361 -0.002441 0.011405 0.004938 0.008273 0.001636
# 4 -0.003797 0.007388 0.004938 0.030397 -0.001349 -0.003365
# 5 0.027426 -0.015044 0.008273 -0.001349 0.049899 0.008511
# 6 0.008096 -0.000739 0.001636 -0.003365 0.008511 0.036867
#
#
# Mechanical properties :
#
#
# Convention : Reuss Voigt Hill
#
# Bulk Modulus (GPa) = 24.22757 69.00731 46.61744
# Shear Modulus (GPa) = 18.08341 37.28155 27.68248
#
# Velocity S-wave (km/s) = 2.86116 4.10818 3.54001
# Velocity P-wave (km/s) = 4.67789 7.33090 6.14918
#
# Compressibility (1/GPa) = 0.04127529
#
# Stress axis : x y z
#
# Youngs Moduli (GPa) = 15.30675 59.91753 87.67876
#
# Poissons Ratio (x) = 0.97504 0.64537
# Poissons Ratio (y) = 0.24909 0.21406
# Poissons Ratio (z) = 0.11267 0.14629
#
# Static dielectric constant tensor:
#      x y z
#    x 1.887990 0.019570 -0.048630 
#    y 0.019570 1.919790 -0.028940 
#    z -0.048630 -0.028940 1.828460 
# 
# From -- ./inp_files/181285.got.cif
#   From: 2010.05.17/outbox.cif.g08.bks.cpg/sg2_91_cif.got.tgz:181285.got - 2010.06.03 11:33:40.
