data_PCOD9099309
_publ_section_title
;
Structure prediction by ZEFSAII (Michael W. Deem and Ramdas Pophale) SiO2 
 PCOD9099309
Probable space group: P -1
;
_chemical_formula_sum "Si O2"
_cell_formula_units_Z 14
_cell_length_a 8.987656
_cell_length_b 7.292249
_cell_length_c 11.338484
_cell_angle_alpha 99.376970
_cell_angle_beta 94.722636
_cell_angle_gamma 52.050110
_cell_volume 578.009199
_symmetry_space_group_name_H-M "P -1"
_symmetry_group_IT_number 2
_symmetry_cell_setting 'triclinic'
loop_
_space_group_symop_operation_xyz
x,y,z
-x,-y,-z
loop_
_atom_site_type_symbol
_atom_site_label
_atom_site_fract_x
_atom_site_fract_y
_atom_site_fract_z
Si Si1 0.496736 0.188164 0.856367
Si Si2 0.817476 0.211643 0.794599
Si Si3 0.349490 0.039783 0.636604
Si Si4 0.030699 0.741717 0.640335
Si Si5 0.789424 0.115490 0.193797
Si Si6 0.237795 0.352285 0.434068
Si Si7 0.385617 0.297580 0.103844
O O1 0.643587 0.237794 0.844942
O O2 0.402411 0.178258 0.732588
O O3 0.611330 0.919804 0.884402
O O4 0.350161 0.346788 0.967420
O O5 0.746083 0.474159 0.800492
O O6 0.885622 0.026814 0.671989
O O7 0.008189 0.078011 0.870750
O O8 0.269057 0.175993 0.523803
O O9 0.218360 0.008528 0.702489
O O10 0.450920 0.219419 0.392901
O O11 0.189039 0.691182 0.737819
O O12 0.138310 0.604741 0.513408
O O13 0.909383 0.651215 0.655655
O O14 0.600577 0.208161 0.124659
#
# Coordination Sequence:
#
# PCOD9099309 Si02
#       7
#     2   2   2   2   2   2   2
#     4  10  21  40  62  91 119 159 199 244 296 366
#     4  10  21  41  60  90 122 155 196 253 293 359
#     4  10  20  37  60  84 117 159 204 239 304 348
#     4   9  21  38  54  88 119 148 209 240 296 357
#     4   9  22  39  56  92 117 150 207 240 293 367
#     4  10  20  37  61  81 119 163 194 253 297 349
#     4  10  22  40  65  87 125 156 195 249 302 347
#
# _framework density 24.221069
#
# number of rings (size 3 to 8) (size 9 to 14) (size 15 to 20)
#    0.857    1.429    1.429    0.429    2.000    2.857 
#    2.571    6.429    0.000    0.000    0.000    0.000 
#    0.000    0.000    0.000    0.000    0.000    0.000 
#
# Total GULP energy -78080.698965 kJ/mol
# GULP energy per Si atom -5577.192783 kJ/mol
# Density = 2.416594 g / cm^3
# Si number density = 24.221069 Si / 1000 Ang^3
#
#
#
# Elastic Constant Matrix: (Units=GPa)
#
#
# Indices 1 2 3 4 5 6 
#
# 1 75.5293 9.6857 0.2100 -1.9313 -2.1604 2.8966
# 2 9.6857 72.6129 25.0637 34.3631 2.0207 12.3811
# 3 0.2100 25.0637 57.3483 18.8683 8.8781 12.3616
# 4 -1.9313 34.3631 18.8683 42.7212 5.5228 7.9486
# 5 -2.1604 2.0207 8.8781 5.5228 21.1111 -5.7439
# 6 2.8966 12.3811 12.3616 7.9486 -5.7439 22.3720
#
#
#
# Elastic Compliance Matrix: (Units=1/GPa)
#
#
# Indices 1 2 3 4 5 6 
#
# 1 0.013817 -0.003390 0.000594 0.003307 0.000256 -0.001351
# 2 -0.003390 0.024744 -0.004630 -0.017698 0.002862 -0.003674
# 3 0.000594 -0.004630 0.025554 -0.003256 -0.013161 -0.013857
# 4 0.003307 -0.017698 -0.003256 0.041501 -0.009062 -0.005907
# 5 0.000256 0.002862 -0.013161 -0.009062 0.061755 0.024730
# 6 -0.001351 -0.003674 -0.013857 -0.005907 0.024730 0.063011
#
#
# Mechanical properties :
#
#
# Convention : Reuss Voigt Hill
#
# Bulk Modulus (GPa) = 20.29906 30.60102 25.45004
# Shear Modulus (GPa) = 19.10919 28.60960 23.85939
#
# Velocity S-wave (km/s) = 2.81187 3.44057 3.14198
# Velocity P-wave (km/s) = 4.35214 5.33337 4.86754
#
# Compressibility (1/GPa) = 0.04926336
#
# Stress axis : x y z
#
# Youngs Moduli (GPa) = 72.37643 40.41370 39.13259
#
# Poissons Ratio (x) = 0.13700 -0.02326
# Poissons Ratio (y) = 0.24536 0.18119
# Poissons Ratio (z) = -0.04302 0.18712
#
# Static dielectric constant tensor:
#      x y z
#    x 1.884520 -0.025400 -0.007270 
#    y -0.025400 1.995450 -0.032900 
#    z -0.007270 -0.032900 1.970210 
# 
# From -- ./inp_files/491442.got.cif
#   From: 2010.05.17/outbox.cif.g08.bks.cpg/sg2_246_cif.got.tgz:491442.got - 2010.06.03 11:33:40.
