data_PCOD9099105
_publ_section_title
;
Structure prediction by ZEFSAII (Michael W. Deem and Ramdas Pophale) SiO2 
 PCOD9099105
Probable space group: P -1
;
_chemical_formula_sum "Si O2"
_cell_formula_units_Z 16
_cell_length_a 7.752015
_cell_length_b 17.802841
_cell_length_c 7.638402
_cell_angle_alpha 58.291973
_cell_angle_beta 57.083074
_cell_angle_gamma 91.229369
_cell_volume 679.692075
_symmetry_space_group_name_H-M "P -1"
_symmetry_group_IT_number 2
_symmetry_cell_setting 'triclinic'
loop_
_space_group_symop_operation_xyz
x,y,z
-x,-y,-z
loop_
_atom_site_type_symbol
_atom_site_label
_atom_site_fract_x
_atom_site_fract_y
_atom_site_fract_z
Si Si1 0.365177 0.041302 0.850107
Si Si2 0.256783 0.218064 0.151555
Si Si3 0.009778 0.618931 0.519435
Si Si4 0.329571 0.424218 0.946731
Si Si5 0.193571 0.465020 0.620781
Si Si6 0.084962 0.021035 0.673194
Si Si7 0.193963 0.858281 0.694030
Si Si8 0.321684 0.831461 0.057917
O O1 0.610512 0.129188 0.569371
O O2 0.223674 0.032511 0.760217
O O3 0.183735 0.046006 0.080408
O O4 0.366502 0.934621 0.995819
O O5 0.065903 0.212065 0.123036
O O6 0.122745 0.127374 0.464427
O O7 0.350857 0.322635 0.064111
O O8 0.468277 0.196821 0.003889
O O9 0.978967 0.601597 0.349117
O O10 0.168230 0.565069 0.543620
O O11 0.110617 0.733933 0.362142
O O12 0.780305 0.563992 0.826900
O O13 0.163903 0.416884 0.885043
O O14 0.564518 0.507521 0.641749
O O15 0.190513 0.964927 0.563417
O O16 0.271225 0.842236 0.865281
#
# Coordination Sequence:
#
# PCOD9099105 Si02
#       8
#     2   2   2   2   2   2   2   2
#     4  10  20  37  60  84 119 165 207 259 306 365
#     4  12  22  38  62  87 124 164 205 259 313 366
#     4  11  22  42  68  91 124 168 201 255 328 374
#     4  11  23  42  64  96 127 157 209 263 309 381
#     4  10  23  42  68  93 123 160 206 257 319 385
#     4  10  20  37  59  85 116 164 213 251 309 370
#     4  11  22  39  58  84 125 165 206 261 306 359
#     4  11  21  40  61  86 126 162 206 259 313 366
#
# _framework density 23.540071999999999
#
# number of rings (size 3 to 8) (size 9 to 14) (size 15 to 20)
#    0.000    1.250    3.750    3.375    0.000    0.500 
#    2.250    0.000    0.000    0.000    0.000    0.000 
#    0.000    0.000    0.000    0.000    0.000    0.000 
#
# Total GULP energy -89346.562170 kJ/mol
# GULP energy per Si atom -5584.160136 kJ/mol
# Density = 2.348649 g / cm^3
# Si number density = 23.540072 Si / 1000 Ang^3
#
#
#
# Elastic Constant Matrix: (Units=GPa)
#
#
# Indices 1 2 3 4 5 6 
#
# 1 84.6005 8.4141 3.6832 5.1167 1.0966 -9.8382
# 2 8.4141 42.4202 1.1774 -7.9163 11.7479 -6.7951
# 3 3.6832 1.1774 58.8554 11.9259 -4.7542 -9.6767
# 4 5.1167 -7.9163 11.9259 30.1609 -9.5270 0.6574
# 5 1.0966 11.7479 -4.7542 -9.5270 38.2919 5.3688
# 6 -9.8382 -6.7951 -9.6767 0.6574 5.3688 20.9553
#
#
#
# Elastic Compliance Matrix: (Units=1/GPa)
#
#
# Indices 1 2 3 4 5 6 
#
# 1 0.012947 -0.001833 0.000896 -0.003645 -0.001501 0.006397
# 2 -0.001833 0.029117 -0.000492 0.005021 -0.009171 0.010546
# 3 0.000896 -0.000492 0.020333 -0.008852 -0.000980 0.010179
# 4 -0.003645 0.005021 -0.008852 0.041571 0.008895 -0.007754
# 5 -0.001501 -0.009171 -0.000980 0.008895 0.032862 -0.012829
# 6 0.006397 0.010546 0.010179 -0.007754 -0.012829 0.062374
#
#
# Mechanical properties :
#
#
# Convention : Reuss Voigt Hill
#
# Bulk Modulus (GPa) = 16.79593 23.60283 20.19938
# Shear Modulus (GPa) = 22.53178 29.38839 25.96009
#
# Velocity S-wave (km/s) = 3.09717 3.53716 3.32445
# Velocity P-wave (km/s) = 4.46547 5.17015 4.83068
#
# Compressibility (1/GPa) = 0.05953825
#
# Stress axis : x y z
#
# Youngs Moduli (GPa) = 77.23578 34.34418 49.18175
#
# Poissons Ratio (x) = 0.06295 -0.04404
# Poissons Ratio (y) = 0.14156 0.02420
# Poissons Ratio (z) = -0.06917 0.01690
#
# Static dielectric constant tensor:
#      x y z
#    x 1.969070 0.051510 -0.025930 
#    y 0.051510 1.868950 -0.011370 
#    z -0.025930 -0.011370 1.921000 
# 
# From -- ./inp_files/214704.got.cif
#   From: 2010.05.17/outbox.cif.g08.bks.cpg/sg2_108_cif.got.tgz:214704.got - 2010.06.03 11:33:40.
