data_PCOD9099764
_publ_section_title
;
Structure prediction by ZEFSAII (Michael W. Deem and Ramdas Pophale) SiO2 
 PCOD9099764
Probable space group: P -1
;
_chemical_formula_sum "Si O2"
_cell_formula_units_Z 16
_cell_length_a 13.480513
_cell_length_b 9.424860
_cell_length_c 11.624028
_cell_angle_alpha 68.210482
_cell_angle_beta 108.608957
_cell_angle_gamma 148.450221
_cell_volume 717.526846
_symmetry_space_group_name_H-M "P -1"
_symmetry_group_IT_number 2
_symmetry_cell_setting 'triclinic'
loop_
_space_group_symop_operation_xyz
x,y,z
-x,-y,-z
loop_
_atom_site_type_symbol
_atom_site_label
_atom_site_fract_x
_atom_site_fract_y
_atom_site_fract_z
Si Si1 0.690181 0.311454 0.021787
Si Si2 0.999362 0.817198 0.411402
Si Si3 0.671812 0.827762 0.730114
Si Si4 0.892806 0.693639 0.668818
Si Si5 0.726195 0.807643 0.001101
Si Si6 0.550488 0.352295 0.771936
Si Si7 0.850004 0.201328 0.114275
Si Si8 0.307212 0.536135 0.780849
O O1 0.678098 0.337567 0.142105
O O2 0.857415 0.393119 0.039068
O O3 0.679602 0.450791 0.898678
O O4 0.500000 0.000000 0.000000
O O5 0.953942 0.726204 0.553428
O O6 0.824585 0.570015 0.338314
O O7 0.181169 0.955944 0.380878
O O8 0.037123 0.047887 0.354672
O O9 0.554996 0.539959 0.725999
O O10 0.515368 0.754159 0.740888
O O11 0.787758 0.915383 0.861008
O O12 0.666824 0.429605 0.684059
O O13 0.985061 0.684369 0.791951
O O14 0.775819 0.014591 0.033566
O O15 0.786807 0.732793 0.117592
O O16 0.500000 0.500000 0.000000
O O17 0.335799 0.038474 0.797848
#
# Coordination Sequence:
#
# PCOD9099764 Si02
#       8
#     2   2   2   2   2   2   2   2
#     4  10  21  35  59  87 116 144 182 221 283 348
#     4  10  22  36  55  86 109 145 196 234 263 326
#     4  10  18  32  58  84 114 140 179 233 285 323
#     4  10  22  37  55  82 114 145 195 230 268 325
#     4  10  16  31  57  81 109 139 174 224 282 328
#     4  10  18  34  57  82 113 147 178 227 284 331
#     4  11  20  37  56  83 116 149 175 229 282 329
#     4  11  19  36  58  84 114 146 180 231 280 326
#
# _framework density 22.298815000000001
#
# number of rings (size 3 to 8) (size 9 to 14) (size 15 to 20)
#    0.000    1.750    5.000    2.250    0.000    3.000 
#    0.000    6.875    0.000    3.750    0.000    0.000 
#    0.000    0.000    0.000    0.000    0.000    0.000 
#
# Total GULP energy -89364.158113 kJ/mol
# GULP energy per Si atom -5585.259882 kJ/mol
# Density = 2.224806 g / cm^3
# Si number density = 22.298815 Si / 1000 Ang^3
#
#
#
# Elastic Constant Matrix: (Units=GPa)
#
#
# Indices 1 2 3 4 5 6 
#
# 1 81.2793 15.1516 -7.4307 8.5665 -17.2973 -10.1360
# 2 15.1516 50.6763 20.3743 11.8962 -10.1717 -5.2631
# 3 -7.4307 20.3743 63.4494 -0.4909 -26.2079 -6.9283
# 4 8.5665 11.8962 -0.4909 17.6199 1.3222 -2.8693
# 5 -17.2973 -10.1717 -26.2079 1.3222 40.3972 2.1523
# 6 -10.1360 -5.2631 -6.9283 -2.8693 2.1523 21.2333
#
#
#
# Elastic Compliance Matrix: (Units=1/GPa)
#
#
# Indices 1 2 3 4 5 6 
#
# 1 0.018486 -0.004875 0.009969 -0.004933 0.012843 0.008901
# 2 -0.004875 0.029366 -0.010625 -0.017815 -0.000959 -0.000825
# 3 0.009969 -0.010625 0.029881 0.003305 0.020323 0.010262
# 4 -0.004933 -0.017815 0.003305 0.072592 -0.007087 0.004836
# 5 0.012843 -0.000959 0.020323 -0.007087 0.043045 0.007203
# 6 0.008901 -0.000825 0.010262 0.004836 0.007203 0.054412
#
#
# Mechanical properties :
#
#
# Convention : Reuss Voigt Hill
#
# Bulk Modulus (GPa) = 14.99897 27.95505 21.47701
# Shear Modulus (GPa) = 17.78934 27.00405 22.39669
#
# Velocity S-wave (km/s) = 2.82755 3.48373 3.17265
# Velocity P-wave (km/s) = 4.17145 5.36149 4.80347
#
# Compressibility (1/GPa) = 0.06667126
#
# Stress axis : x y z
#
# Youngs Moduli (GPa) = 54.09393 34.05276 33.46664
#
# Poissons Ratio (x) = 0.16600 -0.33362
# Poissons Ratio (y) = 0.26370 0.35557
# Poissons Ratio (z) = -0.53925 0.36180
#
# Static dielectric constant tensor:
#      x y z
#    x 1.876910 0.017660 0.011310 
#    y 0.017660 1.875040 -0.075750 
#    z 0.011310 -0.075750 1.854920 
# 
# From -- ./inp_files/417172.got.cif
#   From: 2010.05.17/outbox.cif.g08.bks.cpg/sg2_209_cif.got.tgz:417172.got - 2010.06.03 11:33:40.
