data_PCOD9099601
_publ_section_title
;
Structure prediction by ZEFSAII (Michael W. Deem and Ramdas Pophale) SiO2 
 PCOD9099601
Probable space group: P -1
;
_chemical_formula_sum "Si O2"
_cell_formula_units_Z 16
_cell_length_a 17.615502
_cell_length_b 9.056615
_cell_length_c 6.515645
_cell_angle_alpha 49.391615
_cell_angle_beta 73.833850
_cell_angle_gamma 63.809928
_cell_volume 708.074217
_symmetry_space_group_name_H-M "P -1"
_symmetry_group_IT_number 2
_symmetry_cell_setting 'triclinic'
loop_
_space_group_symop_operation_xyz
x,y,z
-x,-y,-z
loop_
_atom_site_type_symbol
_atom_site_label
_atom_site_fract_x
_atom_site_fract_y
_atom_site_fract_z
Si Si1 0.442599 0.285888 0.996445
Si Si2 0.681987 0.350730 0.478751
Si Si3 0.347898 0.334461 0.410780
Si Si4 0.093753 0.501095 0.442380
Si Si5 0.793678 0.369196 0.029300
Si Si6 0.624302 0.006061 0.969938
Si Si7 0.036084 0.894967 0.357253
Si Si8 0.868916 0.949474 0.160210
O O1 0.431199 0.278072 0.256885
O O2 0.398475 0.137353 0.053471
O O3 0.394096 0.518974 0.736584
O O4 0.538364 0.191649 0.933278
O O5 0.663258 0.484916 0.578342
O O6 0.684488 0.120205 0.732580
O O7 0.765187 0.356135 0.293413
O O8 0.274771 0.435728 0.208226
O O9 0.345953 0.140350 0.720883
O O10 0.119457 0.601765 0.130103
O O11 0.091259 0.651473 0.498572
O O12 0.150062 0.260313 0.637557
O O13 0.000000 0.500000 0.500000
O O14 0.797139 0.155370 0.110939
O O15 0.951037 0.924365 0.263693
O O16 0.000000 0.000000 0.500000
O O17 0.096472 0.009457 0.120242
#
# Coordination Sequence:
#
# PCOD9099601 Si02
#       8
#     2   2   2   2   2   2   2   2
#     4   9  20  38  59  87 120 152 194 245 285 335
#     4  10  22  37  57  85 117 155 196 238 291 346
#     4  10  22  37  55  86 120 152 195 241 285 346
#     4   9  19  38  61  82 108 148 192 236 289 343
#     4  10  22  38  56  82 120 152 190 244 292 346
#     4  10  20  37  61  86 116 156 197 237 288 342
#     4   9  18  34  56  85 112 135 179 237 286 342
#     4   9  19  35  55  77 108 148 184 226 285 346
#
# _framework density 22.596502000000001
#
# number of rings (size 3 to 8) (size 9 to 14) (size 15 to 20)
#    0.000    2.500    0.000    1.500    0.000    9.000 
#    0.000    2.500    0.000    0.000    0.000    0.000 
#    0.000    0.000    0.000    0.000    0.000    0.000 
#
# Total GULP energy -89297.969851 kJ/mol
# GULP energy per Si atom -5581.123116 kJ/mol
# Density = 2.254507 g / cm^3
# Si number density = 22.596502 Si / 1000 Ang^3
#
#
#
# Elastic Constant Matrix: (Units=GPa)
#
#
# Indices 1 2 3 4 5 6 
#
# 1 45.3979 5.1972 28.2914 6.6758 -10.5816 -3.5775
# 2 5.1972 107.5222 62.0939 16.9848 -21.6489 -6.7999
# 3 28.2914 62.0939 129.5238 4.7326 -23.3304 17.1474
# 4 6.6758 16.9848 4.7326 52.8130 -3.3622 -0.8410
# 5 -10.5816 -21.6489 -23.3304 -3.3622 27.7075 -6.5602
# 6 -3.5775 -6.7999 17.1474 -0.8410 -6.5602 17.4174
#
#
#
# Elastic Compliance Matrix: (Units=1/GPa)
#
#
# Indices 1 2 3 4 5 6 
#
# 1 0.040537 0.016360 -0.017817 -0.006751 0.021960 0.040200
# 2 0.016360 0.025908 -0.017079 -0.006989 0.020151 0.037542
# 3 -0.017817 -0.017079 0.022779 0.004565 -0.008912 -0.035890
# 4 -0.006751 -0.006989 0.004565 0.021245 -0.003747 -0.008994
# 5 0.021960 0.020151 -0.008912 -0.003747 0.062832 0.044636
# 6 0.040200 0.037542 -0.035890 -0.008994 0.044636 0.132038
#
#
# Mechanical properties :
#
#
# Convention : Reuss Voigt Hill
#
# Bulk Modulus (GPa) = 19.17437 52.62322 35.89880
# Shear Modulus (GPa) = 13.89675 32.04500 22.97088
#
# Velocity S-wave (km/s) = 2.48260 3.76991 3.19182
# Velocity P-wave (km/s) = 4.08922 6.50295 5.43185
#
# Compressibility (1/GPa) = 0.05215295
#
# Stress axis : x y z
#
# Youngs Moduli (GPa) = 24.66866 38.59793 43.89922
#
# Poissons Ratio (x) = -0.63148 0.78217
# Poissons Ratio (y) = -0.40359 0.74975
# Poissons Ratio (z) = 0.43953 0.65921
#
# Static dielectric constant tensor:
#      x y z
#    x 1.887380 -0.067060 0.030370 
#    y -0.067060 1.872950 -0.015600 
#    z 0.030370 -0.015600 1.856700 
# 
# From -- ./inp_files/116519.got.cif
#   From: 2010.05.17/outbox.cif.g08.bks.cpg/sg2_59_cif.got.tgz:116519.got - 2010.06.03 11:33:40.
