data_PCOD9099183
_publ_section_title
;
Structure prediction by ZEFSAII (Michael W. Deem and Ramdas Pophale) SiO2 
 PCOD9099183
Probable space group: P -1
;
_chemical_formula_sum "Si O2"
_cell_formula_units_Z 16
_cell_length_a 11.735162
_cell_length_b 9.811647
_cell_length_c 11.179986
_cell_angle_alpha 114.581034
_cell_angle_beta 122.587999
_cell_angle_gamma 101.988151
_cell_volume 814.818897
_symmetry_space_group_name_H-M "P -1"
_symmetry_group_IT_number 2
_symmetry_cell_setting 'triclinic'
loop_
_space_group_symop_operation_xyz
x,y,z
-x,-y,-z
loop_
_atom_site_type_symbol
_atom_site_label
_atom_site_fract_x
_atom_site_fract_y
_atom_site_fract_z
Si Si1 0.531395 0.101295 0.365028
Si Si2 0.867823 0.599249 0.974183
Si Si3 0.340482 0.393563 0.736344
Si Si4 0.492100 0.769425 0.344125
Si Si5 0.351599 0.983066 0.979058
Si Si6 0.899019 0.410978 0.726922
Si Si7 0.289042 0.245673 0.907687
Si Si8 0.867182 0.444164 0.305049
O O1 0.480568 0.147492 0.477902
O O2 0.423683 0.081748 0.183602
O O3 0.723418 0.259487 0.518983
O O4 0.515733 0.913889 0.311968
O O5 0.698468 0.401446 0.835391
O O6 0.889750 0.573160 0.836685
O O7 0.821554 0.728799 0.052962
O O8 0.037403 0.650272 0.148713
O O9 0.381348 0.285999 0.628247
O O10 0.254534 0.261256 0.754918
O O11 0.236711 0.477257 0.683981
O O12 0.523272 0.577239 0.920662
O O13 0.285998 0.075140 0.891816
O O14 0.500000 0.000000 0.000000
O O15 0.229181 0.769468 0.848482
O O16 0.039189 0.467814 0.732428
O O17 0.000000 0.500000 0.500000
#
# Coordination Sequence:
#
# PCOD9099183 Si02
#       8
#     2   2   2   2   2   2   2   2
#     4  10  21  37  62  94 122 156 204 247 300 351
#     4   9  18  37  63  86 120 159 203 242 291 357
#     4  10  20  39  65  88 117 157 206 245 292 360
#     4   9  19  38  63  93 118 161 207 248 285 354
#     4  12  23  40  63  89 122 156 200 255 301 349
#     4  10  20  37  59  88 123 162 194 241 303 359
#     4  10  20  37  63  93 112 158 209 247 292 349
#     4  12  25  42  60  89 124 158 195 245 312 365
#
# _framework density 19.636265999999999
#
# number of rings (size 3 to 8) (size 9 to 14) (size 15 to 20)
#    0.000    1.750    2.500    2.250    1.750    1.000 
#    4.500    3.750    0.000    0.000    0.000    0.000 
#    0.000    0.000    0.000    0.000    0.000    0.000 
#
# Total GULP energy -89132.708258 kJ/mol
# GULP energy per Si atom -5570.794266 kJ/mol
# Density = 1.959157 g / cm^3
# Si number density = 19.636266 Si / 1000 Ang^3
#
#
#
# Elastic Constant Matrix: (Units=GPa)
#
#
# Indices 1 2 3 4 5 6 
#
# 1 92.2912 14.1693 2.5542 3.9517 -0.1454 -32.0634
# 2 14.1693 71.8573 13.7862 0.3571 -3.8669 -21.4933
# 3 2.5542 13.7862 70.6134 -6.1171 2.7518 -5.6598
# 4 3.9517 0.3571 -6.1171 19.7505 -2.8111 0.6082
# 5 -0.1454 -3.8669 2.7518 -2.8111 13.5187 1.1380
# 6 -32.0634 -21.4933 -5.6598 0.6082 1.1380 33.2380
#
#
#
# Elastic Compliance Matrix: (Units=1/GPa)
#
#
# Indices 1 2 3 4 5 6 
#
# 1 0.016833 0.001844 0.000147 -0.004134 -0.001662 0.017588
# 2 0.001844 0.018223 -0.002878 -0.001356 0.004446 0.012946
# 3 0.000147 -0.002878 0.015284 0.004284 -0.003119 0.000912
# 4 -0.004134 -0.001356 0.004284 0.054472 0.010485 -0.005491
# 5 -0.001662 0.004446 -0.003119 0.010485 0.078220 -0.002129
# 6 0.017588 0.012946 0.000912 -0.005491 -0.002129 0.055753
#
#
# Mechanical properties :
#
#
# Convention : Reuss Voigt Hill
#
# Bulk Modulus (GPa) = 20.58949 32.86458 26.72704
# Shear Modulus (GPa) = 19.47460 26.91827 23.19643
#
# Velocity S-wave (km/s) = 3.15265 3.70651 3.44074
# Velocity P-wave (km/s) = 4.87447 5.92373 5.42453
#
# Compressibility (1/GPa) = 0.04856846
#
# Stress axis : x y z
#
# Youngs Moduli (GPa) = 59.40764 54.87545 65.42846
#
# Poissons Ratio (x) = -0.10122 -0.00964
# Poissons Ratio (y) = -0.10958 0.18828
# Poissons Ratio (z) = -0.00876 0.15791
#
# Static dielectric constant tensor:
#      x y z
#    x 1.592470 -0.028410 0.105630 
#    y -0.028410 1.658720 0.034230 
#    z 0.105630 0.034230 1.540590 
# 
# From -- ./inp_files/224099.got.cif
#   From: 2010.05.17/outbox.cif.g08.bks.cpg/sg2_113_cif.got.tgz:224099.got - 2010.06.03 11:33:40.
