data_PCOD9099773
_publ_section_title
;
Structure prediction by ZEFSAII (Michael W. Deem and Ramdas Pophale) SiO2 
 PCOD9099773
Probable space group: P -1
;
_chemical_formula_sum "Si O2"
_cell_formula_units_Z 14
_cell_length_a 9.072449
_cell_length_b 10.162968
_cell_length_c 8.641411
_cell_angle_alpha 62.051080
_cell_angle_beta 77.465131
_cell_angle_gamma 104.722481
_cell_volume 625.824473
_symmetry_space_group_name_H-M "P -1"
_symmetry_group_IT_number 2
_symmetry_cell_setting 'triclinic'
loop_
_space_group_symop_operation_xyz
x,y,z
-x,-y,-z
loop_
_atom_site_type_symbol
_atom_site_label
_atom_site_fract_x
_atom_site_fract_y
_atom_site_fract_z
Si Si1 0.975417 0.887363 0.718880
Si Si2 0.423076 0.843814 0.216321
Si Si3 0.302763 0.688790 0.846411
Si Si4 0.700942 0.959802 0.316776
Si Si5 0.652738 0.727194 0.744555
Si Si6 0.147530 0.706781 0.584331
Si Si7 0.803797 0.481087 0.738170
O O1 0.778106 0.796787 0.822975
O O2 0.099539 0.981141 0.776543
O O3 0.056218 0.769367 0.700305
O O4 0.000000 0.000000 0.500000
O O5 0.284721 0.844240 0.371993
O O6 0.317157 0.675021 0.244832
O O7 0.579864 0.847944 0.275679
O O8 0.500000 0.000000 0.000000
O O9 0.339671 0.880118 0.752310
O O10 0.462556 0.656190 0.871639
O O11 0.248592 0.636329 0.711392
O O12 0.173595 0.589688 0.061071
O O13 0.663957 0.864857 0.540105
O O14 0.717447 0.606284 0.710200
O O15 0.993086 0.587921 0.585590
#
# Coordination Sequence:
#
# PCOD9099773 Si02
#       7
#     2   2   2   2   2   2   2
#     4   8  18  32  61  90 120 151 198 256 306 351
#     4  12  24  40  64  91 126 167 212 250 303 378
#     4  11  20  38  68  94 120 159 214 258 300 368
#     4  10  20  37  61  92 122 164 205 249 307 365
#     4  10  20  37  63  95 125 158 204 262 315 349
#     4  10  22  40  62  91 121 167 208 256 305 362
#     4  11  24  40  61  93 131 161 201 257 315 368
#
# _framework density 22.370491000000001
#
# number of rings (size 3 to 8) (size 9 to 14) (size 15 to 20)
#    0.000    1.714    2.857    1.714    4.000    0.571 
#    0.000    0.000    0.000    8.571    0.000    0.000 
#    0.000    0.000    0.000    0.000    0.000    0.000 
#
# Total GULP energy -78001.302989 kJ/mol
# GULP energy per Si atom -5571.521642 kJ/mol
# Density = 2.231957 g / cm^3
# Si number density = 22.370491 Si / 1000 Ang^3
#
#
#
# Elastic Constant Matrix: (Units=GPa)
#
#
# Indices 1 2 3 4 5 6 
#
# 1 138.9873 41.8995 31.5959 -7.4895 -3.8257 48.4683
# 2 41.8995 82.9307 10.3812 -12.6103 6.0187 32.4981
# 3 31.5959 10.3812 61.9842 -12.7464 3.7827 1.7575
# 4 -7.4895 -12.6103 -12.7464 22.2699 5.4480 1.4588
# 5 -3.8257 6.0187 3.7827 5.4480 22.4492 -9.6202
# 6 48.4683 32.4981 1.7575 1.4588 -9.6202 46.4399
#
#
#
# Elastic Compliance Matrix: (Units=1/GPa)
#
#
# Indices 1 2 3 4 5 6 
#
# 1 0.013894 0.001035 -0.005608 0.004318 -0.004943 -0.016173
# 2 0.001035 0.026847 0.002228 0.024478 -0.024381 -0.025772
# 3 -0.005608 0.002228 0.021901 0.013777 -0.007998 0.001375
# 4 0.004318 0.024478 0.013777 0.080567 -0.042009 -0.033391
# 5 -0.004943 -0.024381 -0.007998 -0.042009 0.079014 0.040211
# 6 -0.016173 -0.025772 0.001375 -0.033391 0.040211 0.065774
#
#
# Mechanical properties :
#
#
# Convention : Reuss Voigt Hill
#
# Bulk Modulus (GPa) = 17.25519 50.18394 33.71956
# Shear Modulus (GPa) = 16.02555 31.56685 23.79620
#
# Velocity S-wave (km/s) = 2.67941 3.76053 3.26503
# Velocity P-wave (km/s) = 4.15962 6.42940 5.41478
#
# Compressibility (1/GPa) = 0.05795359
#
# Stress axis : x y z
#
# Youngs Moduli (GPa) = 71.97315 37.24811 45.66076
#
# Poissons Ratio (x) = -0.03856 0.25604
# Poissons Ratio (y) = -0.07450 -0.10175
# Poissons Ratio (z) = 0.40359 -0.08300
#
# Static dielectric constant tensor:
#      x y z
#    x 1.989020 0.048900 -0.012830 
#    y 0.048900 1.950480 -0.022310 
#    z -0.012830 -0.022310 1.861630 
# 
# From -- ./inp_files/175061.got.cif
#   From: 2010.05.17/outbox.cif.g08.bks.cpg/sg2_88_cif.got.tgz:175061.got - 2010.06.03 11:33:40.
