data_PCOD9099901
_publ_section_title
;
Structure prediction by ZEFSAII (Michael W. Deem and Ramdas Pophale) SiO2 
 PCOD9099901
Probable space group: P -1
;
_chemical_formula_sum "Si O2"
_cell_formula_units_Z 16
_cell_length_a 7.452714
_cell_length_b 5.729058
_cell_length_c 18.889959
_cell_angle_alpha 112.913727
_cell_angle_beta 106.616824
_cell_angle_gamma 93.509809
_cell_volume 698.140105
_symmetry_space_group_name_H-M "P -1"
_symmetry_group_IT_number 2
_symmetry_cell_setting 'triclinic'
loop_
_space_group_symop_operation_xyz
x,y,z
-x,-y,-z
loop_
_atom_site_type_symbol
_atom_site_label
_atom_site_fract_x
_atom_site_fract_y
_atom_site_fract_z
Si Si1 0.104338 0.357551 0.780663
Si Si2 0.848425 0.115570 0.089008
Si Si3 0.435507 0.071870 0.837243
Si Si4 0.282368 0.114945 0.536904
Si Si5 0.755963 0.387938 0.319371
Si Si6 0.646563 0.376492 0.548340
Si Si7 0.916362 0.863032 0.635328
Si Si8 0.139028 0.778752 0.057869
O O1 0.073037 0.578858 0.856235
O O2 0.293322 0.249212 0.811111
O O3 0.141024 0.509143 0.729156
O O4 0.938827 0.114314 0.715677
O O5 0.667665 0.025007 0.110272
O O6 0.809474 0.086860 0.997608
O O7 0.011861 0.953271 0.105296
O O8 0.652768 0.220533 0.886215
O O9 0.424344 0.821012 0.754795
O O10 0.242385 0.346691 0.607553
O O11 0.513257 0.198572 0.567667
O O12 0.169355 0.115929 0.449842
O O13 0.251246 0.807854 0.509967
O O14 0.877718 0.212734 0.354763
O O15 0.500000 0.500000 0.500000
O O16 0.786025 0.613332 0.625667
O O17 0.000000 0.500000 0.000000
#
# Coordination Sequence:
#
# PCOD9099901 Si02
#       8
#     2   2   2   2   2   2   2   2
#     4  10  22  40  64  91 128 171 206 264 325 378
#     4  10  23  44  69  96 133 170 216 260 328 393
#     4  10  23  45  64  95 137 172 211 267 328 390
#     4  10  20  38  58  85 119 167 213 263 314 376
#     4  10  22  39  60  88 122 162 215 258 320 380
#     4   9  20  36  54  82 119 156 210 261 318 366
#     4  10  20  37  62  86 118 164 213 264 318 374
#     4  11  24  43  71 104 127 166 218 265 323 395
#
# _framework density 22.918035
#
# number of rings (size 3 to 8) (size 9 to 14) (size 15 to 20)
#    0.000    2.000    0.000    2.250    0.000   12.000 
#   15.750    0.000    0.000    0.000    0.000    0.000 
#    0.000    0.000    0.000    0.000    0.000    0.000 
#
# Total GULP energy -89208.472775 kJ/mol
# GULP energy per Si atom -5575.529548 kJ/mol
# Density = 2.286587 g / cm^3
# Si number density = 22.918035 Si / 1000 Ang^3
#
#
#
# Elastic Constant Matrix: (Units=GPa)
#
#
# Indices 1 2 3 4 5 6 
#
# 1 75.4426 19.1122 51.7398 14.7892 24.9996 -3.1439
# 2 19.1122 89.9333 35.8406 24.2482 9.3491 -16.6285
# 3 51.7398 35.8406 95.6371 21.5687 24.3480 -12.3363
# 4 14.7892 24.2482 21.5687 54.8917 3.1881 -2.5234
# 5 24.9996 9.3491 24.3480 3.1881 35.0339 12.5061
# 6 -3.1439 -16.6285 -12.3363 -2.5234 12.5061 30.5001
#
#
#
# Elastic Compliance Matrix: (Units=1/GPa)
#
#
# Indices 1 2 3 4 5 6 
#
# 1 0.024024 0.001346 -0.009197 -0.002529 -0.012445 0.004384
# 2 0.001346 0.015840 -0.002453 -0.005556 -0.006550 0.010009
# 3 -0.009197 -0.002453 0.021377 -0.003707 -0.011085 0.010599
# 4 -0.002529 -0.005556 -0.003707 0.022233 0.005732 -0.005300
# 5 -0.012445 -0.006550 -0.011085 0.005732 0.058010 -0.032650
# 6 0.004384 0.010009 0.010599 -0.005300 -0.032650 0.055932
#
#
# Mechanical properties :
#
#
# Convention : Reuss Voigt Hill
#
# Bulk Modulus (GPa) = 24.61048 52.71091 38.66069
# Shear Modulus (GPa) = 21.59187 34.37316 27.98252
#
# Velocity S-wave (km/s) = 3.07275 3.87697 3.49805
# Velocity P-wave (km/s) = 4.83227 6.56436 5.76375
#
# Compressibility (1/GPa) = 0.04063310
#
# Stress axis : x y z
#
# Youngs Moduli (GPa) = 41.62453 63.12982 46.78020
#
# Poissons Ratio (x) = -0.08498 0.43025
# Poissons Ratio (y) = -0.05603 0.11474
# Poissons Ratio (z) = 0.38283 0.15485
#
# Static dielectric constant tensor:
#      x y z
#    x 1.956570 0.030860 -0.045930 
#    y 0.030860 1.930240 0.020620 
#    z -0.045930 0.020620 1.915600 
# 
# From -- ./inp_files/585434.got.cif
#   From: 2010.05.17/outbox.cif.g08.bks.cpg/sg2_293_cif.got.tgz:585434.got - 2010.06.03 11:33:40.
