data_PCOD9099796
_publ_section_title
;
Structure prediction by ZEFSAII (Michael W. Deem and Ramdas Pophale) SiO2 
 PCOD9099796
Probable space group: P -1
;
_chemical_formula_sum "Si O2"
_cell_formula_units_Z 12
_cell_length_a 14.508578
_cell_length_b 8.979801
_cell_length_c 8.970563
_cell_angle_alpha 108.926622
_cell_angle_beta 137.939413
_cell_angle_gamma 48.600543
_cell_volume 554.077516
_symmetry_space_group_name_H-M "P -1"
_symmetry_group_IT_number 2
_symmetry_cell_setting 'triclinic'
loop_
_space_group_symop_operation_xyz
x,y,z
-x,-y,-z
loop_
_atom_site_type_symbol
_atom_site_label
_atom_site_fract_x
_atom_site_fract_y
_atom_site_fract_z
Si Si1 0.926806 0.805760 0.982116
Si Si2 0.533268 0.150856 0.535660
Si Si3 0.613386 0.118528 0.277555
Si Si4 0.256627 0.314926 0.752772
Si Si5 0.012385 0.532689 0.266589
Si Si6 0.324853 0.603480 0.433633
O O1 0.937722 0.730757 0.139485
O O2 0.121561 0.742306 0.165674
O O3 0.918064 0.657721 0.819805
O O4 0.739675 0.040607 0.799273
O O5 0.527166 0.153667 0.349696
O O6 0.381924 0.387676 0.490973
O O7 0.500000 0.000000 0.500000
O O8 0.682390 0.244536 0.412981
O O9 0.751533 0.868206 0.342425
O O10 0.463038 0.210642 0.998477
O O11 0.164129 0.464426 0.548399
O O12 0.145009 0.425037 0.805858
O O13 0.500000 0.500000 0.500000
#
# Coordination Sequence:
#
# PCOD9099796 Si02
#       6
#     2   2   2   2   2   2
#     4  11  21  39  64  92 123 152 212 259 302 354
#     4  11  21  38  67  95 120 157 209 257 306 355
#     4  10  21  39  58  88 121 165 200 248 303 369
#     4  10  20  38  63  83 125 163 204 241 309 370
#     4  10  20  37  61  93 112 161 204 258 295 364
#     4  10  23  39  59  94 126 159 203 257 307 355
#
# _framework density 21.657617999999999
#
# number of rings (size 3 to 8) (size 9 to 14) (size 15 to 20)
#    0.000    1.667    1.667    5.000    0.000    2.667 
#    6.000    1.667    0.000    0.000    0.000    0.000 
#    0.000    0.000    0.000    0.000    0.000    0.000 
#
# Total GULP energy -66976.899424 kJ/mol
# GULP energy per Si atom -5581.408285 kJ/mol
# Density = 2.160832 g / cm^3
# Si number density = 21.657618 Si / 1000 Ang^3
#
#
#
# Elastic Constant Matrix: (Units=GPa)
#
#
# Indices 1 2 3 4 5 6 
#
# 1 60.2642 -2.5045 22.3995 0.9286 -4.5255 2.2829
# 2 -2.5045 91.0994 26.4283 5.6327 5.8386 5.2215
# 3 22.3995 26.4283 138.3148 -22.6482 4.5471 2.7601
# 4 0.9286 5.6327 -22.6482 28.9093 1.3190 9.0638
# 5 -4.5255 5.8386 4.5471 1.3190 42.8785 0.8014
# 6 2.2829 5.2215 2.7601 9.0638 0.8014 25.0742
#
#
#
# Elastic Compliance Matrix: (Units=1/GPa)
#
#
# Indices 1 2 3 4 5 6 
#
# 1 0.018431 0.001818 -0.004092 -0.004206 0.002264 -0.000158
# 2 0.001818 0.012424 -0.003436 -0.004954 -0.000973 -0.000553
# 3 -0.004092 -0.003436 0.010317 0.010088 -0.001300 -0.003652
# 4 -0.004206 -0.004954 0.010088 0.049140 -0.002026 -0.017394
# 5 0.002264 -0.000973 -0.001300 -0.002026 0.023891 0.000108
# 6 -0.000158 -0.000553 -0.003652 -0.017394 0.000108 0.046697
#
#
# Mechanical properties :
#
#
# Convention : Reuss Voigt Hill
#
# Bulk Modulus (GPa) = 33.61299 42.48055 38.04677
# Shear Modulus (GPa) = 27.43652 35.59608 31.51630
#
# Velocity S-wave (km/s) = 3.56312 4.05851 3.81886
# Velocity P-wave (km/s) = 5.69926 6.45129 6.08690
#
# Compressibility (1/GPa) = 0.02975041
#
# Stress axis : x y z
#
# Youngs Moduli (GPa) = 54.25654 80.48787 96.93100
#
# Poissons Ratio (x) = -0.14631 0.39665
# Poissons Ratio (y) = -0.09863 0.33310
# Poissons Ratio (z) = 0.22202 0.27659
#
# Static dielectric constant tensor:
#      x y z
#    x 1.849460 0.021270 0.030930 
#    y 0.021270 1.821210 -0.020930 
#    z 0.030930 -0.020930 1.789070 
# 
# From -- ./inp_files/147939.got.cif
#   From: 2010.05.17/outbox.cif.g08.bks.cpg/sg2_74_cif.got.tgz:147939.got - 2010.06.03 11:33:40.
