data_PCOD9099397
_publ_section_title
;
Structure prediction by ZEFSAII (Michael W. Deem and Ramdas Pophale) SiO2 
 PCOD9099397
Probable space group: P -1
;
_chemical_formula_sum "Si O2"
_cell_formula_units_Z 16
_cell_length_a 7.973264
_cell_length_b 25.229215
_cell_length_c 9.962959
_cell_angle_alpha 143.823328
_cell_angle_beta 134.994439
_cell_angle_gamma 69.849819
_cell_volume 703.059167
_symmetry_space_group_name_H-M "P -1"
_symmetry_group_IT_number 2
_symmetry_cell_setting 'triclinic'
loop_
_space_group_symop_operation_xyz
x,y,z
-x,-y,-z
loop_
_atom_site_type_symbol
_atom_site_label
_atom_site_fract_x
_atom_site_fract_y
_atom_site_fract_z
Si Si1 0.133184 0.591197 0.522208
Si Si2 0.153034 0.834512 0.301377
Si Si3 0.664452 0.941253 0.185315
Si Si4 0.432968 0.226243 0.029140
Si Si5 0.728777 0.651739 0.526827
Si Si6 0.616588 0.257648 0.581829
Si Si7 0.449224 0.507319 0.649594
Si Si8 0.962091 0.392817 0.843345
O O1 0.409380 0.706926 0.876886
O O2 0.232401 0.544555 0.599791
O O3 0.869236 0.598233 0.420773
O O4 0.039799 0.509051 0.174817
O O5 0.316515 0.777178 0.313630
O O6 0.368773 0.960903 0.664425
O O7 0.891592 0.808969 0.202851
O O8 0.974928 0.774374 0.946529
O O9 0.557331 0.876434 0.132314
O O10 0.549625 0.852463 0.822463
O O11 0.000000 0.000000 0.500000
O O12 0.657170 0.313959 0.443514
O O13 0.511274 0.668526 0.353658
O O14 0.641244 0.588512 0.492309
O O15 0.919369 0.330539 0.831344
O O16 0.500000 0.500000 0.500000
O O17 0.770472 0.595821 0.054032
#
# Coordination Sequence:
#
# PCOD9099397 Si02
#       8
#     2   2   2   2   2   2   2   2
#     4  11  23  38  58  88 127 165 194 245 306 361
#     4  11  20  41  64  87 119 152 206 256 298 354
#     4   9  18  36  66  91 113 147 204 262 294 345
#     4  10  20  38  63  89 115 158 210 253 294 350
#     4  12  24  40  57  91 129 157 197 246 306 366
#     4  11  22  36  64  92 117 156 198 248 305 352
#     4  10  22  38  62  85 116 160 204 244 289 354
#     4  10  20  37  60  88 116 157 206 251 283 352
#
# _framework density 22.757687000000001
#
# number of rings (size 3 to 8) (size 9 to 14) (size 15 to 20)
#    0.000    1.500    3.750    4.875    1.750    0.500 
#    2.250    0.625    0.000    0.750    0.000    0.000 
#    0.000    0.000    0.000    0.000    0.000    0.000 
#
# Total GULP energy -89083.581116 kJ/mol
# GULP energy per Si atom -5567.723820 kJ/mol
# Density = 2.270589 g / cm^3
# Si number density = 22.757687 Si / 1000 Ang^3
#
#
#
# Elastic Constant Matrix: (Units=GPa)
#
#
# Indices 1 2 3 4 5 6 
#
# 1 60.1336 43.1493 19.9109 2.8959 6.1542 -14.8422
# 2 43.1493 187.9695 36.0449 11.4219 19.1152 -27.4125
# 3 19.9109 36.0449 92.5944 23.7931 15.8144 -4.6151
# 4 2.8959 11.4219 23.7931 45.2040 0.9339 6.8984
# 5 6.1542 19.1152 15.8144 0.9339 11.3734 -2.8143
# 6 -14.8422 -27.4125 -4.6151 6.8984 -2.8143 29.5473
#
#
#
# Elastic Compliance Matrix: (Units=1/GPa)
#
#
# Indices 1 2 3 4 5 6 
#
# 1 0.021869 -0.003333 -0.002953 -0.000134 -0.000273 0.007437
# 2 -0.003333 0.008056 0.000343 -0.002614 -0.010650 0.005449
# 3 -0.002953 0.000343 0.017425 -0.008844 -0.022106 0.001516
# 4 -0.000134 -0.002614 -0.008844 0.028632 0.012084 -0.009407
# 5 -0.000273 -0.010650 -0.022106 0.012084 0.134864 -0.003446
# 6 0.007437 0.005449 0.001516 -0.009407 -0.003446 0.044740
#
#
# Mechanical properties :
#
#
# Convention : Reuss Voigt Hill
#
# Bulk Modulus (GPa) = 28.19872 59.87863 44.03867
# Shear Modulus (GPa) = 17.90229 33.33111 25.61670
#
# Velocity S-wave (km/s) = 2.80777 3.83117 3.35868
# Velocity P-wave (km/s) = 4.78844 6.77783 5.86806
#
# Compressibility (1/GPa) = 0.03546260
#
# Stress axis : x y z
#
# Youngs Moduli (GPa) = 45.72603 124.13198 57.38923
#
# Poissons Ratio (x) = 0.41379 0.16949
# Poissons Ratio (y) = 0.15243 -0.01968
# Poissons Ratio (z) = 0.13505 -0.04258
#
# Static dielectric constant tensor:
#      x y z
#    x 1.952510 0.053430 -0.016520 
#    y 0.053430 2.030290 -0.008030 
#    z -0.016520 -0.008030 1.896970 
# 
# From -- ./inp_files/407269.got.cif
#   From: 2010.05.17/outbox.cif.g08.bks.cpg/sg2_204_cif.got.tgz:407269.got - 2010.06.03 11:33:40.
