data_PCOD9099866
_publ_section_title
;
Structure prediction by ZEFSAII (Michael W. Deem and Ramdas Pophale) SiO2 
 PCOD9099866
Probable space group: P -1
;
_chemical_formula_sum "Si O2"
_cell_formula_units_Z 16
_cell_length_a 15.410234
_cell_length_b 11.377318
_cell_length_c 10.227251
_cell_angle_alpha 100.216439
_cell_angle_beta 155.759575
_cell_angle_gamma 76.952806
_cell_volume 715.366798
_symmetry_space_group_name_H-M "P -1"
_symmetry_group_IT_number 2
_symmetry_cell_setting 'triclinic'
loop_
_space_group_symop_operation_xyz
x,y,z
-x,-y,-z
loop_
_atom_site_type_symbol
_atom_site_label
_atom_site_fract_x
_atom_site_fract_y
_atom_site_fract_z
Si Si1 0.754473 0.378826 0.715395
Si Si2 0.359618 0.010706 0.675871
Si Si3 0.926462 0.832324 0.250442
Si Si4 0.625377 0.057580 0.798475
Si Si5 0.062172 0.788830 0.852248
Si Si6 0.339655 0.751157 0.673298
Si Si7 0.822761 0.684693 0.301529
Si Si8 0.747420 0.609176 0.909730
O O1 0.748979 0.353770 0.549485
O O2 0.813033 0.503176 0.876256
O O3 0.507765 0.376863 0.419645
O O4 0.897894 0.267591 0.961450
O O5 0.135048 0.100473 0.396072
O O6 0.482868 0.060487 0.733766
O O7 0.330827 0.869858 0.591472
O O8 0.500000 0.000000 0.000000
O O9 0.848159 0.808365 0.282634
O O10 0.179473 0.795054 0.578619
O O11 0.838035 0.964101 0.108658
O O12 0.815772 0.737562 0.993291
O O13 0.500000 0.000000 0.500000
O O14 0.720965 0.172570 0.899346
O O15 0.994498 0.682172 0.648886
O O16 0.584149 0.702451 0.033893
O O17 0.841019 0.593638 0.185124
#
# Coordination Sequence:
#
# PCOD9099866 Si02
#       8
#     2   2   2   2   2   2   2   2
#     4  10  21  39  62  89 117 159 201 252 301 359
#     4  12  24  39  60  90 129 167 200 247 303 371
#     4  10  20  37  62  81 114 161 202 236 302 360
#     4  12  25  38  59  92 130 158 199 255 307 366
#     4  12  24  36  64  91 123 158 201 247 310 357
#     4  11  20  37  61  84 120 155 201 241 299 358
#     4   9  21  39  58  88 114 158 200 249 289 368
#     4   8  19  42  62  83 118 157 205 246 303 354
#
# _framework density 22.366147999999999
#
# number of rings (size 3 to 8) (size 9 to 14) (size 15 to 20)
#    0.750    0.750    3.750    1.500    3.500    3.000 
#    0.000    0.000    0.000    0.750    0.000    0.000 
#    0.000    0.000    0.000    0.000    0.000    0.000 
#
# Total GULP energy -89244.805527 kJ/mol
# GULP energy per Si atom -5577.800345 kJ/mol
# Density = 2.231524 g / cm^3
# Si number density = 22.366148 Si / 1000 Ang^3
#
#
#
# Elastic Constant Matrix: (Units=GPa)
#
#
# Indices 1 2 3 4 5 6 
#
# 1 79.1436 -6.7315 18.3246 1.9515 16.3926 -11.6676
# 2 -6.7315 55.0398 -0.4574 15.4058 2.6118 -10.4941
# 3 18.3246 -0.4574 83.4299 23.0380 -10.1579 -6.4449
# 4 1.9515 15.4058 23.0380 20.5940 1.5235 -3.5239
# 5 16.3926 2.6118 -10.1579 1.5235 29.3927 1.2302
# 6 -11.6676 -10.4941 -6.4449 -3.5239 1.2302 21.8744
#
#
#
# Elastic Compliance Matrix: (Units=1/GPa)
#
#
# Indices 1 2 3 4 5 6 
#
# 1 0.018887 0.003425 -0.006599 0.006032 -0.013913 0.011527
# 2 0.003425 0.029645 0.008613 -0.029725 -0.000606 0.013832
# 3 -0.006599 0.008613 0.024603 -0.034030 0.013113 0.001642
# 4 0.006032 -0.029725 -0.034030 0.109204 -0.018041 -0.002462
# 5 -0.013913 -0.000606 0.013113 -0.018041 0.047697 -0.009437
# 6 0.011527 0.013832 0.001642 -0.002462 -0.009437 0.059118
#
#
# Mechanical properties :
#
#
# Convention : Reuss Voigt Hill
#
# Bulk Modulus (GPa) = 11.90285 26.65386 19.27836
# Shear Modulus (GPa) = 16.32493 28.13739 22.23116
#
# Velocity S-wave (km/s) = 2.70459 3.55073 3.15614
# Velocity P-wave (km/s) = 3.88412 5.36219 4.68186
#
# Compressibility (1/GPa) = 0.08401348
#
# Stress axis : x y z
#
# Youngs Moduli (GPa) = 52.94700 33.73218 40.64576
#
# Poissons Ratio (x) = -0.11552 0.26821
# Poissons Ratio (y) = -0.18133 -0.35009
# Poissons Ratio (z) = 0.34938 -0.29054
#
# Static dielectric constant tensor:
#      x y z
#    x 1.836740 -0.021980 -0.032710 
#    y -0.021980 1.863360 0.044970 
#    z -0.032710 0.044970 1.876610 
# 
# From -- ./inp_files/223688.got.cif
#   From: 2010.05.17/outbox.cif.g08.bks.cpg/sg2_112_cif.got.tgz:223688.got - 2010.06.03 11:33:40.
