data_PCOD9099865
_publ_section_title
;
Structure prediction by ZEFSAII (Michael W. Deem and Ramdas Pophale) SiO2 
 PCOD9099865
Probable space group: P -1
;
_chemical_formula_sum "Si O2"
_cell_formula_units_Z 16
_cell_length_a 24.605134
_cell_length_b 12.193861
_cell_length_c 8.683020
_cell_angle_alpha 131.882184
_cell_angle_beta 152.427924
_cell_angle_gamma 41.154872
_cell_volume 793.561961
_symmetry_space_group_name_H-M "P -1"
_symmetry_group_IT_number 2
_symmetry_cell_setting 'triclinic'
loop_
_space_group_symop_operation_xyz
x,y,z
-x,-y,-z
loop_
_atom_site_type_symbol
_atom_site_label
_atom_site_fract_x
_atom_site_fract_y
_atom_site_fract_z
Si Si1 0.213969 0.505552 0.234259
Si Si2 0.404901 0.944665 0.300180
Si Si3 0.468349 0.447504 0.705411
Si Si4 0.160872 0.191785 0.767921
Si Si5 0.912818 0.730298 0.684576
Si Si6 0.946488 0.422566 0.652704
Si Si7 0.641215 0.884953 0.327102
Si Si8 0.327163 0.464584 0.819961
O O1 0.308889 0.531700 0.375310
O O2 0.291325 0.455502 0.543235
O O3 0.204128 0.339389 0.008254
O O4 0.070141 0.663727 0.051983
O O5 0.475153 0.750498 0.330875
O O6 0.500000 0.000000 0.500000
O O7 0.361297 0.042579 0.442642
O O8 0.277644 0.011500 0.932560
O O9 0.500000 0.500000 0.000000
O O10 0.551448 0.493432 0.834431
O O11 0.103466 0.202253 0.465163
O O12 0.060155 0.251865 0.714174
O O13 0.912047 0.553817 0.548520
O O14 0.778777 0.853038 0.557280
O O15 0.816413 0.407916 0.354794
O O16 0.000000 0.500000 0.000000
O O17 0.643163 0.707811 0.187931
O O18 0.500000 0.000000 0.000000
#
# Coordination Sequence:
#
# PCOD9099865 Si02
#       8
#     2   2   2   2   2   2   2   2
#     4  10  17  34  59  86 118 155 201 241 293 357
#     4  12  21  38  64  89 118 157 204 249 300 357
#     4  10  22  37  60  89 121 160 197 244 305 366
#     4  11  19  33  59  91 115 149 207 256 295 344
#     4  10  21  32  58  92 117 154 201 256 296 344
#     4  10  16  31  57  87 117 153 198 247 298 352
#     4  11  23  39  63  91 121 153 202 256 300 353
#     4  10  19  37  60  88 119 160 194 244 303 362
#
# _framework density 20.162257
#
# number of rings (size 3 to 8) (size 9 to 14) (size 15 to 20)
#    0.000    1.500    5.000    3.750    0.000    0.000 
#    0.000    1.250    0.000    3.750    0.000    0.000 
#    0.000    0.000    0.000    0.000    0.000    0.000 
#
# Total GULP energy -89091.988698 kJ/mol
# GULP energy per Si atom -5568.249294 kJ/mol
# Density = 2.011637 g / cm^3
# Si number density = 20.162257 Si / 1000 Ang^3
#
#
#
# Elastic Constant Matrix: (Units=GPa)
#
#
# Indices 1 2 3 4 5 6 
#
# 1 98.7716 33.3177 48.0638 -12.1309 37.0381 -6.9753
# 2 33.3177 61.2202 27.7478 -17.6718 14.2088 -9.8936
# 3 48.0638 27.7478 72.0724 -27.8818 32.4709 2.9157
# 4 -12.1309 -17.6718 -27.8818 32.8517 2.7766 1.9199
# 5 37.0381 14.2088 32.4709 2.7766 50.1314 -12.2940
# 6 -6.9753 -9.8936 2.9157 1.9199 -12.2940 23.3312
#
#
#
# Elastic Compliance Matrix: (Units=1/GPa)
#
#
# Indices 1 2 3 4 5 6 
#
# 1 0.017937 -0.005162 -0.008884 -0.003333 -0.005435 0.001694
# 2 -0.005162 0.024262 -0.004909 0.006204 0.002232 0.010024
# 3 -0.008884 -0.004909 0.071855 0.062344 -0.053586 -0.047084
# 4 -0.003333 0.006204 0.062344 0.092646 -0.055339 -0.042941
# 5 -0.005435 0.002232 -0.053586 -0.055339 0.073150 0.049117
# 6 0.001694 0.010024 -0.047084 -0.042941 0.049117 0.082917
#
#
# Mechanical properties :
#
#
# Convention : Reuss Voigt Hill
#
# Bulk Modulus (GPa) = 13.13305 50.03586 31.58445
# Shear Modulus (GPa) = 11.73553 29.45850 20.59702
#
# Velocity S-wave (km/s) = 2.41520 3.82654 3.19966
# Velocity P-wave (km/s) = 3.78225 6.66286 5.41752
#
# Compressibility (1/GPa) = 0.07614379
#
# Stress axis : x y z
#
# Youngs Moduli (GPa) = 55.75084 41.21731 13.91696
#
# Poissons Ratio (x) = 0.21277 0.12363
# Poissons Ratio (y) = 0.28779 0.06832
# Poissons Ratio (z) = 0.49527 0.20233
#
# Static dielectric constant tensor:
#      x y z
#    x 1.788110 -0.035180 0.023890 
#    y -0.035180 1.697730 -0.013840 
#    z 0.023890 -0.013840 1.757350 
# 
# From -- ./inp_files/353699.got.cif
#   From: 2010.05.17/outbox.cif.g08.bks.cpg/sg2_177_cif.got.tgz:353699.got - 2010.06.03 11:33:40.
