data_PCOD9099663
_publ_section_title
;
Structure prediction by ZEFSAII (Michael W. Deem and Ramdas Pophale) SiO2 
 PCOD9099663
Probable space group: P -1
;
_chemical_formula_sum "Si O2"
_cell_formula_units_Z 16
_cell_length_a 15.266378
_cell_length_b 14.593128
_cell_length_c 11.273409
_cell_angle_alpha 29.081048
_cell_angle_beta 137.989096
_cell_angle_gamma 141.940976
_cell_volume 739.801861
_symmetry_space_group_name_H-M "P -1"
_symmetry_group_IT_number 2
_symmetry_cell_setting 'triclinic'
loop_
_space_group_symop_operation_xyz
x,y,z
-x,-y,-z
loop_
_atom_site_type_symbol
_atom_site_label
_atom_site_fract_x
_atom_site_fract_y
_atom_site_fract_z
Si Si1 0.487193 0.114760 0.477548
Si Si2 0.455645 0.868797 0.225810
Si Si3 0.839661 0.201136 0.077864
Si Si4 0.705388 0.757816 0.556517
Si Si5 0.801149 0.446377 0.405257
Si Si6 0.800776 0.834870 0.831620
Si Si7 0.839725 0.463553 0.011077
Si Si8 0.923667 0.279774 0.520206
O O1 0.485208 0.015326 0.719311
O O2 0.633378 0.324894 0.398635
O O3 0.348390 0.163366 0.273881
O O4 0.500000 0.000000 0.500000
O O5 0.542061 0.725538 0.456836
O O6 0.282769 0.779992 0.149779
O O7 0.500000 0.000000 0.000000
O O8 0.005516 0.332168 0.059363
O O9 0.785504 0.954111 0.327371
O O10 0.834072 0.310401 0.072940
O O11 0.787792 0.822203 0.691993
O O12 0.720713 0.550629 0.770567
O O13 0.854489 0.294519 0.559571
O O14 0.912756 0.548989 0.506847
O O15 0.823047 0.641847 0.122709
O O16 0.919190 0.057820 0.738338
O O17 0.831642 0.338016 0.264830
#
# Coordination Sequence:
#
# PCOD9099663 Si02
#       8
#     2   2   2   2   2   2   2   2
#     4  11  22  40  67  93 129 164 211 258 319 372
#     4   9  21  40  64  90 126 163 204 259 308 371
#     4  10  21  38  60  87 123 158 207 259 312 370
#     4  10  20  37  61  88 118 162 209 257 311 376
#     4  11  23  38  60  90 123 161 210 259 310 376
#     4  11  21  40  62  87 122 167 208 257 316 377
#     4  11  21  36  63  87 120 163 206 258 317 373
#     4  11  22  38  60  89 124 162 208 259 319 372
#
# _framework density 21.627413000000001
#
# number of rings (size 3 to 8) (size 9 to 14) (size 15 to 20)
#    0.000    1.500    3.750    1.875    0.000    0.500 
#    0.000    0.000   13.750    0.000    0.000    0.000 
#    0.000    0.000    0.000    0.000    0.000    0.000 
#
# Total GULP energy -89297.440781 kJ/mol
# GULP energy per Si atom -5581.090049 kJ/mol
# Density = 2.157819 g / cm^3
# Si number density = 21.627413 Si / 1000 Ang^3
#
#
#
# Elastic Constant Matrix: (Units=GPa)
#
#
# Indices 1 2 3 4 5 6 
#
# 1 54.3764 6.2458 4.5990 4.4243 2.0188 -3.2075
# 2 6.2458 67.2163 11.9662 11.6012 -3.6551 6.4713
# 3 4.5990 11.9662 81.5364 10.3444 -3.1796 -7.5227
# 4 4.4243 11.6012 10.3444 35.1841 2.5033 1.5559
# 5 2.0188 -3.6551 -3.1796 2.5033 26.8517 0.3519
# 6 -3.2075 6.4713 -7.5227 1.5559 0.3519 25.2653
#
#
#
# Elastic Compliance Matrix: (Units=1/GPa)
#
#
# Indices 1 2 3 4 5 6 
#
# 1 0.018994 -0.001764 -0.000393 -0.001705 -0.001593 0.002873
# 2 -0.001764 0.016847 -0.002129 -0.004680 0.002675 -0.004922
# 3 -0.000393 -0.002129 0.013549 -0.003556 0.001614 0.004726
# 4 -0.001705 -0.004680 -0.003556 0.031586 -0.003849 -0.001968
# 5 -0.001593 0.002675 0.001614 -0.003849 0.038285 -0.000703
# 6 0.002873 -0.004922 0.004726 -0.001968 -0.000703 0.042744
#
#
# Mechanical properties :
#
#
# Convention : Reuss Voigt Hill
#
# Bulk Modulus (GPa) = 24.49918 27.63900 26.06909
# Shear Modulus (GPa) = 27.14702 29.48143 28.31423
#
# Velocity S-wave (km/s) = 3.54674 3.69609 3.62219
# Velocity P-wave (km/s) = 5.30330 5.56975 5.43816
#
# Compressibility (1/GPa) = 0.04081770
#
# Stress axis : x y z
#
# Youngs Moduli (GPa) = 52.64945 59.35659 73.80507
#
# Poissons Ratio (x) = 0.10470 0.02902
# Poissons Ratio (y) = 0.09287 0.15714
# Poissons Ratio (z) = 0.02070 0.12638
#
# Static dielectric constant tensor:
#      x y z
#    x 1.813060 0.023620 -0.023360 
#    y 0.023620 1.806580 0.008310 
#    z -0.023360 0.008310 1.787410 
# 
# From -- ./inp_files/454412.got.cif
#   From: 2010.05.17/outbox.cif.g08.bks.cpg/sg2_228_cif.got.tgz:454412.got - 2010.06.03 11:33:40.
