data_PCOD9099223
_publ_section_title
;
Structure prediction by ZEFSAII (Michael W. Deem and Ramdas Pophale) SiO2 
 PCOD9099223
Probable space group: P -1
;
_chemical_formula_sum "Si O2"
_cell_formula_units_Z 16
_cell_length_a 10.249518
_cell_length_b 14.725549
_cell_length_c 8.028722
_cell_angle_alpha 101.097559
_cell_angle_beta 104.838559
_cell_angle_gamma 31.611398
_cell_volume 613.190459
_symmetry_space_group_name_H-M "P -1"
_symmetry_group_IT_number 2
_symmetry_cell_setting 'triclinic'
loop_
_space_group_symop_operation_xyz
x,y,z
-x,-y,-z
loop_
_atom_site_type_symbol
_atom_site_label
_atom_site_fract_x
_atom_site_fract_y
_atom_site_fract_z
Si Si1 0.796551 0.661198 0.737500
Si Si2 0.706454 0.189010 0.012830
Si Si3 0.204047 0.165060 0.425280
Si Si4 0.738962 0.091195 0.332839
Si Si5 0.902028 0.730842 0.083869
Si Si6 0.297848 0.752136 0.330446
Si Si7 0.763106 0.459831 0.606157
Si Si8 0.598913 0.047849 0.869498
O O1 0.863499 0.696588 0.631224
O O2 0.494491 0.843228 0.734938
O O3 0.818907 0.540015 0.656145
O O4 0.928125 0.628743 0.930785
O O5 0.626883 0.292949 0.857013
O O6 0.565397 0.174036 0.936496
O O7 0.695661 0.199368 0.217411
O O8 0.000000 0.000000 0.000000
O O9 0.218821 0.071424 0.270285
O O10 0.987485 0.275605 0.523925
O O11 0.500000 0.000000 0.500000
O O12 0.729002 0.134072 0.534656
O O13 0.006501 0.891973 0.304022
O O14 0.175435 0.597212 0.200770
O O15 0.686084 0.826394 0.180940
O O16 0.761322 0.893501 0.997400
O O17 0.515767 0.583660 0.459374
#
# Coordination Sequence:
#
# PCOD9099223 Si02
#       8
#     2   2   2   2   2   2   2   2
#     4  10  21  37  61  93 119 166 210 261 308 375
#     4  10  20  38  66  92 117 162 218 269 299 369
#     4  11  23  36  56  88 131 169 197 253 322 384
#     4   9  18  37  62  88 119 157 209 259 304 364
#     4  10  20  37  59  90 125 164 202 255 322 383
#     4   9  21  37  60  97 118 156 212 264 313 358
#     4  11  22  38  59  94 133 157 207 262 317 378
#     4  10  21  37  58  88 121 166 213 245 317 384
#
# _framework density 26.093032999999998
#
# number of rings (size 3 to 8) (size 9 to 14) (size 15 to 20)
#    0.000    2.000    2.500    0.750    3.500    1.000 
#    9.000    0.000    0.000    9.750    0.000    0.000 
#    0.000    0.000    0.000    0.000    0.000    0.000 
#
# Total GULP energy -89153.223047 kJ/mol
# GULP energy per Si atom -5572.076440 kJ/mol
# Density = 2.603364 g / cm^3
# Si number density = 26.093033 Si / 1000 Ang^3
#
#
#
# Elastic Constant Matrix: (Units=GPa)
#
#
# Indices 1 2 3 4 5 6 
#
# 1 49.5721 9.8959 20.0154 -10.1455 -25.4027 2.3868
# 2 9.8959 90.2362 38.5695 -24.3664 1.7206 -2.7032
# 3 20.0154 38.5695 116.0586 -22.1327 -4.6984 -11.7628
# 4 -10.1455 -24.3664 -22.1327 57.4458 -3.1669 8.8413
# 5 -25.4027 1.7206 -4.6984 -3.1669 29.7284 -8.1842
# 6 2.3868 -2.7032 -11.7628 8.8413 -8.1842 38.1132
#
#
#
# Elastic Compliance Matrix: (Units=1/GPa)
#
#
# Indices 1 2 3 4 5 6 
#
# 1 0.042333 -0.001855 -0.003602 0.006970 0.037132 0.002462
# 2 -0.001855 0.014086 -0.003844 0.004262 -0.003024 -0.001709
# 3 -0.003602 -0.003844 0.011109 0.001546 -0.000109 0.003000
# 4 0.006970 0.004262 0.001546 0.021937 0.007422 -0.003152
# 5 0.037132 -0.003024 -0.000109 0.007422 0.069225 0.010570
# 6 0.002462 -0.001709 0.003000 -0.003152 0.010570 0.029889
#
#
# Mechanical properties :
#
#
# Convention : Reuss Voigt Hill
#
# Bulk Modulus (GPa) = 20.43920 43.64762 32.04341
# Shear Modulus (GPa) = 22.37239 37.54987 29.96113
#
# Velocity S-wave (km/s) = 2.93133 3.79763 3.39225
# Velocity P-wave (km/s) = 4.39399 5.99945 5.25835
#
# Compressibility (1/GPa) = 0.04892559
#
# Stress axis : x y z
#
# Youngs Moduli (GPa) = 23.62224 70.99262 90.01331
#
# Poissons Ratio (x) = 0.13169 0.32426
# Poissons Ratio (y) = 0.04382 0.34602
# Poissons Ratio (z) = 0.08510 0.27290
#
# Static dielectric constant tensor:
#      x y z
#    x 2.060650 0.036600 0.005690 
#    y 0.036600 2.039740 0.035340 
#    z 0.005690 0.035340 2.300750 
# 
# From -- ./inp_files/279522.got.cif
#   From: 2010.05.17/outbox.cif.g08.bks.cpg/sg2_140_cif.got.tgz:279522.got - 2010.06.03 11:33:40.
