data_PCOD9099504
_publ_section_title
;
Structure prediction by ZEFSAII (Michael W. Deem and Ramdas Pophale) SiO2 
 PCOD9099504
Probable space group: P -1
;
_chemical_formula_sum "Si O2"
_cell_formula_units_Z 14
_cell_length_a 15.955729
_cell_length_b 9.485081
_cell_length_c 11.129212
_cell_angle_alpha 92.941647
_cell_angle_beta 56.181005
_cell_angle_gamma 140.427701
_cell_volume 624.474513
_symmetry_space_group_name_H-M "P -1"
_symmetry_group_IT_number 2
_symmetry_cell_setting 'triclinic'
loop_
_space_group_symop_operation_xyz
x,y,z
-x,-y,-z
loop_
_atom_site_type_symbol
_atom_site_label
_atom_site_fract_x
_atom_site_fract_y
_atom_site_fract_z
Si Si1 0.468681 0.764319 0.859290
Si Si2 0.784187 0.369911 0.104454
Si Si3 0.136132 0.852468 0.022376
Si Si4 0.151516 0.010438 0.691530
Si Si5 0.124435 0.446804 0.299484
Si Si6 0.340656 0.379063 0.764538
Si Si7 0.095926 0.743174 0.319119
O O1 0.444172 0.850367 0.777180
O O2 0.325441 0.463310 0.893892
O O3 0.701748 0.996908 0.732943
O O4 0.357117 0.693391 0.063242
O O5 0.875641 0.531667 0.168535
O O6 0.783217 0.201908 0.084316
O O7 0.987801 0.691515 0.873562
O O8 0.147412 0.876295 0.157251
O O9 0.289112 0.160588 0.849723
O O10 0.177654 0.175839 0.768491
O O11 0.408138 0.284334 0.473745
O O12 0.042355 0.877019 0.641156
O O13 0.067155 0.538401 0.313075
O O14 0.107367 0.436335 0.455521
#
# Coordination Sequence:
#
# PCOD9099504 Si02
#       7
#     2   2   2   2   2   2   2
#     4  11  21  38  64  96 109 165 211 247 279 387
#     4   9  20  37  65  85 121 154 215 240 297 352
#     4  10  20  37  60  92 120 164 184 263 312 343
#     4   9  17  38  58  87 113 168 193 240 290 382
#     4  10  21  36  62  88 118 162 210 240 290 372
#     4  10  21  34  65  87 125 152 207 244 314 343
#     4  11  21  38  65  86 125 159 203 246 306 352
#
# _framework density 22.418849000000002
#
# number of rings (size 3 to 8) (size 9 to 14) (size 15 to 20)
#    0.000    2.000    4.286    0.429    0.000    5.714 
#    0.000    0.714   12.571   12.000    0.000    0.000 
#    0.000    0.000    0.000    0.000    0.000    0.000 
#
# Total GULP energy -77949.306022 kJ/mol
# GULP energy per Si atom -5567.807573 kJ/mol
# Density = 2.236782 g / cm^3
# Si number density = 22.418849 Si / 1000 Ang^3
#
#
#
# Elastic Constant Matrix: (Units=GPa)
#
#
# Indices 1 2 3 4 5 6 
#
# 1 72.0417 28.9550 14.7180 -0.6208 11.0655 15.8957
# 2 28.9550 150.6420 33.0548 11.6276 -3.0556 9.3555
# 3 14.7180 33.0548 53.6697 15.1785 5.3981 -0.4213
# 4 -0.6208 11.6276 15.1785 33.1301 2.0616 -5.2708
# 5 11.0655 -3.0556 5.3981 2.0616 19.3109 -1.6736
# 6 15.8957 9.3555 -0.4213 -5.2708 -1.6736 40.8531
#
#
#
# Elastic Compliance Matrix: (Units=1/GPa)
#
#
# Indices 1 2 3 4 5 6 
#
# 1 0.018968 -0.002986 -0.002942 0.002363 -0.011368 -0.006888
# 2 -0.002986 0.008429 -0.004425 -0.001388 0.004359 -0.000815
# 3 -0.002942 -0.004425 0.025413 -0.009680 -0.005001 0.000966
# 4 0.002363 -0.001388 -0.009680 0.035908 -0.002369 0.003834
# 5 -0.011368 0.004359 -0.005001 -0.002369 0.061122 0.005572
# 6 -0.006888 -0.000815 0.000966 0.003834 0.005572 0.028077
#
#
# Mechanical properties :
#
#
# Convention : Reuss Voigt Hill
#
# Bulk Modulus (GPa) = 31.14737 47.75656 39.45197
# Shear Modulus (GPa) = 23.88642 31.96719 27.92680
#
# Velocity S-wave (km/s) = 3.26768 3.78021 3.53325
# Velocity P-wave (km/s) = 5.30665 6.35622 5.85500
#
# Compressibility (1/GPa) = 0.03210544
#
# Stress axis : x y z
#
# Youngs Moduli (GPa) = 52.72008 118.63459 39.35019
#
# Poissons Ratio (x) = 0.35419 0.11576
# Poissons Ratio (y) = 0.15740 0.17413
# Poissons Ratio (z) = 0.15509 0.52497
#
# Static dielectric constant tensor:
#      x y z
#    x 1.880340 0.048170 -0.027720 
#    y 0.048170 1.872240 0.003570 
#    z -0.027720 0.003570 1.887540 
# 
# From -- ./inp_files/399447.got.cif
#   From: 2010.05.17/outbox.cif.g08.bks.cpg/sg2_200_cif.got.tgz:399447.got - 2010.06.03 11:33:40.
