data_PCOD9099267
_publ_section_title
;
Structure prediction by ZEFSAII (Michael W. Deem and Ramdas Pophale) SiO2 
 PCOD9099267
Probable space group: P -1
;
_chemical_formula_sum "Si O2"
_cell_formula_units_Z 16
_cell_length_a 13.348838
_cell_length_b 15.015646
_cell_length_c 7.686369
_cell_angle_alpha 68.706247
_cell_angle_beta 72.661857
_cell_angle_gamma 29.091539
_cell_volume 697.307362
_symmetry_space_group_name_H-M "P -1"
_symmetry_group_IT_number 2
_symmetry_cell_setting 'triclinic'
loop_
_space_group_symop_operation_xyz
x,y,z
-x,-y,-z
loop_
_atom_site_type_symbol
_atom_site_label
_atom_site_fract_x
_atom_site_fract_y
_atom_site_fract_z
Si Si1 0.257889 0.177214 0.518363
Si Si2 0.699537 0.053053 0.216508
Si Si3 0.697396 0.273342 0.070792
Si Si4 0.819137 0.737419 0.098408
Si Si5 0.246328 0.340627 0.126306
Si Si6 0.205163 0.692640 0.675814
Si Si7 0.327726 0.744776 0.288160
Si Si8 0.182588 0.064508 0.142158
O O1 0.216546 0.241687 0.692777
O O2 0.173696 0.312353 0.316131
O O3 0.500000 0.000000 0.500000
O O4 0.220043 0.092795 0.593533
O O5 0.670555 0.183566 0.204460
O O6 0.469936 0.202548 0.163528
O O7 0.845028 0.931751 0.056108
O O8 0.823800 0.224011 0.191110
O O9 0.500000 0.500000 0.000000
O O10 0.770051 0.204427 0.884387
O O11 0.066102 0.559226 0.080555
O O12 0.759610 0.695062 0.040220
O O13 0.714948 0.911372 0.938406
O O14 0.222237 0.755940 0.469176
O O15 0.426976 0.467003 0.711228
O O16 0.008281 0.780452 0.736059
O O17 0.304238 0.873086 0.264167
#
# Coordination Sequence:
#
# PCOD9099267 Si02
#       8
#     2   2   2   2   2   2   2   2
#     4   9  19  37  59  84 117 149 192 246 290 347
#     4   9  20  36  58  89 113 152 196 236 293 345
#     4   9  19  35  58  83 112 153 189 228 292 336
#     4  10  22  37  60  89 111 159 198 232 306 345
#     4  10  21  39  62  81 122 152 195 250 286 356
#     4  10  20  37  60  79 120 153 188 241 284 340
#     4   9  20  37  56  84 114 151 196 234 284 340
#     4  10  21  35  59  88 114 151 193 237 289 343
#
# _framework density 22.945404
#
# number of rings (size 3 to 8) (size 9 to 14) (size 15 to 20)
#    0.000    2.500    0.000    0.750    5.250    7.500 
#    0.000    6.250   19.250    0.000    0.000    0.000 
#    0.000    0.000    0.000    0.000    0.000    0.000 
#
# Total GULP energy -89188.837541 kJ/mol
# GULP energy per Si atom -5574.302346 kJ/mol
# Density = 2.289318 g / cm^3
# Si number density = 22.945404 Si / 1000 Ang^3
#
#
#
# Elastic Constant Matrix: (Units=GPa)
#
#
# Indices 1 2 3 4 5 6 
#
# 1 33.2035 17.3291 23.6332 6.6439 2.6085 4.3053
# 2 17.3291 97.8091 48.0284 13.5283 -14.8025 4.8692
# 3 23.6332 48.0284 104.1059 0.3424 -9.5555 -2.3167
# 4 6.6439 13.5283 0.3424 36.2202 5.3966 -9.1053
# 5 2.6085 -14.8025 -9.5555 5.3966 33.9778 -3.4351
# 6 4.3053 4.8692 -2.3167 -9.1053 -3.4351 28.1487
#
#
#
# Elastic Compliance Matrix: (Units=1/GPa)
#
#
# Indices 1 2 3 4 5 6 
#
# 1 0.041220 -0.002116 -0.009165 -0.008286 -0.006374 -0.010151
# 2 -0.002116 0.015933 -0.006396 -0.007577 0.006036 -0.004673
# 3 -0.009165 -0.006396 0.014917 0.005057 0.001875 0.005601
# 4 -0.008286 -0.007577 0.005057 0.036274 -0.005584 0.014047
# 5 -0.006374 0.006036 0.001875 -0.005584 0.034212 0.002454
# 6 -0.010151 -0.004673 0.005601 0.014047 0.002454 0.043191
#
#
# Mechanical properties :
#
#
# Convention : Reuss Voigt Hill
#
# Bulk Modulus (GPa) = 27.23484 45.89999 36.56742
# Shear Modulus (GPa) = 21.42804 29.41118 25.41961
#
# Velocity S-wave (km/s) = 3.05925 3.58409 3.33202
# Velocity P-wave (km/s) = 4.93698 6.09714 5.54747
#
# Compressibility (1/GPa) = 0.03671767
#
# Stress axis : x y z
#
# Youngs Moduli (GPa) = 24.26010 62.76092 67.03856
#
# Poissons Ratio (x) = 0.13279 0.61440
# Poissons Ratio (y) = 0.05133 0.42875
# Poissons Ratio (z) = 0.22234 0.40139
#
# Static dielectric constant tensor:
#      x y z
#    x 1.895380 0.018300 -0.058870 
#    y 0.018300 1.900820 -0.040740 
#    z -0.058870 -0.040740 1.906030 
# 
# From -- ./inp_files/311297.got.cif
#   From: 2010.05.17/outbox.cif.g08.bks.cpg/sg2_156_cif.got.tgz:311297.got - 2010.06.03 11:33:40.
