data_PCOD9099692
_publ_section_title
;
Structure prediction by ZEFSAII (Michael W. Deem and Ramdas Pophale) SiO2 
 PCOD9099692
Probable space group: P -1
;
_chemical_formula_sum "Si O2"
_cell_formula_units_Z 16
_cell_length_a 17.871396
_cell_length_b 10.034955
_cell_length_c 9.057518
_cell_angle_alpha 106.158692
_cell_angle_beta 143.225321
_cell_angle_gamma 55.251797
_cell_volume 744.730628
_symmetry_space_group_name_H-M "P -1"
_symmetry_group_IT_number 2
_symmetry_cell_setting 'triclinic'
loop_
_space_group_symop_operation_xyz
x,y,z
-x,-y,-z
loop_
_atom_site_type_symbol
_atom_site_label
_atom_site_fract_x
_atom_site_fract_y
_atom_site_fract_z
Si Si1 0.495408 0.857751 0.762920
Si Si2 0.657494 0.811438 0.568868
Si Si3 0.237162 0.181260 0.947461
Si Si4 0.218056 0.721843 0.366730
Si Si5 0.048230 0.266009 0.928274
Si Si6 0.252842 0.851359 0.183112
Si Si7 0.673302 0.130210 0.215490
Si Si8 0.521559 0.356900 0.775937
O O1 0.681023 0.748933 0.992217
O O2 0.402904 0.811362 0.498873
O O3 0.441733 0.863248 0.845017
O O4 0.423677 0.050790 0.648704
O O5 0.659359 0.886013 0.756518
O O6 0.576358 0.719110 0.430931
O O7 0.845377 0.694767 0.801922
O O8 0.068838 0.295705 0.797956
O O9 0.254801 0.033759 0.829898
O O10 0.176293 0.793745 0.156915
O O11 0.201230 0.867072 0.490475
O O12 0.400784 0.558897 0.613275
O O13 0.120259 0.658617 0.254268
O O14 0.139094 0.056297 0.031356
O O15 0.327295 0.738608 0.119532
O O16 0.581725 0.298886 0.018834
#
# Coordination Sequence:
#
# PCOD9099692 Si02
#       8
#     2   2   2   2   2   2   2   2
#     4  10  16  31  56  90  98 126 185 236 260 284
#     4   9  18  32  59  80 102 133 177 229 267 297
#     4  10  17  33  57  82 105 128 181 232 259 299
#     4  11  25  34  52  80 115 146 169 208 271 332
#     4   9  19  37  57  80 104 135 183 222 263 304
#     4  10  18  37  59  78 102 136 188 224 254 305
#     4  11  22  32  55  81 111 139 176 223 259 315
#     4  12  20  38  54  79 112 141 174 218 268 317
#
# _framework density 21.484276999999999
#
# number of rings (size 3 to 8) (size 9 to 14) (size 15 to 20)
#    0.750    1.000    3.750    1.875    0.000    1.000 
#    0.000    0.000    0.000    0.750    0.000    0.000 
#    0.000    0.000    0.000    0.000    0.000    0.000 
#
# Total GULP energy -89124.980229 kJ/mol
# GULP energy per Si atom -5570.311264 kJ/mol
# Density = 2.143538 g / cm^3
# Si number density = 21.484277 Si / 1000 Ang^3
#
#
#
# Elastic Constant Matrix: (Units=GPa)
#
#
# Indices 1 2 3 4 5 6 
#
# 1 117.1411 16.6828 23.0652 13.5658 -0.7216 -14.7381
# 2 16.6828 32.3482 6.3971 7.3243 -7.1010 -0.4692
# 3 23.0652 6.3971 31.1872 4.4127 -0.0680 -8.6238
# 4 13.5658 7.3243 4.4127 24.2756 -0.2545 2.9459
# 5 -0.7216 -7.1010 -0.0680 -0.2545 35.2191 6.7783
# 6 -14.7381 -0.4692 -8.6238 2.9459 6.7783 18.7565
#
#
#
# Elastic Compliance Matrix: (Units=1/GPa)
#
#
# Indices 1 2 3 4 5 6 
#
# 1 0.011789 -0.004300 -0.004642 -0.005533 -0.002357 0.008742
# 2 -0.004300 0.037628 -0.005470 -0.007011 0.008790 -0.007028
# 3 -0.004642 -0.005470 0.042500 -0.005758 -0.004690 0.018355
# 4 -0.005533 -0.007011 -0.005758 0.049357 0.001817 -0.015578
# 5 -0.002357 0.008790 -0.004690 0.001817 0.033216 -0.016078
# 6 0.008742 -0.007028 0.018355 -0.015578 -0.016078 0.076705
#
#
# Mechanical properties :
#
#
# Convention : Reuss Voigt Hill
#
# Bulk Modulus (GPa) = 15.84979 30.32963 23.08971
# Shear Modulus (GPa) = 16.60857 24.61901 20.61379
#
# Velocity S-wave (km/s) = 2.78341 3.38880 3.10091
# Velocity P-wave (km/s) = 4.20989 5.42768 4.85710
#
# Compressibility (1/GPa) = 0.06309232
#
# Stress axis : x y z
#
# Youngs Moduli (GPa) = 84.82332 26.57593 23.52968
#
# Poissons Ratio (x) = 0.11427 0.10922
# Poissons Ratio (y) = 0.36473 0.12872
# Poissons Ratio (z) = 0.39374 0.14538
#
# Static dielectric constant tensor:
#      x y z
#    x 1.844050 -0.045290 0.083090 
#    y -0.045290 1.826520 -0.027240 
#    z 0.083090 -0.027240 1.829840 
# 
# From -- ./inp_files/307822.got.cif
#   From: 2010.05.17/outbox.cif.g08.bks.cpg/sg2_154_cif.got.tgz:307822.got - 2010.06.03 11:33:40.
