data_PCOD9099714
_publ_section_title
;
Structure prediction by ZEFSAII (Michael W. Deem and Ramdas Pophale) SiO2 
 PCOD9099714
Probable space group: P -1
;
_chemical_formula_sum "Si O2"
_cell_formula_units_Z 16
_cell_length_a 8.526204
_cell_length_b 12.473351
_cell_length_c 10.899433
_cell_angle_alpha 115.673488
_cell_angle_beta 112.915411
_cell_angle_gamma 109.441766
_cell_volume 766.803032
_symmetry_space_group_name_H-M "P -1"
_symmetry_group_IT_number 2
_symmetry_cell_setting 'triclinic'
loop_
_space_group_symop_operation_xyz
x,y,z
-x,-y,-z
loop_
_atom_site_type_symbol
_atom_site_label
_atom_site_fract_x
_atom_site_fract_y
_atom_site_fract_z
Si Si1 0.494306 0.308359 0.363221
Si Si2 0.508993 0.171241 0.797136
Si Si3 0.161660 0.412081 0.557553
Si Si4 0.317669 0.664981 0.297972
Si Si5 0.037065 0.239361 0.203746
Si Si6 0.578831 0.624974 0.187504
Si Si7 0.071816 0.555741 0.807388
Si Si8 0.565826 0.976708 0.878442
O O1 0.647360 0.463062 0.412346
O O2 0.567409 0.309118 0.524594
O O3 0.253554 0.256797 0.266431
O O4 0.507801 0.188290 0.240158
O O5 0.590881 0.193926 0.693085
O O6 0.345336 0.213783 0.761143
O O7 0.470967 0.027938 0.774220
O O8 0.696519 0.310774 0.006999
O O9 0.009537 0.271368 0.352783
O O10 0.252785 0.365870 0.668339
O O11 0.074650 0.488205 0.645395
O O12 0.378276 0.577704 0.188558
O O13 0.069442 0.578081 0.207100
O O14 0.050329 0.370785 0.203638
O O15 0.825068 0.088375 0.012172
O O16 0.500000 0.500000 0.000000
O O17 0.500000 0.000000 0.000000
#
# Coordination Sequence:
#
# PCOD9099714 Si02
#       8
#     2   2   2   2   2   2   2   2
#     4  12  23  40  65  93 124 169 207 257 313 367
#     4   9  21  39  57  89 123 163 206 249 307 376
#     4  12  21  37  66  99 125 156 209 264 313 362
#     4  10  21  36  60  92 123 163 202 259 309 368
#     4  11  22  39  60  93 126 157 211 257 308 369
#     4  10  20  37  61  89 126 157 198 263 313 364
#     4  11  20  34  60  93 131 155 200 261 315 362
#     4  11  26  43  63  88 125 171 209 255 313 377
#
# _framework density 20.865855
#
# number of rings (size 3 to 8) (size 9 to 14) (size 15 to 20)
#    0.750    0.500    3.750    3.750    1.750    0.500 
#    0.000    0.000    2.750    1.500    0.000    0.000 
#    0.000    0.000    0.000    0.000    0.000    0.000 
#
# Total GULP energy -89211.985118 kJ/mol
# GULP energy per Si atom -5575.749070 kJ/mol
# Density = 2.081836 g / cm^3
# Si number density = 20.865855 Si / 1000 Ang^3
#
#
#
# Elastic Constant Matrix: (Units=GPa)
#
#
# Indices 1 2 3 4 5 6 
#
# 1 66.2047 13.3639 2.3205 -1.8150 -16.5956 -3.5884
# 2 13.3639 80.9041 11.3515 -20.1496 10.2456 -22.5336
# 3 2.3205 11.3515 54.4572 -14.2336 -9.9672 -12.5492
# 4 -1.8150 -20.1496 -14.2336 26.4775 1.2101 -2.6849
# 5 -16.5956 10.2456 -9.9672 1.2101 29.3191 -4.8800
# 6 -3.5884 -22.5336 -12.5492 -2.6849 -4.8800 32.1748
#
#
#
# Elastic Compliance Matrix: (Units=1/GPa)
#
#
# Indices 1 2 3 4 5 6 
#
# 1 0.019758 -0.005547 0.002785 -0.001882 0.014385 0.001430
# 2 -0.005547 0.024703 0.003874 0.022789 -0.008259 0.018842
# 3 0.002785 0.003874 0.029018 0.019991 0.012236 0.017866
# 4 -0.001882 0.022789 0.019991 0.068703 -0.000200 0.029250
# 5 0.014385 -0.008259 0.012236 -0.000200 0.050679 0.008262
# 6 0.001430 0.018842 0.017866 0.029250 0.008262 0.055097
#
#
# Mechanical properties :
#
#
# Convention : Reuss Voigt Hill
#
# Bulk Modulus (GPa) = 13.20953 28.40420 20.80686
# Shear Modulus (GPa) = 18.45223 29.22961 23.84092
#
# Velocity S-wave (km/s) = 2.97699 3.74683 3.38388
# Velocity P-wave (km/s) = 4.26158 5.68864 5.02602
#
# Compressibility (1/GPa) = 0.07570294
#
# Stress axis : x y z
#
# Youngs Moduli (GPa) = 50.61151 40.48173 34.46080
#
# Poissons Ratio (x) = 0.22453 -0.09596
# Poissons Ratio (y) = 0.28072 -0.13349
# Poissons Ratio (z) = -0.14093 -0.15682
#
# Static dielectric constant tensor:
#      x y z
#    x 1.760010 -0.015330 0.033910 
#    y -0.015330 1.780770 -0.020450 
#    z 0.033910 -0.020450 1.777070 
# 
# From -- ./inp_files/390758.got.cif
#   From: 2010.05.17/outbox.cif.g08.bks.cpg/sg2_196_cif.got.tgz:390758.got - 2010.06.03 11:33:40.
