data_PCOD9099172
_publ_section_title
;
Structure prediction by ZEFSAII (Michael W. Deem and Ramdas Pophale) SiO2 
 PCOD9099172
Probable space group: P -1
;
_chemical_formula_sum "Si O2"
_cell_formula_units_Z 16
_cell_length_a 16.951468
_cell_length_b 7.424835
_cell_length_c 16.223563
_cell_angle_alpha 104.177076
_cell_angle_beta 24.126099
_cell_angle_gamma 89.683682
_cell_volume 660.365167
_symmetry_space_group_name_H-M "P -1"
_symmetry_group_IT_number 2
_symmetry_cell_setting 'triclinic'
loop_
_space_group_symop_operation_xyz
x,y,z
-x,-y,-z
loop_
_atom_site_type_symbol
_atom_site_label
_atom_site_fract_x
_atom_site_fract_y
_atom_site_fract_z
Si Si1 0.036516 0.261630 0.823642
Si Si2 0.798032 0.950914 0.192303
Si Si3 0.492149 0.429369 0.591975
Si Si4 0.224386 0.134170 0.300692
Si Si5 0.572869 0.300006 0.844576
Si Si6 0.923620 0.646051 0.698515
Si Si7 0.647001 0.253873 0.587047
Si Si8 0.150486 0.308852 0.045288
O O1 0.129543 0.230876 0.824847
O O2 0.167489 0.016504 0.629775
O O3 0.762304 0.372650 0.111265
O O4 0.038989 0.443314 0.785972
O O5 0.787996 0.874803 0.102915
O O6 0.561891 0.177745 0.477437
O O7 0.000000 0.000000 0.000000
O O8 0.500000 0.500000 0.500000
O O9 0.659525 0.373394 0.505827
O O10 0.080800 0.214387 0.360135
O O11 0.120762 0.375460 0.470607
O O12 0.233524 0.948825 0.329304
O O13 0.500000 0.000000 0.000000
O O14 0.648740 0.333866 0.686280
O O15 0.500000 0.500000 0.000000
O O16 0.329149 0.320263 0.065522
O O17 0.923455 0.727526 0.799542
O O18 0.389307 0.297079 0.829790
#
# Coordination Sequence:
#
# PCOD9099172 Si02
#       8
#     2   2   2   2   2   2   2   2
#     4  10  20  37  61  79 111 154 190 235 283 334
#     4  11  22  37  55  81 114 148 187 234 287 336
#     4  10  20  38  57  79 115 153 184 233 287 335
#     4   9  18  36  60  80 113 151 188 234 288 339
#     4  10  20  37  59  88 118 148 188 238 290 342
#     4   9  19  38  59  82 112 151 192 236 281 340
#     4   9  21  37  59  85 111 149 197 232 279 345
#     4  10  21  37  57  85 109 146 198 235 277 343
#
# _framework density 24.229019999999998
#
# number of rings (size 3 to 8) (size 9 to 14) (size 15 to 20)
#    0.000    2.250    1.250    1.125    0.000    6.000 
#    2.250    7.500    0.000    0.000    0.000    0.000 
#    0.000    0.000    0.000    0.000    0.000    0.000 
#
# Total GULP energy -89382.122703 kJ/mol
# GULP energy per Si atom -5586.382669 kJ/mol
# Density = 2.417387 g / cm^3
# Si number density = 24.229020 Si / 1000 Ang^3
#
#
#
# Elastic Constant Matrix: (Units=GPa)
#
#
# Indices 1 2 3 4 5 6 
#
# 1 193.6698 51.2319 49.2354 13.2428 40.1123 -32.3608
# 2 51.2319 96.4114 43.2835 8.6057 5.8644 -27.7578
# 3 49.2354 43.2835 117.6808 20.5881 11.4924 -24.0483
# 4 13.2428 8.6057 20.5881 42.8506 -8.4092 -7.0667
# 5 40.1123 5.8644 11.4924 -8.4092 42.6354 -12.1275
# 6 -32.3608 -27.7578 -24.0483 -7.0667 -12.1275 36.8714
#
#
#
# Elastic Compliance Matrix: (Units=1/GPa)
#
#
# Indices 1 2 3 4 5 6 
#
# 1 0.008001 -0.002743 -0.000876 -0.002607 -0.006975 0.001592
# 2 -0.002743 0.015485 -0.003473 0.001659 0.004183 0.008679
# 3 -0.000876 -0.003473 0.011692 -0.004592 -0.001985 0.002710
# 4 -0.002607 0.001659 -0.004592 0.028916 0.010585 0.004989
# 5 -0.006975 0.004183 -0.001985 0.010585 0.034672 0.009165
# 6 0.001592 0.008679 0.002710 0.004989 0.009165 0.040790
#
#
# Mechanical properties :
#
#
# Convention : Reuss Voigt Hill
#
# Bulk Modulus (GPa) = 47.63136 77.25151 62.44144
# Shear Modulus (GPa) = 31.10663 42.07222 36.58943
#
# Velocity S-wave (km/s) = 3.58698 4.17158 3.89028
# Velocity P-wave (km/s) = 6.07098 7.42670 6.78280
#
# Compressibility (1/GPa) = 0.02099457
#
# Stress axis : x y z
#
# Youngs Moduli (GPa) = 124.99022 64.57758 85.52567
#
# Poissons Ratio (x) = 0.17713 0.07491
# Poissons Ratio (y) = 0.34284 0.29703
# Poissons Ratio (z) = 0.10947 0.22428
#
# Static dielectric constant tensor:
#      x y z
#    x 1.980330 -0.007960 -0.062620 
#    y -0.007960 2.038180 -0.104090 
#    z -0.062620 -0.104090 1.934370 
# 
# From -- ./inp_files/335419.got.cif
#   From: 2010.05.17/outbox.cif.g08.bks.cpg/sg2_168_cif.got.tgz:335419.got - 2010.06.03 11:33:40.
