data_PCOD9099812
_publ_section_title
;
Structure prediction by ZEFSAII (Michael W. Deem and Ramdas Pophale) SiO2 
 PCOD9099812
Probable space group: P -1
;
_chemical_formula_sum "Si O2"
_cell_formula_units_Z 12
_cell_length_a 11.783881
_cell_length_b 5.680569
_cell_length_c 14.645078
_cell_angle_alpha 123.958536
_cell_angle_beta 131.543101
_cell_angle_gamma 68.823352
_cell_volume 608.523081
_symmetry_space_group_name_H-M "P -1"
_symmetry_group_IT_number 2
_symmetry_cell_setting 'triclinic'
loop_
_space_group_symop_operation_xyz
x,y,z
-x,-y,-z
loop_
_atom_site_type_symbol
_atom_site_label
_atom_site_fract_x
_atom_site_fract_y
_atom_site_fract_z
Si Si1 0.485623 0.669680 0.660481
Si Si2 0.088385 0.298732 0.620412
Si Si3 0.179012 0.325937 0.467359
Si Si4 0.626398 0.153456 0.540092
Si Si5 0.679457 0.496926 0.071441
Si Si6 0.374518 0.108043 0.029168
O O1 0.332249 0.490475 0.557735
O O2 0.610643 0.478456 0.633511
O O3 0.429866 0.892188 0.603695
O O4 0.547274 0.781744 0.812759
O O5 0.154362 0.367739 0.570950
O O6 0.222056 0.303072 0.765777
O O7 0.963500 0.535328 0.627274
O O8 0.000000 0.000000 0.500000
O O9 0.213698 0.996895 0.395856
O O10 0.500000 0.000000 0.500000
O O11 0.500000 0.500000 0.000000
O O12 0.699549 0.631112 0.010001
O O13 0.720570 0.171351 0.049081
O O14 0.500000 0.000000 0.000000
#
# Coordination Sequence:
#
# PCOD9099812 Si02
#       6
#     2   2   2   2   2   2
#     4  10  20  37  61  94 120 166 210 265 308 372
#     4  11  24  36  60  90 129 166 206 260 317 374
#     4  10  21  35  59  88 124 161 205 265 314 368
#     4   9  20  35  60  90 123 158 214 267 309 362
#     4  10  23  38  57  88 123 167 205 251 312 378
#     4  10  22  35  61  87 126 160 205 253 315 374
#
# _framework density 19.719875999999999
#
# number of rings (size 3 to 8) (size 9 to 14) (size 15 to 20)
#    0.000    2.000    0.000    3.000   18.667    0.000 
#    0.000    0.000    0.000    2.000    0.000    0.000 
#    0.000    0.000    0.000    0.000    0.000    0.000 
#
# Total GULP energy -66861.736509 kJ/mol
# GULP energy per Si atom -5571.811376 kJ/mol
# Density = 1.967499 g / cm^3
# Si number density = 19.719876 Si / 1000 Ang^3
#
#
#
# Elastic Constant Matrix: (Units=GPa)
#
#
# Indices 1 2 3 4 5 6 
#
# 1 63.5941 35.4638 33.4544 -11.3259 -8.3820 0.8342
# 2 35.4638 109.8203 24.6529 -15.6568 2.1704 10.3902
# 3 33.4544 24.6529 122.6036 -13.0145 -8.8917 6.9501
# 4 -11.3259 -15.6568 -13.0145 19.5558 4.9513 -2.4905
# 5 -8.3820 2.1704 -8.8917 4.9513 27.8838 -8.8790
# 6 0.8342 10.3902 6.9501 -2.4905 -8.8790 52.1310
#
#
#
# Elastic Compliance Matrix: (Units=1/GPa)
#
#
# Indices 1 2 3 4 5 6 
#
# 1 0.022978 -0.006228 -0.004273 0.004269 0.006129 0.002691
# 2 -0.006228 0.012584 -0.000273 0.007219 -0.005145 -0.002904
# 3 -0.004273 -0.000273 0.009871 0.003517 0.000987 -0.000857
# 4 0.004269 0.007219 0.003517 0.064118 -0.009724 -0.000569
# 5 0.006129 -0.005145 0.000987 -0.009724 0.042561 0.007580
# 6 0.002691 -0.002904 -0.000857 -0.000569 0.007580 0.021096
#
#
# Mechanical properties :
#
#
# Convention : Reuss Voigt Hill
#
# Bulk Modulus (GPa) = 41.86715 53.68446 47.77580
# Shear Modulus (GPa) = 24.66481 33.41057 29.03769
#
# Velocity S-wave (km/s) = 3.54044 4.12060 3.84149
# Velocity P-wave (km/s) = 6.16360 7.06553 6.62992
#
# Compressibility (1/GPa) = 0.02388508
#
# Stress axis : x y z
#
# Youngs Moduli (GPa) = 43.51904 79.46634 101.31094
#
# Poissons Ratio (x) = 0.49494 0.43286
# Poissons Ratio (y) = 0.27105 0.02767
# Poissons Ratio (z) = 0.18594 0.02170
#
# Static dielectric constant tensor:
#      x y z
#    x 1.698940 0.013210 -0.003020 
#    y 0.013210 1.878710 0.010160 
#    z -0.003020 0.010160 1.668540 
# 
# From -- ./inp_files/23838.got.cif
#   From: 2010.05.17/outbox.cif.g08.bks.cpg/sg2_12_cif.got.tgz:23838.got - 2010.06.03 11:33:40.
