data_PCOD9099643
_publ_section_title
;
Structure prediction by ZEFSAII (Michael W. Deem and Ramdas Pophale) SiO2 
 PCOD9099643
Probable space group: P -1
;
_chemical_formula_sum "Si O2"
_cell_formula_units_Z 16
_cell_length_a 7.749561
_cell_length_b 18.723322
_cell_length_c 6.978460
_cell_angle_alpha 116.465769
_cell_angle_beta 60.120642
_cell_angle_gamma 125.010807
_cell_volume 700.639994
_symmetry_space_group_name_H-M "P -1"
_symmetry_group_IT_number 2
_symmetry_cell_setting 'triclinic'
loop_
_space_group_symop_operation_xyz
x,y,z
-x,-y,-z
loop_
_atom_site_type_symbol
_atom_site_label
_atom_site_fract_x
_atom_site_fract_y
_atom_site_fract_z
Si Si1 0.758425 0.362289 0.106868
Si Si2 0.146040 0.362692 0.167081
Si Si3 0.260742 0.031722 0.857974
Si Si4 0.032876 0.689427 0.373655
Si Si5 0.314892 0.292481 0.679638
Si Si6 0.614172 0.129188 0.469211
Si Si7 0.737104 0.461290 0.553307
Si Si8 0.449775 0.179512 0.248792
O O1 0.714480 0.441536 0.313236
O O2 0.556152 0.266037 0.154348
O O3 0.957857 0.362001 0.126905
O O4 0.842336 0.364608 0.849144
O O5 0.324518 0.465298 0.232912
O O6 0.044071 0.332340 0.394524
O O7 0.237360 0.299137 0.943827
O O8 0.379624 0.087552 0.665845
O O9 0.312354 0.947311 0.709365
O O10 0.372400 0.094268 0.054899
O O11 0.000000 0.000000 0.000000
O O12 0.208984 0.794024 0.400680
O O13 0.820002 0.672734 0.343363
O O14 0.575164 0.363811 0.608920
O O15 0.276147 0.198896 0.497729
O O16 0.604156 0.172533 0.323241
O O17 0.000000 0.500000 0.500000
#
# Coordination Sequence:
#
# PCOD9099643 Si02
#       8
#     2   2   2   2   2   2   2   2
#     4   9  19  37  60  88 120 163 204 254 306 367
#     4  10  20  37  61  87 122 164 209 256 316 367
#     4  11  25  44  65  98 132 160 205 264 311 375
#     4  11  21  39  62  90 124 159 213 260 312 371
#     4  10  23  37  61  93 123 165 210 264 308 367
#     4  11  24  42  68  94 127 170 205 255 320 380
#     4   9  19  38  60  85 127 166 207 261 314 365
#     4  11  21  42  64  89 125 165 208 246 314 379
#
# _framework density 22.836265000000001
#
# number of rings (size 3 to 8) (size 9 to 14) (size 15 to 20)
#    0.000    1.750    2.500    1.500    0.000    3.500 
#    0.000    0.000    0.000    0.000    0.000    0.000 
#    0.000    0.000    0.000    0.000    0.000    0.000 
#
# Total GULP energy -89250.978868 kJ/mol
# GULP energy per Si atom -5578.186179 kJ/mol
# Density = 2.278429 g / cm^3
# Si number density = 22.836265 Si / 1000 Ang^3
#
#
#
# Elastic Constant Matrix: (Units=GPa)
#
#
# Indices 1 2 3 4 5 6 
#
# 1 50.2079 0.9851 20.0702 -9.1525 3.3558 14.7516
# 2 0.9851 42.7483 23.4747 -1.9104 -2.2406 16.4870
# 3 20.0702 23.4747 198.9087 7.2252 -16.0477 4.6284
# 4 -9.1525 -1.9104 7.2252 40.5977 -3.6146 -0.5404
# 5 3.3558 -2.2406 -16.0477 -3.6146 29.5612 1.2126
# 6 14.7516 16.4870 4.6284 -0.5404 1.2126 23.9975
#
#
#
# Elastic Compliance Matrix: (Units=1/GPa)
#
#
# Indices 1 2 3 4 5 6 
#
# 1 0.030610 0.011840 -0.004404 0.007634 -0.002977 -0.025780
# 2 0.011840 0.038918 -0.005141 0.005047 0.000783 -0.032951
# 3 -0.004404 -0.005141 0.006288 -0.002015 0.003079 0.004825
# 4 0.007634 0.005047 -0.002015 0.027033 0.002025 -0.007265
# 5 -0.002977 0.000783 0.003079 0.002025 0.036189 -0.001085
# 6 -0.025780 -0.032951 0.004825 -0.007265 -0.001085 0.079117
#
#
# Mechanical properties :
#
#
# Convention : Reuss Voigt Hill
#
# Bulk Modulus (GPa) = 12.43668 42.32499 27.38084
# Shear Modulus (GPa) = 20.80165 35.32026 28.06096
#
# Velocity S-wave (km/s) = 3.02139 3.93704 3.50921
# Velocity P-wave (km/s) = 4.19876 6.26430 5.33250
#
# Compressibility (1/GPa) = 0.08040729
#
# Stress axis : x y z
#
# Youngs Moduli (GPa) = 32.66906 25.69509 159.03661
#
# Poissons Ratio (x) = -0.30424 0.70033
# Poissons Ratio (y) = -0.38682 0.81762
# Poissons Ratio (z) = 0.14386 0.13210
#
# Static dielectric constant tensor:
#      x y z
#    x 1.877270 -0.011150 -0.043340 
#    y -0.011150 1.913410 0.012050 
#    z -0.043340 0.012050 1.906110 
# 
# From -- ./inp_files/53335.got.cif
#   From: 2010.05.17/outbox.cif.g08.bks.cpg/sg2_27_cif.got.tgz:53335.got - 2010.06.03 11:33:40.
