data_PCOD9099260
_publ_section_title
;
Structure prediction by ZEFSAII (Michael W. Deem and Ramdas Pophale) SiO2 
 PCOD9099260
Probable space group: P -1
;
_chemical_formula_sum "Si O2"
_cell_formula_units_Z 16
_cell_length_a 14.442369
_cell_length_b 5.501647
_cell_length_c 15.078204
_cell_angle_alpha 101.198955
_cell_angle_beta 122.008534
_cell_angle_gamma 116.906004
_cell_volume 741.814996
_symmetry_space_group_name_H-M "P -1"
_symmetry_group_IT_number 2
_symmetry_cell_setting 'triclinic'
loop_
_space_group_symop_operation_xyz
x,y,z
-x,-y,-z
loop_
_atom_site_type_symbol
_atom_site_label
_atom_site_fract_x
_atom_site_fract_y
_atom_site_fract_z
Si Si1 0.564506 0.934653 0.883389
Si Si2 0.532403 0.445699 0.364295
Si Si3 0.622686 0.400308 0.598514
Si Si4 0.768446 0.121673 0.442941
Si Si5 0.978697 0.809512 0.386214
Si Si6 0.807464 0.191630 0.152199
Si Si7 0.895299 0.669842 0.671967
Si Si8 0.406714 0.209509 0.837968
O O1 0.540849 0.866518 0.760215
O O2 0.476977 0.567389 0.857923
O O3 0.511672 0.129459 0.899333
O O4 0.729105 0.142205 0.017363
O O5 0.593618 0.489977 0.496239
O O6 0.418903 0.496113 0.330283
O O7 0.673392 0.752706 0.404552
O O8 0.797022 0.607426 0.700543
O O9 0.500000 0.000000 0.500000
O O10 0.765939 0.329469 0.528625
O O11 0.936838 0.306112 0.546146
O O12 0.707277 0.073480 0.312603
O O13 0.833257 0.481196 0.244139
O O14 0.000000 0.000000 0.500000
O O15 0.052016 0.053920 0.355707
O O16 0.960625 0.274004 0.225757
O O17 0.689130 0.868409 0.130187
#
# Coordination Sequence:
#
# PCOD9099260 Si02
#       8
#     2   2   2   2   2   2   2   2
#     4  11  26  44  66  96 133 178 225 270 319 389
#     4  10  22  37  65  96 125 163 217 281 329 386
#     4  11  21  39  68  94 126 161 220 277 344 382
#     4  10  20  37  59  97 125 165 212 272 327 384
#     4  11  23  37  63  90 136 171 211 262 328 392
#     4  11  26  40  61  95 132 181 221 261 324 394
#     4  11  22  38  62  93 132 169 214 271 331 392
#     4  11  24  41  69  94 133 177 225 268 318 387
#
# _framework density 21.568718000000001
#
# number of rings (size 3 to 8) (size 9 to 14) (size 15 to 20)
#    0.000    1.250    2.500    3.000   10.500    2.000 
#    0.000    0.625    0.000    1.500    0.000    0.000 
#    0.000    0.000    0.000    0.000    0.000    0.000 
#
# Total GULP energy -89068.946642 kJ/mol
# GULP energy per Si atom -5566.809165 kJ/mol
# Density = 2.151963 g / cm^3
# Si number density = 21.568718 Si / 1000 Ang^3
#
#
#
# Elastic Constant Matrix: (Units=GPa)
#
#
# Indices 1 2 3 4 5 6 
#
# 1 89.5806 -3.7024 8.5694 1.0938 13.6417 -7.8402
# 2 -3.7024 46.2852 2.4028 5.6262 10.3044 -3.3669
# 3 8.5694 2.4028 94.6314 -4.7901 6.0403 -1.3876
# 4 1.0938 5.6262 -4.7901 21.3994 -11.5863 -1.4577
# 5 13.6417 10.3044 6.0403 -11.5863 29.1468 0.0840
# 6 -7.8402 -3.3669 -1.3876 -1.4577 0.0840 24.0333
#
#
#
# Elastic Compliance Matrix: (Units=1/GPa)
#
#
# Indices 1 2 3 4 5 6 
#
# 1 0.013647 0.004901 -0.000985 -0.007879 -0.011061 0.004642
# 2 0.004901 0.028998 -0.000787 -0.018414 -0.019715 0.004568
# 3 -0.000985 -0.000787 0.010839 0.002409 -0.000551 0.000342
# 4 -0.007879 -0.018414 0.002409 0.073548 0.038937 -0.000686
# 5 -0.011061 -0.019715 -0.000551 0.038937 0.062061 -0.004257
# 6 0.004642 0.004568 0.000342 -0.000686 -0.004257 0.043756
#
#
# Mechanical properties :
#
#
# Convention : Reuss Voigt Hill
#
# Bulk Modulus (GPa) = 16.73889 27.22633 21.98261
# Shear Modulus (GPa) = 20.28363 29.79772 25.04067
#
# Velocity S-wave (km/s) = 3.06995 3.72092 3.41100
# Velocity P-wave (km/s) = 4.51040 5.57770 5.07220
#
# Compressibility (1/GPa) = 0.05974112
#
# Stress axis : x y z
#
# Youngs Moduli (GPa) = 73.27698 34.48540 92.26310
#
# Poissons Ratio (x) = -0.16900 0.09088
# Poissons Ratio (y) = -0.35911 0.07259
# Poissons Ratio (z) = 0.07218 0.02713
#
# Static dielectric constant tensor:
#      x y z
#    x 2.098850 0.061960 -0.088760 
#    y 0.061960 2.064360 -0.033070 
#    z -0.088760 -0.033070 1.865490 
# 
# From -- ./inp_files/81570.got.cif
#   From: 2010.05.17/outbox.cif.g08.bks.cpg/sg2_41_cif.got.tgz:81570.got - 2010.06.03 11:33:40.
