data_PCOD9099641
_publ_section_title
;
Structure prediction by ZEFSAII (Michael W. Deem and Ramdas Pophale) SiO2 
 PCOD9099641
Probable space group: P -1
;
_chemical_formula_sum "Si O2"
_cell_formula_units_Z 14
_cell_length_a 10.475415
_cell_length_b 7.931855
_cell_length_c 13.211431
_cell_angle_alpha 98.387751
_cell_angle_beta 127.712715
_cell_angle_gamma 118.166652
_cell_volume 598.723302
_symmetry_space_group_name_H-M "P -1"
_symmetry_group_IT_number 2
_symmetry_cell_setting 'triclinic'
loop_
_space_group_symop_operation_xyz
x,y,z
-x,-y,-z
loop_
_atom_site_type_symbol
_atom_site_label
_atom_site_fract_x
_atom_site_fract_y
_atom_site_fract_z
Si Si1 0.153189 0.202470 0.326460
Si Si2 0.366780 0.212955 0.607830
Si Si3 0.865144 0.115216 0.354670
Si Si4 0.308099 0.664158 0.641185
Si Si5 0.878852 0.530546 0.836406
Si Si6 0.819768 0.997741 0.866386
Si Si7 0.754784 0.202162 0.590958
O O1 0.928438 0.078154 0.274872
O O2 0.347086 0.340884 0.521787
O O3 0.157380 0.355407 0.259748
O O4 0.183063 0.057859 0.257234
O O5 0.628860 0.345893 0.752941
O O6 0.258342 0.122759 0.658328
O O7 0.204649 0.947811 0.452623
O O8 0.718203 0.181016 0.292555
O O9 0.107660 0.375400 0.541624
O O10 0.260300 0.685351 0.503521
O O11 0.569693 0.795829 0.779699
O O12 0.919044 0.395866 0.775036
O O13 0.076014 0.741301 0.026716
O O14 0.000000 0.000000 0.000000
O O15 0.500000 0.000000 0.500000
#
# Coordination Sequence:
#
# PCOD9099641 Si02
#       7
#     2   2   2   2   2   2   2
#     4  11  21  38  62  92 117 161 203 251 297 346
#     4  10  21  36  61  95 118 149 205 257 299 347
#     4  10  22  37  65  90 121 156 201 250 304 354
#     4  10  20  40  62  88 122 159 200 247 301 360
#     4  10  20  37  61  87 121 159 202 245 299 358
#     4  10  23  37  61  91 121 159 206 245 294 360
#     4   9  17  34  60  89 114 150 204 249 286 345
#
# _framework density 23.383088999999998
#
# number of rings (size 3 to 8) (size 9 to 14) (size 15 to 20)
#    0.000    2.000    1.429    2.571    4.000    0.000 
#    0.000   15.000    3.143    0.000    0.000    0.000 
#    0.000    0.000    0.000    0.000    0.000    0.000 
#
# Total GULP energy -78026.326013 kJ/mol
# GULP energy per Si atom -5573.309001 kJ/mol
# Density = 2.332987 g / cm^3
# Si number density = 23.383089 Si / 1000 Ang^3
#
#
#
# Elastic Constant Matrix: (Units=GPa)
#
#
# Indices 1 2 3 4 5 6 
#
# 1 151.3230 10.9925 30.3500 9.9898 5.6241 18.5696
# 2 10.9925 75.1499 6.7930 0.3217 6.6071 24.4328
# 3 30.3500 6.7930 58.3993 9.6064 12.3582 3.6603
# 4 9.9898 0.3217 9.6064 32.9505 -11.2209 -1.6407
# 5 5.6241 6.6071 12.3582 -11.2209 35.6370 6.9909
# 6 18.5696 24.4328 3.6603 -1.6407 6.9909 50.0055
#
#
#
# Elastic Compliance Matrix: (Units=1/GPa)
#
#
# Indices 1 2 3 4 5 6 
#
# 1 0.007758 0.000073 -0.003674 -0.001370 0.000137 -0.002712
# 2 0.000073 0.015979 -0.001013 -0.000724 -0.001361 -0.007594
# 3 -0.003674 -0.001013 0.022676 -0.008878 -0.010152 0.001328
# 4 -0.001370 -0.000724 -0.008878 0.038662 0.015482 0.000617
# 5 0.000137 -0.001361 -0.010152 0.015482 0.037345 -0.003356
# 6 -0.002712 -0.007594 0.001328 0.000617 -0.003356 0.025107
#
#
# Mechanical properties :
#
#
# Convention : Reuss Voigt Hill
#
# Bulk Modulus (GPa) = 26.89295 42.34926 34.62110
# Shear Modulus (GPa) = 29.55915 39.50105 34.53010
#
# Velocity S-wave (km/s) = 3.55931 4.11457 3.84697
# Velocity P-wave (km/s) = 5.33081 6.38148 5.87966
#
# Compressibility (1/GPa) = 0.03718447
#
# Stress axis : x y z
#
# Youngs Moduli (GPa) = 128.89773 62.58059 44.09901
#
# Poissons Ratio (x) = -0.00455 0.16202
# Poissons Ratio (y) = -0.00938 0.04469
# Poissons Ratio (z) = 0.47356 0.06342
#
# Static dielectric constant tensor:
#      x y z
#    x 1.979540 -0.119500 -0.004030 
#    y -0.119500 2.104130 0.005550 
#    z -0.004030 0.005550 1.879710 
# 
# From -- ./inp_files/336615.got.cif
#   From: 2010.05.17/outbox.cif.g08.bks.cpg/sg2_169_cif.got.tgz:336615.got - 2010.06.03 11:33:40.
