data_PCOD9099694
_publ_section_title
;
Structure prediction by ZEFSAII (Michael W. Deem and Ramdas Pophale) SiO2 
 PCOD9099694
Probable space group: P -1
;
_chemical_formula_sum "Si O2"
_cell_formula_units_Z 16
_cell_length_a 8.709991
_cell_length_b 11.665327
_cell_length_c 12.822083
_cell_angle_alpha 133.168384
_cell_angle_beta 79.884121
_cell_angle_gamma 124.925709
_cell_volume 726.429813
_symmetry_space_group_name_H-M "P -1"
_symmetry_group_IT_number 2
_symmetry_cell_setting 'triclinic'
loop_
_space_group_symop_operation_xyz
x,y,z
-x,-y,-z
loop_
_atom_site_type_symbol
_atom_site_label
_atom_site_fract_x
_atom_site_fract_y
_atom_site_fract_z
Si Si1 0.174671 0.869884 0.916797
Si Si2 0.473015 0.986168 0.332794
Si Si3 0.141222 0.914976 0.723495
Si Si4 0.614415 0.215568 0.008373
Si Si5 0.497823 0.732429 0.333814
Si Si6 0.222829 0.299177 0.037436
Si Si7 0.874778 0.578531 0.077205
Si Si8 0.054346 0.056603 0.646621
O O1 0.003745 0.856915 0.988831
O O2 0.088777 0.796059 0.763969
O O3 0.399550 0.083469 0.009337
O O4 0.223494 0.751859 0.909878
O O5 0.712314 0.107572 0.369444
O O6 0.405274 0.903738 0.169985
O O7 0.405233 0.808453 0.313910
O O8 0.448872 0.138424 0.486369
O O9 0.990691 0.894573 0.643950
O O10 0.260911 0.148046 0.896601
O O11 0.704924 0.434804 0.092683
O O12 0.360822 0.490859 0.216232
O O13 0.702583 0.804022 0.299364
O O14 0.222854 0.414229 0.009899
O O15 0.013977 0.811048 0.237578
O O16 0.000000 0.500000 0.000000
O O17 0.000000 0.000000 0.500000
#
# Coordination Sequence:
#
# PCOD9099694 Si02
#       8
#     2   2   2   2   2   2   2   2
#     4  10  21  37  59  88 122 159 192 240 291 356
#     4   9  19  35  59  86 119 156 189 241 300 345
#     4   9  21  38  59  85 117 158 192 242 289 354
#     4  10  20  37  61  89 120 155 200 239 292 343
#     4  10  21  35  59  88 121 154 190 249 296 345
#     4  11  21  36  61  93 116 152 205 241 290 344
#     4  11  22  36  64  93 115 150 202 256 280 343
#     4  10  24  39  59  90 121 151 194 251 305 343
#
# _framework density 22.025527
#
# number of rings (size 3 to 8) (size 9 to 14) (size 15 to 20)
#    0.000    2.000    2.500    0.375    5.250    2.500 
#    0.000    2.500    2.750    1.500    0.000    0.000 
#    0.000    0.000    0.000    0.000    0.000    0.000 
#
# Total GULP energy -89071.310166 kJ/mol
# GULP energy per Si atom -5566.956885 kJ/mol
# Density = 2.197540 g / cm^3
# Si number density = 22.025527 Si / 1000 Ang^3
#
#
#
# Elastic Constant Matrix: (Units=GPa)
#
#
# Indices 1 2 3 4 5 6 
#
# 1 62.3342 25.3109 19.6759 -3.7823 -11.5716 -7.6974
# 2 25.3109 78.0294 9.8625 -28.0906 5.6083 -5.8022
# 3 19.6759 9.8625 93.3317 -11.3839 -2.7426 -12.4455
# 4 -3.7823 -28.0906 -11.3839 24.9741 -6.5551 11.3932
# 5 -11.5716 5.6083 -2.7426 -6.5551 36.7222 -13.5554
# 6 -7.6974 -5.8022 -12.4455 11.3932 -13.5554 44.1852
#
#
#
# Elastic Compliance Matrix: (Units=1/GPa)
#
#
# Indices 1 2 3 4 5 6 
#
# 1 0.024213 -0.012039 -0.004060 -0.012704 0.009764 0.007765
# 2 -0.012039 0.028139 0.002437 0.033208 -0.004848 -0.007766
# 3 -0.004060 0.002437 0.012460 0.007396 0.001182 0.001578
# 4 -0.012704 0.033208 0.007396 0.087212 0.000345 -0.018151
# 5 0.009764 -0.004848 0.001182 0.000345 0.035727 0.012269
# 6 0.007765 -0.007766 0.001578 -0.018151 0.012269 0.031854
#
#
# Mechanical properties :
#
#
# Convention : Reuss Voigt Hill
#
# Bulk Modulus (GPa) = 26.67471 38.15489 32.41480
# Shear Modulus (GPa) = 19.27348 33.09937 26.18643
#
# Velocity S-wave (km/s) = 2.96134 3.88077 3.45180
# Velocity P-wave (km/s) = 4.88158 6.11891 5.53493
#
# Compressibility (1/GPa) = 0.03748869
#
# Stress axis : x y z
#
# Youngs Moduli (GPa) = 41.30030 35.53829 80.25646
#
# Poissons Ratio (x) = 0.42784 0.32581
# Poissons Ratio (y) = 0.49721 -0.19559
# Poissons Ratio (z) = 0.16766 -0.08661
#
# Static dielectric constant tensor:
#      x y z
#    x 1.926150 -0.027920 -0.015060 
#    y -0.027920 1.846340 0.020960 
#    z -0.015060 0.020960 2.033970 
# 
# From -- ./inp_files/393083.got.cif
#   From: 2010.05.17/outbox.cif.g08.bks.cpg/sg2_197_cif.got.tgz:393083.got - 2010.06.03 11:33:40.
