data_PCOD9099721
_publ_section_title
;
Structure prediction by ZEFSAII (Michael W. Deem and Ramdas Pophale) SiO2 
 PCOD9099721
Probable space group: P -1
;
_chemical_formula_sum "Si O2"
_cell_formula_units_Z 14
_cell_length_a 13.676475
_cell_length_b 9.301307
_cell_length_c 7.285674
_cell_angle_alpha 61.848198
_cell_angle_beta 125.036230
_cell_angle_gamma 128.916568
_cell_volume 581.378255
_symmetry_space_group_name_H-M "P -1"
_symmetry_group_IT_number 2
_symmetry_cell_setting 'triclinic'
loop_
_space_group_symop_operation_xyz
x,y,z
-x,-y,-z
loop_
_atom_site_type_symbol
_atom_site_label
_atom_site_fract_x
_atom_site_fract_y
_atom_site_fract_z
Si Si1 0.768326 0.567306 0.399048
Si Si2 0.394122 0.911240 0.271581
Si Si3 0.953215 0.723600 0.864245
Si Si4 0.499894 0.658785 0.533674
Si Si5 0.200706 0.067800 0.352505
Si Si6 0.235260 0.070358 0.821143
Si Si7 0.117553 0.671807 0.345373
O O1 0.849034 0.618010 0.651144
O O2 0.607784 0.436407 0.357943
O O3 0.779448 0.756960 0.220146
O O4 0.848225 0.476974 0.431034
O O5 0.444975 0.784813 0.295949
O O6 0.250008 0.772425 0.294485
O O7 0.500000 0.000000 0.500000
O O8 0.364259 0.051820 0.038662
O O9 0.894069 0.840467 0.835757
O O10 0.095939 0.880923 0.835127
O O11 0.986723 0.600454 0.114320
O O12 0.500000 0.500000 0.500000
O O13 0.655217 0.804759 0.671251
O O14 0.239305 0.092299 0.593940
O O15 0.131589 0.848336 0.366872
#
# Coordination Sequence:
#
# PCOD9099721 Si02
#       7
#     2   2   2   2   2   2   2
#     4  10  20  37  61  90 119 154 201 241 284 351
#     4  10  21  40  60  81 120 155 192 239 299 353
#     4  10  20  38  61  83 121 163 195 233 296 346
#     4  11  20  37  61  87 119 150 197 242 288 351
#     4  11  20  37  62  88 121 153 198 241 292 347
#     4  10  22  39  61  85 117 161 193 240 299 344
#     4  10  21  36  61  88 116 157 199 240 287 348
#
# _framework density 24.080707
#
# number of rings (size 3 to 8) (size 9 to 14) (size 15 to 20)
#    0.000    1.714    4.286    2.571    0.000    0.571 
#    0.000    7.143    0.000    0.000    0.000    0.000 
#    0.000    0.000    0.000    0.000    0.000    0.000 
#
# Total GULP energy -78214.461315 kJ/mol
# GULP energy per Si atom -5586.747237 kJ/mol
# Density = 2.402590 g / cm^3
# Si number density = 24.080707 Si / 1000 Ang^3
#
#
#
# Elastic Constant Matrix: (Units=GPa)
#
#
# Indices 1 2 3 4 5 6 
#
# 1 68.3551 13.7574 41.3242 -2.8561 16.7979 -9.8609
# 2 13.7574 93.7079 32.0091 -8.7425 10.8838 -12.8647
# 3 41.3242 32.0091 123.9992 -10.7256 28.5678 -15.0307
# 4 -2.8561 -8.7425 -10.7256 29.3917 -3.8237 18.2829
# 5 16.7979 10.8838 28.5678 -3.8237 31.5461 -14.4551
# 6 -9.8609 -12.8647 -15.0307 18.2829 -14.4551 58.5861
#
#
#
# Elastic Compliance Matrix: (Units=1/GPa)
#
#
# Indices 1 2 3 4 5 6 
#
# 1 0.019141 -0.000476 -0.005071 -0.001416 -0.005155 0.000986
# 2 -0.000476 0.012005 -0.002427 0.001810 -0.000952 0.001134
# 3 -0.005071 -0.002427 0.012283 0.002916 -0.007713 -0.001048
# 4 -0.001416 0.001810 0.002916 0.043436 -0.003430 -0.013494
# 5 -0.005155 -0.000952 -0.007713 -0.003430 0.045586 0.009263
# 6 0.000986 0.001134 -0.001048 -0.013494 0.009263 0.023711
#
#
# Mechanical properties :
#
#
# Convention : Reuss Voigt Hill
#
# Bulk Modulus (GPa) = 36.38883 51.13818 43.76350
# Shear Modulus (GPa) = 27.58277 37.16955 32.37616
#
# Velocity S-wave (km/s) = 3.38809 3.93305 3.67070
# Velocity P-wave (km/s) = 5.51811 6.47360 6.01486
#
# Compressibility (1/GPa) = 0.02748096
#
# Stress axis : x y z
#
# Youngs Moduli (GPa) = 52.24331 83.29537 81.41108
#
# Poissons Ratio (x) = 0.03963 0.41287
# Poissons Ratio (y) = 0.02486 0.19761
# Poissons Ratio (z) = 0.26495 0.20218
#
# Static dielectric constant tensor:
#      x y z
#    x 1.960490 -0.053140 0.003220 
#    y -0.053140 2.008900 -0.064200 
#    z 0.003220 -0.064200 1.973580 
# 
# From -- ./inp_files/241162.got.cif
#   From: 2010.05.17/outbox.cif.g08.bks.cpg/sg2_121_cif.got.tgz:241162.got - 2010.06.03 11:33:40.
