data_PCOD9099471
_publ_section_title
;
Structure prediction by ZEFSAII (Michael W. Deem and Ramdas Pophale) SiO2 
 PCOD9099471
Probable space group: P -1
;
_chemical_formula_sum "Si O2"
_cell_formula_units_Z 14
_cell_length_a 15.890395
_cell_length_b 16.003398
_cell_length_c 18.938149
_cell_angle_alpha 19.867328
_cell_angle_beta 158.091134
_cell_angle_gamma 158.005814
_cell_volume 551.041035
_symmetry_space_group_name_H-M "P -1"
_symmetry_group_IT_number 2
_symmetry_cell_setting 'triclinic'
loop_
_space_group_symop_operation_xyz
x,y,z
-x,-y,-z
loop_
_atom_site_type_symbol
_atom_site_label
_atom_site_fract_x
_atom_site_fract_y
_atom_site_fract_z
Si Si1 0.524281 0.836012 0.553674
Si Si2 0.035211 0.876605 0.425170
Si Si3 0.996094 0.295967 0.823279
Si Si4 0.736587 0.439674 0.305638
Si Si5 0.792630 0.090103 0.971891
Si Si6 0.272636 0.057291 0.605296
Si Si7 0.051080 0.428158 0.174602
O O1 0.734925 0.869834 0.634264
O O2 0.269085 0.794044 0.350249
O O3 0.456806 0.604345 0.746019
O O4 0.637014 0.136914 0.436918
O O5 0.049689 0.946789 0.462027
O O6 0.066564 0.600642 0.663305
O O7 0.800094 0.849984 0.216675
O O8 0.950589 0.120907 0.998307
O O9 0.197466 0.341346 0.880986
O O10 0.000000 0.500000 0.500000
O O11 0.523276 0.067790 0.758377
O O12 0.889259 0.342351 0.901820
O O13 0.271539 0.331611 0.414824
O O14 0.191407 0.834381 0.779961
O O15 0.000000 0.500000 0.000000
#
# Coordination Sequence:
#
# PCOD9099471 Si02
#       7
#     2   2   2   2   2   2   2
#     4   9  17  35  61  88 126 164 197 250 301 349
#     4  11  22  38  60  92 122 159 209 246 302 367
#     4  10  20  37  60  90 126 161 202 252 301 356
#     4   8  16  32  62  92 120 166 201 240 305 353
#     4  12  24  39  64  91 121 164 203 251 308 360
#     4  11  24  42  62  88 122 157 203 258 304 361
#     4  11  24  44  64  87 120 161 206 252 308 367
#
# _framework density 25.406455999999999
#
# number of rings (size 3 to 8) (size 9 to 14) (size 15 to 20)
#    0.000    1.714    4.286    0.429    0.000    2.857 
#    0.000    0.714    0.000   29.143    0.000    0.000 
#    0.000    0.000    0.000    0.000    0.000    0.000 
#
# Total GULP energy -78265.475673 kJ/mol
# GULP energy per Si atom -5590.391119 kJ/mol
# Density = 2.534863 g / cm^3
# Si number density = 25.406456 Si / 1000 Ang^3
#
#
#
# Elastic Constant Matrix: (Units=GPa)
#
#
# Indices 1 2 3 4 5 6 
#
# 1 135.3936 32.3640 29.3276 0.3822 -35.7251 4.6499
# 2 32.3640 68.0497 7.7935 13.5396 -11.4168 -8.9069
# 3 29.3276 7.7935 71.7320 -4.8971 -15.2298 5.8535
# 4 0.3822 13.5396 -4.8971 22.4813 1.4410 0.1832
# 5 -35.7251 -11.4168 -15.2298 1.4410 46.2755 1.5437
# 6 4.6499 -8.9069 5.8535 0.1832 1.5437 39.1942
#
#
#
# Elastic Compliance Matrix: (Units=1/GPa)
#
#
# Indices 1 2 3 4 5 6 
#
# 1 0.010683 -0.004331 -0.002241 0.001542 0.006466 -0.002179
# 2 -0.004331 0.020378 -0.001442 -0.012648 0.001424 0.005363
# 3 -0.002241 -0.001442 0.016198 0.004251 0.003200 -0.002627
# 4 0.001542 -0.012648 0.004251 0.053162 -0.002058 -0.003860
# 5 0.006466 0.001424 0.003200 -0.002058 0.028137 -0.002020
# 6 -0.002179 0.005363 -0.002627 -0.003860 -0.002020 0.027481
#
#
# Mechanical properties :
#
#
# Convention : Reuss Voigt Hill
#
# Bulk Modulus (GPa) = 32.02097 46.01614 39.01855
# Shear Modulus (GPa) = 27.40046 35.30288 31.35167
#
# Velocity S-wave (km/s) = 3.28759 3.73168 3.51665
# Velocity P-wave (km/s) = 5.20018 6.05958 5.64625
#
# Compressibility (1/GPa) = 0.03122954
#
# Stress axis : x y z
#
# Youngs Moduli (GPa) = 93.60352 49.07326 61.73675
#
# Poissons Ratio (x) = 0.21256 0.13837
# Poissons Ratio (y) = 0.40544 0.08902
# Poissons Ratio (z) = 0.20980 0.07076
#
# Static dielectric constant tensor:
#      x y z
#    x 2.037330 0.034880 -0.013720 
#    y 0.034880 1.988020 0.020560 
#    z -0.013720 0.020560 2.014830 
# 
# From -- ./inp_files/125864.got.cif
#   From: 2010.05.17/outbox.cif.g08.bks.cpg/sg2_63_cif.got.tgz:125864.got - 2010.06.03 11:33:40.
