data_PCOD9099567
_publ_section_title
;
Structure prediction by ZEFSAII (Michael W. Deem and Ramdas Pophale) SiO2 
 PCOD9099567
Probable space group: P -1
;
_chemical_formula_sum "Si O2"
_cell_formula_units_Z 10
_cell_length_a 12.446592
_cell_length_b 8.076484
_cell_length_c 8.706771
_cell_angle_alpha 102.123625
_cell_angle_beta 139.180595
_cell_angle_gamma 105.233006
_cell_volume 420.326272
_symmetry_space_group_name_H-M "P -1"
_symmetry_group_IT_number 2
_symmetry_cell_setting 'triclinic'
loop_
_space_group_symop_operation_xyz
x,y,z
-x,-y,-z
loop_
_atom_site_type_symbol
_atom_site_label
_atom_site_fract_x
_atom_site_fract_y
_atom_site_fract_z
Si Si1 0.852164 0.113580 0.679786
Si Si2 0.043809 0.419666 0.681772
Si Si3 0.475278 0.747390 0.401453
Si Si4 0.704677 0.538860 0.581763
Si Si5 0.243141 0.315801 0.650776
O O1 0.861915 0.256693 0.581641
O O2 0.665602 0.992594 0.585069
O O3 0.823358 0.912899 0.527183
O O4 0.084646 0.281698 0.049551
O O5 0.113363 0.287793 0.653582
O O6 0.000000 0.500000 0.500000
O O7 0.256302 0.629224 0.044711
O O8 0.556505 0.608088 0.431192
O O9 0.425342 0.698852 0.519271
O O10 0.787604 0.577746 0.506022
O O11 0.500000 0.500000 0.000000
#
# Coordination Sequence:
#
# PCOD9099567 Si02
#       5
#     2   2   2   2   2
#     4  10  20  37  61  84 112 150 192 229 283 333
#     4  11  23  37  56  85 121 150 182 235 288 332
#     4   9  17  35  54  81 112 147 183 225 284 324
#     4   9  18  33  61  83 112 143 192 237 274 327
#     4  11  19  37  59  90 110 145 192 240 271 329
#
# _framework density 23.791042000000001
#
# number of rings (size 3 to 8) (size 9 to 14) (size 15 to 20)
#    0.000    2.000    4.000    3.000    0.000    0.800 
#    3.600    4.000    0.000    6.000    0.000    0.000 
#    0.000    0.000    0.000    0.000    0.000    0.000 
#
# Total GULP energy -55877.012654 kJ/mol
# GULP energy per Si atom -5587.701265 kJ/mol
# Density = 2.373689 g / cm^3
# Si number density = 23.791042 Si / 1000 Ang^3
#
#
#
# Elastic Constant Matrix: (Units=GPa)
#
#
# Indices 1 2 3 4 5 6 
#
# 1 97.3344 37.9277 17.1631 14.2947 -1.3059 31.9336
# 2 37.9277 193.7851 62.1881 -9.8018 14.6719 42.2843
# 3 17.1631 62.1881 77.7273 -9.9660 -3.8045 19.8222
# 4 14.2947 -9.8018 -9.9660 32.4183 11.0463 -0.0942
# 5 -1.3059 14.6719 -3.8045 11.0463 28.1969 7.8414
# 6 31.9336 42.2843 19.8222 -0.0942 7.8414 50.1786
#
#
#
# Elastic Compliance Matrix: (Units=1/GPa)
#
#
# Indices 1 2 3 4 5 6 
#
# 1 0.016042 -0.002134 -0.000330 -0.010826 0.008738 -0.009666
# 2 -0.002134 0.008606 -0.005506 0.003916 -0.006086 -0.002761
# 3 -0.000330 -0.005506 0.018786 0.002410 0.005388 -0.003408
# 4 -0.010826 0.003916 0.002410 0.044885 -0.021489 0.006080
# 5 0.008738 -0.006086 0.005388 -0.021489 0.051127 -0.010590
# 6 -0.009666 -0.002761 -0.003408 0.006080 -0.010590 0.031420
#
#
# Mechanical properties :
#
#
# Convention : Reuss Voigt Hill
#
# Bulk Modulus (GPa) = 36.37225 67.04494 51.70859
# Shear Modulus (GPa) = 25.51398 38.92995 32.22196
#
# Velocity S-wave (km/s) = 3.27833 4.04954 3.68417
# Velocity P-wave (km/s) = 5.44531 7.07863 6.31500
#
# Compressibility (1/GPa) = 0.02749349
#
# Stress axis : x y z
#
# Youngs Moduli (GPa) = 62.33634 116.19390 53.23151
#
# Poissons Ratio (x) = 0.24791 0.01759
# Poissons Ratio (y) = 0.13300 0.29311
# Poissons Ratio (z) = 0.02060 0.63980
#
# Static dielectric constant tensor:
#      x y z
#    x 1.993270 -0.008610 0.037760 
#    y -0.008610 1.941660 -0.013660 
#    z 0.037760 -0.013660 1.814090 
# 
# From -- ./inp_files/27956.got.cif
#   From: 2010.05.17/outbox.cif.g08.bks.cpg/sg2_14_cif.got.tgz:27956.got - 2010.06.03 11:33:40.
