data_PCOD9099674
_publ_section_title
;
Structure prediction by ZEFSAII (Michael W. Deem and Ramdas Pophale) SiO2 
 PCOD9099674
Probable space group: P -1
;
_chemical_formula_sum "Si O2"
_cell_formula_units_Z 16
_cell_length_a 15.440393
_cell_length_b 17.812341
_cell_length_c 11.770999
_cell_angle_alpha 44.141250
_cell_angle_beta 27.069858
_cell_angle_gamma 28.840623
_cell_volume 681.362479
_symmetry_space_group_name_H-M "P -1"
_symmetry_group_IT_number 2
_symmetry_cell_setting 'triclinic'
loop_
_space_group_symop_operation_xyz
x,y,z
-x,-y,-z
loop_
_atom_site_type_symbol
_atom_site_label
_atom_site_fract_x
_atom_site_fract_y
_atom_site_fract_z
Si Si1 0.299724 0.328245 0.947889
Si Si2 0.374361 0.910975 0.382566
Si Si3 0.271840 0.765249 0.277111
Si Si4 0.248339 0.545941 0.609004
Si Si5 0.657386 0.911981 0.592950
Si Si6 0.282875 0.957866 0.819645
Si Si7 0.700944 0.301221 0.928901
Si Si8 0.347338 0.706551 0.762877
O O1 0.513078 0.252577 0.884375
O O2 0.241905 0.471801 0.806400
O O3 0.446773 0.195108 0.821716
O O4 0.997157 0.399587 0.245598
O O5 0.434518 0.000696 0.273333
O O6 0.034638 0.053015 0.594956
O O7 0.436747 0.790055 0.532378
O O8 0.198914 0.692813 0.520182
O O9 0.408881 0.660115 0.114054
O O10 0.546619 0.403672 0.350012
O O11 0.500460 0.877942 0.757164
O O12 0.593752 0.033251 0.443185
O O13 0.001363 0.759963 0.357429
O O14 0.223585 0.859008 0.968423
O O15 0.994281 0.142316 0.990943
O O16 0.545700 0.386432 0.139254
#
# Coordination Sequence:
#
# PCOD9099674 Si02
#       8
#     2   2   2   2   2   2   2   2
#     4  10  23  45  61  78 114 160 196 241 290 335
#     4  10  19  38  63  88 116 147 195 245 283 333
#     4  11  22  38  61  90 114 149 194 241 294 341
#     4  10  24  43  59  81 116 156 197 241 282 352
#     4   9  17  29  53  92 115 143 186 233 281 334
#     4  10  16  31  56  88 116 148 184 233 278 341
#     4  10  19  35  60  86 126 147 182 245 288 337
#     4  10  18  39  60  86 120 158 186 227 294 344
#
# _framework density 23.482361999999998
#
# number of rings (size 3 to 8) (size 9 to 14) (size 15 to 20)
#    0.000    2.000    3.750    1.500    0.000    3.000 
#   11.250    0.625    0.000    0.000    0.000    0.000 
#    0.000    0.000    0.000    0.000    0.000    0.000 
#
# Total GULP energy -89304.749658 kJ/mol
# GULP energy per Si atom -5581.546854 kJ/mol
# Density = 2.342891 g / cm^3
# Si number density = 23.482362 Si / 1000 Ang^3
#
#
#
# Elastic Constant Matrix: (Units=GPa)
#
#
# Indices 1 2 3 4 5 6 
#
# 1 123.0271 -6.2412 29.0051 11.4332 -12.1566 -9.9740
# 2 -6.2412 35.3790 1.1222 -7.0218 8.0299 -10.9511
# 3 29.0051 1.1222 46.5857 2.0103 0.9014 -4.9588
# 4 11.4332 -7.0218 2.0103 23.2748 -6.5569 10.2804
# 5 -12.1566 8.0299 0.9014 -6.5569 36.2665 0.6667
# 6 -9.9740 -10.9511 -4.9588 10.2804 0.6667 17.8266
#
#
#
# Elastic Compliance Matrix: (Units=1/GPa)
#
#
# Indices 1 2 3 4 5 6 
#
# 1 0.011693 0.004076 -0.005634 -0.009343 0.001232 0.012821
# 2 0.004076 0.039163 0.000172 -0.006078 -0.008964 0.030227
# 3 -0.005634 0.000172 0.025791 -0.002935 -0.003208 0.005940
# 4 -0.009343 -0.006078 -0.002935 0.072419 0.012336 -0.052003
# 5 0.001232 -0.008964 -0.003208 0.012336 0.032540 -0.014040
# 6 0.012821 0.030227 0.005940 -0.052003 -0.014040 0.114005
#
#
# Mechanical properties :
#
#
# Convention : Reuss Voigt Hill
#
# Bulk Modulus (GPa) = 13.53644 28.08490 20.81067
# Shear Modulus (GPa) = 15.47949 27.54730 21.51340
#
# Velocity S-wave (km/s) = 2.57027 3.42878 3.03008
# Velocity P-wave (km/s) = 3.81908 5.25940 4.59602
#
# Compressibility (1/GPa) = 0.07387464
#
# Stress axis : x y z
#
# Youngs Moduli (GPa) = 85.52228 25.53398 38.77353
#
# Poissons Ratio (x) = -0.10407 0.21846
# Poissons Ratio (y) = -0.34858 -0.00668
# Poissons Ratio (z) = 0.48186 -0.00440
#
# Static dielectric constant tensor:
#      x y z
#    x 1.916190 -0.031810 0.040500 
#    y -0.031810 1.982550 -0.025010 
#    z 0.040500 -0.025010 1.878320 
# 
# From -- ./inp_files/456939.got.cif
#   From: 2010.05.17/outbox.cif.g08.bks.cpg/sg2_229_cif.got.tgz:456939.got - 2010.06.03 11:33:40.
