data_PCOD9099084
_publ_section_title
;
Structure prediction by ZEFSAII (Michael W. Deem and Ramdas Pophale) SiO2 
 PCOD9099084
Probable space group: P -1
;
_chemical_formula_sum "Si O2"
_cell_formula_units_Z 16
_cell_length_a 15.512786
_cell_length_b 8.871059
_cell_length_c 10.357783
_cell_angle_alpha 94.245779
_cell_angle_beta 125.857194
_cell_angle_gamma 130.602301
_cell_volume 590.119244
_symmetry_space_group_name_H-M "P -1"
_symmetry_group_IT_number 2
_symmetry_cell_setting 'triclinic'
loop_
_space_group_symop_operation_xyz
x,y,z
-x,-y,-z
loop_
_atom_site_type_symbol
_atom_site_label
_atom_site_fract_x
_atom_site_fract_y
_atom_site_fract_z
Si Si1 0.265246 0.643413 0.654793
Si Si2 0.081662 0.589493 0.882984
Si Si3 0.296708 0.961920 0.850664
Si Si4 0.647297 0.038440 0.610574
Si Si5 0.186201 0.255594 0.421683
Si Si6 0.605707 0.616802 0.927160
Si Si7 0.325358 0.386417 0.275947
Si Si8 0.166340 0.381772 0.817843
O O1 0.261783 0.820306 0.682746
O O2 0.200033 0.451238 0.472018
O O3 0.149628 0.438028 0.667820
O O4 0.505159 0.882253 0.901854
O O5 0.120358 0.717286 0.788682
O O6 0.148036 0.494996 0.911881
O O7 0.844158 0.300680 0.705605
O O8 0.234276 0.847312 0.141683
O O9 0.322271 0.173225 0.890969
O O10 0.500000 0.000000 0.500000
O O11 0.473926 0.708554 0.391046
O O12 0.392676 0.424855 0.671618
O O13 0.175633 0.225360 0.255813
O O14 0.013008 0.955845 0.330701
O O15 0.745056 0.776429 0.928321
O O16 0.629128 0.474842 0.991487
O O17 0.500000 0.500000 0.500000
#
# Coordination Sequence:
#
# PCOD9099084 Si02
#       8
#     2   2   2   2   2   2   2   2
#     4   9  19  38  60  84 117 158 199 244 295 340
#     4  10  21  37  56  82 117 154 192 237 292 349
#     4   9  19  37  60  83 115 157 197 241 292 348
#     4  11  22  36  57  85 117 154 194 237 288 351
#     4  10  21  37  59  84 118 156 196 243 294 350
#     4  10  21  37  59  88 116 151 198 246 295 349
#     4  10  20  37  59  84 118 154 188 238 297 349
#     4  11  22  36  60  89 116 153 198 245 294 345
#
# _framework density 27.113164000000001
#
# number of rings (size 3 to 8) (size 9 to 14) (size 15 to 20)
#    0.000    2.000    0.000    4.875    0.000    4.500 
#    0.000    0.625    0.000   10.500    0.000    0.000 
#    0.000    0.000    0.000    0.000    0.000    0.000 
#
# Total GULP energy -89491.189472 kJ/mol
# GULP energy per Si atom -5593.199342 kJ/mol
# Density = 2.705145 g / cm^3
# Si number density = 27.113164 Si / 1000 Ang^3
#
#
#
# Elastic Constant Matrix: (Units=GPa)
#
#
# Indices 1 2 3 4 5 6 
#
# 1 180.4486 47.4051 36.2731 3.1670 -2.1378 -10.0216
# 2 47.4051 83.8781 25.4112 10.2560 -2.7212 -10.7672
# 3 36.2731 25.4112 80.9501 -1.7359 -0.4053 -1.8627
# 4 3.1670 10.2560 -1.7359 36.5683 9.0875 0.1724
# 5 -2.1378 -2.7212 -0.4053 9.0875 50.3304 4.2708
# 6 -10.0216 -10.7672 -1.8627 0.1724 4.2708 59.1664
#
#
#
# Elastic Compliance Matrix: (Units=1/GPa)
#
#
# Indices 1 2 3 4 5 6 
#
# 1 0.006815 -0.003194 -0.002035 0.000201 0.000021 0.000507
# 2 -0.003194 0.015680 -0.003535 -0.004632 0.001340 0.002118
# 3 -0.002035 -0.003535 0.014403 0.001972 -0.000475 -0.000506
# 4 0.000201 -0.004632 0.001972 0.030122 -0.005628 -0.000428
# 5 0.000021 0.001340 -0.000475 -0.005628 0.021062 -0.001271
# 6 0.000507 0.002118 -0.000506 -0.000428 -0.001271 0.017450
#
#
# Mechanical properties :
#
#
# Convention : Reuss Voigt Hill
#
# Bulk Modulus (GPa) = 51.62550 62.60616 57.11583
# Shear Modulus (GPa) = 38.60544 44.95886 41.78215
#
# Velocity S-wave (km/s) = 3.77750 4.07651 3.92985
# Velocity P-wave (km/s) = 6.17318 6.73038 6.45779
#
# Compressibility (1/GPa) = 0.01937027
#
# Stress axis : x y z
#
# Youngs Moduli (GPa) = 146.74144 63.77691 69.42991
#
# Poissons Ratio (x) = 0.20369 0.14129
# Poissons Ratio (y) = 0.46866 0.24542
# Poissons Ratio (z) = 0.29861 0.22544
#
# Static dielectric constant tensor:
#      x y z
#    x 2.134990 0.008010 0.060200 
#    y 0.008010 2.101600 -0.015220 
#    z 0.060200 -0.015220 2.159770 
# 
# From -- ./inp_files/447870.got.cif
#   From: 2010.05.17/outbox.cif.g08.bks.cpg/sg2_224_cif.got.tgz:447870.got - 2010.06.03 11:33:40.
