data_PCOD9099246
_publ_section_title
;
Structure prediction by ZEFSAII (Michael W. Deem and Ramdas Pophale) SiO2 
 PCOD9099246
Probable space group: P -1
;
_chemical_formula_sum "Si O2"
_cell_formula_units_Z 16
_cell_length_a 13.018278
_cell_length_b 10.854550
_cell_length_c 16.193028
_cell_angle_alpha 124.153248
_cell_angle_beta 155.091383
_cell_angle_gamma 52.435537
_cell_volume 763.668386
_symmetry_space_group_name_H-M "P -1"
_symmetry_group_IT_number 2
_symmetry_cell_setting 'triclinic'
loop_
_space_group_symop_operation_xyz
x,y,z
-x,-y,-z
loop_
_atom_site_type_symbol
_atom_site_label
_atom_site_fract_x
_atom_site_fract_y
_atom_site_fract_z
Si Si1 0.021682 0.228194 0.054633
Si Si2 0.831281 0.651221 0.224284
Si Si3 0.851688 0.729369 0.453545
Si Si4 0.802331 0.465780 0.698495
Si Si5 0.698519 0.175075 0.102015
Si Si6 0.507367 0.022422 0.414955
Si Si7 0.049671 0.837237 0.207932
Si Si8 0.394008 0.638906 0.065982
O O1 0.126794 0.376383 0.173860
O O2 0.226043 0.098800 0.206174
O O3 0.768979 0.288382 0.946325
O O4 0.975662 0.166152 0.909651
O O5 0.885922 0.725589 0.377909
O O6 0.713708 0.503843 0.093517
O O7 0.080636 0.593298 0.328514
O O8 0.587448 0.775474 0.052415
O O9 0.115211 0.736889 0.687735
O O10 0.652722 0.873127 0.410378
O O11 0.691240 0.602958 0.295228
O O12 0.500000 0.500000 0.500000
O O13 0.947564 0.325777 0.811983
O O14 0.662892 0.236319 0.003706
O O15 0.837044 0.992135 0.140568
O O16 0.676002 0.139062 0.564715
O O17 0.500000 0.000000 0.500000
#
# Coordination Sequence:
#
# PCOD9099246 Si02
#       8
#     2   2   2   2   2   2   2   2
#     4  11  21  39  64  91 125 167 208 256 314 369
#     4  10  23  41  62  89 124 166 209 255 312 367
#     4  10  20  37  59  93 126 163 201 244 314 370
#     4  11  24  47  64  86 125 164 218 272 305 364
#     4  10  21  39  62  93 127 157 202 253 309 382
#     4  11  22  37  63  97 133 164 202 254 312 378
#     4  11  23  40  64  90 124 166 212 259 312 367
#     4  10  21  36  60  94 130 160 198 254 308 377
#
# _framework density 20.951502000000001
#
# number of rings (size 3 to 8) (size 9 to 14) (size 15 to 20)
#    0.000    1.500    1.250    5.625    0.000    4.000 
#    6.750    2.500    0.000    0.000    0.000    0.000 
#    0.000    0.000    0.000    0.000    0.000    0.000 
#
# Total GULP energy -89269.319261 kJ/mol
# GULP energy per Si atom -5579.332454 kJ/mol
# Density = 2.090382 g / cm^3
# Si number density = 20.951502 Si / 1000 Ang^3
#
#
#
# Elastic Constant Matrix: (Units=GPa)
#
#
# Indices 1 2 3 4 5 6 
#
# 1 84.1432 27.6702 40.9913 3.5871 0.3710 -23.1521
# 2 27.6702 95.9972 20.0847 -6.0793 -9.4698 -11.8147
# 3 40.9913 20.0847 101.1336 8.7517 0.3847 -20.8506
# 4 3.5871 -6.0793 8.7517 22.2766 -7.8924 -1.4261
# 5 0.3710 -9.4698 0.3847 -7.8924 39.7284 -1.1601
# 6 -23.1521 -11.8147 -20.8506 -1.4261 -1.1601 37.5530
#
#
#
# Elastic Compliance Matrix: (Units=1/GPa)
#
#
# Indices 1 2 3 4 5 6 
#
# 1 0.017274 -0.003356 -0.004767 -0.001764 -0.001066 0.006848
# 2 -0.003356 0.012683 -0.001398 0.006186 0.004341 0.001514
# 3 -0.004767 -0.001398 0.013322 -0.005071 -0.001315 0.003785
# 4 -0.001764 0.006186 -0.005071 0.053175 0.012117 0.000437
# 5 -0.001066 0.004341 -0.001315 0.012117 0.028674 0.001325
# 6 0.006848 0.001514 0.003785 0.000437 0.001325 0.033486
#
#
# Mechanical properties :
#
#
# Convention : Reuss Voigt Hill
#
# Bulk Modulus (GPa) = 41.25846 50.97404 46.11625
# Shear Modulus (GPa) = 26.92005 32.74680 29.83343
#
# Velocity S-wave (km/s) = 3.58840 3.95774 3.77759
# Velocity P-wave (km/s) = 6.07486 6.72810 6.40981
#
# Compressibility (1/GPa) = 0.02423746
#
# Stress axis : x y z
#
# Youngs Moduli (GPa) = 57.88981 78.84484 75.06512
#
# Poissons Ratio (x) = 0.26460 0.35781
# Poissons Ratio (y) = 0.19427 0.10496
# Poissons Ratio (z) = 0.27594 0.11025
#
# Static dielectric constant tensor:
#      x y z
#    x 1.750760 -0.000300 0.021380 
#    y -0.000300 1.800860 -0.002990 
#    z 0.021380 -0.002990 1.767620 
# 
# From -- ./inp_files/573630.got.cif
#   From: 2010.05.17/outbox.cif.g08.bks.cpg/sg2_287_cif.got.tgz:573630.got - 2010.06.03 11:33:40.
