data_PCOD9099356
_publ_section_title
;
Structure prediction by ZEFSAII (Michael W. Deem and Ramdas Pophale) SiO2 
 PCOD9099356
Probable space group: P -1
;
_chemical_formula_sum "Si O2"
_cell_formula_units_Z 16
_cell_length_a 11.336965
_cell_length_b 16.135483
_cell_length_c 10.406102
_cell_angle_alpha 145.235234
_cell_angle_beta 55.630753
_cell_angle_gamma 138.120673
_cell_volume 719.017358
_symmetry_space_group_name_H-M "P -1"
_symmetry_group_IT_number 2
_symmetry_cell_setting 'triclinic'
loop_
_space_group_symop_operation_xyz
x,y,z
-x,-y,-z
loop_
_atom_site_type_symbol
_atom_site_label
_atom_site_fract_x
_atom_site_fract_y
_atom_site_fract_z
Si Si1 0.747207 0.428868 0.065869
Si Si2 0.599581 0.680993 0.755489
Si Si3 0.241344 0.409450 0.982347
Si Si4 0.576211 0.888139 0.805934
Si Si5 0.686930 0.078209 0.554402
Si Si6 0.952799 0.030072 0.706948
Si Si7 0.066647 0.251742 0.449533
Si Si8 0.520098 0.724268 0.376007
O O1 0.540448 0.359883 0.100733
O O2 0.840493 0.550174 0.290328
O O3 0.838670 0.561085 0.055749
O O4 0.743806 0.254753 0.826367
O O5 0.500000 0.500000 0.500000
O O6 0.595161 0.820515 0.844461
O O7 0.797190 0.733214 0.722614
O O8 0.344314 0.590931 0.231575
O O9 0.376226 0.365043 0.797903
O O10 0.099674 0.230868 0.921341
O O11 0.473320 0.737002 0.566692
O O12 0.773217 0.009980 0.783958
O O13 0.500000 0.000000 0.000000
O O14 0.852988 0.147969 0.443038
O O15 0.500000 0.000000 0.500000
O O16 0.641072 0.915155 0.468473
O O17 0.922218 0.871326 0.610101
O O18 0.000000 0.000000 0.500000
#
# Coordination Sequence:
#
# PCOD9099356 Si02
#       8
#     2   2   2   2   2   2   2   2
#     4  11  21  38  63  91 121 154 200 255 302 358
#     4   9  20  38  60  87 119 156 202 241 292 364
#     4  11  21  37  64  93 118 158 206 250 298 359
#     4  11  22  39  63  92 121 158 201 251 306 355
#     4  12  23  38  55  91 126 153 197 255 314 352
#     4  11  18  36  64  92 115 154 216 250 286 359
#     4  10  20  37  60  86 120 160 205 246 295 363
#     4  11  22  38  61  88 124 160 200 248 307 356
#
# _framework density 22.252592
#
# number of rings (size 3 to 8) (size 9 to 14) (size 15 to 20)
#    0.000    1.250    5.000    2.625    0.000    0.000 
#    4.500    1.250    0.000    6.000    0.000    0.000 
#    0.000    0.000    0.000    0.000    0.000    0.000 
#
# Total GULP energy -89286.043068 kJ/mol
# GULP energy per Si atom -5580.377692 kJ/mol
# Density = 2.220194 g / cm^3
# Si number density = 22.252592 Si / 1000 Ang^3
#
#
#
# Elastic Constant Matrix: (Units=GPa)
#
#
# Indices 1 2 3 4 5 6 
#
# 1 66.1447 19.8611 16.9945 -5.5182 -15.1405 19.4244
# 2 19.8611 78.1112 22.2563 3.8401 -15.5318 19.3670
# 3 16.9945 22.2563 83.5859 14.0666 -19.5318 7.2090
# 4 -5.5182 3.8401 14.0666 33.8497 4.9268 -11.5403
# 5 -15.1405 -15.5318 -19.5318 4.9268 28.2502 -4.7539
# 6 19.4244 19.3670 7.2090 -11.5403 -4.7539 38.6881
#
#
#
# Elastic Compliance Matrix: (Units=1/GPa)
#
#
# Indices 1 2 3 4 5 6 
#
# 1 0.020003 -0.001104 -0.001187 -0.000112 0.007910 -0.008330
# 2 -0.001104 0.017368 -0.000763 -0.005998 0.007994 -0.008805
# 3 -0.001187 -0.000763 0.017306 -0.010370 0.012069 -0.003857
# 4 -0.000112 -0.005998 -0.010370 0.042073 -0.015228 0.015670
# 5 0.007910 0.007994 0.012069 -0.015228 0.053657 -0.008171
# 6 -0.008330 -0.008805 -0.003857 0.015670 -0.008171 0.038827
#
#
# Mechanical properties :
#
#
# Convention : Reuss Voigt Hill
#
# Bulk Modulus (GPa) = 20.58963 38.45172 29.52068
# Shear Modulus (GPa) = 23.63704 31.40626 27.52165
#
# Velocity S-wave (km/s) = 3.26270 3.76087 3.52061
# Velocity P-wave (km/s) = 4.84421 6.01465 5.46088
#
# Compressibility (1/GPa) = 0.04856815
#
# Stress axis : x y z
#
# Youngs Moduli (GPa) = 49.99372 57.57747 57.78185
#
# Poissons Ratio (x) = 0.06356 0.06860
# Poissons Ratio (y) = 0.05519 0.04410
# Poissons Ratio (z) = 0.05935 0.04395
#
# Static dielectric constant tensor:
#      x y z
#    x 1.743650 0.055580 0.020850 
#    y 0.055580 1.867580 0.032530 
#    z 0.020850 0.032530 1.807860 
# 
# From -- ./inp_files/177969.got.cif
#   From: 2010.05.17/outbox.cif.g08.bks.cpg/sg2_89_cif.got.tgz:177969.got - 2010.06.03 11:33:40.
