data_PCOD9099992
_publ_section_title
;
Structure prediction by ZEFSAII (Michael W. Deem and Ramdas Pophale) SiO2 
 PCOD9099992
Probable space group: P -1
;
_chemical_formula_sum "Si O2"
_cell_formula_units_Z 16
_cell_length_a 22.269411
_cell_length_b 8.982478
_cell_length_c 17.724764
_cell_angle_alpha 141.999831
_cell_angle_beta 18.959792
_cell_angle_gamma 140.672252
_cell_volume 702.104357
_symmetry_space_group_name_H-M "P -1"
_symmetry_group_IT_number 2
_symmetry_cell_setting 'triclinic'
loop_
_space_group_symop_operation_xyz
x,y,z
-x,-y,-z
loop_
_atom_site_type_symbol
_atom_site_label
_atom_site_fract_x
_atom_site_fract_y
_atom_site_fract_z
Si Si1 0.681344 0.365318 0.723615
Si Si2 0.728492 0.480808 0.400727
Si Si3 0.384638 0.752779 0.402778
Si Si4 0.198534 0.386704 0.168850
Si Si5 0.476947 0.075130 0.173838
Si Si6 0.413769 0.734323 0.668302
Si Si7 0.807352 0.130587 0.704747
Si Si8 0.937058 0.103910 0.794082
O O1 0.736286 0.372030 0.573542
O O2 0.806004 0.484667 0.691886
O O3 0.605903 0.085263 0.721790
O O4 0.500000 0.500000 0.000000
O O5 0.702655 0.317411 0.440886
O O6 0.562312 0.649083 0.663704
O O7 0.709464 0.332384 0.287078
O O8 0.916528 0.670412 0.261511
O O9 0.430607 0.041650 0.450017
O O10 0.587421 0.657669 0.118598
O O11 0.151721 0.577597 0.237999
O O12 0.080667 0.121099 0.214775
O O13 0.343070 0.956500 0.217705
O O14 0.687522 0.056970 0.892059
O O15 0.500000 0.500000 0.500000
O O16 0.268328 0.820213 0.935406
O O17 0.979929 0.996584 0.421534
#
# Coordination Sequence:
#
# PCOD9099992 Si02
#       8
#     2   2   2   2   2   2   2   2
#     4   9  18  30  55  83 128 162 198 230 297 363
#     4  11  21  39  66  91 118 156 212 254 296 354
#     4  10  20  37  62  90 115 159 209 248 298 365
#     4   9  17  34  55  91 128 160 191 239 305 370
#     4   9  17  30  56  90 116 158 192 241 300 361
#     4  11  24  43  64  84 119 163 209 254 304 356
#     4   9  16  30  56  88 124 148 196 241 296 357
#     4  10  22  35  62  93 124 159 201 248 302 358
#
# _framework density 22.788634999999999
#
# number of rings (size 3 to 8) (size 9 to 14) (size 15 to 20)
#    0.000    2.250    1.250    1.875    5.250    0.000 
#    0.000    1.250    5.500    0.000    0.000    0.000 
#    0.000    0.000    0.000    0.000    0.000    0.000 
#
# Total GULP energy -89396.180892 kJ/mol
# GULP energy per Si atom -5587.261306 kJ/mol
# Density = 2.273677 g / cm^3
# Si number density = 22.788635 Si / 1000 Ang^3
#
#
#
# Elastic Constant Matrix: (Units=GPa)
#
#
# Indices 1 2 3 4 5 6 
#
# 1 92.2904 37.0814 21.6454 -11.9923 8.8921 -2.4817
# 2 37.0814 117.0090 35.5913 -0.6009 2.5355 0.2202
# 3 21.6454 35.5913 94.0875 -8.9103 2.3313 -13.3888
# 4 -11.9923 -0.6009 -8.9103 34.2496 -5.7385 -5.6868
# 5 8.8921 2.5355 2.3313 -5.7385 27.6707 -3.5307
# 6 -2.4817 0.2202 -13.3888 -5.6868 -3.5307 25.3594
#
#
#
# Elastic Compliance Matrix: (Units=1/GPa)
#
#
# Indices 1 2 3 4 5 6 
#
# 1 0.013479 -0.003897 -0.000968 0.004149 -0.002857 0.001375
# 2 -0.003897 0.010994 -0.003985 -0.002822 -0.000422 -0.003272
# 3 -0.000968 -0.003985 0.014022 0.004954 0.001630 0.008681
# 4 0.004149 -0.002822 0.004954 0.035096 0.007309 0.011934
# 5 -0.002857 -0.000422 0.001630 0.007309 0.039459 0.007717
# 6 0.001375 -0.003272 0.008681 0.011934 0.007717 0.047930
#
#
# Mechanical properties :
#
#
# Convention : Reuss Voigt Hill
#
# Bulk Modulus (GPa) = 48.08258 54.66923 51.37591
# Shear Modulus (GPa) = 26.93793 31.39386 29.16590
#
# Velocity S-wave (km/s) = 3.44186 3.71564 3.58137
# Velocity P-wave (km/s) = 6.07786 6.51535 6.30040
#
# Compressibility (1/GPa) = 0.02079755
#
# Stress axis : x y z
#
# Youngs Moduli (GPa) = 74.18732 90.95696 71.31408
#
# Poissons Ratio (x) = 0.35444 0.06900
# Poissons Ratio (y) = 0.28909 0.28418
# Poissons Ratio (z) = 0.07178 0.36245
#
# Static dielectric constant tensor:
#      x y z
#    x 1.887940 -0.008380 -0.028100 
#    y -0.008380 1.876180 0.007870 
#    z -0.028100 0.007870 1.880980 
# 
# From -- ./inp_files/579011.got.cif
#   From: 2010.05.17/outbox.cif.g08.bks.cpg/sg2_290_cif.got.tgz:579011.got - 2010.06.03 11:33:40.
