data_PCOD9099392
_publ_section_title
;
Structure prediction by ZEFSAII (Michael W. Deem and Ramdas Pophale) SiO2 
 PCOD9099392
Probable space group: P -1
;
_chemical_formula_sum "Si O2"
_cell_formula_units_Z 16
_cell_length_a 16.728056
_cell_length_b 8.044073
_cell_length_c 10.958776
_cell_angle_alpha 91.008777
_cell_angle_beta 133.281437
_cell_angle_gamma 54.295761
_cell_volume 664.671905
_symmetry_space_group_name_H-M "P -1"
_symmetry_group_IT_number 2
_symmetry_cell_setting 'triclinic'
loop_
_space_group_symop_operation_xyz
x,y,z
-x,-y,-z
loop_
_atom_site_type_symbol
_atom_site_label
_atom_site_fract_x
_atom_site_fract_y
_atom_site_fract_z
Si Si1 0.454851 0.131364 0.140552
Si Si2 0.089952 0.758197 0.375543
Si Si3 0.176761 0.319301 0.334679
Si Si4 0.313189 0.780602 0.031919
Si Si5 0.687944 0.522441 0.792900
Si Si6 0.551359 0.684465 0.107411
Si Si7 0.667826 0.040165 0.715319
Si Si8 0.916694 0.924983 0.799397
O O1 0.320598 0.321869 0.112522
O O2 0.642234 0.909120 0.403142
O O3 0.448308 0.969036 0.056827
O O4 0.444949 0.288943 0.032181
O O5 0.091262 0.593091 0.287880
O O6 0.247641 0.552078 0.634798
O O7 0.129980 0.875141 0.340783
O O8 0.889498 0.009128 0.218672
O O9 0.076458 0.266837 0.257051
O O10 0.229405 0.235865 0.245498
O O11 0.363012 0.574600 0.175614
O O12 0.443853 0.661980 0.055944
O O13 0.318806 0.934656 0.129742
O O14 0.536428 0.724763 0.536250
O O15 0.886827 0.268353 0.950182
O O16 0.766568 0.072868 0.745769
#
# Coordination Sequence:
#
# PCOD9099392 Si02
#       8
#     2   2   2   2   2   2   2   2
#     4   9  20  42  61  82 115 151 201 234 300 345
#     4  10  21  39  56  89 119 150 201 231 288 354
#     4   8  19  40  60  83 119 153 188 245 284 339
#     4  11  23  36  58  90 117 152 197 234 290 349
#     4  10  20  37  60  88 111 156 194 233 296 347
#     4  10  22  40  60  83 116 156 187 253 286 336
#     4   9  20  38  57  87 120 153 193 235 287 350
#     4   9  20  37  60  85 120 155 185 241 290 335
#
# _framework density 24.072026999999999
#
# number of rings (size 3 to 8) (size 9 to 14) (size 15 to 20)
#    0.750    1.750    0.000    1.125    1.750    4.000 
#    2.250   10.000    0.000    0.000    0.000    0.000 
#    0.000    0.000    0.000    0.000    0.000    0.000 
#
# Total GULP energy -89467.914706 kJ/mol
# GULP energy per Si atom -5591.744669 kJ/mol
# Density = 2.401724 g / cm^3
# Si number density = 24.072027 Si / 1000 Ang^3
#
#
#
# Elastic Constant Matrix: (Units=GPa)
#
#
# Indices 1 2 3 4 5 6 
#
# 1 72.2768 38.6441 14.1781 21.1630 -7.2142 4.9218
# 2 38.6441 68.2853 34.2763 2.8509 4.0408 16.3055
# 3 14.1781 34.2763 9.0842 -18.0024 -20.6526 -23.8132
# 4 21.1630 2.8509 -18.0024 18.4378 -2.9077 -8.5315
# 5 -7.2142 4.0408 -20.6526 -2.9077 28.5685 -6.4539
# 6 4.9218 16.3055 -23.8132 -8.5315 -6.4539 42.2935
#
#
#
# Elastic Compliance Matrix: (Units=1/GPa)
#
#
# Indices 1 2 3 4 5 6 
#
# 1 0.033868 -0.021216 0.003892 -0.028766 0.011994 0.002457
# 2 -0.021216 0.022312 0.005486 0.027082 -0.001289 0.002222
# 3 0.003892 0.005486 -0.006997 -0.019100 -0.009462 -0.011804
# 4 -0.028766 0.027082 -0.019100 0.056567 -0.021335 -0.009693
# 5 0.011994 -0.001289 -0.009462 -0.021335 0.027782 -0.006290
# 6 0.002457 0.002222 -0.011804 -0.009693 -0.006290 0.012941
#
#
# Mechanical properties :
#
#
# Convention : Reuss Voigt Hill
#
# Bulk Modulus (GPa) = 39.20450 35.98259 37.59354
# Shear Modulus (GPa) = 27.98727 22.02984 25.00855
#
# Velocity S-wave (km/s) = 3.41346 3.02845 3.22670
# Velocity P-wave (km/s) = 5.64423 5.21623 5.43444
#
# Compressibility (1/GPa) = 0.02550728
#
# Stress axis : x y z
#
# Youngs Moduli (GPa) = 29.52627 44.81826 -142.92572
#
# Poissons Ratio (x) = 0.95084 0.55621
# Poissons Ratio (y) = 0.62642 0.78404
# Poissons Ratio (z) = -0.11490 -0.24586
#
# Static dielectric constant tensor:
#      x y z
#    x 1.914110 0.052170 0.005410 
#    y 0.052170 2.048360 -0.001620 
#    z 0.005410 -0.001620 1.835040 
# 
# From -- ./inp_files/462138.got.cif
#   From: 2010.05.17/outbox.cif.g08.bks.cpg/sg2_232_cif.got.tgz:462138.got - 2010.06.03 11:33:40.
