data_PCOD9099813
_publ_section_title
;
Structure prediction by ZEFSAII (Michael W. Deem and Ramdas Pophale) SiO2 
 PCOD9099813
Probable space group: P -1
;
_chemical_formula_sum "Si O2"
_cell_formula_units_Z 16
_cell_length_a 12.073764
_cell_length_b 8.119214
_cell_length_c 19.236345
_cell_angle_alpha 74.231168
_cell_angle_beta 46.198988
_cell_angle_gamma 111.798806
_cell_volume 776.290376
_symmetry_space_group_name_H-M "P -1"
_symmetry_group_IT_number 2
_symmetry_cell_setting 'triclinic'
loop_
_space_group_symop_operation_xyz
x,y,z
-x,-y,-z
loop_
_atom_site_type_symbol
_atom_site_label
_atom_site_fract_x
_atom_site_fract_y
_atom_site_fract_z
Si Si1 0.647782 0.622539 0.492615
Si Si2 0.251608 0.128302 0.965325
Si Si3 0.287047 0.436396 0.790544
Si Si4 0.146627 0.260388 0.239126
Si Si5 0.623696 0.463663 0.034389
Si Si6 0.814317 0.500450 0.669480
Si Si7 0.309205 0.746170 0.849070
Si Si8 0.218487 0.569172 0.457769
O O1 0.500000 0.500000 0.500000
O O2 0.470142 0.536149 0.640138
O O3 0.719518 0.495839 0.497894
O O4 0.899310 0.963248 0.343779
O O5 0.281138 0.284768 0.869657
O O6 0.232584 0.241515 0.026195
O O7 0.505479 0.237946 0.848811
O O8 0.995237 0.794784 0.095247
O O9 0.381196 0.688631 0.759950
O O10 0.330479 0.269150 0.181913
O O11 0.076401 0.300668 0.334507
O O12 0.293997 0.492348 0.086221
O O13 0.659544 0.335310 0.084347
O O14 0.844712 0.596418 0.565947
O O15 0.973204 0.467152 0.595581
O O16 0.520044 0.088145 0.714756
O O17 0.000000 0.500000 0.000000
#
# Coordination Sequence:
#
# PCOD9099813 Si02
#       8
#     2   2   2   2   2   2   2   2
#     4  12  26  42  67  90 131 168 208 264 311 385
#     4   9  17  35  67  90 125 160 211 258 299 369
#     4  10  20  37  61  94 120 171 211 243 311 377
#     4  10  22  42  66  94 123 172 211 252 317 370
#     4   9  21  39  66  94 125 163 217 258 304 381
#     4  10  21  41  67  91 131 161 205 272 305 376
#     4  11  24  39  65  94 131 167 205 266 314 369
#     4  11  25  41  62  99 125 165 213 258 322 366
#
# _framework density 20.610844
#
# number of rings (size 3 to 8) (size 9 to 14) (size 15 to 20)
#    0.000    1.750    1.250    2.250    8.750    0.500 
#    2.250    1.875    0.000    0.000    0.000    0.000 
#    0.000    0.000    0.000    0.000    0.000    0.000 
#
# Total GULP energy -89266.806367 kJ/mol
# GULP energy per Si atom -5579.175398 kJ/mol
# Density = 2.056393 g / cm^3
# Si number density = 20.610844 Si / 1000 Ang^3
#
#
#
# Elastic Constant Matrix: (Units=GPa)
#
#
# Indices 1 2 3 4 5 6 
#
# 1 65.0030 6.4609 5.0676 35.5589 -27.0727 23.1680
# 2 6.4609 85.1304 13.5376 18.2263 -2.5821 22.7431
# 3 5.0676 13.5376 49.0150 14.5982 -20.6057 4.4213
# 4 35.5589 18.2263 14.5982 8.4716 6.5829 -1.6634
# 5 -27.0727 -2.5821 -20.6057 6.5829 17.7351 0.5396
# 6 23.1680 22.7431 4.4213 -1.6634 0.5396 27.8815
#
#
#
# Elastic Compliance Matrix: (Units=1/GPa)
#
#
# Indices 1 2 3 4 5 6 
#
# 1 0.003447 -0.002829 -0.008393 0.014470 -0.010329 0.001838
# 2 -0.002829 0.015041 -0.007993 0.000435 -0.011322 -0.008406
# 3 -0.008393 -0.007993 0.021786 0.011818 0.006627 0.010616
# 4 0.014470 0.000435 0.011818 0.006926 0.033754 -0.014494
# 5 -0.010329 -0.011322 0.006627 0.033754 0.033589 0.018131
# 6 0.001838 -0.008406 0.010616 -0.014494 0.018131 0.038296
#
#
# Mechanical properties :
#
#
# Convention : Reuss Voigt Hill
#
# Bulk Modulus (GPa) = 542.44107 27.69784 285.06945
# Shear Modulus (GPa) = 31.61978 22.42313 27.02145
#
# Velocity S-wave (km/s) = 3.92105 3.30195 3.62474
# Velocity P-wave (km/s) = 16.85981 5.29196 12.49516
#
# Compressibility (1/GPa) = 0.00184352
#
# Stress axis : x y z
#
# Youngs Moduli (GPa) = 290.14888 66.48276 45.90188
#
# Poissons Ratio (x) = 0.18811 0.38524
# Poissons Ratio (y) = 0.82095 0.36689
# Poissons Ratio (z) = 2.43516 0.53139
#
# Static dielectric constant tensor:
#      x y z
#    x 1.738220 0.009510 -0.026960 
#    y 0.009510 1.766120 -0.016140 
#    z -0.026960 -0.016140 1.774570 
# 
# From -- ./inp_files/565917.got.cif
#   From: 2010.05.17/outbox.cif.g08.bks.cpg/sg2_283_cif.got.tgz:565917.got - 2010.06.03 11:33:40.
