data_PCOD9099609
_publ_section_title
;
Structure prediction by ZEFSAII (Michael W. Deem and Ramdas Pophale) SiO2 
 PCOD9099609
Probable space group: P -1
;
_chemical_formula_sum "Si O2"
_cell_formula_units_Z 14
_cell_length_a 12.474438
_cell_length_b 9.942789
_cell_length_c 5.647621
_cell_angle_alpha 92.927104
_cell_angle_beta 131.771982
_cell_angle_gamma 86.617171
_cell_volume 521.442785
_symmetry_space_group_name_H-M "P -1"
_symmetry_group_IT_number 2
_symmetry_cell_setting 'triclinic'
loop_
_space_group_symop_operation_xyz
x,y,z
-x,-y,-z
loop_
_atom_site_type_symbol
_atom_site_label
_atom_site_fract_x
_atom_site_fract_y
_atom_site_fract_z
Si Si1 0.221265 0.790687 0.413392
Si Si2 0.625679 0.551239 0.024219
Si Si3 0.504939 0.202710 0.446332
Si Si4 0.884180 0.391269 0.393044
Si Si5 0.946263 0.846518 0.214701
Si Si6 0.722216 0.762602 0.521210
Si Si7 0.292060 0.008976 0.859530
O O1 0.325463 0.807867 0.348805
O O2 0.173687 0.644353 0.424999
O O3 0.069826 0.872259 0.208038
O O4 0.307848 0.861211 0.761626
O O5 0.732949 0.439384 0.055769
O O6 0.731273 0.635912 0.352942
O O7 0.500000 0.500000 0.000000
O O8 0.550896 0.660621 0.753508
O O9 0.436832 0.221433 0.603306
O O10 0.424918 0.076088 0.195819
O O11 0.000000 0.500000 0.500000
O O12 0.972119 0.248091 0.476922
O O13 0.849721 0.967291 0.187407
O O14 0.831451 0.756803 0.899258
O O15 0.739179 0.894125 0.401452
#
# Coordination Sequence:
#
# PCOD9099609 Si02
#       7
#     2   2   2   2   2   2   2
#     4  10  21  37  63  90 119 157 200 241 293 355
#     4  11  21  41  63  85 116 159 199 241 297 350
#     4  10  21  41  60  92 120 152 200 244 295 351
#     4  10  20  37  61  86 118 155 200 240 291 351
#     4   9  21  40  59  89 119 154 199 240 295 353
#     4  10  22  37  62  83 123 159 191 246 297 342
#     4  10  20  39  65  86 120 159 193 245 299 344
#
# _framework density 26.848582
#
# number of rings (size 3 to 8) (size 9 to 14) (size 15 to 20)
#    0.857    1.143    1.429    3.429    0.000    2.286 
#    0.000    8.571    0.000    0.000    0.000    0.000 
#    0.000    0.000    0.000    0.000    0.000    0.000 
#
# Total GULP energy -78217.114053 kJ/mol
# GULP energy per Si atom -5586.936718 kJ/mol
# Density = 2.678747 g / cm^3
# Si number density = 26.848582 Si / 1000 Ang^3
#
#
#
# Elastic Constant Matrix: (Units=GPa)
#
#
# Indices 1 2 3 4 5 6 
#
# 1 216.3567 30.9469 36.8159 2.1275 36.2898 12.0787
# 2 30.9469 110.1457 47.0439 -8.3257 11.6370 9.7319
# 3 36.8159 47.0439 60.4044 -21.0287 16.6475 -10.4088
# 4 2.1275 -8.3257 -21.0287 32.6655 -9.4002 1.1886
# 5 36.2898 11.6370 16.6475 -9.4002 32.9397 2.1908
# 6 12.0787 9.7319 -10.4088 1.1886 2.1908 42.5209
#
#
#
# Elastic Compliance Matrix: (Units=1/GPa)
#
#
# Indices 1 2 3 4 5 6 
#
# 1 0.006699 0.001009 -0.005556 -0.005455 -0.006285 -0.003018
# 2 0.001009 0.016231 -0.017005 -0.006458 0.000438 -0.008006
# 3 -0.005556 -0.017005 0.045538 0.023215 -0.005342 0.016244
# 4 -0.005455 -0.006458 0.023215 0.046730 0.009434 0.006918
# 5 -0.006285 0.000438 -0.005342 0.009434 0.042659 -0.002084
# 6 -0.003018 -0.008006 0.016244 0.006918 -0.002084 0.030098
#
#
# Mechanical properties :
#
#
# Convention : Reuss Voigt Hill
#
# Bulk Modulus (GPa) = 39.42347 68.50224 53.96286
# Shear Modulus (GPa) = 20.87563 39.76523 30.32043
#
# Velocity S-wave (km/s) = 2.79145 3.85267 3.36417
# Velocity P-wave (km/s) = 5.01050 6.73502 5.93572
#
# Compressibility (1/GPa) = 0.02536560
#
# Stress axis : x y z
#
# Youngs Moduli (GPa) = 149.26695 61.60989 21.95972
#
# Poissons Ratio (x) = -0.06216 0.12200
# Poissons Ratio (y) = -0.15061 0.37342
# Poissons Ratio (z) = 0.82929 1.04766
#
# Static dielectric constant tensor:
#      x y z
#    x 2.067930 -0.010250 0.030820 
#    y -0.010250 2.166570 0.017780 
#    z 0.030820 0.017780 2.091290 
# 
# From -- ./inp_files/66563.got.cif
#   From: 2010.05.17/outbox.cif.g08.bks.cpg/sg2_34_cif.got.tgz:66563.got - 2010.06.03 11:33:40.
