data_PCOD9099481
_publ_section_title
;
Structure prediction by ZEFSAII (Michael W. Deem and Ramdas Pophale) SiO2 
 PCOD9099481
Probable space group: P -1
;
_chemical_formula_sum "Si O2"
_cell_formula_units_Z 14
_cell_length_a 16.273591
_cell_length_b 11.175158
_cell_length_c 12.134883
_cell_angle_alpha 32.599333
_cell_angle_beta 150.588781
_cell_angle_gamma 136.596301
_cell_volume 583.644457
_symmetry_space_group_name_H-M "P -1"
_symmetry_group_IT_number 2
_symmetry_cell_setting 'triclinic'
loop_
_space_group_symop_operation_xyz
x,y,z
-x,-y,-z
loop_
_atom_site_type_symbol
_atom_site_label
_atom_site_fract_x
_atom_site_fract_y
_atom_site_fract_z
Si Si1 0.341234 0.171119 0.262013
Si Si2 0.676138 0.003087 0.861089
Si Si3 0.072232 0.557527 0.697595
Si Si4 0.122870 0.799568 0.340412
Si Si5 0.283788 0.776008 0.937465
Si Si6 0.833270 0.386660 0.848137
Si Si7 0.376115 0.231167 0.789936
O O1 0.531411 0.181664 0.514871
O O2 0.308069 0.152771 0.106702
O O3 0.294780 0.924663 0.441546
O O4 0.221275 0.367273 0.014588
O O5 0.834866 0.147139 0.973468
O O6 0.620554 0.862774 0.010070
O O7 0.083373 0.710309 0.484289
O O8 0.907765 0.411535 0.609274
O O9 0.113161 0.706566 0.733402
O O10 0.000000 0.000000 0.000000
O O11 0.284303 0.653059 0.151045
O O12 0.441180 0.725286 0.081049
O O13 0.296529 0.035227 0.776197
O O14 0.743953 0.559650 0.529229
O O15 0.000000 0.500000 0.000000
#
# Coordination Sequence:
#
# PCOD9099481 Si02
#       7
#     2   2   2   2   2   2   2
#     4  10  21  39  62  91 124 160 205 253 307 366
#     4  10  23  40  63  91 124 165 206 254 306 371
#     4  10  20  37  60  91 121 161 202 250 314 368
#     4   9  20  36  54  86 123 155 201 245 301 364
#     4  10  22  39  67  91 118 163 211 261 309 367
#     4  11  25  43  62  94 127 166 208 259 317 369
#     4  10  22  43  64  91 123 164 216 258 307 368
#
# _framework density 23.987203999999998
#
# number of rings (size 3 to 8) (size 9 to 14) (size 15 to 20)
#    0.000    2.000    0.000    2.143    2.000    8.000 
#   10.286    3.571    0.000    0.000    0.000    0.000 
#    0.000    0.000    0.000    0.000    0.000    0.000 
#
# Total GULP energy -78232.453306 kJ/mol
# GULP energy per Si atom -5588.032379 kJ/mol
# Density = 2.393261 g / cm^3
# Si number density = 23.987204 Si / 1000 Ang^3
#
#
#
# Elastic Constant Matrix: (Units=GPa)
#
#
# Indices 1 2 3 4 5 6 
#
# 1 68.3839 30.3792 21.2561 -15.4766 -26.2501 6.5660
# 2 30.3792 172.3603 34.3359 17.6008 -14.8069 5.3641
# 3 21.2561 34.3359 83.1135 -3.4249 -18.1363 1.9280
# 4 -15.4766 17.6008 -3.4249 24.8039 1.4135 -10.5996
# 5 -26.2501 -14.8069 -18.1363 1.4135 33.0232 5.4412
# 6 6.5660 5.3641 1.9280 -10.5996 5.4412 24.5938
#
#
#
# Elastic Compliance Matrix: (Units=1/GPa)
#
#
# Indices 1 2 3 4 5 6 
#
# 1 0.029893 -0.005460 0.000075 0.020174 0.020942 -0.002734
# 2 -0.005460 0.008663 -0.002674 -0.012183 -0.000520 -0.005358
# 3 0.000075 -0.002674 0.014788 0.003281 0.006961 -0.000722
# 4 0.020174 -0.012183 0.003281 0.073569 0.004664 0.027689
# 5 0.020942 -0.000520 0.006961 0.004664 0.052908 -0.015719
# 6 -0.002734 -0.005358 -0.000722 0.027689 -0.015719 0.058027
#
#
# Mechanical properties :
#
#
# Convention : Reuss Voigt Hill
#
# Bulk Modulus (GPa) = 26.86234 55.08887 40.97561
# Shear Modulus (GPa) = 18.77062 32.34327 25.55694
#
# Velocity S-wave (km/s) = 2.80040 3.67598 3.26765
# Velocity P-wave (km/s) = 4.65610 6.40569 5.59965
#
# Compressibility (1/GPa) = 0.03722684
#
# Stress axis : x y z
#
# Youngs Moduli (GPa) = 33.45313 115.43501 67.62240
#
# Poissons Ratio (x) = 0.63023 -0.00507
# Poissons Ratio (y) = 0.18264 0.18080
# Poissons Ratio (z) = -0.00251 0.30863
#
# Static dielectric constant tensor:
#      x y z
#    x 1.973450 0.047250 0.036670 
#    y 0.047250 1.957640 0.038960 
#    z 0.036670 0.038960 1.882990 
# 
# From -- ./inp_files/69630.got.cif
#   From: 2010.05.17/outbox.cif.g08.bks.cpg/sg2_35_cif.got.tgz:69630.got - 2010.06.03 11:33:40.
