data_PCOD9099069
_publ_section_title
;
Structure prediction by ZEFSAII (Michael W. Deem and Ramdas Pophale) SiO2 
 PCOD9099069
Probable space group: P -1
;
_chemical_formula_sum "Si O2"
_cell_formula_units_Z 14
_cell_length_a 7.993351
_cell_length_b 27.517716
_cell_length_c 16.234711
_cell_angle_alpha 22.499199
_cell_angle_beta 24.431172
_cell_angle_gamma 34.320493
_cell_volume 562.551759
_symmetry_space_group_name_H-M "P -1"
_symmetry_group_IT_number 2
_symmetry_cell_setting 'triclinic'
loop_
_space_group_symop_operation_xyz
x,y,z
-x,-y,-z
loop_
_atom_site_type_symbol
_atom_site_label
_atom_site_fract_x
_atom_site_fract_y
_atom_site_fract_z
Si Si1 0.374789 0.460487 0.710233
Si Si2 0.333499 0.431845 0.057715
Si Si3 0.609829 0.948161 0.836748
Si Si4 0.148304 0.087969 0.046760
Si Si5 0.775580 0.800618 0.426646
Si Si6 0.508613 0.620940 0.553748
Si Si7 0.380927 0.808291 0.003532
O O1 0.500000 0.500000 0.500000
O O2 0.910681 0.487580 0.894166
O O3 0.597599 0.555816 0.528803
O O4 0.440304 0.313151 0.925777
O O5 0.453674 0.309433 0.243734
O O6 0.981836 0.377218 0.235540
O O7 0.610189 0.529940 0.725471
O O8 0.486191 0.088113 0.656661
O O9 0.927651 0.943339 0.774400
O O10 0.182098 0.867941 0.184498
O O11 0.675767 0.878978 0.829340
O O12 0.297385 0.237928 0.743913
O O13 0.777019 0.088478 0.149242
O O14 0.500000 0.000000 0.000000
O O15 0.991844 0.755377 0.317700
#
# Coordination Sequence:
#
# PCOD9099069 Si02
#       7
#     2   2   2   2   2   2   2
#     4  10  16  31  54  76 110 139 175 221 264 315
#     4   9  17  33  55  71 113 141 172 217 269 320
#     4   9  17  31  48  77 106 131 177 225 250 299
#     4  12  19  32  55  79 108 136 180 228 258 312
#     4   9  14  30  50  72 100 133 172 213 253 300
#     4   9  20  32  49  82 108 139 175 218 269 318
#     4  10  19  28  52  85 100 134 182 217 269 303
#
# _framework density 24.886600000000001
#
# number of rings (size 3 to 8) (size 9 to 14) (size 15 to 20)
#    1.714    0.571    4.286    0.857    0.000    0.571 
#    0.000    0.714    0.000    3.429    0.000    5.000 
#    0.000    0.000    0.000    0.000    0.000    0.000 
#
# Total GULP energy -78179.054499 kJ/mol
# GULP energy per Si atom -5584.218179 kJ/mol
# Density = 2.482996 g / cm^3
# Si number density = 24.886600 Si / 1000 Ang^3
#
#
#
# Elastic Constant Matrix: (Units=GPa)
#
#
# Indices 1 2 3 4 5 6 
#
# 1 87.9436 35.8946 57.5351 2.8743 23.0646 14.8526
# 2 35.8946 118.7968 52.1652 -21.5783 3.0694 19.4075
# 3 57.5351 52.1652 129.5866 -11.1347 35.1370 2.6866
# 4 2.8743 -21.5783 -11.1347 36.1509 -0.6730 10.1013
# 5 23.0646 3.0694 35.1370 -0.6730 43.1467 3.4542
# 6 14.8526 19.4075 2.6866 10.1013 3.4542 33.6507
#
#
#
# Elastic Compliance Matrix: (Units=1/GPa)
#
#
# Indices 1 2 3 4 5 6 
#
# 1 0.018582 -0.002740 -0.006192 -0.003838 -0.004394 -0.004524
# 2 -0.002740 0.015175 -0.005293 0.010814 0.005741 -0.010956
# 3 -0.006192 -0.005293 0.014916 0.000243 -0.008892 0.005434
# 4 -0.003838 0.010814 0.000243 0.039203 0.003028 -0.016641
# 5 -0.004394 0.005741 -0.008892 0.003028 0.032800 -0.004938
# 6 -0.004524 -0.010956 0.005434 -0.016641 -0.004938 0.043101
#
#
# Mechanical properties :
#
#
# Convention : Reuss Voigt Hill
#
# Bulk Modulus (GPa) = 49.44660 69.72409 59.58534
# Shear Modulus (GPa) = 25.12971 35.30514 30.21743
#
# Velocity S-wave (km/s) = 3.18113 3.77057 3.48832
# Velocity P-wave (km/s) = 5.77968 6.85812 6.34187
#
# Compressibility (1/GPa) = 0.02022384
#
# Stress axis : x y z
#
# Youngs Moduli (GPa) = 53.81562 65.89575 67.04370
#
# Poissons Ratio (x) = 0.18057 0.41512
# Poissons Ratio (y) = 0.14747 0.35484
# Poissons Ratio (z) = 0.33321 0.34876
#
# Static dielectric constant tensor:
#      x y z
#    x 2.099730 0.021250 -0.041260 
#    y 0.021250 1.928340 0.040420 
#    z -0.041260 0.040420 1.992810 
# 
# From -- ./inp_files/406108.got.cif
#   From: 2010.05.17/outbox.cif.g08.bks.cpg/sg2_204_cif.got.tgz:406108.got - 2010.06.03 11:33:40.
