data_PCOD9099065
_publ_section_title
;
Structure prediction by ZEFSAII (Michael W. Deem and Ramdas Pophale) SiO2 
 PCOD9099065
Probable space group: P -1
;
_chemical_formula_sum "Si O2"
_cell_formula_units_Z 16
_cell_length_a 7.379541
_cell_length_b 11.794817
_cell_length_c 9.809195
_cell_angle_alpha 102.385807
_cell_angle_beta 118.532612
_cell_angle_gamma 57.532738
_cell_volume 631.843583
_symmetry_space_group_name_H-M "P -1"
_symmetry_group_IT_number 2
_symmetry_cell_setting 'triclinic'
loop_
_space_group_symop_operation_xyz
x,y,z
-x,-y,-z
loop_
_atom_site_type_symbol
_atom_site_label
_atom_site_fract_x
_atom_site_fract_y
_atom_site_fract_z
Si Si1 0.113247 0.496704 0.329658
Si Si2 0.873592 0.070497 0.615044
Si Si3 0.531609 0.778060 0.643623
Si Si4 0.840803 0.428500 0.894184
Si Si5 0.724607 0.447356 0.312799
Si Si6 0.831252 0.827077 0.542017
Si Si7 0.552473 0.949022 0.200206
Si Si8 0.130978 0.133125 0.956019
O O1 0.307750 0.367834 0.278207
O O2 0.087065 0.612045 0.249683
O O3 0.241008 0.495681 0.515765
O O4 0.874554 0.490384 0.275052
O O5 0.679449 0.212029 0.520985
O O6 0.995319 0.088970 0.792252
O O7 0.773977 0.974872 0.598440
O O8 0.000000 0.000000 0.500000
O O9 0.702691 0.783883 0.592781
O O10 0.443382 0.910256 0.737938
O O11 0.548816 0.499065 0.818327
O O12 0.962024 0.285831 0.982323
O O13 0.000000 0.500000 0.000000
O O14 0.890113 0.285916 0.362705
O O15 0.704348 0.850955 0.353927
O O16 0.667956 0.876085 0.080524
O O17 0.267926 0.020937 0.092225
#
# Coordination Sequence:
#
# PCOD9099065 Si02
#       8
#     2   2   2   2   2   2   2   2
#     4  10  22  40  68  96 127 174 223 276 326 378
#     4  11  20  33  60  91 120 163 209 262 316 379
#     4  10  20  38  60  90 125 163 213 264 322 388
#     4  12  26  42  66  97 135 178 215 266 339 394
#     4  10  23  42  67  99 128 168 230 275 320 394
#     4  10  21  39  63  90 124 166 211 266 325 379
#     4  10  20  37  59  83 127 160 199 260 315 377
#     4  11  23  38  58  95 127 164 215 259 322 396
#
# _framework density 25.322721999999999
#
# number of rings (size 3 to 8) (size 9 to 14) (size 15 to 20)
#    0.000    1.500    2.500    4.125    1.750    2.500 
#    0.000    3.750    0.000    4.500    0.000    0.000 
#    0.000    0.000    0.000    0.000    0.000    0.000 
#
# Total GULP energy -89111.005411 kJ/mol
# GULP energy per Si atom -5569.437838 kJ/mol
# Density = 2.526509 g / cm^3
# Si number density = 25.322722 Si / 1000 Ang^3
#
#
#
# Elastic Constant Matrix: (Units=GPa)
#
#
# Indices 1 2 3 4 5 6 
#
# 1 66.3401 12.7926 19.3152 -14.2603 15.7115 -5.5903
# 2 12.7926 98.8228 32.3181 -24.8888 20.4408 -24.0377
# 3 19.3152 32.3181 153.7299 -21.3460 35.6178 -14.5130
# 4 -14.2603 -24.8888 -21.3460 47.6598 -3.1639 9.0733
# 5 15.7115 20.4408 35.6178 -3.1639 45.0091 -4.8752
# 6 -5.5903 -24.0377 -14.5130 9.0733 -4.8752 29.1610
#
#
#
# Elastic Compliance Matrix: (Units=1/GPa)
#
#
# Indices 1 2 3 4 5 6 
#
# 1 0.017524 0.000479 -0.000200 0.004795 -0.005709 0.001209
# 2 0.000479 0.015036 -0.000286 0.005669 -0.005321 0.009690
# 3 -0.000200 -0.000286 0.008617 0.002840 -0.006193 0.002095
# 4 0.004795 0.005669 0.002840 0.026732 -0.004847 -0.002122
# 5 -0.005709 -0.005321 -0.006193 -0.004847 0.030984 -0.001875
# 6 0.001209 0.009690 0.002095 -0.002122 -0.001875 0.043901
#
#
# Mechanical properties :
#
#
# Convention : Reuss Voigt Hill
#
# Bulk Modulus (GPa) = 24.29320 49.74942 37.02131
# Shear Modulus (GPa) = 31.94278 41.33046 36.63662
#
# Velocity S-wave (km/s) = 3.55551 4.04437 3.80779
# Velocity P-wave (km/s) = 5.14488 6.44190 5.82957
#
# Compressibility (1/GPa) = 0.04116378
#
# Stress axis : x y z
#
# Youngs Moduli (GPa) = 57.06386 66.50571 116.04695
#
# Poissons Ratio (x) = -0.03188 0.02321
# Poissons Ratio (y) = -0.02735 0.03323
# Poissons Ratio (z) = 0.01141 0.01904
#
# Static dielectric constant tensor:
#      x y z
#    x 3.029270 0.767240 -0.267770 
#    y 0.767240 2.871550 -0.413790 
#    z -0.267770 -0.413790 2.230860 
# 
# From -- ./inp_files/396125.got.cif
#   From: 2010.05.17/outbox.cif.g08.bks.cpg/sg2_199_cif.got.tgz:396125.got - 2010.06.03 11:33:40.
