data_PCOD9099973
_publ_section_title
;
Structure prediction by ZEFSAII (Michael W. Deem and Ramdas Pophale) SiO2 
 PCOD9099973
Probable space group: P -1
;
_chemical_formula_sum "Si O2"
_cell_formula_units_Z 14
_cell_length_a 8.920121
_cell_length_b 9.366525
_cell_length_c 12.837730
_cell_angle_alpha 106.904103
_cell_angle_beta 32.594801
_cell_angle_gamma 95.756615
_cell_volume 530.613295
_symmetry_space_group_name_H-M "P -1"
_symmetry_group_IT_number 2
_symmetry_cell_setting 'triclinic'
loop_
_space_group_symop_operation_xyz
x,y,z
-x,-y,-z
loop_
_atom_site_type_symbol
_atom_site_label
_atom_site_fract_x
_atom_site_fract_y
_atom_site_fract_z
Si Si1 0.214844 0.608704 0.337383
Si Si2 0.079527 0.361008 0.265946
Si Si3 0.839713 0.240953 0.061193
Si Si4 0.723487 0.982549 0.954911
Si Si5 0.277097 0.205856 0.505787
Si Si6 0.780632 0.516094 0.276578
Si Si7 0.491744 0.123432 0.733736
O O1 0.328644 0.438288 0.179478
O O2 0.401831 0.727182 0.274461
O O3 0.132838 0.577975 0.498744
O O4 0.954300 0.707302 0.430912
O O5 0.058775 0.185492 0.230442
O O6 0.024533 0.422769 0.194257
O O7 0.597437 0.209919 0.277331
O O8 0.790049 0.425977 0.143451
O O9 0.170131 0.165443 0.884752
O O10 0.797818 0.141912 0.965822
O O11 0.543582 0.949823 0.150777
O O12 0.500000 0.000000 0.000000
O O13 0.224015 0.306739 0.664974
O O14 0.290339 0.026717 0.480523
O O15 0.500000 0.500000 0.500000
#
# Coordination Sequence:
#
# PCOD9099973 Si02
#       7
#     2   2   2   2   2   2   2
#     4  10  22  38  61  90 126 159 206 257 302 362
#     4  10  20  38  60  86 119 168 209 242 305 375
#     4  10  20  37  62  89 120 159 205 248 305 362
#     4  11  22  37  65  89 123 163 206 247 307 370
#     4   9  18  34  59  89 120 161 202 238 301 375
#     4   9  18  33  61  87 113 163 206 240 294 376
#     4  11  21  37  65  95 124 155 205 265 301 346
#
# _framework density 26.384564999999998
#
# number of rings (size 3 to 8) (size 9 to 14) (size 15 to 20)
#    0.000    2.000    1.429    3.857    2.000    1.714 
#    0.000    0.714    9.429   18.000    0.000    0.000 
#    0.000    0.000    0.000    0.000    0.000    0.000 
#
# Total GULP energy -78012.815866 kJ/mol
# GULP energy per Si atom -5572.343990 kJ/mol
# Density = 2.632451 g / cm^3
# Si number density = 26.384565 Si / 1000 Ang^3
#
#
#
# Elastic Constant Matrix: (Units=GPa)
#
#
# Indices 1 2 3 4 5 6 
#
# 1 132.3309 79.0702 43.7231 26.2839 12.1624 59.9410
# 2 79.0702 157.6242 46.8974 13.1954 -3.3873 47.3577
# 3 43.7231 46.8974 59.2759 27.6844 12.0206 20.5396
# 4 26.2839 13.1954 27.6844 52.0975 11.9123 13.4348
# 5 12.1624 -3.3873 12.0206 11.9123 29.5233 9.5392
# 6 59.9410 47.3577 20.5396 13.4348 9.5392 51.8298
#
#
#
# Elastic Compliance Matrix: (Units=1/GPa)
#
#
# Indices 1 2 3 4 5 6 
#
# 1 0.018839 -0.002715 -0.005105 -0.001799 0.000177 -0.016850
# 2 -0.002715 0.011908 -0.007717 0.002624 0.006699 -0.006596
# 3 -0.005105 -0.007717 0.032423 -0.011946 -0.008717 0.004808
# 4 -0.001799 0.002624 -0.011946 0.027289 -0.004515 -0.001825
# 5 0.000177 0.006699 -0.008717 -0.004515 0.043048 -0.009624
# 6 -0.016850 -0.006596 0.004808 -0.001825 -0.009624 0.045147
#
#
# Mechanical properties :
#
#
# Convention : Reuss Voigt Hill
#
# Bulk Modulus (GPa) = 31.15682 76.51249 53.83466
# Shear Modulus (GPa) = 22.68330 38.65948 30.67139
#
# Velocity S-wave (km/s) = 2.93528 3.83199 3.41321
# Velocity P-wave (km/s) = 4.82930 6.97429 5.99845
#
# Compressibility (1/GPa) = 0.03209570
#
# Stress axis : x y z
#
# Youngs Moduli (GPa) = 53.08070 83.97618 30.84264
#
# Poissons Ratio (x) = 0.22796 0.15746
# Poissons Ratio (y) = 0.14409 0.23802
# Poissons Ratio (z) = 0.27099 0.64808
#
# Static dielectric constant tensor:
#      x y z
#    x 2.250940 0.093230 -0.252690 
#    y 0.093230 2.235250 0.047710 
#    z -0.252690 0.047710 2.571700 
# 
# From -- ./inp_files/493272.got.cif
#   From: 2010.05.17/outbox.cif.g08.bks.cpg/sg2_247_cif.got.tgz:493272.got - 2010.06.03 11:33:40.
