data_PCOD9099145
_publ_section_title
;
Structure prediction by ZEFSAII (Michael W. Deem and Ramdas Pophale) SiO2 
 PCOD9099145
Probable space group: P -1
;
_chemical_formula_sum "Si O2"
_cell_formula_units_Z 14
_cell_length_a 17.045935
_cell_length_b 20.889576
_cell_length_c 8.350648
_cell_angle_alpha 144.929079
_cell_angle_beta 138.085949
_cell_angle_gamma 19.760513
_cell_volume 572.407082
_symmetry_space_group_name_H-M "P -1"
_symmetry_group_IT_number 2
_symmetry_cell_setting 'triclinic'
loop_
_space_group_symop_operation_xyz
x,y,z
-x,-y,-z
loop_
_atom_site_type_symbol
_atom_site_label
_atom_site_fract_x
_atom_site_fract_y
_atom_site_fract_z
Si Si1 0.325628 0.225524 0.595796
Si Si2 0.641878 0.534042 0.834563
Si Si3 0.060235 0.750159 0.988899
Si Si4 0.653810 0.969328 0.017404
Si Si5 0.059402 0.223711 0.620780
Si Si6 0.131686 0.479095 0.329232
Si Si7 0.871899 0.037567 0.020533
O O1 0.366487 0.323347 0.869385
O O2 0.341053 0.160375 0.308776
O O3 0.061072 0.427061 0.667954
O O4 0.500000 0.000000 0.500000
O O5 0.770678 0.378415 0.866656
O O6 0.376728 0.712039 0.788863
O O7 0.813372 0.376193 0.622449
O O8 0.161880 0.569063 0.660052
O O9 0.807928 0.915043 0.012839
O O10 0.023664 0.886374 0.098899
O O11 0.784407 0.879298 0.199218
O O12 0.386285 0.224780 0.152504
O O13 0.172817 0.043697 0.302910
O O14 0.999150 0.379757 0.744087
O O15 0.000000 0.000000 0.000000
#
# Coordination Sequence:
#
# PCOD9099145 Si02
#       7
#     2   2   2   2   2   2   2
#     4  11  23  38  60  91 129 170 203 237 289 353
#     4  11  23  42  60  86 128 159 197 253 299 353
#     4   9  21  40  61  88 121 157 195 247 309 358
#     4  10  21  39  62  91 127 164 201 237 287 358
#     4  10  22  40  63  92 121 159 203 245 300 358
#     4  10  20  37  59  86 125 164 199 239 286 350
#     4  11  24  44  67  88 114 153 205 261 312 362
#
# _framework density 24.458117999999999
#
# number of rings (size 3 to 8) (size 9 to 14) (size 15 to 20)
#    0.000    1.714    0.000    5.143    0.000    9.714 
#    0.000   13.571    0.000    0.000    0.000    0.000 
#    0.000    0.000    0.000    0.000    0.000    0.000 
#
# Total GULP energy -78466.938728 kJ/mol
# GULP energy per Si atom -5604.781338 kJ/mol
# Density = 2.440245 g / cm^3
# Si number density = 24.458118 Si / 1000 Ang^3
#
#
#
# Elastic Constant Matrix: (Units=GPa)
#
#
# Indices 1 2 3 4 5 6 
#
# 1 118.1039 47.5324 14.0595 25.8154 -9.7741 11.4120
# 2 47.5324 114.8982 39.8689 32.3655 -8.6665 5.9135
# 3 14.0595 39.8689 94.1672 28.6294 -27.5208 -3.8061
# 4 25.8154 32.3655 28.6294 38.4156 -8.7120 -15.5159
# 5 -9.7741 -8.6665 -27.5208 -8.7120 39.4409 4.4240
# 6 11.4120 5.9135 -3.8061 -15.5159 4.4240 41.1231
#
#
#
# Elastic Compliance Matrix: (Units=1/GPa)
#
#
# Indices 1 2 3 4 5 6 
#
# 1 0.012423 -0.002623 0.003112 -0.010629 0.003126 -0.007129
# 2 -0.002623 0.013827 -0.003015 -0.010040 -0.001352 -0.005182
# 3 0.003112 -0.003015 0.018128 -0.012544 0.010505 -0.004615
# 4 -0.010629 -0.010040 -0.012544 0.061017 -0.003097 0.026587
# 5 0.003126 -0.001352 0.010505 -0.003097 0.032974 -0.004417
# 6 -0.007129 -0.005182 -0.004615 0.026587 -0.004417 0.037120
#
#
# Mechanical properties :
#
#
# Convention : Reuss Voigt Hill
#
# Bulk Modulus (GPa) = 25.42663 58.89896 42.16280
# Shear Modulus (GPa) = 25.81993 38.84316 32.33155
#
# Velocity S-wave (km/s) = 3.25265 3.98948 3.63976
# Velocity P-wave (km/s) = 4.95226 6.73462 5.91101
#
# Compressibility (1/GPa) = 0.03932884
#
# Stress axis : x y z
#
# Youngs Moduli (GPa) = 80.49687 72.32029 55.16213
#
# Poissons Ratio (x) = 0.18967 -0.17169
# Poissons Ratio (y) = 0.21111 0.16630
# Poissons Ratio (z) = -0.25054 0.21802
#
# Static dielectric constant tensor:
#      x y z
#    x 1.973190 0.021100 0.063920 
#    y 0.021100 1.920420 -0.014490 
#    z 0.063920 -0.014490 1.978900 
# 
# From -- ./inp_files/337420.got.cif
#   From: 2010.05.17/outbox.cif.g08.bks.cpg/sg2_169_cif.got.tgz:337420.got - 2010.06.03 11:33:40.
