data_PCOD9099169
_publ_section_title
;
Structure prediction by ZEFSAII (Michael W. Deem and Ramdas Pophale) SiO2 
 PCOD9099169
Probable space group: P -1
;
_chemical_formula_sum "Si O2"
_cell_formula_units_Z 16
_cell_length_a 18.673847
_cell_length_b 7.902931
_cell_length_c 9.612836
_cell_angle_alpha 87.642404
_cell_angle_beta 50.301267
_cell_angle_gamma 49.272989
_cell_volume 632.680851
_symmetry_space_group_name_H-M "P -1"
_symmetry_group_IT_number 2
_symmetry_cell_setting 'triclinic'
loop_
_space_group_symop_operation_xyz
x,y,z
-x,-y,-z
loop_
_atom_site_type_symbol
_atom_site_label
_atom_site_fract_x
_atom_site_fract_y
_atom_site_fract_z
Si Si1 0.963561 0.879599 0.217236
Si Si2 0.955414 0.369616 0.571645
Si Si3 0.697554 0.708640 0.682409
Si Si4 0.374907 0.698934 0.775121
Si Si5 0.638550 0.500187 0.579103
Si Si6 0.535709 0.797160 0.252476
Si Si7 0.278201 0.315592 0.737757
Si Si8 0.969773 0.834797 0.805024
O O1 0.995176 0.768994 0.336452
O O2 0.011960 0.008201 0.153411
O O3 0.087027 0.595881 0.976948
O O4 0.775531 0.155188 0.408218
O O5 0.768568 0.629317 0.749328
O O6 0.000000 0.500000 0.500000
O O7 0.043944 0.132554 0.347867
O O8 0.666806 0.559492 0.684694
O O9 0.547007 0.030761 0.796466
O O10 0.857830 0.514945 0.395968
O O11 0.500000 0.500000 0.500000
O O12 0.461106 0.695125 0.775652
O O13 0.373899 0.513296 0.849128
O O14 0.193069 0.012159 0.951473
O O15 0.674424 0.584239 0.410856
O O16 0.650821 0.757946 0.193053
O O17 0.381932 0.020546 0.541846
#
# Coordination Sequence:
#
# PCOD9099169 Si02
#       8
#     2   2   2   2   2   2   2   2
#     4  11  20  40  68  85 118 172 206 244 304 367
#     4  10  23  42  65  88 119 158 214 261 292 355
#     4   8  21  42  63  81 123 162 206 242 304 367
#     4  12  22  37  61  96 128 157 200 257 305 354
#     4  10  21  36  64  93 124 156 205 252 300 369
#     4  10  20  37  59  87 130 155 192 252 306 358
#     4  10  20  38  61  92 125 162 198 244 313 370
#     4   9  21  41  63  85 121 160 206 247 299 363
#
# _framework density 25.289211999999999
#
# number of rings (size 3 to 8) (size 9 to 14) (size 15 to 20)
#    0.750    1.250    2.500    0.750    1.750    3.000 
#    0.000    2.500    0.000    0.000    0.000    0.000 
#    0.000    0.000    0.000    0.000    0.000    0.000 
#
# Total GULP energy -89413.779034 kJ/mol
# GULP energy per Si atom -5588.361190 kJ/mol
# Density = 2.523165 g / cm^3
# Si number density = 25.289212 Si / 1000 Ang^3
#
#
#
# Elastic Constant Matrix: (Units=GPa)
#
#
# Indices 1 2 3 4 5 6 
#
# 1 95.5372 16.8667 14.6679 4.1377 -17.0165 -13.3291
# 2 16.8667 85.3643 13.1548 22.3393 -3.9488 -21.9181
# 3 14.6679 13.1548 108.6882 23.9564 -15.9887 -2.2948
# 4 4.1377 22.3393 23.9564 30.2872 -12.6581 4.3590
# 5 -17.0165 -3.9488 -15.9887 -12.6581 48.8864 2.7829
# 6 -13.3291 -21.9181 -2.2948 4.3590 2.7829 31.2089
#
#
#
# Elastic Compliance Matrix: (Units=1/GPa)
#
#
# Indices 1 2 3 4 5 6 
#
# 1 0.012015 -0.001546 -0.001127 0.001526 0.003890 0.003403
# 2 -0.001546 0.022168 0.002176 -0.022619 -0.004955 0.018670
# 3 -0.001127 0.002176 0.011650 -0.010912 0.000576 0.003377
# 4 0.001526 -0.022619 -0.010912 0.067936 0.014251 -0.026796
# 5 0.003890 -0.004955 0.000576 0.014251 0.025633 -0.006052
# 6 0.003403 0.018670 0.003377 -0.026796 -0.006052 0.051138
#
#
# Mechanical properties :
#
#
# Convention : Reuss Voigt Hill
#
# Bulk Modulus (GPa) = 22.30113 42.10762 32.20438
# Shear Modulus (GPa) = 24.21557 38.40318 31.30938
#
# Velocity S-wave (km/s) = 3.09778 3.90110 3.52241
# Velocity P-wave (km/s) = 4.65108 6.08095 5.41344
#
# Compressibility (1/GPa) = 0.04484077
#
# Stress axis : x y z
#
# Youngs Moduli (GPa) = 83.23225 45.10942 85.83384
#
# Poissons Ratio (x) = 0.06974 0.09670
# Poissons Ratio (y) = 0.12868 -0.18681
# Poissons Ratio (z) = 0.09377 -0.09818
#
# Static dielectric constant tensor:
#      x y z
#    x 2.038850 -0.035500 0.012970 
#    y -0.035500 2.007960 -0.030220 
#    z 0.012970 -0.030220 2.069540 
# 
# From -- ./inp_files/468933.got.cif
#   From: 2010.05.17/outbox.cif.g08.bks.cpg/sg2_235_cif.got.tgz:468933.got - 2010.06.03 11:33:40.
