data_PCOD9099961
_publ_section_title
;
Structure prediction by ZEFSAII (Michael W. Deem and Ramdas Pophale) SiO2 
 PCOD9099961
Probable space group: P -1
;
_chemical_formula_sum "Si O2"
_cell_formula_units_Z 16
_cell_length_a 5.715731
_cell_length_b 12.539136
_cell_length_c 11.319117
_cell_angle_alpha 96.099409
_cell_angle_beta 120.753480
_cell_angle_gamma 103.173878
_cell_volume 654.312625
_symmetry_space_group_name_H-M "P -1"
_symmetry_group_IT_number 2
_symmetry_cell_setting 'triclinic'
loop_
_space_group_symop_operation_xyz
x,y,z
-x,-y,-z
loop_
_atom_site_type_symbol
_atom_site_label
_atom_site_fract_x
_atom_site_fract_y
_atom_site_fract_z
Si Si1 0.391478 0.121183 0.398523
Si Si2 0.438442 0.502116 0.181100
Si Si3 0.678861 0.440196 0.455992
Si Si4 0.812624 0.661184 0.093623
Si Si5 0.380417 0.703735 0.353872
Si Si6 0.068740 0.922448 0.908466
Si Si7 0.428972 0.150490 0.898831
Si Si8 0.040217 0.908635 0.411531
O O1 0.359017 0.191405 0.515535
O O2 0.731983 0.142312 0.475653
O O3 0.217176 0.145990 0.246230
O O4 0.238329 0.986893 0.366931
O O5 0.514355 0.420681 0.286634
O O6 0.672926 0.570166 0.151661
O O7 0.410524 0.605110 0.265571
O O8 0.185558 0.417122 0.027449
O O9 0.500000 0.500000 0.500000
O O10 0.716026 0.351395 0.548875
O O11 0.000000 0.500000 0.500000
O O12 0.630847 0.746272 0.034547
O O13 0.126071 0.736198 0.229640
O O14 0.268323 0.020007 0.883290
O O15 0.242214 0.845012 0.000032
O O16 0.000000 0.000000 0.000000
O O17 0.269309 0.159289 0.735069
O O18 0.000000 0.000000 0.500000
#
# Coordination Sequence:
#
# PCOD9099961 Si02
#       8
#     2   2   2   2   2   2   2   2
#     4  10  22  37  60  97 122 163 219 264 331 410
#     4  10  24  41  63  95 131 176 227 289 341 413
#     4  10  21  43  67  93 134 182 229 293 351 415
#     4  11  22  42  64  95 131 172 231 282 345 411
#     4  11  22  40  67  95 134 174 232 280 352 414
#     4  10  22  42  61  90 135 168 214 271 337 414
#     4  10  22  39  62  94 124 171 215 270 335 407
#     4  10  20  37  62  88 125 161 209 271 324 393
#
# _framework density 24.453142
#
# number of rings (size 3 to 8) (size 9 to 14) (size 15 to 20)
#    0.000    1.750    2.500    1.125    1.750    2.000 
#    4.500    0.000    0.000    0.000    0.000    0.000 
#    0.000    0.000    0.000    0.000    0.000    0.000 
#
# Total GULP energy -89129.647990 kJ/mol
# GULP energy per Si atom -5570.602999 kJ/mol
# Density = 2.439749 g / cm^3
# Si number density = 24.453142 Si / 1000 Ang^3
#
#
#
# Elastic Constant Matrix: (Units=GPa)
#
#
# Indices 1 2 3 4 5 6 
#
# 1 82.0009 35.7158 66.4047 -8.3299 5.5967 -27.0179
# 2 35.7158 92.9306 53.8654 6.6654 1.2860 -17.6419
# 3 66.4047 53.8654 235.9163 -3.2415 10.2126 -37.0329
# 4 -8.3299 6.6654 -3.2415 38.5647 -9.4653 -0.1836
# 5 5.5967 1.2860 10.2126 -9.4653 42.0877 -6.0919
# 6 -27.0179 -17.6419 -37.0329 -0.1836 -6.0919 50.8663
#
#
#
# Elastic Compliance Matrix: (Units=1/GPa)
#
#
# Indices 1 2 3 4 5 6 
#
# 1 0.019541 -0.004700 -0.003380 0.004873 0.000380 0.006352
# 2 -0.004700 0.014053 -0.001765 -0.003594 -0.000029 0.001076
# 3 -0.003380 -0.001765 0.005906 -0.000089 -0.000688 0.001810
# 4 0.004873 -0.003594 -0.000089 0.029166 0.006353 0.002143
# 5 0.000380 -0.000029 -0.000688 0.006353 0.025710 0.002793
# 6 0.006352 0.001076 0.001810 0.002143 0.002793 0.025066
#
#
# Mechanical properties :
#
#
# Convention : Reuss Voigt Hill
#
# Bulk Modulus (GPa) = 50.47967 80.31329 65.39648
# Shear Modulus (GPa) = 34.30920 43.29453 38.80187
#
# Velocity S-wave (km/s) = 3.74981 4.21231 3.98777
# Velocity P-wave (km/s) = 6.27983 7.52151 6.92854
#
# Compressibility (1/GPa) = 0.01980996
#
# Stress axis : x y z
#
# Youngs Moduli (GPa) = 51.17527 71.16171 169.33003
#
# Poissons Ratio (x) = 0.33447 0.57226
# Poissons Ratio (y) = 0.24053 0.29883
# Poissons Ratio (z) = 0.17295 0.12559
#
# Static dielectric constant tensor:
#      x y z
#    x 2.141140 0.211550 0.097990 
#    y 0.211550 2.300420 0.097830 
#    z 0.097990 0.097830 2.006440 
# 
# From -- ./inp_files/367833.got.cif
#   From: 2010.05.17/outbox.cif.g08.bks.cpg/sg2_184_cif.got.tgz:367833.got - 2010.06.03 11:33:40.
