data_PCOD9099923
_publ_section_title
;
Structure prediction by ZEFSAII (Michael W. Deem and Ramdas Pophale) SiO2 
 PCOD9099923
Probable space group: P -1
;
_chemical_formula_sum "Si O2"
_cell_formula_units_Z 16
_cell_length_a 13.829033
_cell_length_b 10.104961
_cell_length_c 8.929597
_cell_angle_alpha 68.252709
_cell_angle_beta 56.039362
_cell_angle_gamma 35.932250
_cell_volume 598.716945
_symmetry_space_group_name_H-M "P -1"
_symmetry_group_IT_number 2
_symmetry_cell_setting 'triclinic'
loop_
_space_group_symop_operation_xyz
x,y,z
-x,-y,-z
loop_
_atom_site_type_symbol
_atom_site_label
_atom_site_fract_x
_atom_site_fract_y
_atom_site_fract_z
Si Si1 0.907891 0.430805 0.602761
Si Si2 0.957995 0.018017 0.311749
Si Si3 0.820077 0.861767 0.058322
Si Si4 0.535362 0.187081 0.649235
Si Si5 0.680917 0.268086 0.716607
Si Si6 0.690991 0.223306 0.227100
Si Si7 0.148283 0.485937 0.724238
Si Si8 0.567635 0.859958 0.848974
O O1 0.821152 0.503744 0.479143
O O2 0.747222 0.588664 0.802245
O O3 0.000000 0.500000 0.500000
O O4 0.024687 0.172861 0.625068
O O5 0.170931 0.865172 0.220615
O O6 0.819098 0.192829 0.495297
O O7 0.843503 0.175763 0.198389
O O8 0.869457 0.667795 0.182678
O O9 0.808719 0.999690 0.124911
O O10 0.608537 0.048646 0.106397
O O11 0.959478 0.731820 0.851570
O O12 0.604143 0.194962 0.739571
O O13 0.593967 0.233306 0.445278
O O14 0.315479 0.371116 0.737900
O O15 0.617553 0.950116 0.665778
O O16 0.487770 0.535838 0.799191
O O17 0.500000 0.000000 0.000000
#
# Coordination Sequence:
#
# PCOD9099923 Si02
#       8
#     2   2   2   2   2   2   2   2
#     4  12  22  36  61  92 121 157 208 256 307 373
#     4  10  21  35  62  93 122 160 206 254 305 365
#     4  10  21  37  58  87 125 162 200 253 316 371
#     4  10  20  37  62  87 120 163 207 251 304 371
#     4  10  21  39  60  92 125 162 210 257 302 359
#     4  11  21  39  64  91 124 162 206 255 304 363
#     4  10  21  37  59  88 121 160 202 252 312 371
#     4  11  23  38  59  90 127 162 199 255 317 369
#
# _framework density 26.723813
#
# number of rings (size 3 to 8) (size 9 to 14) (size 15 to 20)
#    0.000    1.500    0.000    7.500    0.000    5.000 
#    0.000    0.625    0.000   12.000    0.000    0.000 
#    0.000    0.000    0.000    0.000    0.000    0.000 
#
# Total GULP energy -89614.794826 kJ/mol
# GULP energy per Si atom -5600.924677 kJ/mol
# Density = 2.666299 g / cm^3
# Si number density = 26.723813 Si / 1000 Ang^3
#
#
#
# Elastic Constant Matrix: (Units=GPa)
#
#
# Indices 1 2 3 4 5 6 
#
# 1 158.1349 57.0804 22.1833 14.8023 6.6127 -19.7396
# 2 57.0804 159.9526 35.1623 34.2623 5.5723 -8.8594
# 3 22.1833 35.1623 75.1719 17.8317 5.9431 7.6403
# 4 14.8023 34.2623 17.8317 49.5452 -0.4075 6.0761
# 5 6.6127 5.5723 5.9431 -0.4075 37.1963 5.6857
# 6 -19.7396 -8.8594 7.6403 6.0761 5.6857 49.0144
#
#
#
# Elastic Compliance Matrix: (Units=1/GPa)
#
#
# Indices 1 2 3 4 5 6 
#
# 1 0.007804 -0.002087 -0.001356 -0.000808 -0.001361 0.003235
# 2 -0.002087 0.008673 -0.002434 -0.004725 -0.000865 0.001793
# 3 -0.001356 -0.002434 0.016052 -0.003347 -0.001553 -0.002893
# 4 -0.000808 -0.004725 -0.003347 0.025416 0.002287 -0.004074
# 5 -0.001361 -0.000865 -0.001553 0.002287 0.028142 -0.004011
# 6 0.003235 0.001793 -0.002893 -0.004074 -0.004011 0.023450
#
#
# Mechanical properties :
#
#
# Convention : Reuss Voigt Hill
#
# Bulk Modulus (GPa) = 48.13478 69.12349 58.62914
# Shear Modulus (GPa) = 38.99635 45.74008 42.36822
#
# Velocity S-wave (km/s) = 3.82414 4.14162 3.98604
# Velocity P-wave (km/s) = 6.12779 6.98518 6.57048
#
# Compressibility (1/GPa) = 0.02077500
#
# Stress axis : x y z
#
# Youngs Moduli (GPa) = 128.14493 115.29638 62.29595
#
# Poissons Ratio (x) = 0.24062 0.08448
# Poissons Ratio (y) = 0.26744 0.15163
# Poissons Ratio (z) = 0.17379 0.28064
#
# Static dielectric constant tensor:
#      x y z
#    x 2.115730 0.008060 -0.041540 
#    y 0.008060 2.052710 -0.069780 
#    z -0.041540 -0.069780 2.117700 
# 
# From -- ./inp_files/307299.got.cif
#   From: 2010.05.17/outbox.cif.g08.bks.cpg/sg2_154_cif.got.tgz:307299.got - 2010.06.03 11:33:40.
