data_PCOD9099327
_publ_section_title
;
Structure prediction by ZEFSAII (Michael W. Deem and Ramdas Pophale) SiO2 
 PCOD9099327
Probable space group: P -1
;
_chemical_formula_sum "Si O2"
_cell_formula_units_Z 16
_cell_length_a 7.065380
_cell_length_b 11.227792
_cell_length_c 16.455889
_cell_angle_alpha 117.563280
_cell_angle_beta 83.519473
_cell_angle_gamma 139.625017
_cell_volume 681.258704
_symmetry_space_group_name_H-M "P -1"
_symmetry_group_IT_number 2
_symmetry_cell_setting 'triclinic'
loop_
_space_group_symop_operation_xyz
x,y,z
-x,-y,-z
loop_
_atom_site_type_symbol
_atom_site_label
_atom_site_fract_x
_atom_site_fract_y
_atom_site_fract_z
Si Si1 0.753248 0.819655 0.656635
Si Si2 0.811709 0.002718 0.456983
Si Si3 0.745090 0.106739 0.795227
Si Si4 0.609796 0.434454 0.743655
Si Si5 0.279885 0.601829 0.960385
Si Si6 0.652889 0.849701 0.173339
Si Si7 0.702110 0.245282 0.158567
Si Si8 0.199265 0.415564 0.655018
O O1 0.416066 0.561918 0.610310
O O2 0.970628 0.873296 0.595684
O O3 0.715988 0.959928 0.692711
O O4 0.969183 0.928250 0.761367
O O5 0.864584 0.164400 0.559765
O O6 0.477999 0.746626 0.364912
O O7 0.000000 0.000000 0.500000
O O8 0.518984 0.105172 0.785061
O O9 0.106245 0.368974 0.863310
O O10 0.608372 0.983391 0.850776
O O11 0.486074 0.327033 0.805944
O O12 0.400645 0.429834 0.708265
O O13 0.990070 0.673780 0.811572
O O14 0.346534 0.743947 0.929542
O O15 0.569795 0.752701 0.056604
O O16 0.000000 0.500000 0.000000
O O17 0.807489 0.446399 0.256996
#
# Coordination Sequence:
#
# PCOD9099327 Si02
#       8
#     2   2   2   2   2   2   2   2
#     4  10  21  39  60  84 119 153 190 242 289 346
#     4   9  20  35  61  86 112 154 190 237 295 340
#     4  10  22  38  59  87 117 157 191 240 288 338
#     4  10  20  37  60  85 116 154 194 238 290 343
#     4  10  21  39  58  88 117 155 195 239 289 340
#     4  10  21  38  58  87 115 156 195 237 292 338
#     4  11  22  39  61  86 120 154 195 239 289 344
#     4  10  22  39  57  89 116 152 195 239 291 344
#
# _framework density 23.485938999999998
#
# number of rings (size 3 to 8) (size 9 to 14) (size 15 to 20)
#    0.000    2.000    2.500    1.125    5.250    3.000 
#    2.250    5.000    0.000   13.500    0.000    0.000 
#    0.000    0.000    0.000    0.000    0.000    0.000 
#
# Total GULP energy -89318.161478 kJ/mol
# GULP energy per Si atom -5582.385092 kJ/mol
# Density = 2.343248 g / cm^3
# Si number density = 23.485939 Si / 1000 Ang^3
#
#
#
# Elastic Constant Matrix: (Units=GPa)
#
#
# Indices 1 2 3 4 5 6 
#
# 1 86.2656 8.5777 11.5247 5.4983 -0.9023 -18.5828
# 2 8.5777 65.9278 29.0792 -8.6610 11.9420 -17.9045
# 3 11.5247 29.0792 53.5549 -1.0263 15.0017 0.5179
# 4 5.4983 -8.6610 -1.0263 36.5410 1.6907 3.1278
# 5 -0.9023 11.9420 15.0017 1.6907 34.7200 6.8563
# 6 -18.5828 -17.9045 0.5179 3.1278 6.8563 23.4220
#
#
#
# Elastic Compliance Matrix: (Units=1/GPa)
#
#
# Indices 1 2 3 4 5 6 
#
# 1 0.015863 0.005533 -0.005992 -0.002676 -0.002323 0.017984
# 2 0.005533 0.033008 -0.016323 0.004244 -0.010796 0.032576
# 3 -0.005992 -0.016323 0.030175 -0.000503 -0.004281 -0.016579
# 4 -0.002676 0.004244 -0.000503 0.029045 -0.002318 -0.002068
# 5 -0.002323 -0.010796 -0.004281 -0.002318 0.038560 -0.020979
# 6 0.017984 0.032576 -0.016579 -0.002068 -0.020979 0.088650
#
#
# Mechanical properties :
#
#
# Convention : Reuss Voigt Hill
#
# Bulk Modulus (GPa) = 21.98725 33.79016 27.88871
# Shear Modulus (GPa) = 17.60404 29.37437 23.48921
#
# Velocity S-wave (km/s) = 2.74077 3.54039 3.16593
# Velocity P-wave (km/s) = 4.40431 5.57953 5.02639
#
# Compressibility (1/GPa) = 0.04548090
#
# Stress axis : x y z
#
# Youngs Moduli (GPa) = 63.04021 30.29580 33.14043
#
# Poissons Ratio (x) = -0.16761 0.19858
# Poissons Ratio (y) = -0.34877 0.54094
# Poissons Ratio (z) = 0.37775 0.49451
#
# Static dielectric constant tensor:
#      x y z
#    x 1.898950 0.069410 -0.202080 
#    y 0.069410 0.762830 2.070820 
#    z -0.202080 2.070820 -1.666860 
# 
# From -- ./inp_files/284585.got.cif
#   From: 2010.05.17/outbox.cif.g08.bks.cpg/sg2_143_cif.got.tgz:284585.got - 2010.06.03 11:33:40.
