data_PCOD9099588
_publ_section_title
;
Structure prediction by ZEFSAII (Michael W. Deem and Ramdas Pophale) SiO2 
 PCOD9099588
Probable space group: P -1
;
_chemical_formula_sum "Si O2"
_cell_formula_units_Z 14
_cell_length_a 7.361817
_cell_length_b 10.161272
_cell_length_c 8.140941
_cell_angle_alpha 113.821874
_cell_angle_beta 88.359148
_cell_angle_gamma 82.082325
_cell_volume 549.401707
_symmetry_space_group_name_H-M "P -1"
_symmetry_group_IT_number 2
_symmetry_cell_setting 'triclinic'
loop_
_space_group_symop_operation_xyz
x,y,z
-x,-y,-z
loop_
_atom_site_type_symbol
_atom_site_label
_atom_site_fract_x
_atom_site_fract_y
_atom_site_fract_z
Si Si1 0.423393 0.195052 0.493248
Si Si2 0.775961 0.159541 0.313559
Si Si3 0.174337 0.427009 0.788701
Si Si4 0.151738 0.546988 0.397154
Si Si5 0.782225 0.061142 0.604962
Si Si6 0.195410 0.767346 0.993551
Si Si7 0.589678 0.620956 0.950228
O O1 0.560559 0.145263 0.314213
O O2 0.325303 0.359727 0.613677
O O3 0.571698 0.150319 0.614183
O O4 0.261792 0.099551 0.443973
O O5 0.766987 0.327044 0.451937
O O6 0.867672 0.072587 0.426278
O O7 0.867386 0.146194 0.127922
O O8 0.152667 0.602046 0.896253
O O9 0.978283 0.392509 0.722150
O O10 0.251757 0.348073 0.913966
O O11 0.311738 0.436670 0.250268
O O12 0.000000 0.500000 0.500000
O O13 0.855595 0.144684 0.795411
O O14 0.418375 0.742060 0.976940
O O15 0.500000 0.500000 0.000000
#
# Coordination Sequence:
#
# PCOD9099588 Si02
#       7
#     2   2   2   2   2   2   2
#     4   9  20  40  63  86 123 163 214 255 304 368
#     4  10  20  37  61  85 124 164 201 256 309 364
#     4  11  21  38  60  92 127 162 201 259 316 370
#     4  12  24  36  56  95 140 157 198 256 331 373
#     4   9  20  40  62  90 119 160 220 259 296 368
#     4  11  20  35  66  94 120 155 214 259 313 362
#     4  10  21  37  58  88 121 163 206 252 302 371
#
# _framework density 25.482264000000001
#
# number of rings (size 3 to 8) (size 9 to 14) (size 15 to 20)
#    0.857    0.857    2.857    3.857    2.000    1.714 
#    0.000    0.714    0.000    0.857    0.000    0.000 
#    0.000    0.000    0.000    0.000    0.000    0.000 
#
# Total GULP energy -78159.247261 kJ/mol
# GULP energy per Si atom -5582.803376 kJ/mol
# Density = 2.542427 g / cm^3
# Si number density = 25.482264 Si / 1000 Ang^3
#
#
#
# Elastic Constant Matrix: (Units=GPa)
#
#
# Indices 1 2 3 4 5 6 
#
# 1 50.1160 -5.8781 25.6183 9.7566 -20.1736 0.6442
# 2 -5.8781 74.1606 54.5197 -10.7432 -10.3941 10.3804
# 3 25.6183 54.5197 146.6038 -9.8581 -16.2068 -10.8018
# 4 9.7566 -10.7432 -9.8581 37.4899 -7.8063 -4.1127
# 5 -20.1736 -10.3941 -16.2068 -7.8063 49.5553 2.6408
# 6 0.6442 10.3804 -10.8018 -4.1127 2.6408 29.8914
#
#
#
# Elastic Compliance Matrix: (Units=1/GPa)
#
#
# Indices 1 2 3 4 5 6 
#
# 1 0.032943 0.012433 -0.010239 -0.006325 0.012243 -0.010679
# 2 0.012433 0.026763 -0.012270 0.001204 0.007624 -0.014504
# 3 -0.010239 -0.012270 0.013915 0.003469 -0.002187 0.010181
# 4 -0.006325 0.001204 0.003469 0.030825 0.003406 0.004912
# 5 0.012243 0.007624 -0.002187 0.003406 0.026883 -0.005608
# 6 -0.010679 -0.014504 0.010181 0.004912 -0.005608 0.043572
#
#
# Mechanical properties :
#
#
# Convention : Reuss Voigt Hill
#
# Bulk Modulus (GPa) = 18.70277 46.60004 32.65141
# Shear Modulus (GPa) = 23.48781 36.49534 29.99157
#
# Velocity S-wave (km/s) = 3.03930 3.78853 3.43440
# Velocity P-wave (km/s) = 4.43530 6.12080 5.34491
#
# Compressibility (1/GPa) = 0.05346801
#
# Stress axis : x y z
#
# Youngs Moduli (GPa) = 30.35586 37.36434 71.86466
#
# Poissons Ratio (x) = -0.46454 0.73581
# Poissons Ratio (y) = -0.37740 0.88180
# Poissons Ratio (z) = 0.31081 0.45847
#
# Static dielectric constant tensor:
#      x y z
#    x 2.073540 0.008400 -0.002700 
#    y 0.008400 2.053830 -0.082240 
#    z -0.002700 -0.082240 2.065270 
# 
# From -- ./inp_files/172804.got.cif
#   From: 2010.05.17/outbox.cif.g08.bks.cpg/sg2_87_cif.got.tgz:172804.got - 2010.06.03 11:33:40.
