data_PCOD9099842
_publ_section_title
;
Structure prediction by ZEFSAII (Michael W. Deem and Ramdas Pophale) SiO2 
 PCOD9099842
Probable space group: P -1
;
_chemical_formula_sum "Si O2"
_cell_formula_units_Z 14
_cell_length_a 8.240517
_cell_length_b 8.868408
_cell_length_c 13.464850
_cell_angle_alpha 114.273420
_cell_angle_beta 131.196959
_cell_angle_gamma 94.521723
_cell_volume 580.716023
_symmetry_space_group_name_H-M "P -1"
_symmetry_group_IT_number 2
_symmetry_cell_setting 'triclinic'
loop_
_space_group_symop_operation_xyz
x,y,z
-x,-y,-z
loop_
_atom_site_type_symbol
_atom_site_label
_atom_site_fract_x
_atom_site_fract_y
_atom_site_fract_z
Si Si1 0.220980 0.991343 0.529064
Si Si2 0.846453 0.774031 0.150532
Si Si3 0.462838 0.139625 0.276967
Si Si4 0.237798 0.477374 0.611203
Si Si5 0.502392 0.629178 0.159505
Si Si6 0.748211 0.051294 0.053134
Si Si7 0.739879 0.698030 0.615342
O O1 0.292933 0.857374 0.584424
O O2 0.104261 0.892028 0.349503
O O3 0.463967 0.204202 0.705692
O O4 0.000000 0.000000 0.500000
O O5 0.626868 0.725381 0.130728
O O6 0.823711 0.904888 0.092991
O O7 0.764660 0.563224 0.017261
O O8 0.539103 0.323875 0.288769
O O9 0.320177 0.150817 0.318005
O O10 0.304579 0.970862 0.090767
O O11 0.317120 0.444735 0.741585
O O12 0.224688 0.311018 0.489988
O O13 0.000000 0.500000 0.500000
O O14 0.992323 0.259191 0.225067
O O15 0.500000 0.000000 0.000000
O O16 0.500000 0.500000 0.500000
#
# Coordination Sequence:
#
# PCOD9099842 Si02
#       7
#     2   2   2   2   2   2   2
#     4  10  20  39  61  92 135 180 227 282 342 409
#     4  10  21  37  63  99 139 171 224 299 348 397
#     4  11  23  42  64  98 141 179 228 288 358 412
#     4  11  20  39  68 100 130 175 238 290 336 422
#     4  10  20  37  61  97 139 169 228 289 353 399
#     4  12  22  41  72 106 132 180 244 292 340 419
#     4  10  25  43  65 102 145 184 220 292 372 417
#
# _framework density 24.108169
#
# number of rings (size 3 to 8) (size 9 to 14) (size 15 to 20)
#    0.000    1.429    1.429    5.571    0.000    0.000 
#    7.714    2.857    0.000    1.714    0.000    0.000 
#    0.000    0.000    0.000    0.000    0.000    0.000 
#
# Total GULP energy -78129.723967 kJ/mol
# GULP energy per Si atom -5580.694569 kJ/mol
# Density = 2.405330 g / cm^3
# Si number density = 24.108169 Si / 1000 Ang^3
#
#
#
# Elastic Constant Matrix: (Units=GPa)
#
#
# Indices 1 2 3 4 5 6 
#
# 1 83.7634 15.0722 35.2694 -4.4484 -1.6955 -4.8894
# 2 15.0722 78.1197 39.1134 -9.3290 -0.9453 8.7886
# 3 35.2694 39.1134 196.8591 11.9089 -17.8797 0.7807
# 4 -4.4484 -9.3290 11.9089 49.5654 9.0503 -2.9756
# 5 -1.6955 -0.9453 -17.8797 9.0503 36.5374 6.5128
# 6 -4.8894 8.7886 0.7807 -2.9756 6.5128 19.3803
#
#
#
# Elastic Compliance Matrix: (Units=1/GPa)
#
#
# Indices 1 2 3 4 5 6 
#
# 1 0.013677 -0.001789 -0.002440 0.002187 -0.002111 0.005405
# 2 -0.001789 0.015823 -0.003068 0.003295 -0.000791 -0.006732
# 3 -0.002440 -0.003068 0.006704 -0.003246 0.004139 -0.001384
# 4 0.002187 0.003295 -0.003246 0.023613 -0.008246 0.005585
# 5 -0.002111 -0.000791 0.004139 -0.008246 0.033619 -0.012904
# 6 0.005405 -0.006732 -0.001384 0.005585 -0.012904 0.061265
#
#
# Mechanical properties :
#
#
# Convention : Reuss Voigt Hill
#
# Bulk Modulus (GPa) = 46.27617 59.73915 53.00766
# Shear Modulus (GPa) = 28.32872 39.04910 33.68891
#
# Velocity S-wave (km/s) = 3.43164 4.02897 3.74225
# Velocity P-wave (km/s) = 5.91088 6.81740 6.38026
#
# Compressibility (1/GPa) = 0.02160940
#
# Stress axis : x y z
#
# Youngs Moduli (GPa) = 73.11643 63.19770 149.15864
#
# Poissons Ratio (x) = 0.11309 0.36399
# Poissons Ratio (y) = 0.13084 0.45759
# Poissons Ratio (z) = 0.17842 0.19388
#
# Static dielectric constant tensor:
#      x y z
#    x 1.901350 0.027220 0.020840 
#    y 0.027220 1.984880 0.080570 
#    z 0.020840 0.080570 1.997290 
# 
# From -- ./inp_files/308424.got.cif
#   From: 2010.05.17/outbox.cif.g08.bks.cpg/sg2_155_cif.got.tgz:308424.got - 2010.06.03 11:33:40.
