data_PCOD9099933
_publ_section_title
;
Structure prediction by ZEFSAII (Michael W. Deem and Ramdas Pophale) SiO2 
 PCOD9099933
Probable space group: P -1
;
_chemical_formula_sum "Si O2"
_cell_formula_units_Z 16
_cell_length_a 8.677136
_cell_length_b 15.712695
_cell_length_c 11.756763
_cell_angle_alpha 131.661416
_cell_angle_beta 140.160493
_cell_angle_gamma 51.139236
_cell_volume 743.897086
_symmetry_space_group_name_H-M "P -1"
_symmetry_group_IT_number 2
_symmetry_cell_setting 'triclinic'
loop_
_space_group_symop_operation_xyz
x,y,z
-x,-y,-z
loop_
_atom_site_type_symbol
_atom_site_label
_atom_site_fract_x
_atom_site_fract_y
_atom_site_fract_z
Si Si1 0.268811 0.598979 0.653664
Si Si2 0.718321 0.971435 0.509777
Si Si3 0.110550 0.097895 0.898352
Si Si4 0.209079 0.554823 0.222713
Si Si5 0.800310 0.506456 0.247832
Si Si6 0.901815 0.240293 0.487223
Si Si7 0.384432 0.939099 0.721985
Si Si8 0.703303 0.339562 0.860641
O O1 0.539903 0.545288 0.708284
O O2 0.273949 0.580385 0.776162
O O3 0.175063 0.726053 0.656712
O O4 0.069391 0.524983 0.441483
O O5 0.817418 0.835723 0.413673
O O6 0.500000 0.000000 0.500000
O O7 0.661934 0.042243 0.422013
O O8 0.950925 0.002069 0.732849
O O9 0.901363 0.219191 0.892485
O O10 0.249943 0.058852 0.821231
O O11 0.327710 0.090484 0.105704
O O12 0.127200 0.635924 0.356580
O O13 0.281596 0.640943 0.246925
O O14 0.000000 0.500000 0.000000
O O15 0.589176 0.629147 0.245917
O O16 0.790218 0.443399 0.067285
O O17 0.734537 0.163652 0.386852
#
# Coordination Sequence:
#
# PCOD9099933 Si02
#       8
#     2   2   2   2   2   2   2   2
#     4  10  22  39  60  93 125 168 210 258 318 383
#     4  11  25  45  66  98 130 165 217 270 326 386
#     4  10  22  41  69  94 126 171 216 267 320 386
#     4  11  23  37  61  95 127 165 217 259 311 387
#     4   9  21  39  59  91 133 161 209 261 315 387
#     4  11  23  42  67  89 129 169 210 268 319 378
#     4  10  23  44  67  96 127 167 221 269 323 382
#     4  10  20  37  62  87 125 171 203 257 324 375
#
# _framework density 21.50835
#
# number of rings (size 3 to 8) (size 9 to 14) (size 15 to 20)
#    0.000    1.750    0.000    4.125    5.250    1.500 
#    2.250    0.000    0.000    0.000    0.000    0.000 
#    0.000    0.000    0.000    0.000    0.000    0.000 
#
# Total GULP energy -89282.395377 kJ/mol
# GULP energy per Si atom -5580.149711 kJ/mol
# Density = 2.145940 g / cm^3
# Si number density = 21.508350 Si / 1000 Ang^3
#
#
#
# Elastic Constant Matrix: (Units=GPa)
#
#
# Indices 1 2 3 4 5 6 
#
# 1 89.7740 42.3829 24.6578 -6.3611 -4.9277 4.7536
# 2 42.3829 107.8051 16.8201 -14.5512 -3.8335 3.3136
# 3 24.6578 16.8201 78.7709 -13.5158 9.1927 -5.2295
# 4 -6.3611 -14.5512 -13.5158 22.9578 -1.5359 -0.9687
# 5 -4.9277 -3.8335 9.1927 -1.5359 27.3239 -10.2445
# 6 4.7536 3.3136 -5.2295 -0.9687 -10.2445 35.5172
#
#
#
# Elastic Compliance Matrix: (Units=1/GPa)
#
#
# Indices 1 2 3 4 5 6 
#
# 1 0.014900 -0.005271 -0.004222 -0.001570 0.002767 -0.001369
# 2 -0.005271 0.012249 0.000000 0.006383 0.001153 0.000069
# 3 -0.004222 0.000000 0.016103 0.008040 -0.005095 0.001686
# 4 -0.001570 0.006383 0.008040 0.052144 0.001873 0.002761
# 5 0.002767 0.001153 -0.005095 0.001873 0.043322 0.011319
# 6 -0.001369 0.000069 0.001686 0.002761 0.011319 0.031920
#
#
# Mechanical properties :
#
#
# Convention : Reuss Voigt Hill
#
# Bulk Modulus (GPa) = 41.21053 49.34129 45.27591
# Shear Modulus (GPa) = 25.28929 29.99241 27.64085
#
# Velocity S-wave (km/s) = 3.43270 3.73829 3.58875
# Velocity P-wave (km/s) = 5.90873 6.45162 6.18613
#
# Compressibility (1/GPa) = 0.02426564
#
# Stress axis : x y z
#
# Youngs Moduli (GPa) = 67.11365 81.64202 62.10093
#
# Poissons Ratio (x) = 0.43031 0.26219
# Poissons Ratio (y) = 0.35373 0.00002
# Poissons Ratio (z) = 0.28335 0.00002
#
# Static dielectric constant tensor:
#      x y z
#    x 1.813640 -0.019860 0.007000 
#    y -0.019860 1.844970 0.009790 
#    z 0.007000 0.009790 1.765640 
# 
# From -- ./inp_files/399695.got.cif
#   From: 2010.05.17/outbox.cif.g08.bks.cpg/sg2_200_cif.got.tgz:399695.got - 2010.06.03 11:33:40.
