data_PCOD9099060
_publ_section_title
;
Structure prediction by ZEFSAII (Michael W. Deem and Ramdas Pophale) SiO2 
 PCOD9099060
Probable space group: P -1
;
_chemical_formula_sum "Si O2"
_cell_formula_units_Z 14
_cell_length_a 8.555152
_cell_length_b 6.946912
_cell_length_c 14.999748
_cell_angle_alpha 79.078035
_cell_angle_beta 105.903407
_cell_angle_gamma 54.506529
_cell_volume 625.054105
_symmetry_space_group_name_H-M "P -1"
_symmetry_group_IT_number 2
_symmetry_cell_setting 'triclinic'
loop_
_space_group_symop_operation_xyz
x,y,z
-x,-y,-z
loop_
_atom_site_type_symbol
_atom_site_label
_atom_site_fract_x
_atom_site_fract_y
_atom_site_fract_z
Si Si1 0.595827 0.996310 0.923468
Si Si2 0.020214 0.552038 0.120786
Si Si3 0.082501 0.212534 0.545557
Si Si4 0.718663 0.208690 0.526002
Si Si5 0.958729 0.912268 0.773070
Si Si6 0.222066 0.766311 0.110101
Si Si7 0.230241 0.047940 0.785704
O O1 0.451292 0.996604 0.830938
O O2 0.595815 0.231705 0.897620
O O3 0.845511 0.728855 0.998380
O O4 0.500000 0.000000 0.000000
O O5 0.035217 0.314331 0.171359
O O6 0.224535 0.530081 0.132056
O O7 0.919334 0.730714 0.180339
O O8 0.000000 0.500000 0.500000
O O9 0.866406 0.253806 0.496906
O O10 0.269363 0.981417 0.526756
O O11 0.153960 0.129228 0.665839
O O12 0.500000 0.500000 0.500000
O O13 0.847949 0.024119 0.649489
O O14 0.188057 0.849728 0.816649
O O15 0.805767 0.143374 0.800706
O O16 0.000000 0.000000 0.000000
#
# Coordination Sequence:
#
# PCOD9099060 Si02
#       7
#     2   2   2   2   2   2   2
#     4   9  18  34  55  82 118 156 195 247 310 378
#     4   9  18  35  59  82 116 158 199 252 306 368
#     4  10  21  40  66  92 125 166 212 269 322 375
#     4  10  23  42  63  92 127 166 214 266 323 384
#     4  10  20  37  59  83 116 160 203 252 314 372
#     4   9  19  35  54  81 113 150 199 247 298 365
#     4   9  19  36  56  86 120 154 201 253 311 372
#
# _framework density 22.398060999999998
#
# number of rings (size 3 to 8) (size 9 to 14) (size 15 to 20)
#    0.000    2.571    0.000    1.714    0.000    4.571 
#    0.000   11.429    0.000    0.000    0.000    0.000 
#    0.000    0.000    0.000    0.000    0.000    0.000 
#
# Total GULP energy -77947.414030 kJ/mol
# GULP energy per Si atom -5567.672431 kJ/mol
# Density = 2.234708 g / cm^3
# Si number density = 22.398061 Si / 1000 Ang^3
#
#
#
# Elastic Constant Matrix: (Units=GPa)
#
#
# Indices 1 2 3 4 5 6 
#
# 1 156.1229 73.1897 21.0064 -9.5722 -2.3124 53.5765
# 2 73.1897 129.0660 7.8566 -9.5617 8.2555 31.9757
# 3 21.0064 7.8566 55.5856 6.8655 -0.7134 19.0257
# 4 -9.5722 -9.5617 6.8655 22.0922 8.1674 -11.6729
# 5 -2.3124 8.2555 -0.7134 8.1674 26.5589 -1.5527
# 6 53.5765 31.9757 19.0257 -11.6729 -1.5527 57.2828
#
#
#
# Elastic Compliance Matrix: (Units=1/GPa)
#
#
# Indices 1 2 3 4 5 6 
#
# 1 0.011437 -0.004747 -0.000497 -0.002313 0.002685 -0.008281
# 2 -0.004747 0.011390 0.000013 0.004193 -0.005314 -0.001212
# 3 -0.000497 0.000013 0.023524 -0.014562 0.004466 -0.010202
# 4 -0.002313 0.004193 -0.014562 0.068151 -0.021804 0.017955
# 5 0.002685 -0.005314 0.004466 -0.021804 0.046116 -0.004222
# 6 -0.008281 -0.001212 -0.010202 0.017955 -0.004222 0.032812
#
#
# Mechanical properties :
#
#
# Convention : Reuss Voigt Hill
#
# Bulk Modulus (GPa) = 27.86382 60.54220 44.20301
# Shear Modulus (GPa) = 23.16378 37.10156 30.13267
#
# Velocity S-wave (km/s) = 3.21937 4.07438 3.67185
# Velocity P-wave (km/s) = 5.12702 7.01590 6.14448
#
# Compressibility (1/GPa) = 0.03588883
#
# Stress axis : x y z
#
# Youngs Moduli (GPa) = 87.43492 87.79770 42.50991
#
# Poissons Ratio (x) = 0.41677 0.02112
# Poissons Ratio (y) = 0.41505 -0.00054
# Poissons Ratio (z) = 0.04344 -0.00112
#
# Static dielectric constant tensor:
#      x y z
#    x 2.313570 -0.841170 0.343520 
#    y -0.841170 3.713410 -0.664600 
#    z 0.343520 -0.664600 2.092380 
# 
# From -- ./inp_files/488454.got.cif
#   From: 2010.05.17/outbox.cif.g08.bks.cpg/sg2_245_cif.got.tgz:488454.got - 2010.06.03 11:33:40.
