data_PCOD9099572
_publ_section_title
;
Structure prediction by ZEFSAII (Michael W. Deem and Ramdas Pophale) SiO2 
 PCOD9099572
Probable space group: P -1
;
_chemical_formula_sum "Si O2"
_cell_formula_units_Z 16
_cell_length_a 11.869996
_cell_length_b 11.533852
_cell_length_c 8.752821
_cell_angle_alpha 96.550765
_cell_angle_beta 115.297130
_cell_angle_gamma 45.964253
_cell_volume 747.378496
_symmetry_space_group_name_H-M "P -1"
_symmetry_group_IT_number 2
_symmetry_cell_setting 'triclinic'
loop_
_space_group_symop_operation_xyz
x,y,z
-x,-y,-z
loop_
_atom_site_type_symbol
_atom_site_label
_atom_site_fract_x
_atom_site_fract_y
_atom_site_fract_z
Si Si1 0.790317 0.749218 0.527436
Si Si2 0.739432 0.452658 0.841165
Si Si3 0.384662 0.123063 0.095428
Si Si4 0.876961 0.851587 0.848984
Si Si5 0.284141 0.809125 0.208446
Si Si6 0.829467 0.605201 0.228136
Si Si7 0.452784 0.242633 0.419283
Si Si8 0.538893 0.611901 0.044850
O O1 0.823299 0.847559 0.646905
O O2 0.785926 0.737247 0.343186
O O3 0.620955 0.797770 0.504783
O O4 0.963443 0.560325 0.657434
O O5 0.732751 0.317569 0.790080
O O6 0.702138 0.560872 0.692909
O O7 0.577225 0.599807 0.884045
O O8 0.934010 0.331428 0.016498
O O9 0.277426 0.095690 0.121405
O O10 0.490446 0.132316 0.279837
O O11 0.232668 0.307435 0.958265
O O12 0.500000 0.000000 0.000000
O O13 0.879872 0.989310 0.869956
O O14 0.398393 0.782193 0.412911
O O15 0.386720 0.755247 0.096380
O O16 0.713750 0.566928 0.199047
O O17 0.500000 0.500000 0.000000
#
# Coordination Sequence:
#
# PCOD9099572 Si02
#       8
#     2   2   2   2   2   2   2   2
#     4  10  22  34  63  88 119 154 193 252 294 362
#     4  11  22  42  64  85 119 163 205 241 291 361
#     4  11  24  36  61  86 124 155 191 247 304 358
#     4  11  23  40  61  91 122 154 199 247 307 350
#     4  11  24  39  62  90 122 157 199 252 296 348
#     4  11  19  39  57  89 119 156 202 235 303 354
#     4  11  22  38  62  89 118 153 207 243 297 351
#     4  10  20  37  61  84 118 161 203 239 287 360
#
# _framework density 21.408162000000001
#
# number of rings (size 3 to 8) (size 9 to 14) (size 15 to 20)
#    0.000    1.250    3.750    2.250    1.750    3.000 
#    0.000    0.000    0.000    0.750    0.000    0.000 
#    0.000    0.000    0.000    0.000    0.000    0.000 
#
# Total GULP energy -89106.594762 kJ/mol
# GULP energy per Si atom -5569.162173 kJ/mol
# Density = 2.135944 g / cm^3
# Si number density = 21.408162 Si / 1000 Ang^3
#
#
#
# Elastic Constant Matrix: (Units=GPa)
#
#
# Indices 1 2 3 4 5 6 
#
# 1 52.0678 13.5849 5.5994 16.0870 13.4620 19.6151
# 2 13.5849 95.5701 32.2077 14.4358 -1.6246 15.6766
# 3 5.5994 32.2077 103.7461 16.1177 10.3401 10.1206
# 4 16.0870 14.4358 16.1177 47.2257 4.7330 -0.4751
# 5 13.4620 -1.6246 10.3401 4.7330 24.8832 7.3933
# 6 19.6151 15.6766 10.1206 -0.4751 7.3933 27.5903
#
#
#
# Elastic Compliance Matrix: (Units=1/GPa)
#
#
# Indices 1 2 3 4 5 6 
#
# 1 0.033780 -0.000787 0.003470 -0.011570 -0.011004 -0.022092
# 2 -0.000787 0.013566 -0.003486 -0.003325 0.005599 -0.007428
# 3 0.003470 -0.003486 0.011985 -0.003708 -0.005335 -0.003517
# 4 -0.011570 -0.003325 -0.003708 0.027655 -0.001334 0.012309
# 5 -0.011004 0.005599 -0.005335 -0.001334 0.051092 -0.007115
# 6 -0.022092 -0.007428 -0.003517 0.012309 -0.007115 0.059580
#
#
# Mechanical properties :
#
#
# Convention : Reuss Voigt Hill
#
# Bulk Modulus (GPa) = 17.32321 39.35203 28.33762
# Shear Modulus (GPa) = 22.88285 33.27263 28.07774
#
# Velocity S-wave (km/s) = 3.27293 3.94662 3.62545
# Velocity P-wave (km/s) = 4.73204 6.26014 5.54894
#
# Compressibility (1/GPa) = 0.05772602
#
# Stress axis : x y z
#
# Youngs Moduli (GPa) = 29.60314 73.71393 83.44018
#
# Poissons Ratio (x) = 0.05800 -0.28958
# Poissons Ratio (y) = 0.02329 0.29087
# Poissons Ratio (z) = -0.10274 0.25697
#
# Static dielectric constant tensor:
#      x y z
#    x 1.756630 -0.002260 0.003060 
#    y -0.002260 1.874060 0.023860 
#    z 0.003060 0.023860 1.787330 
# 
# From -- ./inp_files/185260.got.cif
#   From: 2010.05.17/outbox.cif.g08.bks.cpg/sg2_93_cif.got.tgz:185260.got - 2010.06.03 11:33:40.
