data_PCOD9099278
_publ_section_title
;
Structure prediction by ZEFSAII (Michael W. Deem and Ramdas Pophale) SiO2 
 PCOD9099278
Probable space group: P -1
;
_chemical_formula_sum "Si O2"
_cell_formula_units_Z 16
_cell_length_a 9.080232
_cell_length_b 11.779133
_cell_length_c 15.096438
_cell_angle_alpha 39.722916
_cell_angle_beta 98.513724
_cell_angle_gamma 70.901337
_cell_volume 730.945793
_symmetry_space_group_name_H-M "P -1"
_symmetry_group_IT_number 2
_symmetry_cell_setting 'triclinic'
loop_
_space_group_symop_operation_xyz
x,y,z
-x,-y,-z
loop_
_atom_site_type_symbol
_atom_site_label
_atom_site_fract_x
_atom_site_fract_y
_atom_site_fract_z
Si Si1 0.447906 0.734129 0.811909
Si Si2 0.096889 0.162681 0.640262
Si Si3 0.230478 0.238088 0.183599
Si Si4 0.347794 0.783426 0.172681
Si Si5 0.334617 0.341363 0.287957
Si Si6 0.509680 0.713212 0.476584
Si Si7 0.042002 0.903280 0.922447
Si Si8 0.307899 0.291748 0.684914
O O1 0.618999 0.735690 0.859120
O O2 0.488303 0.705330 0.726882
O O3 0.228543 0.995029 0.667295
O O4 0.500000 0.500000 0.000000
O O5 0.246776 0.149221 0.728715
O O6 0.895198 0.455654 0.437844
O O7 0.029408 0.037439 0.756177
O O8 0.293175 0.193594 0.320507
O O9 0.293968 0.999778 0.289264
O O10 0.000000 0.500000 0.000000
O O11 0.494527 0.491261 0.380953
O O12 0.509693 0.161984 0.840504
O O13 0.215685 0.852607 0.031944
O O14 0.173126 0.927445 0.146465
O O15 0.368869 0.305847 0.416344
O O16 0.134314 0.632076 0.079030
O O17 0.634790 0.650602 0.436049
#
# Coordination Sequence:
#
# PCOD9099278 Si02
#       8
#     2   2   2   2   2   2   2   2
#     4  10  20  37  60  82 115 153 191 230 292 348
#     4  11  21  37  58  85 118 157 190 233 294 357
#     4  10  22  36  60  89 109 151 196 242 283 336
#     4  10  23  37  59  90 113 156 193 249 282 341
#     4   9  21  35  62  84 114 153 188 243 286 340
#     4  11  20  38  59  87 115 147 199 241 285 340
#     4  10  20  38  62  85 117 150 199 234 300 340
#     4  11  23  36  60  86 119 153 196 239 291 340
#
# _framework density 21.889448999999999
#
# number of rings (size 3 to 8) (size 9 to 14) (size 15 to 20)
#    0.750    1.000    3.750    0.750    1.750    1.500 
#    0.000    0.000    8.250    2.250    0.000    0.000 
#    0.000    0.000    0.000    0.000    0.000    0.000 
#
# Total GULP energy -89272.160614 kJ/mol
# GULP energy per Si atom -5579.510038 kJ/mol
# Density = 2.183963 g / cm^3
# Si number density = 21.889449 Si / 1000 Ang^3
#
#
#
# Elastic Constant Matrix: (Units=GPa)
#
#
# Indices 1 2 3 4 5 6 
#
# 1 76.5453 8.4361 27.8530 -1.8728 9.0278 5.3752
# 2 8.4361 95.6284 27.8257 -15.2802 12.5399 -5.0885
# 3 27.8530 27.8257 74.1934 -22.2189 7.8999 -8.6378
# 4 -1.8728 -15.2802 -22.2189 33.5913 -2.1930 9.4970
# 5 9.0278 12.5399 7.8999 -2.1930 36.8712 -1.8801
# 6 5.3752 -5.0885 -8.6378 9.4970 -1.8801 35.7464
#
#
#
# Elastic Compliance Matrix: (Units=1/GPa)
#
#
# Indices 1 2 3 4 5 6 
#
# 1 0.016145 0.000398 -0.007164 -0.002859 -0.002902 -0.003495
# 2 0.000398 0.012381 -0.003506 0.003161 -0.003378 -0.000162
# 3 -0.007164 -0.003506 0.021249 0.011251 -0.000800 0.002682
# 4 -0.002859 0.003161 0.011251 0.040475 -0.000745 -0.007194
# 5 -0.002902 -0.003378 -0.000800 -0.000745 0.029184 0.001495
# 6 -0.003495 -0.000162 0.002682 -0.007194 0.001495 0.031115
#
#
# Mechanical properties :
#
#
# Convention : Reuss Voigt Hill
#
# Bulk Modulus (GPa) = 34.20925 41.62185 37.91555
# Shear Modulus (GPa) = 27.64901 33.39194 30.52047
#
# Velocity S-wave (km/s) = 3.55790 3.90998 3.73808
# Velocity P-wave (km/s) = 5.70441 6.28011 5.99917
#
# Compressibility (1/GPa) = 0.02923186
#
# Stress axis : x y z
#
# Youngs Moduli (GPa) = 61.93872 80.76605 47.06002
#
# Poissons Ratio (x) = -0.03215 0.33716
# Poissons Ratio (y) = -0.02466 0.16498
# Poissons Ratio (z) = 0.44376 0.28314
#
# Static dielectric constant tensor:
#      x y z
#    x 1.778700 0.036510 0.020610 
#    y 0.036510 1.826620 0.020060 
#    z 0.020610 0.020060 1.852800 
# 
# From -- ./inp_files/567327.got.cif
#   From: 2010.05.17/outbox.cif.g08.bks.cpg/sg2_284_cif.got.tgz:567327.got - 2010.06.03 11:33:40.
