data_PCOD9099364
_publ_section_title
;
Structure prediction by ZEFSAII (Michael W. Deem and Ramdas Pophale) SiO2 
 PCOD9099364
Probable space group: P -1
;
_chemical_formula_sum "Si O2"
_cell_formula_units_Z 16
_cell_length_a 9.113786
_cell_length_b 18.964088
_cell_length_c 7.564477
_cell_angle_alpha 95.856933
_cell_angle_beta 63.459188
_cell_angle_gamma 137.960073
_cell_volume 723.317078
_symmetry_space_group_name_H-M "P -1"
_symmetry_group_IT_number 2
_symmetry_cell_setting 'triclinic'
loop_
_space_group_symop_operation_xyz
x,y,z
-x,-y,-z
loop_
_atom_site_type_symbol
_atom_site_label
_atom_site_fract_x
_atom_site_fract_y
_atom_site_fract_z
Si Si1 0.616167 0.836549 0.291983
Si Si2 0.677628 0.992753 0.924525
Si Si3 0.243125 0.307251 0.248258
Si Si4 0.782335 0.800782 0.485953
Si Si5 0.369290 0.752883 0.920875
Si Si6 0.827575 0.448605 0.898599
Si Si7 0.972018 0.081037 0.160284
Si Si8 0.070134 0.663580 0.690142
O O1 0.639659 0.771283 0.372392
O O2 0.319695 0.760701 0.453938
O O3 0.798260 0.960409 0.314435
O O4 0.763494 0.867575 0.039953
O O5 0.918283 0.074760 0.676671
O O6 0.485138 0.862727 0.964114
O O7 0.805090 0.039018 0.062089
O O8 0.500000 0.000000 0.000000
O O9 0.225105 0.281711 0.459888
O O10 0.052002 0.181027 0.235893
O O11 0.144915 0.350214 0.248212
O O12 0.546724 0.393472 0.059282
O O13 0.611492 0.790033 0.712029
O O14 0.175937 0.706088 0.847487
O O15 0.238458 0.656706 0.112362
O O16 0.976638 0.549884 0.707627
O O17 0.000000 0.500000 0.000000
#
# Coordination Sequence:
#
# PCOD9099364 Si02
#       8
#     2   2   2   2   2   2   2   2
#     4   9  21  38  56  80 124 154 190 232 287 352
#     4  11  22  35  55  87 126 151 180 233 299 342
#     4  11  22  35  62  89 117 146 193 248 291 331
#     4   9  21  34  54  82 110 157 190 222 279 354
#     4   9  19  36  61  80 112 157 196 226 282 346
#     4   9  20  38  60  85 111 152 200 242 284 336
#     4  10  23  36  56  86 123 153 189 232 292 354
#     4  10  20  37  60  87 114 148 203 247 277 328
#
# _framework density 22.120312999999999
#
# number of rings (size 3 to 8) (size 9 to 14) (size 15 to 20)
#    0.000    2.250    0.000    2.250   15.750    0.500 
#    0.000    0.625    0.000    0.000    0.000   21.875 
#    0.000    0.000    0.000    0.000    0.000    0.000 
#
# Total GULP energy -89227.896983 kJ/mol
# GULP energy per Si atom -5576.743561 kJ/mol
# Density = 2.206997 g / cm^3
# Si number density = 22.120313 Si / 1000 Ang^3
#
#
#
# Elastic Constant Matrix: (Units=GPa)
#
#
# Indices 1 2 3 4 5 6 
#
# 1 161.8959 25.3134 21.1693 -4.8058 5.9681 -11.6176
# 2 25.3134 50.2283 11.2528 -22.9395 -1.7166 -4.2532
# 3 21.1693 11.2528 56.4403 -24.1482 3.5377 -3.2487
# 4 -4.8058 -22.9395 -24.1482 30.3375 2.7471 6.2008
# 5 5.9681 -1.7166 3.5377 2.7471 28.3150 -6.9873
# 6 -11.6176 -4.2532 -3.2487 6.2008 -6.9873 31.8424
#
#
#
# Elastic Compliance Matrix: (Units=1/GPa)
#
#
# Indices 1 2 3 4 5 6 
#
# 1 0.007777 -0.006227 -0.004960 -0.008073 0.000153 0.003105
# 2 -0.006227 0.036793 0.010336 0.036036 -0.002182 -0.003799
# 3 -0.004960 0.010336 0.032459 0.034614 -0.007077 -0.005411
# 4 -0.008073 0.036036 0.034614 0.090749 -0.012974 -0.015120
# 5 0.000153 -0.002182 -0.007077 -0.012974 0.039840 0.010311
# 6 0.003105 -0.003799 -0.005411 -0.015120 0.010311 0.036685
#
#
# Mechanical properties :
#
#
# Convention : Reuss Voigt Hill
#
# Bulk Modulus (GPa) = 13.27550 42.67061 27.97305
# Shear Modulus (GPa) = 18.44245 32.15425 25.29835
#
# Velocity S-wave (km/s) = 2.89058 3.81676 3.38549
# Velocity P-wave (km/s) = 4.14187 6.22540 5.28728
#
# Compressibility (1/GPa) = 0.07532675
#
# Stress axis : x y z
#
# Youngs Moduli (GPa) = 128.59155 27.17903 30.80781
#
# Poissons Ratio (x) = 0.16924 0.15282
# Poissons Ratio (y) = 0.80072 -0.31843
# Poissons Ratio (z) = 0.63786 -0.28093
#
# Static dielectric constant tensor:
#      x y z
#    x 1.843400 0.044590 0.066460 
#    y 0.044590 1.863010 -0.008130 
#    z 0.066460 -0.008130 1.889300 
# 
# From -- ./inp_files/217478.got.cif
#   From: 2010.05.17/outbox.cif.g08.bks.cpg/sg2_109_cif.got.tgz:217478.got - 2010.06.03 11:33:40.
