data_PCOD9099629
_publ_section_title
;
Structure prediction by ZEFSAII (Michael W. Deem and Ramdas Pophale) SiO2 
 PCOD9099629
Probable space group: P -1
;
_chemical_formula_sum "Si O2"
_cell_formula_units_Z 14
_cell_length_a 9.232853
_cell_length_b 19.190589
_cell_length_c 7.772148
_cell_angle_alpha 58.494139
_cell_angle_beta 108.252081
_cell_angle_gamma 150.568535
_cell_volume 542.806645
_symmetry_space_group_name_H-M "P -1"
_symmetry_group_IT_number 2
_symmetry_cell_setting 'triclinic'
loop_
_space_group_symop_operation_xyz
x,y,z
-x,-y,-z
loop_
_atom_site_type_symbol
_atom_site_label
_atom_site_fract_x
_atom_site_fract_y
_atom_site_fract_z
Si Si1 0.465053 0.163285 0.471455
Si Si2 0.713306 0.425942 0.035664
Si Si3 0.767817 0.946308 0.088103
Si Si4 0.212424 0.754638 0.989874
Si Si5 0.950544 0.178628 0.328322
Si Si6 0.853744 0.614457 0.574596
Si Si7 0.933730 0.742576 0.114102
O O1 0.471552 0.251085 0.255735
O O2 0.347837 0.127618 0.667051
O O3 0.809712 0.278886 0.450196
O O4 0.216792 0.985552 0.523451
O O5 0.876893 0.561735 0.062015
O O6 0.000000 0.500000 0.000000
O O7 0.637763 0.448506 0.815088
O O8 0.458975 0.800612 0.043107
O O9 0.921014 0.107958 0.947735
O O10 0.000000 0.000000 0.000000
O O11 0.208912 0.804881 0.096901
O O12 0.299702 0.865238 0.744398
O O13 0.109137 0.288625 0.413621
O O14 0.151134 0.278225 0.092943
O O15 0.758168 0.604917 0.366282
#
# Coordination Sequence:
#
# PCOD9099629 Si02
#       7
#     2   2   2   2   2   2   2
#     4  10  17  32  50  83 116 139 178 234 289 326
#     4   9  20  31  53  90 118 141 177 245 299 322
#     4  11  21  34  56  86 119 151 187 236 285 332
#     4   9  17  35  55  87 108 142 191 231 278 336
#     4   8  17  29  56  84 108 140 183 241 282 321
#     4  10  16  31  56  84 112 143 181 241 282 334
#     4   9  18  33  58  85 106 143 197 236 270 336
#
# _framework density 25.791872999999999
#
# number of rings (size 3 to 8) (size 9 to 14) (size 15 to 20)
#    0.857    1.714    1.429    1.714    0.000    2.857 
#    0.000    0.000    0.000   23.143    0.000    0.000 
#    0.000    0.000    0.000    0.000    0.000    0.000 
#
# Total GULP energy -78109.993986 kJ/mol
# GULP energy per Si atom -5579.285285 kJ/mol
# Density = 2.573317 g / cm^3
# Si number density = 25.791873 Si / 1000 Ang^3
#
#
#
# Elastic Constant Matrix: (Units=GPa)
#
#
# Indices 1 2 3 4 5 6 
#
# 1 96.5443 52.4215 74.2512 0.2059 -6.0912 -21.7825
# 2 52.4215 97.8908 62.3789 -6.1675 11.9857 -10.6210
# 3 74.2512 62.3789 226.1880 -14.6444 14.7964 -14.6067
# 4 0.2059 -6.1675 -14.6444 36.3329 -6.6267 5.4639
# 5 -6.0912 11.9857 14.7964 -6.6267 48.7253 -4.1359
# 6 -21.7825 -10.6210 -14.6067 5.4639 -4.1359 37.1205
#
#
#
# Elastic Compliance Matrix: (Units=1/GPa)
#
#
# Indices 1 2 3 4 5 6 
#
# 1 0.020913 -0.008235 -0.004642 -0.003633 0.006348 0.009331
# 2 -0.008235 0.016006 -0.001415 0.001614 -0.004448 -0.001543
# 3 -0.004642 -0.001415 0.006539 0.002222 -0.002010 -0.001107
# 4 -0.003633 0.001614 0.002222 0.029843 0.002113 -0.004953
# 5 0.006348 -0.004448 -0.002010 0.002113 0.023647 0.003985
# 6 0.009331 -0.001543 -0.001107 -0.004953 0.003985 0.032711
#
#
# Mechanical properties :
#
#
# Convention : Reuss Voigt Hill
#
# Bulk Modulus (GPa) = 67.23008 88.74735 77.98872
# Shear Modulus (GPa) = 30.63714 39.87384 35.25549
#
# Velocity S-wave (km/s) = 3.45027 3.93617 3.70120
# Velocity P-wave (km/s) = 6.48039 7.42574 6.96911
#
# Compressibility (1/GPa) = 0.01487429
#
# Stress axis : x y z
#
# Youngs Moduli (GPa) = 47.81758 62.47686 152.92824
#
# Poissons Ratio (x) = 0.51448 0.70989
# Poissons Ratio (y) = 0.39376 0.21640
# Poissons Ratio (z) = 0.22197 0.08841
#
# Static dielectric constant tensor:
#      x y z
#    x 2.226130 0.094320 -0.088820 
#    y 0.094320 2.001850 0.010090 
#    z -0.088820 0.010090 2.092280 
# 
# From -- ./inp_files/217103.got.cif
#   From: 2010.05.17/outbox.cif.g08.bks.cpg/sg2_109_cif.got.tgz:217103.got - 2010.06.03 11:33:40.
