data_PCOD9099121
_publ_section_title
;
Structure prediction by ZEFSAII (Michael W. Deem and Ramdas Pophale) SiO2 
 PCOD9099121
Probable space group: P -1
;
_chemical_formula_sum "Si O2"
_cell_formula_units_Z 16
_cell_length_a 14.161229
_cell_length_b 13.922502
_cell_length_c 22.624430
_cell_angle_alpha 23.082924
_cell_angle_beta 23.649835
_cell_angle_gamma 35.392521
_cell_volume 690.756225
_symmetry_space_group_name_H-M "P -1"
_symmetry_group_IT_number 2
_symmetry_cell_setting 'triclinic'
loop_
_space_group_symop_operation_xyz
x,y,z
-x,-y,-z
loop_
_atom_site_type_symbol
_atom_site_label
_atom_site_fract_x
_atom_site_fract_y
_atom_site_fract_z
Si Si1 0.238821 0.427396 0.374382
Si Si2 0.605510 0.377232 0.950694
Si Si3 0.353246 0.592382 0.450765
Si Si4 0.214001 0.127379 0.871157
Si Si5 0.156657 0.067755 0.316139
Si Si6 0.220127 0.434357 0.982541
Si Si7 0.632017 0.807617 0.068636
Si Si8 0.926412 0.051925 0.190926
O O1 0.496785 0.574967 0.164218
O O2 0.000000 0.500000 0.500000
O O3 0.236817 0.162248 0.557317
O O4 0.243302 0.453096 0.284780
O O5 0.382874 0.242632 0.116041
O O6 0.727163 0.138320 0.032836
O O7 0.500000 0.500000 0.000000
O O8 0.217972 0.333347 0.700906
O O9 0.567687 0.721209 0.299020
O O10 0.461196 0.590293 0.324764
O O11 0.198069 0.809665 0.411579
O O12 0.979594 0.063376 0.083531
O O13 0.058567 0.234188 0.229931
O O14 0.000000 0.000000 0.500000
O O15 0.192158 0.326323 0.994865
O O16 0.165195 0.696664 0.883174
O O17 0.808156 0.959236 0.929607
O O18 0.500000 0.000000 0.000000
#
# Coordination Sequence:
#
# PCOD9099121 Si02
#       8
#     2   2   2   2   2   2   2   2
#     4  11  22  42  65  86 127 179 210 252 324 382
#     4  10  22  39  61  92 126 164 217 266 311 381
#     4   9  18  34  59  84 120 164 200 256 313 374
#     4   9  18  36  60  87 120 163 211 254 318 377
#     4  10  20  37  59  85 123 165 204 253 321 377
#     4  11  23  38  60  94 128 159 216 264 310 382
#     4  11  21  38  60  93 127 159 210 262 314 375
#     4  11  22  38  64  91 123 168 215 261 314 376
#
# _framework density 23.163019999999999
#
# number of rings (size 3 to 8) (size 9 to 14) (size 15 to 20)
#    0.000    1.750    2.500    2.250    0.000    3.000 
#    2.250    0.000    0.000    4.500    0.000    0.000 
#    0.000    0.000    0.000    0.000    0.000    0.000 
#
# Total GULP energy -89125.464422 kJ/mol
# GULP energy per Si atom -5570.341526 kJ/mol
# Density = 2.311030 g / cm^3
# Si number density = 23.163020 Si / 1000 Ang^3
#
#
#
# Elastic Constant Matrix: (Units=GPa)
#
#
# Indices 1 2 3 4 5 6 
#
# 1 40.9973 18.1642 30.5742 6.3259 14.4411 7.3132
# 2 18.1642 141.2046 60.2422 -12.3941 36.2244 18.1419
# 3 30.5742 60.2422 184.3969 -5.2101 57.5172 18.1159
# 4 6.3259 -12.3941 -5.2101 33.9297 -9.2251 4.2549
# 5 14.4411 36.2244 57.5172 -9.2251 36.5180 14.2144
# 6 7.3132 18.1419 18.1159 4.2549 14.2144 21.3383
#
#
#
# Elastic Compliance Matrix: (Units=1/GPa)
#
#
# Indices 1 2 3 4 5 6 
#
# 1 0.031608 -0.001478 -0.001514 -0.010076 -0.011811 0.001586
# 2 -0.001478 0.009800 -0.000643 0.002610 -0.005979 -0.003817
# 3 -0.001514 -0.000643 0.011498 -0.004371 -0.020159 0.005604
# 4 -0.010076 0.002610 -0.004371 0.041716 0.027178 -0.021478
# 5 -0.011811 -0.005979 -0.020159 0.027178 0.092473 -0.040774
# 6 0.001586 -0.003817 0.005604 -0.021478 -0.040774 0.076252
#
#
# Mechanical properties :
#
#
# Convention : Reuss Voigt Hill
#
# Bulk Modulus (GPa) = 21.91300 64.95112 43.43206
# Shear Modulus (GPa) = 17.49299 35.53173 26.51236
#
# Velocity S-wave (km/s) = 2.75109 3.92086 3.38686
# Velocity P-wave (km/s) = 4.42405 6.97132 5.83830
#
# Compressibility (1/GPa) = 0.04563502
#
# Stress axis : x y z
#
# Youngs Moduli (GPa) = 31.63741 102.04546 86.97109
#
# Poissons Ratio (x) = 0.15084 0.13172
# Poissons Ratio (y) = 0.04677 0.05590
# Poissons Ratio (z) = 0.04791 0.06558
#
# Static dielectric constant tensor:
#      x y z
#    x 1.978440 -0.038200 -0.017420 
#    y -0.038200 1.809630 -0.006430 
#    z -0.017420 -0.006430 1.888690 
# 
# From -- ./inp_files/274732.got.cif
#   From: 2010.05.17/outbox.cif.g08.bks.cpg/sg2_138_cif.got.tgz:274732.got - 2010.06.03 11:33:40.
