data_PCOD9099293
_publ_section_title
;
Structure prediction by ZEFSAII (Michael W. Deem and Ramdas Pophale) SiO2 
 PCOD9099293
Probable space group: P -1
;
_chemical_formula_sum "Si O2"
_cell_formula_units_Z 16
_cell_length_a 24.657413
_cell_length_b 23.477971
_cell_length_c 6.564910
_cell_angle_alpha 48.062032
_cell_angle_beta 39.429328
_cell_angle_gamma 17.275874
_cell_volume 666.784035
_symmetry_space_group_name_H-M "P -1"
_symmetry_group_IT_number 2
_symmetry_cell_setting 'triclinic'
loop_
_space_group_symop_operation_xyz
x,y,z
-x,-y,-z
loop_
_atom_site_type_symbol
_atom_site_label
_atom_site_fract_x
_atom_site_fract_y
_atom_site_fract_z
Si Si1 0.995868 0.111452 0.924441
Si Si2 0.258582 0.483596 0.629448
Si Si3 0.274460 0.383035 0.442805
Si Si4 0.985268 0.188898 0.199341
Si Si5 0.250643 0.741017 0.074562
Si Si6 0.619546 0.015096 0.575469
Si Si7 0.047454 0.379143 0.554582
Si Si8 0.372571 0.904861 0.262995
O O1 0.787068 0.249701 0.074053
O O2 0.133415 0.065224 0.520462
O O3 0.916824 0.220684 0.094974
O O4 0.180259 0.888536 0.955182
O O5 0.244819 0.483562 0.426851
O O6 0.199133 0.610624 0.612521
O O7 0.504616 0.250864 0.552172
O O8 0.084565 0.568517 0.035634
O O9 0.058236 0.540630 0.557422
O O10 0.370897 0.242204 0.663428
O O11 0.469516 0.225843 0.079391
O O12 0.969017 0.119681 0.517511
O O13 0.200811 0.067897 0.831424
O O14 0.500000 0.500000 0.000000
O O15 0.702057 0.865565 0.607575
O O16 0.637200 0.009061 0.783748
O O17 0.000000 0.500000 0.500000
#
# Coordination Sequence:
#
# PCOD9099293 Si02
#       8
#     2   2   2   2   2   2   2   2
#     4  10  22  39  58  84 117 149 187 237 284 333
#     4   9  20  37  60  89 110 145 198 231 277 343
#     4  10  20  37  60  83 115 149 185 238 282 324
#     4  10  20  38  60  83 114 148 190 238 280 335
#     4  11  23  37  56  85 118 153 188 227 286 342
#     4   9  20  37  59  85 109 144 195 233 275 340
#     4  10  22  38  57  85 119 151 186 229 279 339
#     4   9  18  37  60  84 112 146 191 238 280 329
#
# _framework density 23.995777
#
# number of rings (size 3 to 8) (size 9 to 14) (size 15 to 20)
#    0.000    2.250    0.000    1.875    0.000    7.500 
#    0.000    9.375    0.000    0.000    0.000    0.000 
#    0.000    0.000    0.000    0.000    0.000    0.000 
#
# Total GULP energy -89216.464704 kJ/mol
# GULP energy per Si atom -5576.029044 kJ/mol
# Density = 2.394116 g / cm^3
# Si number density = 23.995777 Si / 1000 Ang^3
#
#
#
# Elastic Constant Matrix: (Units=GPa)
#
#
# Indices 1 2 3 4 5 6 
#
# 1 141.2464 46.1366 31.2169 4.6236 26.2005 16.3866
# 2 46.1366 98.6896 6.3094 12.2344 25.6662 15.4962
# 3 31.2169 6.3094 54.0780 4.1771 0.1398 8.4646
# 4 4.6236 12.2344 4.1771 21.1567 7.5487 3.2477
# 5 26.2005 25.6662 0.1398 7.5487 23.7874 -8.1371
# 6 16.3866 15.4962 8.4646 3.2477 -8.1371 39.4640
#
#
#
# Elastic Compliance Matrix: (Units=1/GPa)
#
#
# Indices 1 2 3 4 5 6 
#
# 1 0.012814 -0.000219 -0.006541 0.006569 -0.018741 -0.008236
# 2 -0.000219 0.018211 -0.000060 -0.000322 -0.023355 -0.011836
# 3 -0.006541 -0.000060 0.022695 -0.006368 0.009262 0.000306
# 4 0.006569 -0.000322 -0.006368 0.059911 -0.030095 -0.012371
# 5 -0.018741 -0.023355 0.009262 -0.030095 0.111185 0.040368
# 6 -0.008236 -0.011836 0.000306 -0.012371 0.040368 0.042683
#
#
# Mechanical properties :
#
#
# Convention : Reuss Voigt Hill
#
# Bulk Modulus (GPa) = 24.95092 51.25997 38.10545
# Shear Modulus (GPa) = 16.97791 30.90502 23.94146
#
# Velocity S-wave (km/s) = 2.66284 3.59268 3.16212
# Velocity P-wave (km/s) = 4.45813 6.21436 5.40801
#
# Compressibility (1/GPa) = 0.04007868
#
# Stress axis : x y z
#
# Youngs Moduli (GPa) = 78.03975 54.91074 44.06286
#
# Poissons Ratio (x) = 0.01205 0.28822
# Poissons Ratio (y) = 0.01712 0.00265
# Poissons Ratio (z) = 0.51047 0.00331
#
# Static dielectric constant tensor:
#      x y z
#    x 1.971840 -0.000270 0.013690 
#    y -0.000270 1.972270 -0.026620 
#    z 0.013690 -0.026620 1.995620 
# 
# From -- ./inp_files/125136.got.cif
#   From: 2010.05.17/outbox.cif.g08.bks.cpg/sg2_63_cif.got.tgz:125136.got - 2010.06.03 11:33:40.
