data_PCOD9099030
_publ_section_title
;
Structure prediction by ZEFSAII (Michael W. Deem and Ramdas Pophale) SiO2 
 PCOD9099030
Probable space group: P -1
;
_chemical_formula_sum "Si O2"
_cell_formula_units_Z 16
_cell_length_a 14.244824
_cell_length_b 19.819456
_cell_length_c 11.215143
_cell_angle_alpha 31.442147
_cell_angle_beta 33.791588
_cell_angle_gamma 34.892839
_cell_volume 848.477367
_symmetry_space_group_name_H-M "P -1"
_symmetry_group_IT_number 2
_symmetry_cell_setting 'triclinic'
loop_
_space_group_symop_operation_xyz
x,y,z
-x,-y,-z
loop_
_atom_site_type_symbol
_atom_site_label
_atom_site_fract_x
_atom_site_fract_y
_atom_site_fract_z
Si Si1 0.785990 0.386815 0.414313
Si Si2 0.627138 0.946264 0.830659
Si Si3 0.681819 0.364323 0.813418
Si Si4 0.355682 0.639964 0.732462
Si Si5 0.441863 0.774191 0.660607
Si Si6 0.483457 0.295853 0.753380
Si Si7 0.170701 0.432993 0.510358
Si Si8 0.030019 0.292001 0.081721
O O1 0.804921 0.339600 0.602827
O O2 0.658489 0.308260 0.614422
O O3 0.674669 0.554231 0.278975
O O4 0.954767 0.357843 0.191319
O O5 0.826062 0.860791 0.806160
O O6 0.611893 0.074578 0.568582
O O7 0.571619 0.836172 0.976778
O O8 0.500000 0.000000 0.000000
O O9 0.474330 0.475394 0.835921
O O10 0.760615 0.448668 0.693190
O O11 0.649965 0.235647 0.102159
O O12 0.366135 0.685815 0.785134
O O13 0.467591 0.708523 0.431420
O O14 0.151951 0.693762 0.818957
O O15 0.660873 0.687440 0.553219
O O16 0.000000 0.500000 0.500000
O O17 0.121854 0.367797 0.780841
#
# Coordination Sequence:
#
# PCOD9099030 Si02
#       8
#     2   2   2   2   2   2   2   2
#     4   9  20  38  61  84 110 152 202 238 273 333
#     4  12  22  38  55  87 123 153 187 233 298 348
#     4  10  20  37  59  81 117 155 189 238 287 335
#     4   9  17  34  58  85 112 149 191 243 285 334
#     4  11  21  37  55  80 123 156 184 230 299 345
#     4   9  18  36  59  82 115 150 193 237 285 338
#     4  11  21  35  59  90 117 142 194 248 290 330
#     4  11  21  35  60  91 114 149 196 240 284 336
#
# _framework density 18.857309999999998
#
# number of rings (size 3 to 8) (size 9 to 14) (size 15 to 20)
#    0.000    1.750    2.500    5.250    0.000    2.500 
#    0.000    1.250    0.000    0.000    0.000    0.000 
#    0.000    0.000    0.000    0.000    0.000    0.000 
#
# Total GULP energy -89152.505347 kJ/mol
# GULP energy per Si atom -5572.031584 kJ/mol
# Density = 1.881439 g / cm^3
# Si number density = 18.857310 Si / 1000 Ang^3
#
#
#
# Elastic Constant Matrix: (Units=GPa)
#
#
# Indices 1 2 3 4 5 6 
#
# 1 72.0052 33.4148 30.8976 -2.1759 1.0182 -14.1200
# 2 33.4148 67.9569 41.4315 6.9704 4.1723 -15.2203
# 3 30.8976 41.4315 123.3218 -5.5791 33.0962 -7.9244
# 4 -2.1759 6.9704 -5.5791 21.8133 -5.6257 3.0712
# 5 1.0182 4.1723 33.0962 -5.6257 32.2368 5.6450
# 6 -14.1200 -15.2203 -7.9244 3.0712 5.6450 33.9798
#
#
#
# Elastic Compliance Matrix: (Units=1/GPa)
#
#
# Indices 1 2 3 4 5 6 
#
# 1 0.019359 -0.007809 -0.002779 0.004196 0.003469 0.002943
# 2 -0.007809 0.025569 -0.006835 -0.011607 0.000605 0.007563
# 3 -0.002779 -0.006835 0.015204 0.001806 -0.014600 0.001591
# 4 0.004196 -0.011607 0.001806 0.054578 0.010748 -0.009753
# 5 0.003469 0.000605 -0.014600 0.010748 0.049607 -0.010905
# 6 0.002943 0.007563 0.001591 -0.009753 -0.010905 0.037104
#
#
# Mechanical properties :
#
#
# Convention : Reuss Voigt Hill
#
# Bulk Modulus (GPa) = 39.54789 52.75242 46.15015
# Shear Modulus (GPa) = 20.43350 28.10865 24.27107
#
# Velocity S-wave (km/s) = 3.29536 3.86501 3.59150
# Velocity P-wave (km/s) = 5.95793 6.92481 6.45949
#
# Compressibility (1/GPa) = 0.02528580
#
# Stress axis : x y z
#
# Youngs Moduli (GPa) = 51.65564 39.10917 65.77312
#
# Poissons Ratio (x) = 0.30540 0.18277
# Poissons Ratio (y) = 0.40338 0.44959
# Poissons Ratio (z) = 0.14354 0.26733
#
# Static dielectric constant tensor:
#      x y z
#    x 1.690640 0.000280 0.011760 
#    y 0.000280 1.660030 0.018710 
#    z 0.011760 0.018710 1.699190 
# 
# From -- ./inp_files/426484.got.cif
#   From: 2010.05.17/outbox.cif.g08.bks.cpg/sg2_214_cif.got.tgz:426484.got - 2010.06.03 11:33:40.
