data_PCOD9099167
_publ_section_title
;
Structure prediction by ZEFSAII (Michael W. Deem and Ramdas Pophale) SiO2 
 PCOD9099167
Probable space group: P -1
;
_chemical_formula_sum "Si O2"
_cell_formula_units_Z 14
_cell_length_a 10.260006
_cell_length_b 6.316955
_cell_length_c 22.276285
_cell_angle_alpha 52.816888
_cell_angle_beta 38.127384
_cell_angle_gamma 45.107190
_cell_volume 627.491379
_symmetry_space_group_name_H-M "P -1"
_symmetry_group_IT_number 2
_symmetry_cell_setting 'triclinic'
loop_
_space_group_symop_operation_xyz
x,y,z
-x,-y,-z
loop_
_atom_site_type_symbol
_atom_site_label
_atom_site_fract_x
_atom_site_fract_y
_atom_site_fract_z
Si Si1 0.984267 0.885554 0.932769
Si Si2 0.118883 0.212278 0.431486
Si Si3 0.828810 0.187965 0.253563
Si Si4 0.221707 0.520393 0.233022
Si Si5 0.367775 0.213481 0.455352
Si Si6 0.175527 0.414642 0.135366
Si Si7 0.647993 0.658892 0.044952
O O1 0.129892 0.756960 0.839815
O O2 0.151484 0.688478 0.958818
O O3 0.915652 0.230998 0.899513
O O4 0.755961 0.828725 0.017898
O O5 0.235211 0.291961 0.318740
O O6 0.306204 0.080110 0.441028
O O7 0.890133 0.529050 0.476166
O O8 0.000000 0.000000 0.500000
O O9 0.553675 0.326600 0.346462
O O10 0.965386 0.323797 0.220924
O O11 0.964011 0.822522 0.274123
O O12 0.274603 0.358439 0.176701
O O13 0.404901 0.657292 0.151123
O O14 0.500000 0.000000 0.500000
O O15 0.341371 0.269608 0.041590
#
# Coordination Sequence:
#
# PCOD9099167 Si02
#       7
#     2   2   2   2   2   2   2
#     4   9  20  38  59  88 124 165 214 260 319 383
#     4  11  27  45  70 103 128 171 228 274 330 395
#     4  10  22  40  62  90 126 173 207 262 330 385
#     4  11  23  39  60  91 130 164 215 267 326 385
#     4  11  24  46  70  93 134 171 217 276 333 390
#     4  10  22  36  61  92 123 167 214 257 323 386
#     4  10  20  37  59  87 127 165 207 266 317 383
#
# _framework density 22.311063000000001
#
# number of rings (size 3 to 8) (size 9 to 14) (size 15 to 20)
#    0.000    1.714    1.429    1.714    2.000   10.286 
#    0.000    0.000    0.000    0.000    0.000    0.000 
#    0.000    0.000    0.000    0.000    0.000    0.000 
#
# Total GULP energy -78231.929537 kJ/mol
# GULP energy per Si atom -5587.994967 kJ/mol
# Density = 2.226028 g / cm^3
# Si number density = 22.311063 Si / 1000 Ang^3
#
#
#
# Elastic Constant Matrix: (Units=GPa)
#
#
# Indices 1 2 3 4 5 6 
#
# 1 134.6561 21.7011 63.1570 -12.2931 17.7828 -10.2468
# 2 21.7011 34.2384 5.6512 -8.5834 7.7871 7.1672
# 3 63.1570 5.6512 129.8511 -14.0032 -0.2870 6.5789
# 4 -12.2931 -8.5834 -14.0032 34.4827 -3.7736 -6.8166
# 5 17.7828 7.7871 -0.2870 -3.7736 37.4641 -3.1842
# 6 -10.2468 7.1672 6.5789 -6.8166 -3.1842 32.9166
#
#
#
# Elastic Compliance Matrix: (Units=1/GPa)
#
#
# Indices 1 2 3 4 5 6 
#
# 1 0.012480 -0.007135 -0.005977 0.001111 -0.003823 0.006493
# 2 -0.007135 0.037888 0.002930 0.005500 -0.004794 -0.010381
# 3 -0.005977 0.002930 0.010957 0.002510 0.002229 -0.003953
# 4 0.001111 0.005500 0.002510 0.033154 0.002174 0.005723
# 5 -0.003823 -0.004794 0.002229 0.002174 0.029974 0.002758
# 6 0.006493 -0.010381 -0.003953 0.005723 0.002758 0.036903
#
#
# Mechanical properties :
#
#
# Convention : Reuss Voigt Hill
#
# Bulk Modulus (GPa) = 24.41372 53.30713 38.86042
# Shear Modulus (GPa) = 25.59196 34.85509 30.22353
#
# Velocity S-wave (km/s) = 3.39049 3.95680 3.68454
# Velocity P-wave (km/s) = 5.12771 6.69474 5.96293
#
# Compressibility (1/GPa) = 0.04096058
#
# Stress axis : x y z
#
# Youngs Moduli (GPa) = 80.12826 26.39351 91.26832
#
# Poissons Ratio (x) = 0.18831 0.54552
# Poissons Ratio (y) = 0.57170 -0.26740
# Poissons Ratio (z) = 0.47894 -0.07733
#
# Static dielectric constant tensor:
#      x y z
#    x 1.823010 0.000970 0.018990 
#    y 0.000970 1.886770 -0.047160 
#    z 0.018990 -0.047160 2.367650 
# 
# From -- ./inp_files/585511.got.cif
#   From: 2010.05.17/outbox.cif.g08.bks.cpg/sg2_293_cif.got.tgz:585511.got - 2010.06.03 11:33:40.
