data_PCOD9099067
_publ_section_title
;
Structure prediction by ZEFSAII (Michael W. Deem and Ramdas Pophale) SiO2 
 PCOD9099067
Probable space group: P -1
;
_chemical_formula_sum "Si O2"
_cell_formula_units_Z 16
_cell_length_a 21.432263
_cell_length_b 6.770773
_cell_length_c 16.027033
_cell_angle_alpha 91.671222
_cell_angle_beta 23.915044
_cell_angle_gamma 107.602758
_cell_volume 690.524458
_symmetry_space_group_name_H-M "P -1"
_symmetry_group_IT_number 2
_symmetry_cell_setting 'triclinic'
loop_
_space_group_symop_operation_xyz
x,y,z
-x,-y,-z
loop_
_atom_site_type_symbol
_atom_site_label
_atom_site_fract_x
_atom_site_fract_y
_atom_site_fract_z
Si Si1 0.240487 0.499748 0.274498
Si Si2 0.089029 0.793133 0.457071
Si Si3 0.678275 0.711396 0.698681
Si Si4 0.676007 0.147839 0.447049
Si Si5 0.046978 0.883019 0.779705
Si Si6 0.753823 0.928448 0.212219
Si Si7 0.273512 0.538540 0.970281
Si Si8 0.484147 0.587890 0.383123
O O1 0.237946 0.732755 0.268319
O O2 0.272946 0.466799 0.331113
O O3 0.019076 0.248654 0.499028
O O4 0.436889 0.565939 0.990347
O O5 0.215237 0.072185 0.353026
O O6 0.892976 0.566435 0.754901
O O7 0.796244 0.881658 0.474764
O O8 0.745401 0.131117 0.270330
O O9 0.447339 0.857919 0.747564
O O10 0.838367 0.185446 0.310250
O O11 0.664372 0.372025 0.468800
O O12 0.963678 0.987962 0.940159
O O13 0.856433 0.618771 0.957615
O O14 0.639589 0.833584 0.261205
O O15 0.627476 0.675170 0.427139
O O16 0.391529 0.430892 0.837484
#
# Coordination Sequence:
#
# PCOD9099067 Si02
#       8
#     2   2   2   2   2   2   2   2
#     4  10  21  37  61  84 107 145 187 220 276 337
#     4  10  20  37  59  84 111 144 184 227 269 326
#     4  10  21  39  56  81 117 144 176 231 278 319
#     4  11  20  36  60  81 109 151 184 222 274 318
#     4  10  21  37  56  82 114 144 184 228 269 326
#     4   9  19  36  54  80 113 144 183 228 269 321
#     4   9  21  38  54  82 117 143 180 229 270 320
#     4   9  19  36  57  80 111 147 184 225 271 321
#
# _framework density 23.170794999999998
#
# number of rings (size 3 to 8) (size 9 to 14) (size 15 to 20)
#    0.000    2.250    0.000    3.000    0.000    3.500 
#    0.000   17.500    0.000    0.000    0.000    0.000 
#    0.000    0.000    0.000    0.000    0.000    0.000 
#
# Total GULP energy -89450.371321 kJ/mol
# GULP energy per Si atom -5590.648208 kJ/mol
# Density = 2.311806 g / cm^3
# Si number density = 23.170795 Si / 1000 Ang^3
#
#
#
# Elastic Constant Matrix: (Units=GPa)
#
#
# Indices 1 2 3 4 5 6 
#
# 1 63.8675 13.7853 25.0488 17.3945 -17.9140 -10.6173
# 2 13.7853 50.1111 20.1374 9.4610 -11.2742 -11.3305
# 3 25.0488 20.1374 82.4241 15.7762 -7.7595 -10.8699
# 4 17.3945 9.4610 15.7762 20.6301 -0.5461 -11.8046
# 5 -17.9140 -11.2742 -7.7595 -0.5461 32.9735 7.1073
# 6 -10.6173 -11.3305 -10.8699 -11.8046 7.1073 30.3203
#
#
#
# Elastic Compliance Matrix: (Units=1/GPa)
#
#
# Indices 1 2 3 4 5 6 
#
# 1 0.025875 0.000481 -0.003048 -0.021279 0.013883 -0.003391
# 2 0.000481 0.025063 -0.003846 -0.006486 0.006956 0.004000
# 3 -0.003048 -0.003846 0.015484 -0.007492 0.000548 0.000001
# 4 -0.021279 -0.006486 -0.007492 0.090160 -0.019913 0.027209
# 5 0.013883 0.006956 0.000548 -0.019913 0.042200 -0.009987
# 6 -0.003391 0.004000 0.000001 0.027209 -0.009987 0.046223
#
#
# Mechanical properties :
#
#
# Convention : Reuss Voigt Hill
#
# Bulk Modulus (GPa) = 18.65816 34.92731 26.79274
# Shear Modulus (GPa) = 18.13591 25.94686 22.04138
#
# Velocity S-wave (km/s) = 2.80072 3.34998 3.08759
# Velocity P-wave (km/s) = 4.30449 5.48359 4.92942
#
# Compressibility (1/GPa) = 0.05359586
#
# Stress axis : x y z
#
# Youngs Moduli (GPa) = 38.64758 39.90001 64.58253
#
# Poissons Ratio (x) = -0.01920 0.19687
# Poissons Ratio (y) = -0.01859 0.24836
# Poissons Ratio (z) = 0.11781 0.15344
#
# Static dielectric constant tensor:
#      x y z
#    x 1.888340 0.020450 -0.020480 
#    y 0.020450 1.865280 -0.008920 
#    z -0.020480 -0.008920 1.877200 
# 
# From -- ./inp_files/225212.got.cif
#   From: 2010.05.17/outbox.cif.g08.bks.cpg/sg2_113_cif.got.tgz:225212.got - 2010.06.03 11:33:40.
