data_PCOD9099929
_publ_section_title
;
Structure prediction by ZEFSAII (Michael W. Deem and Ramdas Pophale) SiO2 
 PCOD9099929
Probable space group: P -1
;
_chemical_formula_sum "Si O2"
_cell_formula_units_Z 16
_cell_length_a 8.856006
_cell_length_b 19.201731
_cell_length_c 14.141184
_cell_angle_alpha 20.409780
_cell_angle_beta 109.410183
_cell_angle_gamma 119.828740
_cell_volume 652.418118
_symmetry_space_group_name_H-M "P -1"
_symmetry_group_IT_number 2
_symmetry_cell_setting 'triclinic'
loop_
_space_group_symop_operation_xyz
x,y,z
-x,-y,-z
loop_
_atom_site_type_symbol
_atom_site_label
_atom_site_fract_x
_atom_site_fract_y
_atom_site_fract_z
Si Si1 0.473207 0.334675 0.308593
Si Si2 0.684872 0.151945 0.717220
Si Si3 0.025306 0.826344 0.511944
Si Si4 0.177640 0.522438 0.912337
Si Si5 0.122260 0.496224 0.354743
Si Si6 0.604097 0.359177 0.615153
Si Si7 0.651144 0.546810 0.690401
Si Si8 0.055760 0.854633 0.822815
O O1 0.577483 0.233396 0.523066
O O2 0.454628 0.500923 0.170038
O O3 0.260598 0.104882 0.528625
O O4 0.617809 0.432664 0.125707
O O5 0.687916 0.261360 0.681098
O O6 0.904937 0.263705 0.590941
O O7 0.552777 0.865891 0.066446
O O8 0.897077 0.602584 0.842867
O O9 0.866500 0.790868 0.447609
O O10 0.087357 0.070713 0.267057
O O11 0.179657 0.765496 0.594477
O O12 0.032448 0.322539 0.059479
O O13 0.224914 0.459456 0.509739
O O14 0.267352 0.587363 0.178103
O O15 0.090481 0.709696 0.092957
O O16 0.487861 0.440392 0.428278
#
# Coordination Sequence:
#
# PCOD9099929 Si02
#       8
#     2   2   2   2   2   2   2   2
#     4  10  21  41  64  92 126 169 205 262 316 369
#     4  10  20  37  62  87 124 168 206 259 316 360
#     4  10  23  42  68  96 123 168 212 260 317 381
#     4  11  22  46  68  90 131 163 209 268 317 369
#     4  12  21  40  63  90 129 169 205 259 313 373
#     4  10  22  38  60  91 123 165 213 258 304 380
#     4  10  22  40  60  91 130 162 213 259 308 368
#     4  11  22  39  66  93 128 165 208 258 314 377
#
# _framework density 24.524151
#
# number of rings (size 3 to 8) (size 9 to 14) (size 15 to 20)
#    0.000    1.500    3.750    1.125    1.750    2.500 
#    2.250    3.750    0.000    0.000    0.000    0.000 
#    0.000    0.000    0.000    0.000    0.000    0.000 
#
# Total GULP energy -89280.703917 kJ/mol
# GULP energy per Si atom -5580.043995 kJ/mol
# Density = 2.446833 g / cm^3
# Si number density = 24.524151 Si / 1000 Ang^3
#
#
#
# Elastic Constant Matrix: (Units=GPa)
#
#
# Indices 1 2 3 4 5 6 
#
# 1 174.4398 40.7181 25.8387 -4.2971 5.4937 2.7052
# 2 40.7181 59.1117 -3.7861 0.0066 6.7938 10.9987
# 3 25.8387 -3.7861 33.5658 -0.7056 -2.5722 -1.8301
# 4 -4.2971 0.0066 -0.7056 21.5854 6.7729 -1.3813
# 5 5.4937 6.7938 -2.5722 6.7729 38.7346 2.4367
# 6 2.7052 10.9987 -1.8301 -1.3813 2.4367 38.6286
#
#
#
# Elastic Compliance Matrix: (Units=1/GPa)
#
#
# Indices 1 2 3 4 5 6 
#
# 1 0.008295 -0.006244 -0.007069 0.001775 -0.000923 0.000984
# 2 -0.006244 0.022967 0.006905 -0.000694 -0.002207 -0.005661
# 3 -0.007069 0.006905 0.036177 -0.000963 0.002359 0.000060
# 4 0.001775 -0.000694 -0.000963 0.049632 -0.009021 0.002371
# 5 -0.000923 -0.002207 0.002359 -0.009021 0.028150 -0.001294
# 6 0.000984 -0.005661 0.000060 0.002371 -0.001294 0.027600
#
#
# Mechanical properties :
#
#
# Convention : Reuss Voigt Hill
#
# Bulk Modulus (GPa) = 18.30770 43.62874 30.96822
# Shear Modulus (GPa) = 24.52858 33.41284 28.97071
#
# Velocity S-wave (km/s) = 3.16599 3.69514 3.44075
# Velocity P-wave (km/s) = 4.56575 6.00284 5.33293
#
# Compressibility (1/GPa) = 0.05462181
#
# Stress axis : x y z
#
# Youngs Moduli (GPa) = 120.55938 43.54051 27.64222
#
# Poissons Ratio (x) = 0.27185 0.19541
# Poissons Ratio (y) = 0.75272 -0.19086
# Poissons Ratio (z) = 0.85226 -0.30063
#
# Static dielectric constant tensor:
#      x y z
#    x 2.017250 -0.058920 -0.007060 
#    y -0.058920 2.014450 0.051230 
#    z -0.007060 0.051230 1.981900 
# 
# From -- ./inp_files/206685.got.cif
#   From: 2010.05.17/outbox.cif.g08.bks.cpg/sg2_104_cif.got.tgz:206685.got - 2010.06.03 11:33:40.
