data_PCOD9099289
_publ_section_title
;
Structure prediction by ZEFSAII (Michael W. Deem and Ramdas Pophale) SiO2 
 PCOD9099289
Probable space group: P -1
;
_chemical_formula_sum "Si O2"
_cell_formula_units_Z 10
_cell_length_a 4.957237
_cell_length_b 5.802669
_cell_length_c 14.573133
_cell_angle_alpha 96.258477
_cell_angle_beta 122.060809
_cell_angle_gamma 94.290298
_cell_volume 348.740606
_symmetry_space_group_name_H-M "P -1"
_symmetry_group_IT_number 2
_symmetry_cell_setting 'triclinic'
loop_
_space_group_symop_operation_xyz
x,y,z
-x,-y,-z
loop_
_atom_site_type_symbol
_atom_site_label
_atom_site_fract_x
_atom_site_fract_y
_atom_site_fract_z
Si Si1 0.523789 0.884569 0.777078
Si Si2 0.013876 0.851754 0.370976
Si Si3 0.533433 0.291902 0.429225
Si Si4 0.692256 0.194944 0.974783
Si Si5 0.847754 0.493965 0.172148
O O1 0.554504 0.701044 0.693266
O O2 0.298754 0.728060 0.801996
O O3 0.782218 0.054893 0.893833
O O4 0.330352 0.067581 0.698187
O O5 0.106708 0.756432 0.481864
O O6 0.049647 0.669921 0.287388
O O7 0.272421 0.077000 0.406029
O O8 0.500000 0.500000 0.500000
O O9 0.431738 0.355965 0.901406
O O10 0.945494 0.373504 0.089521
O O11 0.500000 0.000000 0.000000
#
# Coordination Sequence:
#
# PCOD9099289 Si02
#       5
#     2   2   2   2   2
#     4  10  20  37  60  83 112 150 185 226 281 330
#     4  10  22  38  57  81 114 150 188 229 275 329
#     4  11  24  38  54  82 117 150 189 232 273 326
#     4   8  16  32  57  86 111 140 181 227 279 335
#     4   9  17  33  60  85 108 143 185 229 277 331
#
# _framework density 28.674607999999999
#
# number of rings (size 3 to 8) (size 9 to 14) (size 15 to 20)
#    0.000    2.400    0.000    1.800    0.000    9.600 
#    0.000    1.000    0.000   49.200    0.000    0.000 
#    0.000    0.000    0.000    0.000    0.000    0.000 
#
# Total GULP energy -55965.451284 kJ/mol
# GULP energy per Si atom -5596.545128 kJ/mol
# Density = 2.860934 g / cm^3
# Si number density = 28.674608 Si / 1000 Ang^3
#
#
#
# Elastic Constant Matrix: (Units=GPa)
#
#
# Indices 1 2 3 4 5 6 
#
# 1 66.2995 24.6665 40.2169 13.0279 -17.7463 -5.8820
# 2 24.6665 120.2688 79.4221 47.2248 -12.3009 -18.9577
# 3 40.2169 79.4221 309.6147 58.6526 -24.2644 -10.6623
# 4 13.0279 47.2248 58.6526 95.2200 -18.6170 -11.6475
# 5 -17.7463 -12.3009 -24.2644 -18.6170 43.6799 13.5946
# 6 -5.8820 -18.9577 -10.6623 -11.6475 13.5946 39.1426
#
#
#
# Elastic Compliance Matrix: (Units=1/GPa)
#
#
# Indices 1 2 3 4 5 6 
#
# 1 0.018439 -0.002668 -0.001382 0.000830 0.006622 -0.000951
# 2 -0.002668 0.012411 -0.002005 -0.004395 -0.001956 0.004435
# 3 -0.001382 -0.002005 0.004220 -0.001334 0.000877 -0.000731
# 4 0.000830 -0.004395 -0.001334 0.014282 0.004328 0.000380
# 5 0.006622 -0.001956 0.000877 0.004328 0.030132 -0.008891
# 6 -0.000951 0.004435 -0.000731 0.000380 -0.008891 0.030555
#
#
# Mechanical properties :
#
#
# Convention : Reuss Voigt Hill
#
# Bulk Modulus (GPa) = 43.55288 87.19933 65.37610
# Shear Modulus (GPa) = 38.52052 59.06701 48.79376
#
# Velocity S-wave (km/s) = 3.66917 4.54354 4.12957
# Velocity P-wave (km/s) = 5.75952 7.61584 6.75178
#
# Compressibility (1/GPa) = 0.02296060
#
# Stress axis : x y z
#
# Youngs Moduli (GPa) = 54.23339 80.57546 236.97396
#
# Poissons Ratio (x) = 0.21494 0.32744
# Poissons Ratio (y) = 0.14467 0.47515
# Poissons Ratio (z) = 0.07494 0.16156
#
# Static dielectric constant tensor:
#      x y z
#    x 2.270880 -0.153040 0.001340 
#    y -0.153040 2.267660 -0.007100 
#    z 0.001340 -0.007100 2.273060 
# 
# From -- ./inp_files/1454.got.cif
#   From: 2010.05.17/outbox.cif.g08.bks.cpg/sg2_1_cif.got.tgz:1454.got - 2010.06.03 11:33:40.
