data_PCOD9099036
_publ_section_title
;
Structure prediction by ZEFSAII (Michael W. Deem and Ramdas Pophale) SiO2 
 PCOD9099036
Probable space group: P -1
;
_chemical_formula_sum "Si O2"
_cell_formula_units_Z 12
_cell_length_a 8.697497
_cell_length_b 21.125121
_cell_length_c 5.285835
_cell_angle_alpha 84.025014
_cell_angle_beta 55.841819
_cell_angle_gamma 44.185373
_cell_volume 479.255839
_symmetry_space_group_name_H-M "P -1"
_symmetry_group_IT_number 2
_symmetry_cell_setting 'triclinic'
loop_
_space_group_symop_operation_xyz
x,y,z
-x,-y,-z
loop_
_atom_site_type_symbol
_atom_site_label
_atom_site_fract_x
_atom_site_fract_y
_atom_site_fract_z
Si Si1 0.609794 0.004926 0.145867
Si Si2 0.670105 0.330783 0.313723
Si Si3 0.825243 0.481277 0.615502
Si Si4 0.841567 0.336390 0.649946
Si Si5 0.335380 0.809099 0.672712
Si Si6 0.337806 0.879161 0.159659
O O1 0.500000 0.000000 0.500000
O O2 0.979054 0.902608 0.875744
O O3 0.500000 0.000000 0.000000
O O4 0.507684 0.105381 0.143906
O O5 0.368315 0.457534 0.491519
O O6 0.878584 0.288482 0.378360
O O7 0.537434 0.296115 0.443057
O O8 0.878486 0.286237 0.891344
O O9 0.984906 0.368061 0.515454
O O10 0.000000 0.500000 0.500000
O O11 0.538047 0.552715 0.044710
O O12 0.476093 0.817305 0.324623
O O13 0.319854 0.831811 0.973134
O O14 0.000000 0.000000 0.500000
#
# Coordination Sequence:
#
# PCOD9099036 Si02
#       6
#     2   2   2   2   2   2
#     4  11  21  36  57  83 110 146 190 234 281 334
#     4  10  20  38  57  82 115 147 188 232 294 329
#     4   9  20  37  62  84 113 152 195 231 276 345
#     4   9  20  37  58  85 114 153 192 227 284 344
#     4  11  21  37  61  80 113 153 185 238 286 335
#     4  10  20  37  59  82 106 152 196 222 279 356
#
# _framework density 25.038817000000002
#
# number of rings (size 3 to 8) (size 9 to 14) (size 15 to 20)
#    1.000    1.000    0.000    6.500    0.000    0.667 
#    0.000    5.000    0.000    0.000    0.000    0.000 
#    0.000    0.000    0.000    0.000    0.000    0.000 
#
# Total GULP energy -66937.632906 kJ/mol
# GULP energy per Si atom -5578.136075 kJ/mol
# Density = 2.498183 g / cm^3
# Si number density = 25.038817 Si / 1000 Ang^3
#
#
#
# Elastic Constant Matrix: (Units=GPa)
#
#
# Indices 1 2 3 4 5 6 
#
# 1 110.5719 -0.6630 48.2318 -12.2503 22.8507 8.2119
# 2 -0.6630 83.2777 28.3043 -41.7579 8.8593 14.1759
# 3 48.2318 28.3043 109.8391 -34.7671 20.0885 -6.5046
# 4 -12.2503 -41.7579 -34.7671 39.9428 -13.2348 -11.4828
# 5 22.8507 8.8593 20.0885 -13.2348 57.2618 -9.3612
# 6 8.2119 14.1759 -6.5046 -11.4828 -9.3612 44.1148
#
#
#
# Elastic Compliance Matrix: (Units=1/GPa)
#
#
# Indices 1 2 3 4 5 6 
#
# 1 0.013155 0.002847 -0.006627 -0.002042 -0.004800 -0.005891
# 2 0.002847 0.026604 0.001025 0.029656 0.001082 -0.000979
# 3 -0.006627 0.001025 0.017329 0.017061 0.001701 0.008261
# 4 -0.002042 0.029656 0.017061 0.078568 0.011042 0.016160
# 5 -0.004800 0.001082 0.001701 0.011042 0.022550 0.008456
# 6 -0.005891 -0.000979 0.008261 0.016160 0.008456 0.031298
#
#
# Mechanical properties :
#
#
# Convention : Reuss Voigt Hill
#
# Bulk Modulus (GPa) = 19.38844 50.60387 34.99615
# Shear Modulus (GPa) = 23.56203 43.45157 33.50680
#
# Velocity S-wave (km/s) = 3.07093 4.17029 3.66210
# Velocity P-wave (km/s) = 4.50936 6.59109 5.64698
#
# Compressibility (1/GPa) = 0.05157714
#
# Stress axis : x y z
#
# Youngs Moduli (GPa) = 76.01604 37.58840 57.70796
#
# Poissons Ratio (x) = -0.10701 0.38246
# Poissons Ratio (y) = -0.21640 -0.05917
# Poissons Ratio (z) = 0.50379 -0.03854
#
# Static dielectric constant tensor:
#      x y z
#    x 2.062270 -0.036390 -0.119250 
#    y -0.036390 2.117950 0.112360 
#    z -0.119250 0.112360 2.188070 
# 
# From -- ./inp_files/50366.got.cif
#   From: 2010.05.17/outbox.cif.g08.bks.cpg/sg2_26_cif.got.tgz:50366.got - 2010.06.03 11:33:40.
