data_PCOD9099979
_publ_section_title
;
Structure prediction by ZEFSAII (Michael W. Deem and Ramdas Pophale) SiO2 
 PCOD9099979
Probable space group: P -1
;
_chemical_formula_sum "Si O2"
_cell_formula_units_Z 14
_cell_length_a 9.715014
_cell_length_b 9.320567
_cell_length_c 10.357662
_cell_angle_alpha 105.935578
_cell_angle_beta 61.134234
_cell_angle_gamma 60.067305
_cell_volume 522.445841
_symmetry_space_group_name_H-M "P -1"
_symmetry_group_IT_number 2
_symmetry_cell_setting 'triclinic'
loop_
_space_group_symop_operation_xyz
x,y,z
-x,-y,-z
loop_
_atom_site_type_symbol
_atom_site_label
_atom_site_fract_x
_atom_site_fract_y
_atom_site_fract_z
Si Si1 0.392446 0.700784 0.747759
Si Si2 0.283873 0.287914 0.333402
Si Si3 0.342712 0.550450 0.967869
Si Si4 0.668748 0.941855 0.522365
Si Si5 0.065381 0.965504 0.611231
Si Si6 0.004645 0.186268 0.183220
Si Si7 0.165114 0.405695 0.138274
O O1 0.615521 0.647400 0.610350
O O2 0.247683 0.709994 0.712188
O O3 0.458955 0.532409 0.783188
O O4 0.202876 0.951537 0.957243
O O5 0.390350 0.069837 0.306655
O O6 0.340170 0.273415 0.152204
O O7 0.000000 0.500000 0.500000
O O8 0.098018 0.814178 0.166987
O O9 0.291890 0.411839 0.970703
O O10 0.500000 0.500000 0.000000
O O11 0.704911 0.090420 0.513640
O O12 0.928133 0.675869 0.332665
O O13 0.500000 0.000000 0.500000
O O14 0.000000 0.000000 0.500000
O O15 0.997517 0.852381 0.673910
O O16 0.062254 0.312969 0.146900
#
# Coordination Sequence:
#
# PCOD9099979 Si02
#       7
#     2   2   2   2   2   2   2
#     4  10  21  40  64  88 131 169 203 264 321 377
#     4  10  20  37  62  89 121 166 213 256 308 374
#     4  10  20  40  64  88 124 163 205 257 318 370
#     4  10  21  39  59  86 127 164 201 257 319 367
#     4  10  21  40  63  89 124 161 207 258 310 376
#     4  10  22  40  63  95 126 164 211 260 323 375
#     4  10  21  39  63  92 120 159 218 258 304 385
#
# _framework density 26.797037
#
# number of rings (size 3 to 8) (size 9 to 14) (size 15 to 20)
#    0.000    2.000    1.429    1.714    0.000    3.429 
#    5.143    3.571    0.000    0.000    0.000    0.000 
#    0.000    0.000    0.000    0.000    0.000    0.000 
#
# Total GULP energy -78193.664336 kJ/mol
# GULP energy per Si atom -5585.261738 kJ/mol
# Density = 2.673605 g / cm^3
# Si number density = 26.797037 Si / 1000 Ang^3
#
#
#
# Elastic Constant Matrix: (Units=GPa)
#
#
# Indices 1 2 3 4 5 6 
#
# 1 141.9136 13.9241 5.3056 -2.6751 -25.7681 16.8239
# 2 13.9241 128.7230 19.0431 0.8075 -8.5393 40.0037
# 3 5.3056 19.0431 48.3544 -9.5713 -17.7877 20.4915
# 4 -2.6751 0.8075 -9.5713 45.5300 10.2561 1.2306
# 5 -25.7681 -8.5393 -17.7877 10.2561 38.2197 -10.9099
# 6 16.8239 40.0037 20.4915 1.2306 -10.9099 67.0910
#
#
#
# Elastic Compliance Matrix: (Units=1/GPa)
#
#
# Indices 1 2 3 4 5 6 
#
# 1 0.008288 -0.000320 0.002029 -0.000425 0.006147 -0.001500
# 2 -0.000320 0.009656 -0.001734 -0.000359 -0.000248 -0.005181
# 3 0.002029 -0.001734 0.028894 0.003796 0.011557 -0.006490
# 4 -0.000425 -0.000359 0.003796 0.024085 -0.005693 -0.002207
# 5 0.006147 -0.000248 0.011557 -0.005693 0.037526 0.001284
# 6 -0.001500 -0.005181 -0.006490 -0.002207 0.001284 0.020602
#
#
# Mechanical properties :
#
#
# Convention : Reuss Voigt Hill
#
# Bulk Modulus (GPa) = 21.37311 43.94848 32.66080
# Shear Modulus (GPa) = 34.55500 48.88268 41.71884
#
# Velocity S-wave (km/s) = 3.59487 4.27568 3.94997
# Velocity P-wave (km/s) = 5.02235 6.38838 5.74610
#
# Compressibility (1/GPa) = 0.04678775
#
# Stress axis : x y z
#
# Youngs Moduli (GPa) = 120.65670 103.56508 34.60912
#
# Poissons Ratio (x) = 0.03316 -0.07023
# Poissons Ratio (y) = 0.03863 0.06002
# Poissons Ratio (z) = -0.24486 0.17961
#
# Static dielectric constant tensor:
#      x y z
#    x 2.112660 0.069550 0.085630 
#    y 0.069550 1.820470 -0.140750 
#    z 0.085630 -0.140750 2.301190 
# 
# From -- ./inp_files/184895.got.cif
#   From: 2010.05.17/outbox.cif.g08.bks.cpg/sg2_93_cif.got.tgz:184895.got - 2010.06.03 11:33:40.
