data_PCOD9099174
_publ_section_title
;
Structure prediction by ZEFSAII (Michael W. Deem and Ramdas Pophale) SiO2 
 PCOD9099174
Probable space group: P -1
;
_chemical_formula_sum "Si O2"
_cell_formula_units_Z 14
_cell_length_a 11.852466
_cell_length_b 19.315549
_cell_length_c 14.871156
_cell_angle_alpha 156.498292
_cell_angle_beta 146.291598
_cell_angle_gamma 26.789142
_cell_volume 610.242137
_symmetry_space_group_name_H-M "P -1"
_symmetry_group_IT_number 2
_symmetry_cell_setting 'triclinic'
loop_
_space_group_symop_operation_xyz
x,y,z
-x,-y,-z
loop_
_atom_site_type_symbol
_atom_site_label
_atom_site_fract_x
_atom_site_fract_y
_atom_site_fract_z
Si Si1 0.875214 0.826696 0.268434
Si Si2 0.029397 0.684035 0.714133
Si Si3 0.684911 0.385202 0.339194
Si Si4 0.317463 0.877646 0.667821
Si Si5 0.292298 0.356325 0.927241
Si Si6 0.864736 0.022628 0.149189
Si Si7 0.412392 0.671316 0.068310
O O1 0.080973 0.866007 0.480406
O O2 0.034186 0.594418 0.048217
O O3 0.686966 0.001026 0.278235
O O4 0.750102 0.807601 0.250542
O O5 0.056428 0.725434 0.677982
O O6 0.301826 0.596505 0.830585
O O7 0.000000 0.500000 0.500000
O O8 0.152850 0.100389 0.093346
O O9 0.559372 0.636660 0.554852
O O10 0.490148 0.355737 0.123375
O O11 0.741035 0.265810 0.328692
O O12 0.250963 0.998299 0.862457
O O13 0.390387 0.314547 0.840163
O O14 0.165349 0.894451 0.204261
O O15 0.500000 0.500000 0.000000
#
# Coordination Sequence:
#
# PCOD9099174 Si02
#       7
#     2   2   2   2   2   2   2
#     4   9  19  36  59  84 122 152 204 242 306 351
#     4   9  21  39  60  85 118 160 194 244 302 362
#     4  10  20  38  58  83 119 164 197 237 302 362
#     4  10  20  37  59  88 119 160 197 252 294 353
#     4   9  18  35  60  84 113 163 198 239 299 364
#     4  10  21  37  61  83 122 152 200 250 298 347
#     4   9  19  36  63  85 119 153 198 246 303 349
#
# _framework density 22.941711999999999
#
# number of rings (size 3 to 8) (size 9 to 14) (size 15 to 20)
#    0.857    1.714    0.000    1.714    0.000    2.286 
#    2.571    5.000    0.000    0.000    0.000    0.000 
#    0.000    0.000    0.000    0.000    0.000    0.000 
#
# Total GULP energy -78106.218073 kJ/mol
# GULP energy per Si atom -5579.015577 kJ/mol
# Density = 2.288950 g / cm^3
# Si number density = 22.941712 Si / 1000 Ang^3
#
#
#
# Elastic Constant Matrix: (Units=GPa)
#
#
# Indices 1 2 3 4 5 6 
#
# 1 143.7514 36.0428 23.0905 16.5804 10.2277 14.0964
# 2 36.0428 102.1600 10.3201 33.1061 4.3147 22.4829
# 3 23.0905 10.3201 41.7548 19.9903 5.2749 -2.8682
# 4 16.5804 33.1061 19.9903 25.4571 1.8822 7.2973
# 5 10.2277 4.3147 5.2749 1.8822 34.2312 8.7601
# 6 14.0964 22.4829 -2.8682 7.2973 8.7601 29.8302
#
#
#
# Elastic Compliance Matrix: (Units=1/GPa)
#
#
# Indices 1 2 3 4 5 6 
#
# 1 0.008574 -0.002991 -0.006063 0.004024 -0.000660 -0.003171
# 2 -0.002991 0.022242 0.012898 -0.035560 -0.000603 -0.005234
# 3 -0.006063 0.012898 0.054980 -0.059835 -0.009018 0.015716
# 4 0.004024 -0.035560 -0.059835 0.133886 0.009321 -0.016343
# 5 -0.000660 -0.000603 -0.009018 0.009321 0.033490 -0.012216
# 6 -0.003171 -0.005234 0.015716 -0.016343 -0.012216 0.048063
#
#
# Mechanical properties :
#
#
# Convention : Reuss Voigt Hill
#
# Bulk Modulus (GPa) = 10.69714 47.39697 29.04705
# Shear Modulus (GPa) = 15.39844 32.45123 23.92483
#
# Velocity S-wave (km/s) = 2.59356 3.76507 3.23283
# Velocity P-wave (km/s) = 3.69345 6.29330 5.15981
#
# Compressibility (1/GPa) = 0.09348297
#
# Stress axis : x y z
#
# Youngs Moduli (GPa) = 116.63112 44.96055 18.18849
#
# Poissons Ratio (x) = 0.13447 0.11028
# Poissons Ratio (y) = 0.34881 -0.23459
# Poissons Ratio (z) = 0.70715 -0.57988
#
# Static dielectric constant tensor:
#      x y z
#    x 1.955570 -0.008040 -0.007020 
#    y -0.008040 1.849680 -0.022500 
#    z -0.007020 -0.022500 1.881000 
# 
# From -- ./inp_files/523071.got.cif
#   From: 2010.05.17/outbox.cif.g08.bks.cpg/sg2_262_cif.got.tgz:523071.got - 2010.06.03 11:33:40.
