data_PCOD9099488
_publ_section_title
;
Structure prediction by ZEFSAII (Michael W. Deem and Ramdas Pophale) SiO2 
 PCOD9099488
Probable space group: P -1
;
_chemical_formula_sum "Si O2"
_cell_formula_units_Z 16
_cell_length_a 8.519796
_cell_length_b 8.685685
_cell_length_c 14.773532
_cell_angle_alpha 129.463499
_cell_angle_beta 96.069971
_cell_angle_gamma 99.881525
_cell_volume 797.642222
_symmetry_space_group_name_H-M "P -1"
_symmetry_group_IT_number 2
_symmetry_cell_setting 'triclinic'
loop_
_space_group_symop_operation_xyz
x,y,z
-x,-y,-z
loop_
_atom_site_type_symbol
_atom_site_label
_atom_site_fract_x
_atom_site_fract_y
_atom_site_fract_z
Si Si1 0.134424 0.041048 0.445458
Si Si2 0.398830 0.414457 0.692946
Si Si3 0.020026 0.030142 0.787195
Si Si4 0.328470 0.393585 0.894241
Si Si5 0.457111 0.115631 0.128422
Si Si6 0.737804 0.346333 0.728324
Si Si7 0.104809 0.199894 0.136683
Si Si8 0.742702 0.239336 0.894315
O O1 0.047979 0.039979 0.343042
O O2 0.210900 0.849054 0.377299
O O3 0.272734 0.256512 0.559698
O O4 0.000000 0.000000 0.500000
O O5 0.352952 0.371793 0.780748
O O6 0.411174 0.655956 0.764534
O O7 0.575960 0.372000 0.679355
O O8 0.905699 0.167700 0.868522
O O9 0.210644 0.176432 0.848160
O O10 0.973600 0.837925 0.782124
O O11 0.500000 0.500000 0.000000
O O12 0.231399 0.563828 0.965262
O O13 0.288212 0.176928 0.129780
O O14 0.409372 0.950694 0.146139
O O15 0.500000 0.000000 0.000000
O O16 0.880289 0.569333 0.810453
O O17 0.702408 0.303587 0.816404
O O18 0.000000 0.000000 0.000000
#
# Coordination Sequence:
#
# PCOD9099488 Si02
#       8
#     2   2   2   2   2   2   2   2
#     4  11  23  43  63  86 120 168 213 244 291 367
#     4  11  22  39  61  90 125 161 200 252 299 361
#     4  10  23  40  61  89 126 160 204 247 304 362
#     4  12  21  34  63  93 124 152 205 253 307 358
#     4  10  21  36  57  93 126 153 198 251 306 360
#     4  10  22  41  63  88 121 161 206 250 304 359
#     4  10  22  39  62  91 125 158 195 253 316 360
#     4  10  20  37  60  91 124 159 194 252 312 360
#
# _framework density 20.059118999999999
#
# number of rings (size 3 to 8) (size 9 to 14) (size 15 to 20)
#    0.000    1.500    3.750    1.500    1.750    4.000 
#    0.000   11.875    0.000    0.000    0.000    0.000 
#    0.000    0.000    0.000    0.000    0.000    0.000 
#
# Total GULP energy -89334.663140 kJ/mol
# GULP energy per Si atom -5583.416446 kJ/mol
# Density = 2.001346 g / cm^3
# Si number density = 20.059119 Si / 1000 Ang^3
#
#
#
# Elastic Constant Matrix: (Units=GPa)
#
#
# Indices 1 2 3 4 5 6 
#
# 1 49.5634 34.4616 47.4534 0.3776 4.8723 21.2940
# 2 34.4616 154.5766 65.5329 16.9300 0.3130 22.2798
# 3 47.4534 65.5329 141.0346 16.7351 -0.5051 13.2791
# 4 0.3776 16.9300 16.7351 37.7570 5.7385 0.6803
# 5 4.8723 0.3130 -0.5051 5.7385 36.7496 -0.3323
# 6 21.2940 22.2798 13.2791 0.6803 -0.3323 24.6365
#
#
#
# Elastic Compliance Matrix: (Units=1/GPa)
#
#
# Indices 1 2 3 4 5 6 
#
# 1 0.050382 -0.001015 -0.014150 0.008145 -0.008457 -0.035341
# 2 -0.001015 0.009083 -0.003031 -0.002676 0.000383 -0.005625
# 3 -0.014150 -0.003031 0.013089 -0.004890 0.002918 0.008090
# 4 0.008145 -0.002676 -0.004890 0.030728 -0.005949 -0.002912
# 5 -0.008457 0.000383 0.002918 -0.005949 0.029352 0.005951
# 6 -0.035341 -0.005625 0.008090 -0.002912 0.005951 0.072023
#
#
# Mechanical properties :
#
#
# Convention : Reuss Voigt Hill
#
# Bulk Modulus (GPa) = 27.65176 71.11894 49.38535
# Shear Modulus (GPa) = 19.75494 33.01040 26.38267
#
# Velocity S-wave (km/s) = 3.14161 4.06107 3.63057
# Velocity P-wave (km/s) = 5.19372 7.58428 6.49985
#
# Compressibility (1/GPa) = 0.03616407
#
# Stress axis : x y z
#
# Youngs Moduli (GPa) = 19.84846 110.08994 76.40280
#
# Poissons Ratio (x) = 0.11169 1.08106
# Poissons Ratio (y) = 0.02014 0.23156
# Poissons Ratio (z) = 0.28085 0.33366
#
# Static dielectric constant tensor:
#      x y z
#    x 1.778250 0.014610 0.013930 
#    y 0.014610 1.778600 0.011350 
#    z 0.013930 0.011350 1.700620 
# 
# From -- ./inp_files/178813.got.cif
#   From: 2010.05.17/outbox.cif.g08.bks.cpg/sg2_90_cif.got.tgz:178813.got - 2010.06.03 11:33:40.
