data_PCOD9099391
_publ_section_title
;
Structure prediction by ZEFSAII (Michael W. Deem and Ramdas Pophale) SiO2 
 PCOD9099391
Probable space group: P -1
;
_chemical_formula_sum "Si O2"
_cell_formula_units_Z 16
_cell_length_a 7.920836
_cell_length_b 12.455472
_cell_length_c 8.531710
_cell_angle_alpha 97.823925
_cell_angle_beta 51.329029
_cell_angle_gamma 91.741736
_cell_volume 649.424344
_symmetry_space_group_name_H-M "P -1"
_symmetry_group_IT_number 2
_symmetry_cell_setting 'triclinic'
loop_
_space_group_symop_operation_xyz
x,y,z
-x,-y,-z
loop_
_atom_site_type_symbol
_atom_site_label
_atom_site_fract_x
_atom_site_fract_y
_atom_site_fract_z
Si Si1 0.014439 0.316756 0.417294
Si Si2 0.212037 0.793454 0.995117
Si Si3 0.740931 0.886387 0.378913
Si Si4 0.550314 0.001116 0.214869
Si Si5 0.434328 0.434145 0.809791
Si Si6 0.427886 0.232927 0.996468
Si Si7 0.625487 0.284668 0.441469
Si Si8 0.860034 0.470082 0.773253
O O1 0.232401 0.247362 0.236294
O O2 0.017665 0.424633 0.327215
O O3 0.803630 0.259998 0.470649
O O4 0.000048 0.364365 0.609994
O O5 0.327161 0.906238 0.923461
O O6 0.356100 0.736446 0.036226
O O7 0.248305 0.727575 0.798705
O O8 0.970141 0.825236 0.196870
O O9 0.689318 0.953552 0.581664
O O10 0.554326 0.801985 0.472828
O O11 0.689098 0.970532 0.284510
O O12 0.549547 0.888695 0.102304
O O13 0.500986 0.398449 0.589551
O O14 0.646576 0.474495 0.783200
O O15 0.384914 0.320349 0.901012
O O16 0.230338 0.513744 0.995686
#
# Coordination Sequence:
#
# PCOD9099391 Si02
#       8
#     2   2   2   2   2   2   2   2
#     4   9  18  34  63  88 112 147 196 240 282 345
#     4  11  24  38  56  87 125 154 185 242 292 338
#     4  10  21  39  59  84 117 153 201 237 277 338
#     4  10  21  39  58  83 115 156 202 237 275 335
#     4   9  17  34  61  87 114 145 197 240 280 345
#     4  11  21  37  59  88 121 151 191 239 294 340
#     4  10  20  37  60  88 110 157 196 232 277 343
#     4   8  16  32  58  92 108 141 194 249 280 322
#
# _framework density 24.637205000000002
#
# number of rings (size 3 to 8) (size 9 to 14) (size 15 to 20)
#    0.000    2.250    1.250    1.500    1.750    2.500 
#    9.000    0.000    0.000   28.500    0.000    0.000 
#    0.000    0.000    0.000    0.000    0.000    0.000 
#
# Total GULP energy -89460.824555 kJ/mol
# GULP energy per Si atom -5591.301535 kJ/mol
# Density = 2.458113 g / cm^3
# Si number density = 24.637205 Si / 1000 Ang^3
#
#
#
# Elastic Constant Matrix: (Units=GPa)
#
#
# Indices 1 2 3 4 5 6 
#
# 1 44.0755 18.0248 53.4259 10.6202 -8.9065 1.3298
# 2 18.0248 89.3197 72.3328 9.9663 16.0351 9.3651
# 3 53.4259 72.3328 217.7139 61.6032 -57.6686 -3.9178
# 4 10.6202 9.9663 61.6032 46.0854 10.4540 10.5156
# 5 -8.9065 16.0351 -57.6686 10.4540 13.3377 -9.9433
# 6 1.3298 9.3651 -3.9178 10.5156 -9.9433 23.8749
#
#
#
# Elastic Compliance Matrix: (Units=1/GPa)
#
#
# Indices 1 2 3 4 5 6 
#
# 1 0.031246 -0.003107 -0.005002 -0.001203 0.004802 0.001187
# 2 -0.003107 0.008375 0.002711 -0.007849 0.009164 0.004606
# 3 -0.005002 0.002711 0.000786 0.003649 -0.011237 -0.006943
# 4 -0.001203 -0.007849 0.003649 0.013786 0.017215 0.004842
# 5 0.004802 0.009164 -0.011237 0.017215 -0.006991 -0.016200
# 6 0.001187 0.004606 -0.006943 0.004842 -0.016200 0.029993
#
#
# Mechanical properties :
#
#
# Convention : Reuss Voigt Hill
#
# Bulk Modulus (GPa) = 33.77101 70.96402 52.36751
# Shear Modulus (GPa) = 51.09223 30.48130 40.78676
#
# Velocity S-wave (km/s) = 4.55882 3.52121 4.07319
# Velocity P-wave (km/s) = 6.43798 6.73781 6.58960
#
# Compressibility (1/GPa) = 0.02961120
#
# Stress axis : x y z
#
# Youngs Moduli (GPa) = 32.00379 119.40271 1272.27975
#
# Poissons Ratio (x) = 0.37100 6.36382
# Poissons Ratio (y) = 0.09944 -3.44918
# Poissons Ratio (z) = 0.16008 -0.32370
#
# Static dielectric constant tensor:
#      x y z
#    x 1.920320 -0.013810 0.014850 
#    y -0.013810 1.974450 0.015140 
#    z 0.014850 0.015140 2.037630 
# 
# From -- ./inp_files/208163.got.cif
#   From: 2010.05.17/outbox.cif.g08.bks.cpg/sg2_105_cif.got.tgz:208163.got - 2010.06.03 11:33:40.
