data_PCOD9099810
_publ_section_title
;
Structure prediction by ZEFSAII (Michael W. Deem and Ramdas Pophale) SiO2 
 PCOD9099810
Probable space group: P -1
;
_chemical_formula_sum "Si O2"
_cell_formula_units_Z 14
_cell_length_a 7.540826
_cell_length_b 18.430909
_cell_length_c 8.094191
_cell_angle_alpha 60.552272
_cell_angle_beta 37.154182
_cell_angle_gamma 78.847471
_cell_volume 547.937137
_symmetry_space_group_name_H-M "P -1"
_symmetry_group_IT_number 2
_symmetry_cell_setting 'triclinic'
loop_
_space_group_symop_operation_xyz
x,y,z
-x,-y,-z
loop_
_atom_site_type_symbol
_atom_site_label
_atom_site_fract_x
_atom_site_fract_y
_atom_site_fract_z
Si Si1 0.692484 0.132548 0.859988
Si Si2 0.277738 0.962046 0.487332
Si Si3 0.200781 0.210628 0.102676
Si Si4 0.357602 0.361837 0.551404
Si Si5 0.641676 0.307467 0.083198
Si Si6 0.758514 0.898605 0.363460
Si Si7 0.373007 0.529887 0.224754
O O1 0.934671 0.176181 0.481948
O O2 0.903730 0.113398 0.870526
O O3 0.519613 0.200984 0.938725
O O4 0.399155 0.035957 0.168592
O O5 0.566848 0.927617 0.333635
O O6 0.971002 0.870552 0.808988
O O7 0.225220 0.026881 0.594227
O O8 0.297557 0.304172 0.827907
O O9 0.583717 0.339031 0.277030
O O10 0.448501 0.469775 0.375766
O O11 0.011507 0.329549 0.759976
O O12 0.466876 0.202595 0.322162
O O13 0.509951 0.362429 0.990315
O O14 0.000000 0.500000 0.500000
O O15 0.500000 0.500000 0.000000
#
# Coordination Sequence:
#
# PCOD9099810 Si02
#       7
#     2   2   2   2   2   2   2
#     4  12  26  43  59  88 120 165 203 250 298 354
#     4  11  25  44  62  87 119 164 211 251 293 353
#     4  12  25  41  64  85 123 162 204 247 295 357
#     4  10  20  37  61  94 117 154 198 245 296 357
#     4  10  20  37  62  90 122 152 194 250 302 349
#     4  11  25  41  63  89 124 156 207 248 307 349
#     4   8  16  32  58  89 119 145 190 247 296 345
#
# _framework density 25.550374000000001
#
# number of rings (size 3 to 8) (size 9 to 14) (size 15 to 20)
#    0.000    1.429    2.857    2.143    4.000    0.000 
#    0.000    0.000    0.000    1.714    0.000    0.000 
#    0.000    0.000    0.000    0.000    0.000    0.000 
#
# Total GULP energy -78120.190759 kJ/mol
# GULP energy per Si atom -5580.013626 kJ/mol
# Density = 2.549222 g / cm^3
# Si number density = 25.550374 Si / 1000 Ang^3
#
#
#
# Elastic Constant Matrix: (Units=GPa)
#
#
# Indices 1 2 3 4 5 6 
#
# 1 68.2013 41.1239 10.7345 -4.5236 18.5657 -41.8679
# 2 41.1239 137.4577 47.7179 -25.0142 23.3575 -54.1488
# 3 10.7345 47.7179 103.1795 -1.4298 8.5398 -30.5405
# 4 -4.5236 -25.0142 -1.4298 62.2650 -26.4068 14.8012
# 5 18.5657 23.3575 8.5398 -26.4068 34.6168 -10.3822
# 6 -41.8679 -54.1488 -30.5405 14.8012 -10.3822 49.6820
#
#
#
# Elastic Compliance Matrix: (Units=1/GPa)
#
#
# Indices 1 2 3 4 5 6 
#
# 1 0.050669 0.003464 0.011149 -0.020975 -0.032427 0.052801
# 2 0.003464 0.014185 -0.001560 -0.000835 -0.006809 0.016247
# 3 0.011149 -0.001560 0.015006 -0.007444 -0.009140 0.017227
# 4 -0.020975 -0.000835 -0.007444 0.033649 0.031328 -0.026640
# 5 -0.032427 -0.006809 -0.009140 0.031328 0.066274 -0.035851
# 6 0.052801 0.016247 0.017227 -0.026640 -0.035851 0.093367
#
#
# Mechanical properties :
#
#
# Convention : Reuss Voigt Hill
#
# Bulk Modulus (GPa) = 9.43700 56.44344 32.94022
# Shear Modulus (GPa) = 17.70747 43.26358 30.48552
#
# Velocity S-wave (km/s) = 2.63542 4.11940 3.45795
# Velocity P-wave (km/s) = 3.60029 6.69066 5.37248
#
# Compressibility (1/GPa) = 0.10596588
#
# Stress axis : x y z
#
# Youngs Moduli (GPa) = 19.73592 70.49567 66.64092
#
# Poissons Ratio (x) = -0.24420 -0.74295
# Poissons Ratio (y) = -0.06837 0.10394
# Poissons Ratio (z) = -0.22003 0.10995
#
# Static dielectric constant tensor:
#      x y z
#    x 2.103420 0.026120 0.071660 
#    y 0.026120 2.010100 -0.026840 
#    z 0.071660 -0.026840 2.070420 
# 
# From -- ./inp_files/216923.got.cif
#   From: 2010.05.17/outbox.cif.g08.bks.cpg/sg2_109_cif.got.tgz:216923.got - 2010.06.03 11:33:40.
