data_PCOD9099469
_publ_section_title
;
Structure prediction by ZEFSAII (Michael W. Deem and Ramdas Pophale) SiO2 
 PCOD9099469
Probable space group: P -1
;
_chemical_formula_sum "Si O2"
_cell_formula_units_Z 14
_cell_length_a 7.216287
_cell_length_b 10.965313
_cell_length_c 14.267713
_cell_angle_alpha 128.160510
_cell_angle_beta 38.362160
_cell_angle_gamma 121.570245
_cell_volume 549.166822
_symmetry_space_group_name_H-M "P -1"
_symmetry_group_IT_number 2
_symmetry_cell_setting 'triclinic'
loop_
_space_group_symop_operation_xyz
x,y,z
-x,-y,-z
loop_
_atom_site_type_symbol
_atom_site_label
_atom_site_fract_x
_atom_site_fract_y
_atom_site_fract_z
Si Si1 0.754426 0.268171 0.031362
Si Si2 0.769550 0.388111 0.750102
Si Si3 0.295106 0.382072 0.765528
Si Si4 0.328640 0.283303 0.042023
Si Si5 0.410644 0.844193 0.577356
Si Si6 0.643148 0.058997 0.154294
Si Si7 0.047548 0.901650 0.564859
O O1 0.802585 0.446652 0.132645
O O2 0.739288 0.148272 0.063825
O O3 0.455557 0.258422 0.083748
O O4 0.029539 0.259157 0.846857
O O5 0.516316 0.391472 0.771079
O O6 0.605378 0.337745 0.888065
O O7 0.967194 0.256183 0.567979
O O8 0.873739 0.570455 0.806868
O O9 0.453366 0.314240 0.582064
O O10 0.238902 0.110526 0.960486
O O11 0.301671 0.847085 0.727077
O O12 0.157818 0.868160 0.610850
O O13 0.679004 0.981991 0.526983
O O14 0.277923 0.036031 0.278817
#
# Coordination Sequence:
#
# PCOD9099469 Si02
#       7
#     2   2   2   2   2   2   2
#     4  10  22  39  61  90 126 165 210 258 318 372
#     4   9  19  38  63  88 120 167 214 250 303 378
#     4   9  20  41  62  85 121 169 213 255 307 389
#     4  10  20  37  60  90 124 161 208 253 306 376
#     4  10  21  38  65  91 128 166 211 254 315 373
#     4  12  23  38  65  99 128 161 207 269 320 363
#     4  10  21  39  64  95 127 165 211 257 307 384
#
# _framework density 25.493165000000001
#
# number of rings (size 3 to 8) (size 9 to 14) (size 15 to 20)
#    0.000    2.000    1.429    1.714    2.000    0.571 
#    2.571    7.143    0.000    0.000    0.000    0.000 
#    0.000    0.000    0.000    0.000    0.000    0.000 
#
# Total GULP energy -78428.843901 kJ/mol
# GULP energy per Si atom -5602.060279 kJ/mol
# Density = 2.543514 g / cm^3
# Si number density = 25.493165 Si / 1000 Ang^3
#
#
#
# Elastic Constant Matrix: (Units=GPa)
#
#
# Indices 1 2 3 4 5 6 
#
# 1 101.3954 24.4223 27.6170 0.3634 23.2076 -11.0123
# 2 24.4223 137.1979 51.1766 15.0066 19.5606 -9.4168
# 3 27.6170 51.1766 124.3947 20.3002 11.7893 4.0092
# 4 0.3634 15.0066 20.3002 35.9327 2.4035 0.9906
# 5 23.2076 19.5606 11.7893 2.4035 39.5157 -2.1292
# 6 -11.0123 -9.4168 4.0092 0.9906 -2.1292 24.4198
#
#
#
# Elastic Compliance Matrix: (Units=1/GPa)
#
#
# Indices 1 2 3 4 5 6 
#
# 1 0.012654 -0.000194 -0.002575 0.001685 -0.006377 0.005430
# 2 -0.000194 0.009533 -0.003376 -0.001962 -0.003266 0.003938
# 3 -0.002575 -0.003376 0.010881 -0.004599 -0.000002 -0.004063
# 4 0.001685 -0.001962 -0.004599 0.031285 -0.000579 -0.000561
# 5 -0.006377 -0.003266 -0.000002 -0.000579 0.030627 -0.001441
# 6 0.005430 0.003938 -0.004063 -0.000561 -0.001441 0.045481
#
#
# Mechanical properties :
#
#
# Convention : Reuss Voigt Hill
#
# Bulk Modulus (GPa) = 48.12871 63.26887 55.69879
# Shear Modulus (GPa) = 31.31313 37.29179 34.30246
#
# Velocity S-wave (km/s) = 3.50851 3.82883 3.67216
# Velocity P-wave (km/s) = 5.94415 6.66471 6.31472
#
# Compressibility (1/GPa) = 0.02077762
#
# Stress axis : x y z
#
# Youngs Moduli (GPa) = 79.02771 104.89681 91.90178
#
# Poissons Ratio (x) = 0.02040 0.23663
# Poissons Ratio (y) = 0.01537 0.31026
# Poissons Ratio (z) = 0.20348 0.35413
#
# Static dielectric constant tensor:
#      x y z
#    x 2.031660 0.067880 -0.037590 
#    y 0.067880 2.000610 0.022300 
#    z -0.037590 0.022300 1.986040 
# 
# From -- ./inp_files/436264.got.cif
#   From: 2010.05.17/outbox.cif.g08.bks.cpg/sg2_219_cif.got.tgz:436264.got - 2010.06.03 11:33:40.
