data_PCOD9099533
_publ_section_title
;
Structure prediction by ZEFSAII (Michael W. Deem and Ramdas Pophale) SiO2 
 PCOD9099533
Probable space group: P -1
;
_chemical_formula_sum "Si O2"
_cell_formula_units_Z 14
_cell_length_a 8.150600
_cell_length_b 8.552076
_cell_length_c 13.841440
_cell_angle_alpha 79.315965
_cell_angle_beta 141.876888
_cell_angle_gamma 89.907850
_cell_volume 567.750972
_symmetry_space_group_name_H-M "P -1"
_symmetry_group_IT_number 2
_symmetry_cell_setting 'triclinic'
loop_
_space_group_symop_operation_xyz
x,y,z
-x,-y,-z
loop_
_atom_site_type_symbol
_atom_site_label
_atom_site_fract_x
_atom_site_fract_y
_atom_site_fract_z
Si Si1 0.042090 0.516998 0.903510
Si Si2 0.083620 0.793828 0.678906
Si Si3 0.418996 0.607072 0.599753
Si Si4 0.971164 0.725231 0.236028
Si Si5 0.212522 0.038495 0.301287
Si Si6 0.381280 0.433099 0.794493
Si Si7 0.383707 0.932508 0.660632
O O1 0.730766 0.602786 0.719649
O O2 0.100835 0.350814 0.887818
O O3 0.320868 0.576288 0.023517
O O4 0.000000 0.500000 0.000000
O O5 0.182793 0.601712 0.724949
O O6 0.322881 0.881028 0.745864
O O7 0.990323 0.831493 0.740649
O O8 0.822094 0.895344 0.483502
O O9 0.237403 0.606652 0.422920
O O10 0.395940 0.467502 0.682673
O O11 0.307436 0.782815 0.581548
O O12 0.066725 0.889961 0.246159
O O13 0.736077 0.716545 0.205994
O O14 0.500000 0.000000 0.500000
O O15 0.313193 0.072404 0.236972
#
# Coordination Sequence:
#
# PCOD9099533 Si02
#       7
#     2   2   2   2   2   2   2
#     4  10  24  43  60  90 135 175 206 266 331 385
#     4   9  18  36  61  84 127 167 203 259 321 376
#     4  10  20  39  67  95 124 165 219 267 318 379
#     4  12  22  39  66 102 120 167 227 265 317 384
#     4  10  20  37  60  96 133 160 209 272 324 377
#     4  10  23  40  63  94 132 168 210 266 332 382
#     4   9  18  35  60  92 125 166 206 259 326 369
#
# _framework density 24.658698999999999
#
# number of rings (size 3 to 8) (size 9 to 14) (size 15 to 20)
#    0.000    2.000    2.857    1.286    2.000    2.286 
#    5.143    0.714    0.000    2.571    0.000    0.000 
#    0.000    0.000    0.000    0.000    0.000    0.000 
#
# Total GULP energy -78193.313569 kJ/mol
# GULP energy per Si atom -5585.236684 kJ/mol
# Density = 2.460258 g / cm^3
# Si number density = 24.658699 Si / 1000 Ang^3
#
#
#
# Elastic Constant Matrix: (Units=GPa)
#
#
# Indices 1 2 3 4 5 6 
#
# 1 169.0303 46.5331 27.7711 15.9523 37.9581 29.5350
# 2 46.5331 51.2740 24.5967 3.9259 11.3920 24.8547
# 3 27.7711 24.5967 99.5443 9.5861 14.9513 5.6085
# 4 15.9523 3.9259 9.5861 36.0143 3.2300 22.7295
# 5 37.9581 11.3920 14.9513 3.2300 43.9543 9.1144
# 6 29.5350 24.8547 5.6085 22.7295 9.1144 33.5788
#
#
#
# Elastic Compliance Matrix: (Units=1/GPa)
#
#
# Indices 1 2 3 4 5 6 
#
# 1 0.009577 -0.008485 0.000695 -0.004553 -0.006510 0.002590
# 2 -0.008485 0.060634 -0.013942 0.041127 0.006762 -0.064763
# 3 0.000695 -0.013942 0.014259 -0.013224 -0.004494 0.017498
# 4 -0.004553 0.041127 -0.013224 0.078223 0.008505 -0.079486
# 5 -0.006510 0.006762 -0.004494 0.008505 0.030107 -0.012458
# 6 0.002590 -0.064763 0.017498 -0.079486 -0.012458 0.129702
#
#
# Mechanical properties :
#
#
# Convention : Reuss Voigt Hill
#
# Bulk Modulus (GPa) = 24.38700 57.51671 40.95186
# Shear Modulus (GPa) = 13.17051 37.43934 25.30492
#
# Velocity S-wave (km/s) = 2.31359 3.90077 3.20692
# Velocity P-wave (km/s) = 4.12895 6.60785 5.50963
#
# Compressibility (1/GPa) = 0.04100546
#
# Stress axis : x y z
#
# Youngs Moduli (GPa) = 104.41767 16.49240 70.12892
#
# Poissons Ratio (x) = 0.13994 -0.04875
# Poissons Ratio (y) = 0.88602 0.97776
# Poissons Ratio (z) = -0.07259 0.22994
#
# Static dielectric constant tensor:
#      x y z
#    x 2.073720 0.032460 0.010680 
#    y 0.032460 2.078350 -0.019800 
#    z 0.010680 -0.019800 1.936450 
# 
# From -- ./inp_files/556268.got.cif
#   From: 2010.05.17/outbox.cif.g08.bks.cpg/sg2_279_cif.got.tgz:556268.got - 2010.06.03 11:33:40.
