data_PCOD9099414
_publ_section_title
;
Structure prediction by ZEFSAII (Michael W. Deem and Ramdas Pophale) SiO2 
 PCOD9099414
Probable space group: P -1
;
_chemical_formula_sum "Si O2"
_cell_formula_units_Z 14
_cell_length_a 8.650785
_cell_length_b 7.047430
_cell_length_c 17.070336
_cell_angle_alpha 40.690362
_cell_angle_beta 50.860178
_cell_angle_gamma 59.572457
_cell_volume 525.460276
_symmetry_space_group_name_H-M "P -1"
_symmetry_group_IT_number 2
_symmetry_cell_setting 'triclinic'
loop_
_space_group_symop_operation_xyz
x,y,z
-x,-y,-z
loop_
_atom_site_type_symbol
_atom_site_label
_atom_site_fract_x
_atom_site_fract_y
_atom_site_fract_z
Si Si1 0.681079 0.285848 0.976864
Si Si2 0.082813 0.197846 0.656464
Si Si3 0.624897 0.108459 0.216001
Si Si4 0.287243 0.484682 0.370239
Si Si5 0.065897 0.610234 0.752771
Si Si6 0.765164 0.078267 0.528676
Si Si7 0.660304 0.688449 0.118828
O O1 0.721195 0.102889 0.101430
O O2 0.660372 0.033193 0.998025
O O3 0.500000 0.500000 0.000000
O O4 0.859802 0.481551 0.835386
O O5 0.198764 0.447053 0.496169
O O6 0.870007 0.357947 0.687805
O O7 0.220553 0.054498 0.723237
O O8 0.034464 0.938831 0.692940
O O9 0.617554 0.451676 0.139275
O O10 0.408299 0.965804 0.337574
O O11 0.485523 0.644888 0.250391
O O12 0.317958 0.157233 0.432023
O O13 0.213312 0.637178 0.622402
O O14 0.144331 0.432674 0.859469
O O15 0.000000 0.000000 0.500000
#
# Coordination Sequence:
#
# PCOD9099414 Si02
#       7
#     2   2   2   2   2   2   2
#     4  12  25  41  62  89 123 162 204 251 302 358
#     4   9  18  35  60  88 120 155 200 247 299 359
#     4  10  23  41  64  91 120 160 204 248 301 361
#     4   9  18  35  60  89 120 158 196 248 304 351
#     4  10  21  39  61  86 123 162 198 250 305 355
#     4  10  20  37  60  88 122 159 201 250 303 358
#     4  10  22  41  62  86 122 160 201 248 302 360
#
# _framework density 26.643307
#
# number of rings (size 3 to 8) (size 9 to 14) (size 15 to 20)
#    0.000    2.000    0.000    3.000    0.000    9.714 
#    0.000    6.429    0.000    0.000    0.000    0.000 
#    0.000    0.000    0.000    0.000    0.000    0.000 
#
# Total GULP energy -78277.144753 kJ/mol
# GULP energy per Si atom -5591.224625 kJ/mol
# Density = 2.658267 g / cm^3
# Si number density = 26.643307 Si / 1000 Ang^3
#
#
#
# Elastic Constant Matrix: (Units=GPa)
#
#
# Indices 1 2 3 4 5 6 
#
# 1 87.4757 9.1864 45.1186 -7.3891 0.1558 3.2146
# 2 9.1864 77.0910 37.3436 -24.3767 -12.2237 19.5506
# 3 45.1186 37.3436 147.5601 -7.6868 -27.6687 12.6713
# 4 -7.3891 -24.3767 -7.6868 45.3395 12.5599 -1.4733
# 5 0.1558 -12.2237 -27.6687 12.5599 54.1406 -5.4844
# 6 3.2146 19.5506 12.6713 -1.4733 -5.4844 35.8206
#
#
#
# Elastic Compliance Matrix: (Units=1/GPa)
#
#
# Indices 1 2 3 4 5 6 
#
# 1 0.014175 0.001374 -0.005050 0.003025 -0.003072 -0.000581
# 2 0.001374 0.020514 -0.004446 0.010478 -0.001035 -0.009474
# 3 -0.005050 -0.004446 0.010223 -0.002836 0.004883 -0.000105
# 4 0.003025 0.010478 -0.002836 0.029313 -0.006375 -0.004757
# 5 -0.003072 -0.001035 0.004883 -0.006375 0.022451 0.002289
# 6 -0.000581 -0.009474 -0.000105 -0.004757 0.002289 0.033332
#
#
# Mechanical properties :
#
#
# Convention : Reuss Voigt Hill
#
# Bulk Modulus (GPa) = 34.88421 55.04714 44.96568
# Shear Modulus (GPa) = 32.09065 41.75868 36.92467
#
# Velocity S-wave (km/s) = 3.47429 3.96324 3.72679
# Velocity P-wave (km/s) = 5.40516 6.45358 5.95249
#
# Compressibility (1/GPa) = 0.02866626
#
# Stress axis : x y z
#
# Youngs Moduli (GPa) = 70.54801 48.74823 97.81640
#
# Poissons Ratio (x) = -0.06699 0.49402
# Poissons Ratio (y) = -0.09695 0.43493
# Poissons Ratio (z) = 0.35630 0.21675
#
# Static dielectric constant tensor:
#      x y z
#    x 2.152240 0.036530 0.070830 
#    y 0.036530 2.109460 -0.005410 
#    z 0.070830 -0.005410 2.052220 
# 
# From -- ./inp_files/296440.got.cif
#   From: 2010.05.17/outbox.cif.g08.bks.cpg/sg2_149_cif.got.tgz:296440.got - 2010.06.03 11:33:40.
