data_PCOD9099482
_publ_section_title
;
Structure prediction by ZEFSAII (Michael W. Deem and Ramdas Pophale) SiO2 
 PCOD9099482
Probable space group: P -1
;
_chemical_formula_sum "Si O2"
_cell_formula_units_Z 16
_cell_length_a 14.126010
_cell_length_b 11.006613
_cell_length_c 9.164138
_cell_angle_alpha 101.387130
_cell_angle_beta 130.277433
_cell_angle_gamma 117.874533
_cell_volume 645.319355
_symmetry_space_group_name_H-M "P -1"
_symmetry_group_IT_number 2
_symmetry_cell_setting 'triclinic'
loop_
_space_group_symop_operation_xyz
x,y,z
-x,-y,-z
loop_
_atom_site_type_symbol
_atom_site_label
_atom_site_fract_x
_atom_site_fract_y
_atom_site_fract_z
Si Si1 0.905553 0.960355 0.242007
Si Si2 0.873962 0.212008 0.312548
Si Si3 0.287011 0.812608 0.340226
Si Si4 0.652465 0.735597 0.696065
Si Si5 0.161339 0.582582 0.888897
Si Si6 0.535855 0.657799 0.993946
Si Si7 0.451467 0.768902 0.725510
Si Si8 0.366858 0.136286 0.580914
O O1 0.672566 0.743120 0.009364
O O2 0.959095 0.148148 0.324948
O O3 0.874217 0.886674 0.029176
O O4 0.000000 0.000000 0.500000
O O5 0.867879 0.318892 0.216984
O O6 0.001059 0.356105 0.613400
O O7 0.635834 0.987468 0.042470
O O8 0.318574 0.765261 0.511473
O O9 0.500000 0.000000 0.500000
O O10 0.235512 0.912464 0.352690
O O11 0.147997 0.621714 0.049012
O O12 0.500000 0.500000 0.500000
O O13 0.546241 0.770962 0.679361
O O14 0.665518 0.785407 0.553286
O O15 0.390865 0.708633 0.133167
O O16 0.667948 0.838545 0.287370
O O17 0.500000 0.500000 0.000000
O O18 0.367436 0.612537 0.734476
#
# Coordination Sequence:
#
# PCOD9099482 Si02
#       8
#     2   2   2   2   2   2   2   2
#     4  10  23  40  59  81 117 154 191 246 285 340
#     4   9  18  32  51  85 112 144 191 223 285 341
#     4  10  16  31  55  85 113 142 192 233 289 332
#     4  10  19  32  57  84 106 150 204 229 276 344
#     4  10  18  30  58  87 114 144 188 239 276 349
#     4  10  23  38  55  85 121 149 196 239 289 345
#     4  10  18  36  52  81 116 147 189 241 273 349
#     4  11  19  33  59  84 115 149 187 247 289 324
#
# _framework density 24.793925999999999
#
# number of rings (size 3 to 8) (size 9 to 14) (size 15 to 20)
#    0.000    2.250    5.000    2.250    3.500    0.500 
#    0.000    0.625    0.000    4.500    0.000    0.000 
#    0.000    0.000    0.000    0.000    0.000    0.000 
#
# Total GULP energy -89158.665769 kJ/mol
# GULP energy per Si atom -5572.416611 kJ/mol
# Density = 2.473749 g / cm^3
# Si number density = 24.793926 Si / 1000 Ang^3
#
#
#
# Elastic Constant Matrix: (Units=GPa)
#
#
# Indices 1 2 3 4 5 6 
#
# 1 36.6786 -1.1285 10.1436 9.0397 -12.4862 10.5086
# 2 -1.1285 141.8560 49.7389 -20.5421 -9.9687 -7.4594
# 3 10.1436 49.7389 185.6939 -5.4652 -25.8959 -8.6453
# 4 9.0397 -20.5421 -5.4652 58.1832 -6.6322 -9.8930
# 5 -12.4862 -9.9687 -25.8959 -6.6322 34.6960 0.3707
# 6 10.5086 -7.4594 -8.6453 -9.8930 0.3707 21.3273
#
#
#
# Elastic Compliance Matrix: (Units=1/GPa)
#
#
# Indices 1 2 3 4 5 6 
#
# 1 0.041961 -0.001073 -0.001930 -0.010309 0.011668 -0.026817
# 2 -0.001073 0.008565 -0.001687 0.004000 0.001530 0.004669
# 3 -0.001930 -0.001687 0.006723 0.001425 0.004072 0.003676
# 4 -0.010309 0.004000 0.001425 0.023722 0.002845 0.018011
# 5 0.011668 0.001530 0.004072 0.002845 0.037075 -0.002888
# 6 -0.026817 0.004669 0.003676 0.018011 -0.002888 0.071630
#
#
# Mechanical properties :
#
#
# Convention : Reuss Voigt Hill
#
# Bulk Modulus (GPa) = 20.88970 53.52627 37.20799
# Shear Modulus (GPa) = 23.25470 43.20628 33.23049
#
# Velocity S-wave (km/s) = 3.06587 4.17899 3.66494
# Velocity P-wave (km/s) = 4.58000 6.70229 5.74008
#
# Compressibility (1/GPa) = 0.04787047
#
# Stress axis : x y z
#
# Youngs Moduli (GPa) = 23.83186 116.75758 148.73325
#
# Poissons Ratio (x) = 0.12524 0.28699
# Poissons Ratio (y) = 0.02556 0.25091
# Poissons Ratio (z) = 0.04598 0.19696
#
# Static dielectric constant tensor:
#      x y z
#    x 2.650530 -0.554010 0.764630 
#    y -0.554010 2.442840 -0.640080 
#    z 0.764630 -0.640080 2.798050 
# 
# From -- ./inp_files/332221.got.cif
#   From: 2010.05.17/outbox.cif.g08.bks.cpg/sg2_167_cif.got.tgz:332221.got - 2010.06.03 11:33:40.
