data_PCOD9099561
_publ_section_title
;
Structure prediction by ZEFSAII (Michael W. Deem and Ramdas Pophale) SiO2 
 PCOD9099561
Probable space group: P -1
;
_chemical_formula_sum "Si O2"
_cell_formula_units_Z 14
_cell_length_a 7.579955
_cell_length_b 12.172879
_cell_length_c 7.273140
_cell_angle_alpha 95.615974
_cell_angle_beta 94.609473
_cell_angle_gamma 59.290563
_cell_volume 573.851626
_symmetry_space_group_name_H-M "P -1"
_symmetry_group_IT_number 2
_symmetry_cell_setting 'triclinic'
loop_
_space_group_symop_operation_xyz
x,y,z
-x,-y,-z
loop_
_atom_site_type_symbol
_atom_site_label
_atom_site_fract_x
_atom_site_fract_y
_atom_site_fract_z
Si Si1 0.875096 0.813399 0.543831
Si Si2 0.880143 0.285564 0.803623
Si Si3 0.160306 0.806747 0.858982
Si Si4 0.235569 0.939014 0.575121
Si Si5 0.803779 0.636708 0.048996
Si Si6 0.619119 0.684410 0.436805
Si Si7 0.558841 0.573261 0.753772
O O1 0.780801 0.722562 0.535462
O O2 0.068334 0.747932 0.410245
O O3 0.948557 0.839578 0.747118
O O4 0.725269 0.945423 0.445715
O O5 0.684443 0.429144 0.814616
O O6 0.086436 0.280659 0.897688
O O7 0.848366 0.193230 0.922295
O O8 0.235194 0.893563 0.776142
O O9 0.319414 0.658482 0.791788
O O10 0.399695 0.813641 0.459228
O O11 0.000000 0.000000 0.500000
O O12 0.691469 0.640776 0.229720
O O13 0.647916 0.654435 0.878652
O O14 0.000000 0.500000 0.000000
O O15 0.608892 0.580142 0.546042
#
# Coordination Sequence:
#
# PCOD9099561 Si02
#       7
#     2   2   2   2   2   2   2
#     4  10  21  37  57  81 110 146 189 229 274 330
#     4  10  21  35  55  82 112 149 185 225 277 330
#     4  10  21  36  55  80 114 149 185 231 277 326
#     4   9  20  38  58  82 110 146 189 231 277 326
#     4   9  20  36  56  82 113 146 185 225 271 331
#     4  10  20  37  61  83 111 148 183 231 281 323
#     4  10  21  35  55  85 114 146 185 225 279 336
#
# _framework density 24.396547999999999
#
# number of rings (size 3 to 8) (size 9 to 14) (size 15 to 20)
#    0.000    2.286    0.000    1.714    0.000   12.000 
#    0.000    4.286    0.000   15.429    0.000    0.000 
#    0.000    0.000    0.000    0.000    0.000    0.000 
#
# Total GULP energy -78235.271391 kJ/mol
# GULP energy per Si atom -5588.233671 kJ/mol
# Density = 2.434102 g / cm^3
# Si number density = 24.396548 Si / 1000 Ang^3
#
#
#
# Elastic Constant Matrix: (Units=GPa)
#
#
# Indices 1 2 3 4 5 6 
#
# 1 70.9167 8.3449 16.3144 -5.3982 -8.1874 -3.9565
# 2 8.3449 87.7346 23.8761 -15.3429 -14.4743 -4.3854
# 3 16.3144 23.8761 115.6306 -20.2419 -34.1528 2.5156
# 4 -5.3982 -15.3429 -20.2419 35.5638 4.6387 -6.5930
# 5 -8.1874 -14.4743 -34.1528 4.6387 41.0403 -1.1483
# 6 -3.9565 -4.3854 2.5156 -6.5930 -1.1483 31.1286
#
#
#
# Elastic Compliance Matrix: (Units=1/GPa)
#
#
# Indices 1 2 3 4 5 6 
#
# 1 0.014887 -0.000401 -0.001316 0.001558 0.001622 0.002332
# 2 -0.000401 0.013317 -0.000812 0.005360 0.003423 0.003152
# 3 -0.001316 -0.000812 0.012752 0.005514 0.009446 0.000204
# 4 0.001558 0.005360 0.005514 0.034890 0.003070 0.008010
# 5 0.001622 0.003423 0.009446 0.003070 0.033461 0.001810
# 6 0.002332 0.003152 0.000204 0.008010 0.001810 0.034612
#
#
# Mechanical properties :
#
#
# Convention : Reuss Voigt Hill
#
# Bulk Modulus (GPa) = 27.85813 41.26141 34.55977
# Shear Modulus (GPa) = 31.06647 36.59630 33.83138
#
# Velocity S-wave (km/s) = 3.57234 3.87726 3.72792
# Velocity P-wave (km/s) = 5.33471 6.08225 5.72070
#
# Compressibility (1/GPa) = 0.03589617
#
# Stress axis : x y z
#
# Youngs Moduli (GPa) = 67.17239 75.09285 78.41673
#
# Poissons Ratio (x) = 0.03012 0.10324
# Poissons Ratio (y) = 0.02694 0.06371
# Poissons Ratio (z) = 0.08843 0.06101
#
# Static dielectric constant tensor:
#      x y z
#    x 2.016060 0.035490 0.015210 
#    y 0.035490 1.947050 0.025510 
#    z 0.015210 0.025510 1.948150 
# 
# From -- ./inp_files/27866.got.cif
#   From: 2010.05.17/outbox.cif.g08.bks.cpg/sg2_14_cif.got.tgz:27866.got - 2010.06.03 11:33:40.
