data_PCOD9099054
_publ_section_title
;
Structure prediction by ZEFSAII (Michael W. Deem and Ramdas Pophale) SiO2 
 PCOD9099054
Probable space group: P -1
;
_chemical_formula_sum "Si O2"
_cell_formula_units_Z 16
_cell_length_a 8.461570
_cell_length_b 11.909966
_cell_length_c 14.728439
_cell_angle_alpha 111.231744
_cell_angle_beta 73.374410
_cell_angle_gamma 52.765192
_cell_volume 806.823906
_symmetry_space_group_name_H-M "P -1"
_symmetry_group_IT_number 2
_symmetry_cell_setting 'triclinic'
loop_
_space_group_symop_operation_xyz
x,y,z
-x,-y,-z
loop_
_atom_site_type_symbol
_atom_site_label
_atom_site_fract_x
_atom_site_fract_y
_atom_site_fract_z
Si Si1 0.374432 0.001502 0.936886
Si Si2 0.541379 0.616173 0.051490
Si Si3 0.584853 0.193324 0.581564
Si Si4 0.593652 0.620216 0.841873
Si Si5 0.158850 0.237745 0.342020
Si Si6 0.132050 0.370157 0.581959
Si Si7 0.246285 0.578783 0.861050
Si Si8 0.093727 0.018791 0.351120
O O1 0.431660 0.826530 0.887725
O O2 0.545201 0.944316 0.804720
O O3 0.058620 0.210277 0.047601
O O4 0.500000 0.000000 0.000000
O O5 0.747099 0.496838 0.066595
O O6 0.270406 0.832782 0.200594
O O7 0.500000 0.500000 0.000000
O O8 0.627164 0.625202 0.945417
O O9 0.392615 0.222013 0.560324
O O10 0.391005 0.412017 0.714278
O O11 0.726411 0.059704 0.610447
O O12 0.826584 0.106418 0.455263
O O13 0.428263 0.593356 0.846417
O O14 0.884437 0.446887 0.695185
O O15 0.184072 0.282042 0.449889
O O16 0.980135 0.430084 0.364661
O O17 0.033684 0.178699 0.358224
#
# Coordination Sequence:
#
# PCOD9099054 Si02
#       8
#     2   2   2   2   2   2   2   2
#     4  11  22  37  58  85 116 148 188 234 282 337
#     4   9  20  36  58  85 113 146 189 236 280 333
#     4  10  22  38  59  84 113 151 190 233 283 335
#     4  10  20  37  59  83 114 151 189 232 284 337
#     4  10  22  39  57  84 118 149 188 235 279 335
#     4  10  22  39  58  84 117 151 189 234 282 333
#     4  10  20  37  59  83 114 150 189 234 282 335
#     4  10  21  39  59  84 115 149 191 234 281 339
#
# _framework density 19.830845
#
# number of rings (size 3 to 8) (size 9 to 14) (size 15 to 20)
#    0.000    2.000    0.000    3.375    0.000    5.000 
#    0.000    8.125    0.000    0.000    0.000    0.000 
#    0.000    0.000    0.000    0.000    0.000    0.000 
#
# Total GULP energy -89358.832848 kJ/mol
# GULP energy per Si atom -5584.927053 kJ/mol
# Density = 1.978571 g / cm^3
# Si number density = 19.830845 Si / 1000 Ang^3
#
#
#
# Elastic Constant Matrix: (Units=GPa)
#
#
# Indices 1 2 3 4 5 6 
#
# 1 46.9325 20.9879 33.3097 -2.5025 -11.5343 -19.0265
# 2 20.9879 40.8884 42.4684 -11.1507 -19.2174 -7.3673
# 3 33.3097 42.4684 115.7430 -21.8504 -10.7065 -18.7215
# 4 -2.5025 -11.1507 -21.8504 31.7233 -0.1564 -1.0287
# 5 -11.5343 -19.2174 -10.7065 -0.1564 31.7013 3.5419
# 6 -19.0265 -7.3673 -18.7215 -1.0287 3.5419 34.3893
#
#
#
# Elastic Compliance Matrix: (Units=1/GPa)
#
#
# Indices 1 2 3 4 5 6 
#
# 1 0.035711 -0.010334 -0.004416 -0.003364 0.003581 0.014670
# 2 -0.010334 0.061663 -0.015686 0.010076 0.028787 -0.003711
# 3 -0.004416 -0.015686 0.016916 0.005896 -0.005841 0.004183
# 4 -0.003364 0.010076 0.005896 0.039022 0.006622 0.003993
# 5 0.003581 0.028787 -0.005841 0.006622 0.048337 0.000188
# 6 0.014670 -0.003711 0.004183 0.003993 0.000188 0.038778
#
#
# Mechanical properties :
#
#
# Convention : Reuss Voigt Hill
#
# Bulk Modulus (GPa) = 18.72103 44.12176 31.42140
# Shear Modulus (GPa) = 15.66879 26.68264 21.17571
#
# Velocity S-wave (km/s) = 2.81396 3.67210 3.27129
# Velocity P-wave (km/s) = 4.47422 6.34637 5.49068
#
# Compressibility (1/GPa) = 0.05341586
#
# Stress axis : x y z
#
# Youngs Moduli (GPa) = 28.00248 16.21721 59.11646
#
# Poissons Ratio (x) = 0.16759 0.26108
# Poissons Ratio (y) = 0.28939 0.92732
# Poissons Ratio (z) = 0.12367 0.25439
#
# Static dielectric constant tensor:
#      x y z
#    x 1.688500 0.010770 0.020220 
#    y 0.010770 1.716070 -0.007530 
#    z 0.020220 -0.007530 1.673930 
# 
# From -- ./inp_files/295518.got.cif
#   From: 2010.05.17/outbox.cif.g08.bks.cpg/sg2_148_cif.got.tgz:295518.got - 2010.06.03 11:33:40.
