data_PCOD9099029
_publ_section_title
;
Structure prediction by ZEFSAII (Michael W. Deem and Ramdas Pophale) SiO2 
 PCOD9099029
Probable space group: P -1
;
_chemical_formula_sum "Si O2"
_cell_formula_units_Z 16
_cell_length_a 8.951768
_cell_length_b 21.618175
_cell_length_c 9.396731
_cell_angle_alpha 35.053536
_cell_angle_beta 120.338779
_cell_angle_gamma 126.794842
_cell_volume 835.922465
_symmetry_space_group_name_H-M "P -1"
_symmetry_group_IT_number 2
_symmetry_cell_setting 'triclinic'
loop_
_space_group_symop_operation_xyz
x,y,z
-x,-y,-z
loop_
_atom_site_type_symbol
_atom_site_label
_atom_site_fract_x
_atom_site_fract_y
_atom_site_fract_z
Si Si1 0.203755 0.501252 0.568496
Si Si2 0.881786 0.334712 0.185534
Si Si3 0.204925 0.048694 0.934942
Si Si4 0.817597 0.560533 0.648933
Si Si5 0.217405 0.339324 0.129879
Si Si6 0.425567 0.323943 0.525387
Si Si7 0.041957 0.068816 0.536856
Si Si8 0.686104 0.068745 0.545684
O O1 0.199370 0.448808 0.509742
O O2 0.358922 0.630588 0.414788
O O3 0.000000 0.500000 0.500000
O O4 0.254095 0.424691 0.855262
O O5 0.736180 0.205738 0.332265
O O6 0.983306 0.354009 0.351755
O O7 0.053360 0.354579 0.119791
O O8 0.799432 0.433822 0.935367
O O9 0.308601 0.187196 0.744964
O O10 0.167657 0.030791 0.781895
O O11 0.315303 0.985420 0.196581
O O12 0.000000 0.000000 0.000000
O O13 0.664901 0.605172 0.553582
O O14 0.389232 0.355142 0.287842
O O15 0.142735 0.205689 0.297760
O O16 0.854851 0.056317 0.557684
O O17 0.000000 0.000000 0.500000
O O18 0.500000 0.000000 0.500000
#
# Coordination Sequence:
#
# PCOD9099029 Si02
#       8
#     2   2   2   2   2   2   2   2
#     4  12  23  35  55  87 117 150 189 233 290 341
#     4   9  19  38  58  81 115 155 185 233 293 334
#     4   9  19  38  62  84 112 150 194 237 288 342
#     4  10  20  37  59  81 115 149 195 236 276 342
#     4   9  19  38  57  77 117 153 185 226 290 349
#     4  10  22  38  59  85 115 151 193 236 284 343
#     4   9  19  37  58  82 110 149 188 236 283 337
#     4  10  21  36  60  84 113 148 192 237 286 341
#
# _framework density 19.140530999999999
#
# number of rings (size 3 to 8) (size 9 to 14) (size 15 to 20)
#    0.000    2.250    1.250    3.000    1.750    3.000 
#    2.250    1.875    0.000    0.000    0.000    0.000 
#    0.000    0.000    0.000    0.000    0.000    0.000 
#
# Total GULP energy -89269.921942 kJ/mol
# GULP energy per Si atom -5579.370121 kJ/mol
# Density = 1.909697 g / cm^3
# Si number density = 19.140531 Si / 1000 Ang^3
#
#
#
# Elastic Constant Matrix: (Units=GPa)
#
#
# Indices 1 2 3 4 5 6 
#
# 1 32.3914 48.2530 13.0072 -1.9559 3.0436 3.1053
# 2 48.2530 173.0146 51.6940 -0.8244 -12.8524 0.9155
# 3 13.0072 51.6940 70.5082 0.4295 -14.6714 1.7012
# 4 -1.9559 -0.8244 0.4295 21.9795 -5.5730 -3.7802
# 5 3.0436 -12.8524 -14.6714 -5.5730 19.4136 2.6606
# 6 3.1053 0.9155 1.7012 -3.7802 2.6606 35.7754
#
#
#
# Elastic Compliance Matrix: (Units=1/GPa)
#
#
# Indices 1 2 3 4 5 6 
#
# 1 0.061245 -0.017942 -0.003017 -0.001744 -0.023832 -0.003125
# 2 -0.017942 0.012681 -0.004321 0.001196 0.008155 0.000958
# 3 -0.003017 -0.004321 0.020910 0.002553 0.014342 -0.001419
# 4 -0.001744 0.001196 0.002553 0.050316 0.016882 0.004060
# 5 -0.023832 0.008155 0.014342 0.016882 0.076706 -0.002743
# 6 -0.003125 0.000958 -0.001419 0.004060 -0.002743 0.028899
#
#
# Mechanical properties :
#
#
# Convention : Reuss Voigt Hill
#
# Bulk Modulus (GPa) = 22.58527 55.75808 39.17167
# Shear Modulus (GPa) = 15.81893 26.29770 21.05831
#
# Velocity S-wave (km/s) = 2.87794 3.71067 3.32052
# Velocity P-wave (km/s) = 4.78213 6.89586 5.93387
#
# Compressibility (1/GPa) = 0.04427665
#
# Stress axis : x y z
#
# Youngs Moduli (GPa) = 16.32787 78.85713 47.82289
#
# Poissons Ratio (x) = 1.41482 0.14429
# Poissons Ratio (y) = 0.29295 0.20665
# Poissons Ratio (z) = 0.04927 0.34075
#
# Static dielectric constant tensor:
#      x y z
#    x 1.680560 0.031970 0.001290 
#    y 0.031970 1.675080 0.011570 
#    z 0.001290 0.011570 1.678570 
# 
# From -- ./inp_files/179476.got.cif
#   From: 2010.05.17/outbox.cif.g08.bks.cpg/sg2_90_cif.got.tgz:179476.got - 2010.06.03 11:33:40.
