data_PCOD9099322
_publ_section_title
;
Structure prediction by ZEFSAII (Michael W. Deem and Ramdas Pophale) SiO2 
 PCOD9099322
Probable space group: P -1
;
_chemical_formula_sum "Si O2"
_cell_formula_units_Z 12
_cell_length_a 22.260450
_cell_length_b 16.402894
_cell_length_c 22.467643
_cell_angle_alpha 19.624109
_cell_angle_beta 12.815228
_cell_angle_gamma 22.448395
_cell_volume 609.290384
_symmetry_space_group_name_H-M "P -1"
_symmetry_group_IT_number 2
_symmetry_cell_setting 'triclinic'
loop_
_space_group_symop_operation_xyz
x,y,z
-x,-y,-z
loop_
_atom_site_type_symbol
_atom_site_label
_atom_site_fract_x
_atom_site_fract_y
_atom_site_fract_z
Si Si1 0.587895 0.824219 0.090474
Si Si2 0.267715 0.001654 0.042889
Si Si3 0.192633 0.299976 0.287497
Si Si4 0.881911 0.507870 0.219273
Si Si5 0.894310 0.606986 0.275605
Si Si6 0.392662 0.762185 0.738815
O O1 0.328875 0.691231 0.454992
O O2 0.708667 0.965348 0.931740
O O3 0.816554 0.618446 0.990492
O O4 0.500000 0.000000 0.000000
O O5 0.166155 0.259245 0.936347
O O6 0.062219 0.797554 0.366028
O O7 0.566988 0.907047 0.798528
O O8 0.075049 0.364689 0.290079
O O9 0.314445 0.560313 0.002081
O O10 0.827510 0.589510 0.283680
O O11 0.628756 0.647091 0.545913
O O12 0.108865 0.807007 0.946061
O O13 0.500000 0.000000 0.500000
#
# Coordination Sequence:
#
# PCOD9099322 Si02
#       6
#     2   2   2   2   2   2
#     4  12  24  39  59  83 120 157 207 238 271 331
#     4  12  22  38  58  85 122 157 195 235 288 340
#     4  10  20  37  60  85 113 149 198 235 288 337
#     4  12  24  39  57  87 120 159 190 240 291 336
#     4  10  20  37  60  86 116 144 200 231 295 333
#     4  10  20  37  66  90 110 143 197 244 286 346
#
# _framework density 19.695042999999998
#
# number of rings (size 3 to 8) (size 9 to 14) (size 15 to 20)
#    1.000    0.000    1.667    7.000    0.000    0.000 
#    0.000    0.000    0.000    6.000    0.000    0.000 
#    0.000    0.000    0.000    0.000    0.000    0.000 
#
# Total GULP energy -66912.180259 kJ/mol
# GULP energy per Si atom -5576.015022 kJ/mol
# Density = 1.965022 g / cm^3
# Si number density = 19.695043 Si / 1000 Ang^3
#
#
#
# Elastic Constant Matrix: (Units=GPa)
#
#
# Indices 1 2 3 4 5 6 
#
# 1 8.2694 13.5775 9.5706 6.6312 -22.0303 -15.0443
# 2 13.5775 64.4891 13.4906 1.7907 -13.1431 -30.7761
# 3 9.5706 13.4906 106.2592 0.2720 -22.1116 -10.9165
# 4 6.6312 1.7907 0.2720 39.1151 14.6079 -0.3295
# 5 -22.0303 -13.1431 -22.1116 14.6079 8.8111 -6.3168
# 6 -15.0443 -30.7761 -10.9165 -0.3295 -6.3168 29.6942
#
#
#
# Elastic Compliance Matrix: (Units=1/GPa)
#
#
# Indices 1 2 3 4 5 6 
#
# 1 0.020271 -0.020461 -0.009017 0.010875 -0.036138 -0.021818
# 2 -0.020461 0.028079 -0.000276 0.003093 -0.002019 0.018239
# 3 -0.009017 -0.000276 0.010546 0.000831 0.001692 -0.000609
# 4 0.010875 0.003093 0.000831 0.021540 0.005684 0.010469
# 5 -0.036138 -0.002019 0.001692 0.005684 0.000961 -0.019512
# 6 -0.021818 0.018239 -0.000609 0.010469 -0.019512 0.037268
#
#
# Mechanical properties :
#
#
# Convention : Reuss Voigt Hill
#
# Bulk Modulus (GPa) = -1630.24058 28.03279 -801.10390
# Shear Modulus (GPa) = 28.09491 25.01601 26.55546
#
# Velocity S-wave (km/s) = 3.78100 3.56781 3.67595
# Velocity P-wave (km/s) = 28.46888 5.58898 19.73880
#
# Compressibility (1/GPa) = -0.00061341
#
# Stress axis : x y z
#
# Youngs Moduli (GPa) = 49.33247 35.61406 94.82584
#
# Poissons Ratio (x) = 0.72868 0.85507
# Poissons Ratio (y) = 1.00937 0.02621
# Poissons Ratio (z) = 0.44485 0.00984
#
# Static dielectric constant tensor:
#      x y z
#    x 1.670780 0.012600 -0.026270 
#    y 0.012600 1.704160 -0.021660 
#    z -0.026270 -0.021660 1.750290 
# 
# From -- ./inp_files/59940.got.cif
#   From: 2010.05.17/outbox.cif.g08.bks.cpg/sg2_30_cif.got.tgz:59940.got - 2010.06.03 11:33:40.
