data_PCOD9099856
_publ_section_title
;
Structure prediction by ZEFSAII (Michael W. Deem and Ramdas Pophale) SiO2 
 PCOD9099856
Probable space group: P -1
;
_chemical_formula_sum "Si O2"
_cell_formula_units_Z 13
_cell_length_a 17.303573
_cell_length_b 13.224114
_cell_length_c 10.927237
_cell_angle_alpha 35.044505
_cell_angle_beta 158.324460
_cell_angle_gamma 147.192273
_cell_volume 491.455984
_symmetry_space_group_name_H-M "P -1"
_symmetry_group_IT_number 2
_symmetry_cell_setting 'triclinic'
loop_
_space_group_symop_operation_xyz
x,y,z
-x,-y,-z
loop_
_atom_site_type_symbol
_atom_site_label
_atom_site_fract_x
_atom_site_fract_y
_atom_site_fract_z
Si Si1 0.918328 0.631851 0.105285
Si Si2 0.445048 0.874498 0.662494
Si Si3 0.134318 0.753650 0.640216
Si Si4 0.299410 0.929629 0.947093
Si Si5 0.317089 0.400222 0.726947
Si Si6 0.843576 0.710275 0.641478
Si Si7 0.000000 0.000000 0.000000
O O1 0.192679 0.727012 0.422090
O O2 0.823599 0.407607 0.219772
O O3 0.847416 0.639918 0.853017
O O4 0.863500 0.779735 0.963778
O O5 0.500000 0.000000 0.500000
O O6 0.640196 0.793140 0.034522
O O7 0.478440 0.998681 0.711433
O O8 0.313179 0.837539 0.928903
O O9 0.915923 0.633418 0.518649
O O10 0.060185 0.903800 0.309235
O O11 0.093456 0.795035 0.863046
O O12 0.237244 0.112697 0.643042
O O13 0.305145 0.449415 0.517707
O O14 0.500000 0.500000 0.000000
#
# Coordination Sequence:
#
# PCOD9099856 Si02
#       7
#     2   2   2   2   2   2   1
#     4  12  23  40  67  92 121 173 219 253 310 374
#     4  11  20  34  62  97 132 159 193 259 327 376
#     4  11  23  41  68  91 123 175 210 255 314 379
#     4   9  18  36  61  92 131 160 197 256 332 376
#     4  10  20  37  62 100 134 146 195 267 329 377
#     4   9  18  34  61  91 129 166 190 252 329 381
#     4  12  26  46  60  86 130 174 226 260 292 364
#
# _framework density 26.452013000000001
#
# number of rings (size 3 to 8) (size 9 to 14) (size 15 to 20)
#    0.000    1.538    4.615    2.308    0.000    3.692 
#    0.000    0.769    0.000    4.615    0.000    0.000 
#    0.000    0.000    0.000    0.000    0.000    0.000 
#
# Total GULP energy -72442.033148 kJ/mol
# GULP energy per Si atom -5572.464088 kJ/mol
# Density = 2.639181 g / cm^3
# Si number density = 26.452013 Si / 1000 Ang^3
#
#
#
# Elastic Constant Matrix: (Units=GPa)
#
#
# Indices 1 2 3 4 5 6 
#
# 1 82.4377 32.9657 45.2730 21.5382 -35.3829 -27.5056
# 2 32.9657 105.3494 23.0035 22.0713 -19.3826 -38.1652
# 3 45.2730 23.0035 66.0649 6.4939 -44.3882 -21.7377
# 4 21.5382 22.0713 6.4939 52.6349 -12.1891 -8.6417
# 5 -35.3829 -19.3826 -44.3882 -12.1891 68.7062 13.2337
# 6 -27.5056 -38.1652 -21.7377 -8.6417 13.2337 44.3614
#
#
#
# Elastic Compliance Matrix: (Units=1/GPa)
#
#
# Indices 1 2 3 4 5 6 
#
# 1 0.023557 -0.000825 -0.011918 -0.006364 0.001864 0.006261
# 2 -0.000825 0.014764 0.000178 -0.003795 0.001018 0.011235
# 3 -0.011918 0.000178 0.036337 0.005344 0.017082 0.006515
# 4 -0.006364 -0.003795 0.005344 0.023146 0.003424 -0.001104
# 5 0.001864 0.001018 0.017082 0.003424 0.026856 0.003058
# 6 0.006261 0.011235 0.006515 -0.001104 0.003058 0.038155
#
#
# Mechanical properties :
#
#
# Convention : Reuss Voigt Hill
#
# Bulk Modulus (GPa) = 20.19009 50.70406 35.44708
# Shear Modulus (GPa) = 24.45550 43.31448 33.88499
#
# Velocity S-wave (km/s) = 3.04390 4.05096 3.58299
# Velocity P-wave (km/s) = 4.47248 6.41017 5.52690
#
# Compressibility (1/GPa) = 0.04952925
#
# Stress axis : x y z
#
# Youngs Moduli (GPa) = 42.45043 67.73340 27.52029
#
# Poissons Ratio (x) = 0.05586 0.32798
# Poissons Ratio (y) = 0.03501 -0.00490
# Poissons Ratio (z) = 0.50591 -0.01207
#
# Static dielectric constant tensor:
#      x y z
#    x 2.169160 -0.144190 0.058600 
#    y -0.144190 2.213030 0.033750 
#    z 0.058600 0.033750 2.154310 
# 
# From -- ./inp_files/161699.got.cif
#   From: 2010.05.17/outbox.cif.g08.bks.cpg/sg2_81_cif.got.tgz:161699.got - 2010.06.03 11:33:40.
