data_PCOD9099804
_publ_section_title
;
Structure prediction by ZEFSAII (Michael W. Deem and Ramdas Pophale) SiO2 
 PCOD9099804
Probable space group: P -1
;
_chemical_formula_sum "Si O2"
_cell_formula_units_Z 14
_cell_length_a 11.947298
_cell_length_b 11.462888
_cell_length_c 11.163160
_cell_angle_alpha 73.214350
_cell_angle_beta 35.526307
_cell_angle_gamma 52.059542
_cell_volume 621.443495
_symmetry_space_group_name_H-M "P -1"
_symmetry_group_IT_number 2
_symmetry_cell_setting 'triclinic'
loop_
_space_group_symop_operation_xyz
x,y,z
-x,-y,-z
loop_
_atom_site_type_symbol
_atom_site_label
_atom_site_fract_x
_atom_site_fract_y
_atom_site_fract_z
Si Si1 0.765703 0.041068 0.019154
Si Si2 0.110398 0.292437 0.956528
Si Si3 0.677308 0.596465 0.107404
Si Si4 0.448620 0.168631 0.478076
Si Si5 0.029201 0.481688 0.338482
Si Si6 0.322915 0.133338 0.220079
Si Si7 0.849857 0.045191 0.490733
O O1 0.691169 0.108969 0.200651
O O2 0.502224 0.148608 0.135415
O O3 0.848183 0.864447 0.003405
O O4 0.981531 0.014802 0.759009
O O5 0.139517 0.367542 0.021842
O O6 0.346555 0.239736 0.679791
O O7 0.830307 0.424731 0.094348
O O8 0.385523 0.755277 0.353428
O O9 0.717629 0.572122 0.937035
O O10 0.205202 0.336009 0.567964
O O11 0.500000 0.000000 0.500000
O O12 0.000000 0.500000 0.500000
O O13 0.072962 0.316195 0.334942
O O14 0.250598 0.049935 0.388950
O O15 0.500000 0.000000 0.000000
O O16 0.000000 0.000000 0.500000
#
# Coordination Sequence:
#
# PCOD9099804 Si02
#       7
#     2   2   2   2   2   2   2
#     4  11  20  38  62  89 127 164 212 258 325 369
#     4   9  19  38  66  87 120 172 215 260 311 384
#     4  10  20  37  61  93 123 162 220 258 316 380
#     4   9  20  37  64  93 124 170 215 261 319 384
#     4  11  20  35  66  96 123 169 214 259 323 379
#     4  12  21  39  62  91 130 169 208 261 317 380
#     4  12  24  36  62  96 128 166 215 265 321 384
#
# _framework density 22.528195
#
# number of rings (size 3 to 8) (size 9 to 14) (size 15 to 20)
#    0.000    1.429    5.714    0.000    0.000    0.571 
#    0.000    1.429    0.000    0.000    0.000    0.000 
#    0.000    0.000    0.000    0.000    0.000    0.000 
#
# Total GULP energy -77943.872887 kJ/mol
# GULP energy per Si atom -5567.419492 kJ/mol
# Density = 2.247692 g / cm^3
# Si number density = 22.528195 Si / 1000 Ang^3
#
#
#
# Elastic Constant Matrix: (Units=GPa)
#
#
# Indices 1 2 3 4 5 6 
#
# 1 33.4947 20.3070 20.6313 -0.4885 17.5481 -17.9629
# 2 20.3070 143.2530 49.1194 15.5643 10.4693 -23.8980
# 3 20.6313 49.1194 176.4072 -15.9585 26.3631 -7.6665
# 4 -0.4885 15.5643 -15.9585 47.0563 -5.3476 7.5593
# 5 17.5481 10.4693 26.3631 -5.3476 33.4806 -1.0984
# 6 -17.9629 -23.8980 -7.6665 7.5593 -1.0984 27.5221
#
#
#
# Elastic Compliance Matrix: (Units=1/GPa)
#
#
# Indices 1 2 3 4 5 6 
#
# 1 0.084474 0.004277 -0.003407 -0.016388 -0.043557 0.060662
# 2 0.004277 0.010578 -0.002927 -0.006969 -0.003934 0.012918
# 3 -0.003407 -0.002927 0.007460 0.003771 -0.002696 -0.003831
# 4 -0.016388 -0.006969 0.003771 0.029764 0.011785 -0.023402
# 5 -0.043557 -0.003934 -0.002696 0.011785 0.056832 -0.033565
# 6 0.060662 0.012918 -0.003831 -0.023402 -0.033565 0.091165
#
#
# Mechanical properties :
#
#
# Convention : Reuss Voigt Hill
#
# Bulk Modulus (GPa) = 10.16279 59.25227 34.70753
# Shear Modulus (GPa) = 15.76368 39.15163 27.45765
#
# Velocity S-wave (km/s) = 2.64811 4.17333 3.49494
# Velocity P-wave (km/s) = 3.72437 7.04136 5.63257
#
# Compressibility (1/GPa) = 0.09839817
#
# Stress axis : x y z
#
# Youngs Moduli (GPa) = 11.83793 94.53932 134.05338
#
# Poissons Ratio (x) = -0.40437 0.45677
# Poissons Ratio (y) = -0.05063 0.39232
# Poissons Ratio (z) = 0.04034 0.27668
#
# Static dielectric constant tensor:
#      x y z
#    x 1.894050 -0.049340 -0.006320 
#    y -0.049340 1.896700 0.033950 
#    z -0.006320 0.033950 1.873370 
# 
# From -- ./inp_files/455585.got.cif
#   From: 2010.05.17/outbox.cif.g08.bks.cpg/sg2_228_cif.got.tgz:455585.got - 2010.06.03 11:33:40.
