data_PCOD9099632
_publ_section_title
;
Structure prediction by ZEFSAII (Michael W. Deem and Ramdas Pophale) SiO2 
 PCOD9099632
Probable space group: P -1
;
_chemical_formula_sum "Si O2"
_cell_formula_units_Z 12
_cell_length_a 7.604305
_cell_length_b 16.830411
_cell_length_c 19.323857
_cell_angle_alpha 160.225829
_cell_angle_beta 127.807323
_cell_angle_gamma 42.743563
_cell_volume 534.036163
_symmetry_space_group_name_H-M "P -1"
_symmetry_group_IT_number 2
_symmetry_cell_setting 'triclinic'
loop_
_space_group_symop_operation_xyz
x,y,z
-x,-y,-z
loop_
_atom_site_type_symbol
_atom_site_label
_atom_site_fract_x
_atom_site_fract_y
_atom_site_fract_z
Si Si1 0.890306 0.776426 0.581589
Si Si2 0.806242 0.383463 0.034103
Si Si3 0.343766 0.040953 0.736331
Si Si4 0.587560 0.540300 0.478050
Si Si5 0.270578 0.325634 0.185790
Si Si6 0.743011 0.397377 0.870894
O O1 0.596313 0.849918 0.588195
O O2 0.084775 0.658939 0.600423
O O3 0.057786 0.528444 0.361770
O O4 0.856180 0.069998 0.791964
O O5 0.754934 0.481451 0.022648
O O6 0.527344 0.596692 0.186652
O O7 0.070570 0.348995 0.099002
O O8 0.450651 0.869168 0.693437
O O9 0.051831 0.111212 0.700824
O O10 0.301186 0.348668 0.979464
O O11 0.500000 0.500000 0.500000
O O12 0.451865 0.444392 0.312687
O O13 0.500000 0.000000 0.000000
#
# Coordination Sequence:
#
# PCOD9099632 Si02
#       6
#     2   2   2   2   2   2
#     4  10  21  38  62  91 123 154 194 256 301 347
#     4  10  20  41  64  90 118 157 211 235 293 360
#     4  10  20  38  60  88 122 158 201 241 308 347
#     4  10  20  37  61  87 118 157 196 248 300 354
#     4  11  22  37  63  92 117 157 206 245 297 358
#     4   9  20  38  64  87 119 167 195 244 289 362
#
# _framework density 22.470389000000001
#
# number of rings (size 3 to 8) (size 9 to 14) (size 15 to 20)
#    0.000    2.000    1.667    2.500    2.333    0.000 
#    0.000   20.833    0.000    0.000    0.000    0.000 
#    0.000    0.000    0.000    0.000    0.000    0.000 
#
# Total GULP energy -66948.460470 kJ/mol
# GULP energy per Si atom -5579.038372 kJ/mol
# Density = 2.241925 g / cm^3
# Si number density = 22.470389 Si / 1000 Ang^3
#
#
#
# Elastic Constant Matrix: (Units=GPa)
#
#
# Indices 1 2 3 4 5 6 
#
# 1 93.1452 30.9715 35.6979 13.8476 -6.6153 -13.2712
# 2 30.9715 128.3426 39.9665 24.1771 15.8833 -16.8034
# 3 35.6979 39.9665 57.5014 19.1008 -9.0685 -7.4752
# 4 13.8476 24.1771 19.1008 41.9470 -0.9063 5.5286
# 5 -6.6153 15.8833 -9.0685 -0.9063 34.6974 20.6796
# 6 -13.2712 -16.8034 -7.4752 5.5286 20.6796 41.9125
#
#
#
# Elastic Compliance Matrix: (Units=1/GPa)
#
#
# Indices 1 2 3 4 5 6 
#
# 1 0.014650 0.000412 -0.008537 -0.001869 -0.002518 0.004770
# 2 0.000412 0.017114 -0.010710 -0.007692 -0.020383 0.016153
# 3 -0.008537 -0.010710 0.033200 -0.004578 0.017160 -0.008939
# 4 -0.001869 -0.007692 -0.004578 0.033139 0.011498 -0.014537
# 5 -0.002518 -0.020383 0.017160 0.011498 0.066412 -0.040193
# 6 0.004770 0.016153 -0.008939 -0.014537 -0.040193 0.052000
#
#
# Mechanical properties :
#
#
# Convention : Reuss Voigt Hill
#
# Bulk Modulus (GPa) = 36.64035 54.69568 45.66801
# Shear Modulus (GPa) = 18.99099 35.20158 27.09628
#
# Velocity S-wave (km/s) = 2.91031 3.96229 3.47633
# Velocity P-wave (km/s) = 5.25687 6.73254 6.03994
#
# Compressibility (1/GPa) = 0.02729232
#
# Stress axis : x y z
#
# Youngs Moduli (GPa) = 68.26164 58.43138 30.12083
#
# Poissons Ratio (x) = -0.02405 0.25714
# Poissons Ratio (y) = -0.02809 0.32260
# Poissons Ratio (z) = 0.58274 0.62581
#
# Static dielectric constant tensor:
#      x y z
#    x 1.906330 -0.033400 -0.023070 
#    y -0.033400 1.876400 0.004010 
#    z -0.023070 0.004010 1.880550 
# 
# From -- ./inp_files/259756.got.cif
#   From: 2010.05.17/outbox.cif.g08.bks.cpg/sg2_130_cif.got.tgz:259756.got - 2010.06.03 11:33:40.
