data_PCOD9099109
_publ_section_title
;
Structure prediction by ZEFSAII (Michael W. Deem and Ramdas Pophale) SiO2 
 PCOD9099109
Probable space group: P -1
;
_chemical_formula_sum "Si O2"
_cell_formula_units_Z 16
_cell_length_a 9.988573
_cell_length_b 11.514245
_cell_length_c 12.665010
_cell_angle_alpha 131.314122
_cell_angle_beta 36.709934
_cell_angle_gamma 127.463849
_cell_volume 643.787460
_symmetry_space_group_name_H-M "P -1"
_symmetry_group_IT_number 2
_symmetry_cell_setting 'triclinic'
loop_
_space_group_symop_operation_xyz
x,y,z
-x,-y,-z
loop_
_atom_site_type_symbol
_atom_site_label
_atom_site_fract_x
_atom_site_fract_y
_atom_site_fract_z
Si Si1 0.101412 0.047231 0.076574
Si Si2 0.247072 0.431121 0.987341
Si Si3 0.204098 0.519797 0.581628
Si Si4 0.196551 0.002552 0.294077
Si Si5 0.459254 0.738964 0.149531
Si Si6 0.903372 0.259893 0.961763
Si Si7 0.000652 0.244883 0.426579
Si Si8 0.483334 0.285970 0.367274
O O1 0.965755 0.176276 0.291087
O O2 0.073522 0.886863 0.064409
O O3 0.359508 0.131930 0.945317
O O4 0.000000 0.000000 0.000000
O O5 0.388031 0.602853 0.025604
O O6 0.022032 0.428860 0.200289
O O7 0.403773 0.319704 0.873870
O O8 0.137079 0.380311 0.911947
O O9 0.286018 0.384082 0.522363
O O10 0.410131 0.663623 0.555622
O O11 0.135271 0.422552 0.460285
O O12 0.406398 0.102828 0.283700
O O13 0.158400 0.125785 0.300944
O O14 0.166260 0.830201 0.158425
O O15 0.000000 0.000000 0.500000
O O16 0.226243 0.775074 0.370299
O O17 0.690987 0.332611 0.181770
#
# Coordination Sequence:
#
# PCOD9099109 Si02
#       8
#     2   2   2   2   2   2   2   2
#     4  11  22  38  59  88 121 156 196 237 290 355
#     4   9  18  37  61  84 115 153 194 245 287 344
#     4   8  16  35  59  80 110 147 189 239 289 334
#     4  10  21  36  52  84 119 148 191 241 290 346
#     4  10  20  38  63  84 119 160 191 241 296 340
#     4  10  20  37  59  85 118 150 194 242 289 352
#     4   9  21  39  58  85 121 152 193 243 286 348
#     4   9  17  33  61  80 106 153 187 236 293 338
#
# _framework density 24.852922
#
# number of rings (size 3 to 8) (size 9 to 14) (size 15 to 20)
#    0.000    2.500    1.250    0.375    1.750    0.500 
#    2.250    5.625    0.000    4.500    0.000    0.000 
#    0.000    0.000    0.000    0.000    0.000    0.000 
#
# Total GULP energy -89291.531434 kJ/mol
# GULP energy per Si atom -5580.720715 kJ/mol
# Density = 2.479636 g / cm^3
# Si number density = 24.852922 Si / 1000 Ang^3
#
#
#
# Elastic Constant Matrix: (Units=GPa)
#
#
# Indices 1 2 3 4 5 6 
#
# 1 34.9217 53.3265 12.5217 7.2671 -4.0832 6.8216
# 2 53.3265 106.8367 33.8724 5.8377 13.7887 51.8958
# 3 12.5217 33.8724 101.9490 23.8552 8.0096 12.8150
# 4 7.2671 5.8377 23.8552 37.6840 9.8429 6.0601
# 5 -4.0832 13.7887 8.0096 9.8429 42.3208 10.5976
# 6 6.8216 51.8958 12.8150 6.0601 10.5976 44.1704
#
#
#
# Elastic Compliance Matrix: (Units=1/GPa)
#
#
# Indices 1 2 3 4 5 6 
#
# 1 -0.059962 0.064405 -0.010098 0.021815 -0.014136 -0.063080
# 2 0.064405 -0.044925 0.005256 -0.018995 0.014126 0.040528
# 3 -0.010098 0.005256 0.011355 -0.004411 -0.002107 -0.006800
# 4 0.021815 -0.018995 -0.004411 0.025617 -0.001080 0.016972
# 5 -0.014136 0.014126 -0.002107 -0.001080 0.023121 -0.019201
# 6 -0.063080 0.040528 -0.006800 0.016972 -0.019201 -0.010984
#
#
# Mechanical properties :
#
#
# Convention : Reuss Voigt Hill
#
# Bulk Modulus (GPa) = 39.07199 49.23873 44.15536
# Shear Modulus (GPa) = -30.05334 34.43416 2.19041
#
# Velocity S-wave (km/s) = -3.48120 3.72629 0.93982
# Velocity P-wave (km/s) = 0.63473 6.19425 4.35694
#
# Compressibility (1/GPa) = 0.02559378
#
# Stress axis : x y z
#
# Youngs Moduli (GPa) = -16.67732 -22.25935 88.06553
#
# Poissons Ratio (x) = 1.43361 0.88933
# Poissons Ratio (y) = 1.07410 -0.46291
# Poissons Ratio (z) = -0.16842 0.11700
#
# Static dielectric constant tensor:
#      x y z
#    x 1.920000 0.080290 0.116080 
#    y 0.080290 2.071460 0.003950 
#    z 0.116080 0.003950 1.887030 
# 
# From -- ./inp_files/521724.got.cif
#   From: 2010.05.17/outbox.cif.g08.bks.cpg/sg2_261_cif.got.tgz:521724.got - 2010.06.03 11:33:40.
