data_PCOD9099242
_publ_section_title
;
Structure prediction by ZEFSAII (Michael W. Deem and Ramdas Pophale) SiO2 
 PCOD9099242
Probable space group: P -1
;
_chemical_formula_sum "Si O2"
_cell_formula_units_Z 12
_cell_length_a 11.132801
_cell_length_b 7.998966
_cell_length_c 8.964602
_cell_angle_alpha 115.790268
_cell_angle_beta 42.650562
_cell_angle_gamma 116.041381
_cell_volume 477.638804
_symmetry_space_group_name_H-M "P -1"
_symmetry_group_IT_number 2
_symmetry_cell_setting 'triclinic'
loop_
_space_group_symop_operation_xyz
x,y,z
-x,-y,-z
loop_
_atom_site_type_symbol
_atom_site_label
_atom_site_fract_x
_atom_site_fract_y
_atom_site_fract_z
Si Si1 0.893809 0.720887 0.901153
Si Si2 0.859894 0.142480 0.022536
Si Si3 0.542034 0.558973 0.312439
Si Si4 0.307248 0.485583 0.257144
Si Si5 0.117185 0.174022 0.545589
Si Si6 0.501535 0.862928 0.805852
O O1 0.836899 0.555410 0.765608
O O2 0.072442 0.743605 0.845947
O O3 0.731309 0.690787 0.157994
O O4 0.899608 0.929261 0.908200
O O5 0.649732 0.117358 0.167655
O O6 0.984250 0.242407 0.811484
O O7 0.500000 0.500000 0.500000
O O8 0.392078 0.627384 0.371248
O O9 0.556555 0.348931 0.161108
O O10 0.205255 0.319818 0.395238
O O11 0.500000 0.500000 0.000000
O O12 0.294435 0.112299 0.430856
O O13 0.000000 0.000000 0.500000
O O14 0.500000 0.000000 0.000000
#
# Coordination Sequence:
#
# PCOD9099242 Si02
#       6
#     2   2   2   2   2   2
#     4  10  20  37  59  92 128 173 204 262 327 376
#     4  11  22  38  65  93 130 166 219 263 315 386
#     4  10  21  40  65  92 127 170 213 260 325 385
#     4   9  18  34  61  87 119 163 208 250 314 375
#     4  11  19  37  65  90 122 166 213 256 319 379
#     4  11  22  39  66  99 122 164 222 267 310 381
#
# _framework density 25.123587000000001
#
# number of rings (size 3 to 8) (size 9 to 14) (size 15 to 20)
#    0.000    1.667    3.333    3.000    0.000    0.667 
#    0.000    7.500    0.000   19.000    0.000    0.000 
#    0.000    0.000    0.000    0.000    0.000    0.000 
#
# Total GULP energy -66808.758580 kJ/mol
# GULP energy per Si atom -5567.396548 kJ/mol
# Density = 2.506640 g / cm^3
# Si number density = 25.123587 Si / 1000 Ang^3
#
#
#
# Elastic Constant Matrix: (Units=GPa)
#
#
# Indices 1 2 3 4 5 6 
#
# 1 219.8665 2.7942 59.1704 0.1749 5.8227 52.9197
# 2 2.7942 61.4045 27.4033 -23.2822 -3.8019 12.6785
# 3 59.1704 27.4033 116.2878 -21.5852 -1.3031 -0.6560
# 4 0.1749 -23.2822 -21.5852 41.0203 5.6152 4.3366
# 5 5.8227 -3.8019 -1.3031 5.6152 44.4657 -12.3926
# 6 52.9197 12.6785 -0.6560 4.3366 -12.3926 37.7909
#
#
#
# Elastic Compliance Matrix: (Units=1/GPa)
#
#
# Indices 1 2 3 4 5 6 
#
# 1 0.012624 0.009249 -0.007957 0.004726 -0.008445 -0.024231
# 2 0.009249 0.032051 -0.009263 0.017556 -0.008994 -0.028829
# 3 -0.007957 -0.009263 0.015030 0.000268 0.005164 0.016174
# 4 0.004726 0.017556 0.000268 0.037866 -0.009451 -0.019948
# 5 -0.008445 -0.008994 0.005164 -0.009451 0.031515 0.026353
# 6 -0.024231 -0.028829 0.016174 -0.019948 0.026353 0.081275
#
#
# Mechanical properties :
#
#
# Convention : Reuss Voigt Hill
#
# Bulk Modulus (GPa) = 22.85119 64.03272 43.44195
# Shear Modulus (GPa) = 20.75612 45.20144 32.97878
#
# Velocity S-wave (km/s) = 2.87742 4.24626 3.62700
# Velocity P-wave (km/s) = 4.48939 7.04154 5.90500
#
# Compressibility (1/GPa) = 0.04376140
#
# Stress axis : x y z
#
# Youngs Moduli (GPa) = 79.21416 31.20039 66.53405
#
# Poissons Ratio (x) = -0.28856 0.52941
# Poissons Ratio (y) = -0.73262 0.61633
# Poissons Ratio (z) = 0.63030 0.28902
#
# Static dielectric constant tensor:
#      x y z
#    x 2.233220 0.019950 -0.017790 
#    y 0.019950 1.998680 0.079650 
#    z -0.017790 0.079650 2.035160 
# 
# From -- ./inp_files/245274.got.cif
#   From: 2010.05.17/outbox.cif.g08.bks.cpg/sg2_123_cif.got.tgz:245274.got - 2010.06.03 11:33:40.
