data_PCOD9099025
_publ_section_title
;
Structure prediction by ZEFSAII (Michael W. Deem and Ramdas Pophale) SiO2 
 PCOD9099025
Probable space group: P -1
;
_chemical_formula_sum "Si O2"
_cell_formula_units_Z 16
_cell_length_a 11.576352
_cell_length_b 11.120512
_cell_length_c 14.075049
_cell_angle_alpha 129.816014
_cell_angle_beta 38.797482
_cell_angle_gamma 100.241546
_cell_volume 649.328957
_symmetry_space_group_name_H-M "P -1"
_symmetry_group_IT_number 2
_symmetry_cell_setting 'triclinic'
loop_
_space_group_symop_operation_xyz
x,y,z
-x,-y,-z
loop_
_atom_site_type_symbol
_atom_site_label
_atom_site_fract_x
_atom_site_fract_y
_atom_site_fract_z
Si Si1 0.347605 0.745773 0.233091
Si Si2 0.953914 0.634077 0.455610
Si Si3 0.932998 0.302732 0.376936
Si Si4 0.757996 0.604929 0.030665
Si Si5 0.458456 0.407719 0.652136
Si Si6 0.248675 0.956298 0.214869
Si Si7 0.801764 0.155477 0.008141
Si Si8 0.282702 0.038800 0.717455
O O1 0.482257 0.755296 0.238207
O O2 0.051556 0.898288 0.508332
O O3 0.389535 0.813160 0.142524
O O4 0.500000 0.500000 0.000000
O O5 0.066748 0.642615 0.485401
O O6 0.944776 0.456311 0.389852
O O7 0.711923 0.879790 0.730662
O O8 0.076236 0.580678 0.245903
O O9 0.678579 0.362804 0.546720
O O10 0.145585 0.051503 0.091351
O O11 0.742440 0.535953 0.110549
O O12 0.840125 0.739171 0.044809
O O13 0.583738 0.175225 0.416099
O O14 0.362291 0.596815 0.738426
O O15 0.297427 0.831388 0.026365
O O16 0.074239 0.075904 0.805711
O O17 0.500000 0.000000 0.500000
#
# Coordination Sequence:
#
# PCOD9099025 Si02
#       8
#     2   2   2   2   2   2   2   2
#     4  11  20  33  51  84 125 145 174 230 297 335
#     4  10  20  39  56  88 118 151 186 236 291 339
#     4   9  21  40  59  79 124 151 185 236 286 350
#     4  11  21  35  61  86 116 149 187 240 287 332
#     4  10  21  38  60  81 113 156 195 235 282 338
#     4  10  21  32  54  86 115 146 186 232 281 346
#     4  10  20  37  59  81 108 159 196 225 285 345
#     4   9  20  38  55  84 116 151 189 244 280 330
#
# _framework density 24.640822
#
# number of rings (size 3 to 8) (size 9 to 14) (size 15 to 20)
#    0.000    2.000    1.250    3.750    3.500    2.000 
#    4.500    4.375    0.000    1.500    0.000    0.000 
#    0.000    0.000    0.000    0.000    0.000    0.000 
#
# Total GULP energy -89144.952534 kJ/mol
# GULP energy per Si atom -5571.559533 kJ/mol
# Density = 2.458474 g / cm^3
# Si number density = 24.640822 Si / 1000 Ang^3
#
#
#
# Elastic Constant Matrix: (Units=GPa)
#
#
# Indices 1 2 3 4 5 6 
#
# 1 50.5994 22.8655 16.6336 3.8643 10.5058 18.2621
# 2 22.8655 90.5532 39.9668 48.9509 -3.1141 10.9414
# 3 16.6336 39.9668 91.3625 34.4989 12.2716 -3.9929
# 4 3.8643 48.9509 34.4989 50.6491 -3.8235 6.4181
# 5 10.5058 -3.1141 12.2716 -3.8235 32.1028 7.4712
# 6 18.2621 10.9414 -3.9929 6.4181 7.4712 35.9473
#
#
#
# Elastic Compliance Matrix: (Units=1/GPa)
#
#
# Indices 1 2 3 4 5 6 
#
# 1 0.032453 -0.011580 -0.006653 0.014935 -0.003796 -0.015579
# 2 -0.011580 0.028254 -0.001053 -0.025552 0.003665 0.000967
# 3 -0.006653 -0.001053 0.019549 -0.013808 -0.009439 0.010299
# 4 0.014935 -0.025552 -0.013808 0.054869 0.007398 -0.012678
# 5 -0.003796 0.003665 -0.009439 0.007398 0.039510 -0.009768
# 6 -0.015579 0.000967 0.010299 -0.012678 -0.009768 0.040877
#
#
# Mechanical properties :
#
#
# Convention : Reuss Voigt Hill
#
# Bulk Modulus (GPa) = 23.99008 43.49412 33.74210
# Shear Modulus (GPa) = 18.65812 33.94313 26.30063
#
# Velocity S-wave (km/s) = 2.75472 3.71552 3.27059
# Velocity P-wave (km/s) = 4.45814 6.00802 5.29015
#
# Compressibility (1/GPa) = 0.04168390
#
# Stress axis : x y z
#
# Youngs Moduli (GPa) = 30.81340 35.39343 51.15253
#
# Poissons Ratio (x) = 0.40985 0.34034
# Poissons Ratio (y) = 0.35681 0.05387
# Poissons Ratio (z) = 0.20502 0.03727
#
# Static dielectric constant tensor:
#      x y z
#    x 1.943520 0.005980 0.042310 
#    y 0.005980 2.081270 0.005190 
#    z 0.042310 0.005190 2.031010 
# 
# From -- ./inp_files/568875.got.cif
#   From: 2010.05.17/outbox.cif.g08.bks.cpg/sg2_285_cif.got.tgz:568875.got - 2010.06.03 11:33:40.
