data_PCOD9099799
_publ_section_title
;
Structure prediction by ZEFSAII (Michael W. Deem and Ramdas Pophale) SiO2 
 PCOD9099799
Probable space group: P -1
;
_chemical_formula_sum "Si O2"
_cell_formula_units_Z 16
_cell_length_a 7.932934
_cell_length_b 7.888603
_cell_length_c 11.025983
_cell_angle_alpha 76.367789
_cell_angle_beta 118.263773
_cell_angle_gamma 88.697064
_cell_volume 583.298396
_symmetry_space_group_name_H-M "P -1"
_symmetry_group_IT_number 2
_symmetry_cell_setting 'triclinic'
loop_
_space_group_symop_operation_xyz
x,y,z
-x,-y,-z
loop_
_atom_site_type_symbol
_atom_site_label
_atom_site_fract_x
_atom_site_fract_y
_atom_site_fract_z
Si Si1 0.307390 0.882008 0.155417
Si Si2 0.982787 0.693219 0.196365
Si Si3 0.137399 0.731360 0.493416
Si Si4 0.608689 0.618241 0.429158
Si Si5 0.519227 0.164374 0.282960
Si Si6 0.100467 0.269428 0.347078
Si Si7 0.765302 0.169709 0.121003
Si Si8 0.776234 0.547304 0.965165
O O1 0.120754 0.797835 0.146876
O O2 0.482450 0.722628 0.265021
O O3 0.368445 0.028778 0.240446
O O4 0.276590 0.934681 0.995663
O O5 0.000749 0.769054 0.323751
O O6 0.061991 0.481095 0.271395
O O7 0.789613 0.682214 0.058111
O O8 0.225788 0.523403 0.551660
O O9 0.322152 0.831568 0.557956
O O10 0.016001 0.765352 0.566515
O O11 0.500000 0.500000 0.500000
O O12 0.684387 0.757204 0.523466
O O13 0.646196 0.138082 0.205500
O O14 0.377687 0.353608 0.197987
O O15 0.994109 0.166858 0.229068
O O16 0.709798 0.373789 0.025570
O O17 0.000000 0.500000 0.000000
#
# Coordination Sequence:
#
# PCOD9099799 Si02
#       8
#     2   2   2   2   2   2   2   2
#     4  12  23  40  62  94 135 166 208 260 321 373
#     4  10  20  37  61  93 120 159 209 260 316 361
#     4  10  21  40  64  89 124 163 220 261 306 374
#     4  11  20  38  66  94 122 165 213 259 310 371
#     4  11  26  41  62  95 131 169 207 261 321 375
#     4   9  20  38  64  96 119 160 221 267 299 366
#     4  10  22  43  65  91 125 170 214 258 307 383
#     4  11  22  42  70  92 120 161 220 266 309 375
#
# _framework density 27.430212000000001
#
# number of rings (size 3 to 8) (size 9 to 14) (size 15 to 20)
#    0.000    1.500    3.750    3.000    0.000    4.000 
#    0.000    3.750    0.000    0.000    0.000    0.000 
#    0.000    0.000    0.000    0.000    0.000    0.000 
#
# Total GULP energy -89560.648969 kJ/mol
# GULP energy per Si atom -5597.540561 kJ/mol
# Density = 2.736778 g / cm^3
# Si number density = 27.430212 Si / 1000 Ang^3
#
#
#
# Elastic Constant Matrix: (Units=GPa)
#
#
# Indices 1 2 3 4 5 6 
#
# 1 93.4869 2.7459 15.4168 1.8083 0.3617 10.9438
# 2 2.7459 124.7499 13.4377 25.6365 10.0327 10.4497
# 3 15.4168 13.4377 165.6681 46.8473 5.8432 -0.6757
# 4 1.8083 25.6365 46.8473 33.4421 14.7100 13.9485
# 5 0.3617 10.0327 5.8432 14.7100 37.5358 5.7336
# 6 10.9438 10.4497 -0.6757 13.9485 5.7336 25.8419
#
#
#
# Elastic Compliance Matrix: (Units=1/GPa)
#
#
# Indices 1 2 3 4 5 6 
#
# 1 0.012496 -0.001144 -0.004359 0.011734 -0.002083 -0.010815
# 2 -0.001144 0.010360 0.003712 -0.015933 0.002221 0.004499
# 3 -0.004359 0.003712 0.016436 -0.037150 0.008145 0.019020
# 4 0.011734 -0.015933 -0.037150 0.135277 -0.033131 -0.065165
# 5 -0.002083 0.002221 0.008145 -0.033131 0.036251 0.010037
# 6 -0.010815 0.004499 0.019020 -0.065165 0.010037 0.074902
#
#
# Mechanical properties :
#
#
# Convention : Reuss Voigt Hill
#
# Bulk Modulus (GPa) = 28.00235 49.67840 38.84038
# Shear Modulus (GPa) = 16.59985 42.85092 29.72539
#
# Velocity S-wave (km/s) = 2.46268 3.95673 3.29549
# Velocity P-wave (km/s) = 4.27985 6.24695 5.35451
#
# Compressibility (1/GPa) = 0.03571129
#
# Stress axis : x y z
#
# Youngs Moduli (GPa) = 80.02396 96.52279 60.84084
#
# Poissons Ratio (x) = 0.11037 0.26520
# Poissons Ratio (y) = 0.09151 -0.22582
# Poissons Ratio (z) = 0.34882 -0.35827
#
# Static dielectric constant tensor:
#      x y z
#    x 2.207850 -0.032570 -0.020590 
#    y -0.032570 2.234430 0.006940 
#    z -0.020590 0.006940 2.210870 
# 
# From -- ./inp_files/378886.got.cif
#   From: 2010.05.17/outbox.cif.g08.bks.cpg/sg2_190_cif.got.tgz:378886.got - 2010.06.03 11:33:40.
