data_PCOD9099709
_publ_section_title
;
Structure prediction by ZEFSAII (Michael W. Deem and Ramdas Pophale) SiO2 
 PCOD9099709
Probable space group: P -1
;
_chemical_formula_sum "Si O2"
_cell_formula_units_Z 14
_cell_length_a 12.563331
_cell_length_b 14.711235
_cell_length_c 12.563334
_cell_angle_alpha 160.333825
_cell_angle_beta 56.828091
_cell_angle_gamma 123.706585
_cell_volume 647.560156
_symmetry_space_group_name_H-M "P -1"
_symmetry_group_IT_number 2
_symmetry_cell_setting 'triclinic'
loop_
_space_group_symop_operation_xyz
x,y,z
-x,-y,-z
loop_
_atom_site_type_symbol
_atom_site_label
_atom_site_fract_x
_atom_site_fract_y
_atom_site_fract_z
Si Si1 0.571382 0.064476 0.918442
Si Si2 0.146035 0.435524 0.864141
Si Si3 0.447612 0.491580 0.312138
Si Si4 0.820558 0.991580 0.439192
Si Si5 0.907983 0.799010 0.584551
Si Si6 0.421148 0.250000 0.828852
Si Si7 0.214458 0.700990 0.793007
O O1 0.547678 0.771487 0.549929
O O2 0.500000 0.000000 0.000000
O O3 0.506391 0.289006 0.137310
O O4 0.711977 0.192296 0.020656
O O5 0.151696 0.210993 0.704602
O O6 0.171641 0.307704 0.595727
O O7 0.000000 0.500000 0.000000
O O8 0.221558 0.728513 0.180835
O O9 0.319532 0.584138 0.534700
O O10 0.413187 0.338556 0.052663
O O11 0.714107 0.838556 0.251743
O O12 0.950563 0.084138 0.403670
O O13 0.897891 0.538963 0.379326
O O14 0.840363 0.038963 0.936853
O O15 0.500000 0.000000 0.500000
O O16 0.500000 0.500000 0.000000
#
# Coordination Sequence:
#
# PCOD9099709 Si02
#       7
#     2   2   2   2   2   2   2
#     4  10  20  37  61  89 124 161 197 248 309 361
#     4  10  20  37  61  89 124 161 197 248 309 361
#     4  11  23  42  61  89 128 162 206 260 303 361
#     4  11  23  42  61  89 128 162 206 260 303 361
#     4  11  21  35  60  94 124 155 193 243 311 378
#     4  12  28  46  66  88 118 168 222 262 304 362
#     4  11  21  35  60  94 124 155 193 243 311 378
#
# _framework density 21.619612
#
# number of rings (size 3 to 8) (size 9 to 14) (size 15 to 20)
#    0.000    1.143    0.000   10.286    0.000    6.857 
#    0.000    1.429    0.000    0.000    0.000    0.000 
#    0.000    0.000    0.000    0.000    0.000    0.000 
#
# Total GULP energy -78342.938309 kJ/mol
# GULP energy per Si atom -5595.924165 kJ/mol
# Density = 2.157040 g / cm^3
# Si number density = 21.619612 Si / 1000 Ang^3
#
#
#
# Elastic Constant Matrix: (Units=GPa)
#
#
# Indices 1 2 3 4 5 6 
#
# 1 67.7770 24.3361 39.1098 10.4390 15.5660 5.9717
# 2 24.3361 75.0630 46.0826 25.2062 1.8307 3.7565
# 3 39.1098 46.0826 158.7724 14.2125 1.2804 -5.8213
# 4 10.4390 25.2062 14.2125 45.9931 -4.2005 3.2975
# 5 15.5660 1.8307 1.2804 -4.2005 39.9693 8.0173
# 6 5.9717 3.7565 -5.8213 3.2975 8.0173 25.7805
#
#
#
# Elastic Compliance Matrix: (Units=1/GPa)
#
#
# Indices 1 2 3 4 5 6 
#
# 1 0.020432 -0.003154 -0.003958 -0.002176 -0.007395 -0.002589
# 2 -0.003154 0.020063 -0.004332 -0.008802 -0.000071 -0.002023
# 3 -0.003958 -0.004332 0.008597 0.000470 0.000881 0.003155
# 4 -0.002176 -0.008802 0.000470 0.027573 0.004758 -0.003114
# 5 -0.007395 -0.000071 0.000881 0.004758 0.029981 -0.008010
# 6 -0.002589 -0.002023 0.003155 -0.003114 -0.008010 0.043285
#
#
# Mechanical properties :
#
#
# Convention : Reuss Voigt Hill
#
# Bulk Modulus (GPa) = 38.16122 57.85216 48.00669
# Shear Modulus (GPa) = 27.54003 35.15419 31.34711
#
# Velocity S-wave (km/s) = 3.57297 4.03678 3.81194
# Velocity P-wave (km/s) = 5.89160 6.96740 6.45196
#
# Compressibility (1/GPa) = 0.02620462
#
# Stress axis : x y z
#
# Youngs Moduli (GPa) = 48.94192 49.84329 116.31785
#
# Poissons Ratio (x) = 0.15720 0.46041
# Poissons Ratio (y) = 0.15435 0.50388
# Poissons Ratio (z) = 0.19372 0.21592
#
# Static dielectric constant tensor:
#      x y z
#    x 1.767270 0.042290 -0.001210 
#    y 0.042290 1.804540 -0.002440 
#    z -0.001210 -0.002440 1.826960 
# 
# From -- ./inp_files/434387.got.cif
#   From: 2010.05.17/outbox.cif.g08.bks.cpg/sg2_218_cif.got.tgz:434387.got - 2010.06.03 11:33:40.
