data_PCOD9099827
_publ_section_title
;
Structure prediction by ZEFSAII (Michael W. Deem and Ramdas Pophale) SiO2 
 PCOD9099827
Probable space group: P -1
;
_chemical_formula_sum "Si O2"
_cell_formula_units_Z 16
_cell_length_a 15.052320
_cell_length_b 14.385928
_cell_length_c 11.062125
_cell_angle_alpha 41.160407
_cell_angle_beta 131.116177
_cell_angle_gamma 152.004262
_cell_volume 739.858497
_symmetry_space_group_name_H-M "P -1"
_symmetry_group_IT_number 2
_symmetry_cell_setting 'triclinic'
loop_
_space_group_symop_operation_xyz
x,y,z
-x,-y,-z
loop_
_atom_site_type_symbol
_atom_site_label
_atom_site_fract_x
_atom_site_fract_y
_atom_site_fract_z
Si Si1 0.896204 0.283066 0.203394
Si Si2 0.472526 0.929100 0.180676
Si Si3 0.213076 0.502724 0.466129
Si Si4 0.191342 0.264129 0.887856
Si Si5 0.136811 0.840422 0.959745
Si Si6 0.748494 0.440168 0.142862
Si Si7 0.652924 0.855166 0.948098
Si Si8 0.224033 0.736320 0.456522
O O1 0.866969 0.142707 0.204465
O O2 0.031254 0.364904 0.354537
O O3 0.690951 0.135255 0.217120
O O4 0.000000 0.500000 0.000000
O O5 0.390960 0.694151 0.350130
O O6 0.294952 0.869406 0.105654
O O7 0.500000 0.000000 0.000000
O O8 0.184227 0.338467 0.680779
O O9 0.275462 0.676332 0.454784
O O10 0.215776 0.404394 0.876283
O O11 0.344717 0.283732 0.992566
O O12 0.000000 0.000000 0.000000
O O13 0.933395 0.604593 0.063708
O O14 0.209450 0.032869 0.923286
O O15 0.557227 0.305899 0.037331
O O16 0.699380 0.253914 0.359237
O O17 0.727898 0.058063 0.735421
O O18 0.000000 0.500000 0.500000
#
# Coordination Sequence:
#
# PCOD9099827 Si02
#       8
#     2   2   2   2   2   2   2   2
#     4  11  22  38  66 100 130 170 213 270 337 381
#     4  10  20  37  61  95 131 159 214 268 319 376
#     4  11  22  42  64  97 134 173 213 269 329 385
#     4  11  24  47  66  92 138 175 216 271 325 395
#     4  11  22  37  63  95 126 167 210 268 326 378
#     4  11  24  40  66  95 128 169 221 264 339 389
#     4  12  22  40  64  92 131 174 210 272 323 387
#     4  11  20  39  62  98 129 159 217 276 324 388
#
# _framework density 21.625757
#
# number of rings (size 3 to 8) (size 9 to 14) (size 15 to 20)
#    0.000    1.000    6.250    1.500    1.750    0.000 
#   11.250    0.625    0.000    3.750    0.000    0.000 
#    0.000    0.000    0.000    0.000    0.000    0.000 
#
# Total GULP energy -89139.017537 kJ/mol
# GULP energy per Si atom -5571.188596 kJ/mol
# Density = 2.157654 g / cm^3
# Si number density = 21.625757 Si / 1000 Ang^3
#
#
#
# Elastic Constant Matrix: (Units=GPa)
#
#
# Indices 1 2 3 4 5 6 
#
# 1 101.7783 33.7536 37.9881 2.0457 -2.3937 7.5071
# 2 33.7536 134.2011 42.4044 2.2081 -4.6687 15.9054
# 3 37.9881 42.4044 119.7311 -12.0679 -2.2836 -3.5260
# 4 2.0457 2.2081 -12.0679 24.6855 -2.6830 -6.8528
# 5 -2.3937 -4.6687 -2.2836 -2.6830 25.4812 -0.0791
# 6 7.5071 15.9054 -3.5260 -6.8528 -0.0791 49.8603
#
#
#
# Elastic Compliance Matrix: (Units=1/GPa)
#
#
# Indices 1 2 3 4 5 6 
#
# 1 0.011898 -0.001566 -0.003591 -0.003131 0.000173 -0.001976
# 2 -0.001566 0.009346 -0.003210 -0.003117 0.000939 -0.003400
# 3 -0.003591 -0.003210 0.011472 0.007223 0.000874 0.003370
# 4 -0.003131 -0.003117 0.007223 0.047463 0.004806 0.008508
# 5 0.000173 0.000939 0.000874 0.004806 0.040019 0.000460
# 6 -0.001976 -0.003400 0.003370 0.008508 0.000460 0.022846
#
#
# Mechanical properties :
#
#
# Convention : Reuss Voigt Hill
#
# Bulk Modulus (GPa) = 62.56582 64.88917 63.72750
# Shear Modulus (GPa) = 30.28378 36.10969 33.19673
#
# Velocity S-wave (km/s) = 3.74619 4.09069 3.92223
# Velocity P-wave (km/s) = 6.90695 7.23757 7.07419
#
# Compressibility (1/GPa) = 0.01598317
#
# Stress axis : x y z
#
# Youngs Moduli (GPa) = 84.05075 106.99231 87.16889
#
# Poissons Ratio (x) = 0.16757 0.31299
# Poissons Ratio (y) = 0.13164 0.27978
# Poissons Ratio (z) = 0.30179 0.34341
#
# Static dielectric constant tensor:
#      x y z
#    x 1.989110 -0.027130 -0.045690 
#    y -0.027130 1.898890 0.003230 
#    z -0.045690 0.003230 1.900440 
# 
# From -- ./inp_files/455504.got.cif
#   From: 2010.05.17/outbox.cif.g08.bks.cpg/sg2_228_cif.got.tgz:455504.got - 2010.06.03 11:33:40.
