data_PCOD9099157
_publ_section_title
;
Structure prediction by ZEFSAII (Michael W. Deem and Ramdas Pophale) SiO2 
 PCOD9099157
Probable space group: P -1
;
_chemical_formula_sum "Si O2"
_cell_formula_units_Z 12
_cell_length_a 8.422435
_cell_length_b 6.978021
_cell_length_c 12.769961
_cell_angle_alpha 81.936220
_cell_angle_beta 68.108683
_cell_angle_gamma 47.826840
_cell_volume 509.462666
_symmetry_space_group_name_H-M "P -1"
_symmetry_group_IT_number 2
_symmetry_cell_setting 'triclinic'
loop_
_space_group_symop_operation_xyz
x,y,z
-x,-y,-z
loop_
_atom_site_type_symbol
_atom_site_label
_atom_site_fract_x
_atom_site_fract_y
_atom_site_fract_z
Si Si1 0.860421 0.740044 0.413579
Si Si2 0.538446 0.572866 0.197707
Si Si3 0.828462 0.519676 0.964459
Si Si4 0.525904 0.267057 0.563147
Si Si5 0.821044 0.996367 0.187030
Si Si6 0.691767 0.644861 0.761905
O O1 0.678858 0.706847 0.438594
O O2 0.862837 0.866219 0.297342
O O3 0.124169 0.457920 0.368735
O O4 0.760683 0.972882 0.500599
O O5 0.487821 0.708185 0.310104
O O6 0.347851 0.558492 0.215558
O O7 0.764975 0.265059 0.186827
O O8 0.597979 0.654225 0.076297
O O9 0.780023 0.648205 0.852721
O O10 0.968903 0.218692 0.922439
O O11 0.000000 0.500000 0.000000
O O12 0.500000 0.500000 0.500000
O O13 0.574088 0.089144 0.206663
#
# Coordination Sequence:
#
# PCOD9099157 Si02
#       6
#     2   2   2   2   2   2
#     4  10  21  41  65  88 124 156 202 251 293 363
#     4  10  20  37  59  87 120 158 203 243 298 355
#     4  11  21  37  59  88 123 162 198 246 305 358
#     4  11  21  40  64  90 119 164 201 245 306 353
#     4   9  20  38  61  86 121 155 200 245 296 355
#     4   9  21  38  61  88 121 157 201 248 301 356
#
# _framework density 23.554227999999998
#
# number of rings (size 3 to 8) (size 9 to 14) (size 15 to 20)
#    1.000    1.000    1.667    3.000    0.000    1.333 
#    0.000   10.833    0.000    0.000    0.000    0.000 
#    0.000    0.000    0.000    0.000    0.000    0.000 
#
# Total GULP energy -66953.592211 kJ/mol
# GULP energy per Si atom -5579.466018 kJ/mol
# Density = 2.350062 g / cm^3
# Si number density = 23.554228 Si / 1000 Ang^3
#
#
#
# Elastic Constant Matrix: (Units=GPa)
#
#
# Indices 1 2 3 4 5 6 
#
# 1 65.1378 8.1329 26.9004 13.3661 7.9330 -0.7784
# 2 8.1329 57.6887 48.0721 -0.4443 8.4793 -3.0611
# 3 26.9004 48.0721 146.3114 45.6368 14.7204 12.3516
# 4 13.3661 -0.4443 45.6368 12.1695 3.7716 -3.5348
# 5 7.9330 8.4793 14.7204 3.7716 45.2097 0.3621
# 6 -0.7784 -3.0611 12.3516 -3.5348 0.3621 37.4000
#
#
#
# Elastic Compliance Matrix: (Units=1/GPa)
#
#
# Indices 1 2 3 4 5 6 
#
# 1 0.016505 0.003145 -0.005949 0.005846 -0.002062 0.003138
# 2 0.003145 0.009009 0.009083 -0.038261 -0.001960 -0.005794
# 3 -0.005949 0.009083 -0.008774 0.042394 -0.001400 0.007538
# 4 0.005846 -0.038261 0.042394 -0.092173 0.000242 -0.025725
# 5 -0.002062 -0.001960 -0.001400 0.000242 0.023284 0.000056
# 6 0.003138 -0.005794 0.007538 -0.025725 0.000056 0.021408
#
#
# Mechanical properties :
#
#
# Convention : Reuss Voigt Hill
#
# Bulk Modulus (GPa) = 34.13373 48.37208 41.25290
# Shear Modulus (GPa) = -149.10194 31.35802 -58.87196
#
# Velocity S-wave (km/s) = -7.96486 3.65267 -5.00485
# Velocity P-wave (km/s) = 8.37032 6.19439 3.98070
#
# Compressibility (1/GPa) = 0.02929654
#
# Stress axis : x y z
#
# Youngs Moduli (GPa) = 60.58725 111.00604 -113.96663
#
# Poissons Ratio (x) = -0.34911 -0.67798
# Poissons Ratio (y) = -0.19054 1.03512
# Poissons Ratio (z) = 0.36043 -1.00823
#
# Static dielectric constant tensor:
#      x y z
#    x 1.869940 -0.043930 -0.031610 
#    y -0.043930 2.008030 0.027950 
#    z -0.031610 0.027950 1.893660 
# 
# From -- ./inp_files/72708.got.cif
#   From: 2010.05.17/outbox.cif.g08.bks.cpg/sg2_37_cif.got.tgz:72708.got - 2010.06.03 11:33:40.
