data_PCOD9099367
_publ_section_title
;
Structure prediction by ZEFSAII (Michael W. Deem and Ramdas Pophale) SiO2 
 PCOD9099367
Probable space group: P -1
;
_chemical_formula_sum "Si O2"
_cell_formula_units_Z 16
_cell_length_a 13.099094
_cell_length_b 11.804577
_cell_length_c 8.177533
_cell_angle_alpha 36.122306
_cell_angle_beta 117.078773
_cell_angle_gamma 111.076114
_cell_volume 663.636509
_symmetry_space_group_name_H-M "P -1"
_symmetry_group_IT_number 2
_symmetry_cell_setting 'triclinic'
loop_
_space_group_symop_operation_xyz
x,y,z
-x,-y,-z
loop_
_atom_site_type_symbol
_atom_site_label
_atom_site_fract_x
_atom_site_fract_y
_atom_site_fract_z
Si Si1 0.896507 0.714462 0.733229
Si Si2 0.843929 0.310811 0.046378
Si Si3 0.577531 0.685043 0.878482
Si Si4 0.443525 0.986082 0.267623
Si Si5 0.891864 0.868296 0.074159
Si Si6 0.250925 0.990765 0.883146
Si Si7 0.758429 0.166185 0.481678
Si Si8 0.159431 0.462244 0.759067
O O1 0.799203 0.876902 0.452686
O O2 0.027579 0.775253 0.723534
O O3 0.862733 0.537873 0.796661
O O4 0.896424 0.620687 0.020886
O O5 0.759728 0.259021 0.196100
O O6 0.790084 0.220214 0.951340
O O7 0.555592 0.851346 0.529907
O O8 0.551247 0.803082 0.891242
O O9 0.500000 0.500000 0.000000
O O10 0.706577 0.603500 0.073331
O O11 0.357165 0.870329 0.461138
O O12 0.381277 0.991895 0.040293
O O13 0.819616 0.959623 0.764494
O O14 0.819201 0.919702 0.120506
O O15 0.902424 0.643076 0.312351
O O16 0.000000 0.000000 0.000000
O O17 0.833228 0.310620 0.478019
#
# Coordination Sequence:
#
# PCOD9099367 Si02
#       8
#     2   2   2   2   2   2   2   2
#     4  10  22  37  57  86 122 161 198 226 287 353
#     4  10  21  37  59  84 121 165 194 228 280 362
#     4  11  21  40  66  85 111 151 200 252 300 346
#     4  10  23  38  61  93 110 147 200 251 301 348
#     4  11  22  35  56  88 122 152 193 244 295 345
#     4  11  21  35  57  86 120 151 185 245 295 340
#     4  10  20  37  60  87 115 154 202 233 285 349
#     4  11  21  38  62  86 113 158 200 244 286 351
#
# _framework density 24.109583000000001
#
# number of rings (size 3 to 8) (size 9 to 14) (size 15 to 20)
#    0.000    1.500    3.750    2.625    0.000    3.500 
#    0.000    0.625    0.000    2.250    0.000    0.000 
#    0.000    0.000    0.000    0.000    0.000    0.000 
#
# Total GULP energy -89366.118235 kJ/mol
# GULP energy per Si atom -5585.382390 kJ/mol
# Density = 2.405471 g / cm^3
# Si number density = 24.109583 Si / 1000 Ang^3
#
#
#
# Elastic Constant Matrix: (Units=GPa)
#
#
# Indices 1 2 3 4 5 6 
#
# 1 60.7718 11.9422 13.0883 -5.2855 -2.0998 7.8264
# 2 11.9422 190.5204 13.2801 -24.1719 -0.7099 -1.7141
# 3 13.0883 13.2801 62.8754 -1.1137 11.9016 -1.4849
# 4 -5.2855 -24.1719 -1.1137 41.6528 -2.2014 5.2544
# 5 -2.0998 -0.7099 11.9016 -2.2014 39.8243 2.0548
# 6 7.8264 -1.7141 -1.4849 5.2544 2.0548 33.1476
#
#
#
# Elastic Compliance Matrix: (Units=1/GPa)
#
#
# Indices 1 2 3 4 5 6 
#
# 1 0.018487 -0.000552 -0.004312 0.002705 0.002670 -0.005181
# 2 -0.000552 0.005786 -0.001170 0.003312 0.000616 -0.000186
# 3 -0.004312 -0.001170 0.018194 -0.001347 -0.005881 0.002351
# 4 0.002705 0.003312 -0.001347 0.026986 0.002351 -0.004951
# 5 0.002670 0.000616 -0.005881 0.002351 0.027301 -0.002927
# 6 -0.005181 -0.000186 0.002351 -0.004951 -0.002927 0.032453
#
#
# Mechanical properties :
#
#
# Convention : Reuss Voigt Hill
#
# Bulk Modulus (GPa) = 32.89402 43.42098 38.15750
# Shear Modulus (GPa) = 33.02375 41.31541 37.16958
#
# Velocity S-wave (km/s) = 3.70501 4.14412 3.93070
# Velocity P-wave (km/s) = 5.65473 6.39900 6.03834
#
# Compressibility (1/GPa) = 0.03040066
#
# Stress axis : x y z
#
# Youngs Moduli (GPa) = 54.09280 172.83817 54.96335
#
# Poissons Ratio (x) = 0.09535 0.23698
# Poissons Ratio (y) = 0.02984 0.06428
# Poissons Ratio (z) = 0.23323 0.20215
#
# Static dielectric constant tensor:
#      x y z
#    x 10.683300 3.200010 -1.147460 
#    y 3.200010 3.122350 -0.386190 
#    z -1.147460 -0.386190 2.119880 
# 
# From -- ./inp_files/274172.got.cif
#   From: 2010.05.17/outbox.cif.g08.bks.cpg/sg2_138_cif.got.tgz:274172.got - 2010.06.03 11:33:40.
