data_PCOD9099381
_publ_section_title
;
Structure prediction by ZEFSAII (Michael W. Deem and Ramdas Pophale) SiO2 
 PCOD9099381
Probable space group: P -1
;
_chemical_formula_sum "Si O2"
_cell_formula_units_Z 14
_cell_length_a 13.847276
_cell_length_b 8.127981
_cell_length_c 9.229462
_cell_angle_alpha 50.732478
_cell_angle_beta 68.184025
_cell_angle_gamma 107.582509
_cell_volume 495.920512
_symmetry_space_group_name_H-M "P -1"
_symmetry_group_IT_number 2
_symmetry_cell_setting 'triclinic'
loop_
_space_group_symop_operation_xyz
x,y,z
-x,-y,-z
loop_
_atom_site_type_symbol
_atom_site_label
_atom_site_fract_x
_atom_site_fract_y
_atom_site_fract_z
Si Si1 0.310061 0.529607 0.927863
Si Si2 0.632220 0.113619 0.556712
Si Si3 0.065967 0.761364 0.007943
Si Si4 0.201416 0.409328 0.602627
Si Si5 0.541571 0.635743 0.236739
Si Si6 0.844529 0.370591 0.726708
Si Si7 0.737652 0.815902 0.593127
O O1 0.265498 0.630566 0.774857
O O2 0.379715 0.447441 0.836843
O O3 0.452414 0.854039 0.752778
O O4 0.217030 0.270620 0.252220
O O5 0.633086 0.266700 0.611760
O O6 0.661887 0.907130 0.662382
O O7 0.149478 0.096866 0.850184
O O8 0.115878 0.870166 0.755063
O O9 0.133224 0.652798 0.104682
O O10 0.891776 0.549518 0.275163
O O11 0.158025 0.398796 0.468831
O O12 0.500000 0.500000 0.500000
O O13 0.391725 0.449929 0.313249
O O14 0.684123 0.020676 0.955132
O O15 0.000000 0.500000 0.500000
#
# Coordination Sequence:
#
# PCOD9099381 Si02
#       7
#     2   2   2   2   2   2   2
#     4  10  22  39  61  84 125 161 193 249 317 359
#     4  10  21  38  60  83 116 160 202 244 296 374
#     4  10  22  38  58  90 124 159 201 260 296 367
#     4  10  21  39  61  86 122 162 207 246 311 358
#     4  11  20  37  65  92 122 160 204 255 303 353
#     4  10  20  37  60  87 121 159 198 246 305 357
#     4  11  22  39  60  89 125 156 200 250 313 355
#
# _framework density 28.230333000000002
#
# number of rings (size 3 to 8) (size 9 to 14) (size 15 to 20)
#    0.000    1.714    1.429    4.286    0.000    1.714 
#    2.571    2.143    0.000    0.000    0.000    0.000 
#    0.000    0.000    0.000    0.000    0.000    0.000 
#
# Total GULP energy -78270.387678 kJ/mol
# GULP energy per Si atom -5590.741977 kJ/mol
# Density = 2.816608 g / cm^3
# Si number density = 28.230333 Si / 1000 Ang^3
#
#
#
# Elastic Constant Matrix: (Units=GPa)
#
#
# Indices 1 2 3 4 5 6 
#
# 1 88.5501 -3.0807 39.0199 13.4052 25.9748 11.4607
# 2 -3.0807 102.7470 20.5853 25.4612 14.3158 7.4386
# 3 39.0199 20.5853 145.6715 36.2973 36.8848 15.4711
# 4 13.4052 25.4612 36.2973 46.5702 8.3589 0.8701
# 5 25.9748 14.3158 36.8848 8.3589 59.6187 16.7075
# 6 11.4607 7.4386 15.4711 0.8701 16.7075 24.6141
#
#
#
# Elastic Compliance Matrix: (Units=1/GPa)
#
#
# Indices 1 2 3 4 5 6 
#
# 1 0.014396 0.002422 -0.002011 -0.003070 -0.004297 -0.003145
# 2 0.002422 0.012037 0.000321 -0.007062 -0.002262 -0.003182
# 3 -0.002011 0.000321 0.010357 -0.006926 -0.003849 -0.002813
# 4 -0.003070 -0.007062 -0.006926 0.031278 0.001265 0.005953
# 5 -0.004297 -0.002262 -0.003849 0.001265 0.024667 -0.011684
# 6 -0.003145 -0.003182 -0.002813 0.005953 -0.011684 0.052542
#
#
# Mechanical properties :
#
#
# Convention : Reuss Voigt Hill
#
# Bulk Modulus (GPa) = 26.14179 50.00193 38.07186
# Shear Modulus (GPa) = 31.93572 44.85687 38.39629
#
# Velocity S-wave (km/s) = 3.36706 3.99050 3.69196
# Velocity P-wave (km/s) = 4.93927 6.24361 5.62935
#
# Compressibility (1/GPa) = 0.03825293
#
# Stress axis : x y z
#
# Youngs Moduli (GPa) = 69.46367 83.07970 96.55128
#
# Poissons Ratio (x) = -0.20121 0.19418
# Poissons Ratio (y) = -0.16823 -0.03097
# Poissons Ratio (z) = 0.13970 -0.02665
#
# Static dielectric constant tensor:
#      x y z
#    x 2.376280 0.009870 -0.087460 
#    y 0.009870 2.224360 0.050690 
#    z -0.087460 0.050690 2.281170 
# 
# From -- ./inp_files/202750.got.cif
#   From: 2010.05.17/outbox.cif.g08.bks.cpg/sg2_102_cif.got.tgz:202750.got - 2010.06.03 11:33:40.
