data_PCOD9099147
_publ_section_title
;
Structure prediction by ZEFSAII (Michael W. Deem and Ramdas Pophale) SiO2 
 PCOD9099147
Probable space group: P -1
;
_chemical_formula_sum "Si O2"
_cell_formula_units_Z 15
_cell_length_a 26.162004
_cell_length_b 26.566265
_cell_length_c 15.321261
_cell_angle_alpha 159.920362
_cell_angle_beta 159.825262
_cell_angle_gamma 11.061734
_cell_volume 678.040903
_symmetry_space_group_name_H-M "P -1"
_symmetry_group_IT_number 2
_symmetry_cell_setting 'triclinic'
loop_
_space_group_symop_operation_xyz
x,y,z
-x,-y,-z
loop_
_atom_site_type_symbol
_atom_site_label
_atom_site_fract_x
_atom_site_fract_y
_atom_site_fract_z
Si Si1 0.000000 0.000000 0.500000
Si Si2 0.108994 0.051245 0.410507
Si Si3 0.200467 0.282812 0.606043
Si Si4 0.619990 0.680546 0.266106
Si Si5 0.513220 0.459764 0.058488
Si Si6 0.184850 0.256959 0.740923
Si Si7 0.564314 0.593354 0.850867
Si Si8 0.708752 0.867967 0.040457
O O1 0.781966 0.287024 0.673327
O O2 0.739218 0.179452 0.305504
O O3 0.190118 0.094912 0.532738
O O4 0.128174 0.128511 0.655976
O O5 0.813683 0.238499 0.217052
O O6 0.314312 0.745699 0.247331
O O7 0.136415 0.294089 0.621801
O O8 0.926347 0.486200 0.443200
O O9 0.421640 0.983966 0.439049
O O10 0.314318 0.352353 0.900574
O O11 0.572351 0.630325 0.197102
O O12 0.559838 0.621496 0.993841
O O13 0.500000 0.500000 0.000000
O O14 0.935487 0.556557 0.873831
O O15 0.488174 0.075035 0.947249
O O16 0.500000 0.000000 0.000000
#
# Coordination Sequence:
#
# PCOD9099147 Si02
#       8
#     1   2   2   2   2   2   2   2
#     4  10  24  48  72 100 140 170 218 278 336 422
#     4  11  21  39  59  84 126 174 214 270 328 384
#     4  12  24  43  70 102 129 176 224 280 337 392
#     4  12  25  44  68 101 135 176 231 278 328 403
#     4  12  24  40  59  92 127 176 217 268 332 380
#     4  11  21  38  61  95 127 169 222 276 326 389
#     4  11  24  48  73 101 135 177 217 279 347 392
#     4  10  20  37  59  86 126 168 222 276 325 390
#
# _framework density 22.122558999999999
#
# number of rings (size 3 to 8) (size 9 to 14) (size 15 to 20)
#    0.000    0.800    0.000   10.000    0.000    0.000 
#   14.400    0.000    0.000    0.000    0.000    0.000 
#    0.000    0.000    0.000    0.000    0.000    0.000 
#
# Total GULP energy -83668.598884 kJ/mol
# GULP energy per Si atom -5577.906592 kJ/mol
# Density = 2.207221 g / cm^3
# Si number density = 22.122559 Si / 1000 Ang^3
#
#
#
# Elastic Constant Matrix: (Units=GPa)
#
#
# Indices 1 2 3 4 5 6 
#
# 1 73.2986 0.8755 9.6190 -7.3281 -1.1881 10.5212
# 2 0.8755 234.3544 48.1110 -29.3101 -14.9311 9.3095
# 3 9.6190 48.1110 48.4306 -24.1905 -26.3525 5.9040
# 4 -7.3281 -29.3101 -24.1905 57.4774 2.4569 -9.4793
# 5 -1.1881 -14.9311 -26.3525 2.4569 30.4409 0.1659
# 6 10.5212 9.3095 5.9040 -9.4793 0.1659 22.5324
#
#
#
# Elastic Compliance Matrix: (Units=1/GPa)
#
#
# Indices 1 2 3 4 5 6 
#
# 1 0.015143 0.001024 -0.005709 -0.000832 -0.003747 -0.006320
# 2 0.001024 0.005672 -0.008308 -0.000419 -0.004332 -0.000789
# 3 -0.005709 -0.008308 0.072714 0.022569 0.056850 -0.003879
# 4 -0.000832 -0.000419 0.022569 0.026802 0.017105 0.005798
# 5 -0.003747 -0.004332 0.056850 0.017105 0.078440 -0.004738
# 6 -0.006320 -0.000789 -0.003879 0.005798 -0.004738 0.051148
#
#
# Mechanical properties :
#
#
# Convention : Reuss Voigt Hill
#
# Bulk Modulus (GPa) = 14.80514 52.58830 33.69672
# Shear Modulus (GPa) = 16.75501 41.92202 29.33852
#
# Velocity S-wave (km/s) = 2.75503 4.35787 3.64563
# Velocity P-wave (km/s) = 4.10208 7.01030 5.74332
#
# Compressibility (1/GPa) = 0.06754412
#
# Stress axis : x y z
#
# Youngs Moduli (GPa) = 66.03701 176.31455 13.75246
#
# Poissons Ratio (x) = -0.18048 0.07851
# Poissons Ratio (y) = -0.06760 0.11425
# Poissons Ratio (z) = 0.37697 1.46474
#
# Static dielectric constant tensor:
#      x y z
#    x 1.874200 0.000040 0.004870 
#    y 0.000040 1.763990 -0.032400 
#    z 0.004870 -0.032400 1.823140 
# 
# From -- ./inp_files/544611.got.cif
#   From: 2010.05.17/outbox.cif.g08.bks.cpg/sg2_273_cif.got.tgz:544611.got - 2010.06.03 11:33:40.
