data_PCOD9099051
_publ_section_title
;
Structure prediction by ZEFSAII (Michael W. Deem and Ramdas Pophale) SiO2 
 PCOD9099051
Probable space group: P -1
;
_chemical_formula_sum "Si O2"
_cell_formula_units_Z 16
_cell_length_a 13.368905
_cell_length_b 15.455095
_cell_length_c 7.406948
_cell_angle_alpha 102.969488
_cell_angle_beta 77.933242
_cell_angle_gamma 153.987906
_cell_volume 653.957669
_symmetry_space_group_name_H-M "P -1"
_symmetry_group_IT_number 2
_symmetry_cell_setting 'triclinic'
loop_
_space_group_symop_operation_xyz
x,y,z
-x,-y,-z
loop_
_atom_site_type_symbol
_atom_site_label
_atom_site_fract_x
_atom_site_fract_y
_atom_site_fract_z
Si Si1 0.299998 0.390014 0.146722
Si Si2 0.925186 0.391231 0.205714
Si Si3 0.451739 0.079070 0.244018
Si Si4 0.185722 0.981077 0.036730
Si Si5 0.784165 0.823005 0.628401
Si Si6 0.109385 0.716273 0.435525
Si Si7 0.649587 0.427919 0.374512
Si Si8 0.349146 0.602329 0.058547
O O1 0.249493 0.291726 0.295585
O O2 0.361393 0.541473 0.186203
O O3 0.500000 0.500000 0.000000
O O4 0.053775 0.204565 0.055341
O O5 0.673651 0.206228 0.129403
O O6 0.876976 0.309803 0.380447
O O7 0.030129 0.570476 0.278355
O O8 0.126595 0.489820 0.095217
O O9 0.245350 0.944736 0.125919
O O10 0.550461 0.250860 0.355705
O O11 0.340733 0.936844 0.377750
O O12 0.188804 0.074113 0.194490
O O13 0.411994 0.160209 0.912356
O O14 0.549007 0.659154 0.534556
O O15 0.000000 0.000000 0.500000
O O16 0.901847 0.625569 0.452101
O O17 0.663949 0.451870 0.161760
#
# Coordination Sequence:
#
# PCOD9099051 Si02
#       8
#     2   2   2   2   2   2   2   2
#     4  12  22  41  67  86 122 168 208 250 311 365
#     4  10  22  37  58  90 118 159 196 253 297 366
#     4   9  19  36  61  83 118 153 195 243 301 359
#     4  10  23  40  64  90 121 163 201 260 309 358
#     4  10  22  40  63  92 126 158 205 262 307 362
#     4  10  20  37  59  82 122 158 196 242 315 358
#     4   9  20  38  55  84 119 155 195 254 296 360
#     4  10  22  39  60  89 121 155 209 248 300 366
#
# _framework density 24.466414
#
# number of rings (size 3 to 8) (size 9 to 14) (size 15 to 20)
#    0.000    2.250    2.500    1.500    0.000    8.500 
#    0.000    4.375    0.000    0.000    0.000    0.000 
#    0.000    0.000    0.000    0.000    0.000    0.000 
#
# Total GULP energy -89475.124659 kJ/mol
# GULP energy per Si atom -5592.195291 kJ/mol
# Density = 2.441073 g / cm^3
# Si number density = 24.466414 Si / 1000 Ang^3
#
#
#
# Elastic Constant Matrix: (Units=GPa)
#
#
# Indices 1 2 3 4 5 6 
#
# 1 127.6101 49.6775 50.8569 -28.3029 10.7276 23.4612
# 2 49.6775 118.3633 50.9196 -36.8941 6.4542 30.0811
# 3 50.8569 50.9196 77.8951 -42.7936 9.1516 -4.9252
# 4 -28.3029 -36.8941 -42.7936 46.8641 3.0603 4.4398
# 5 10.7276 6.4542 9.1516 3.0603 39.3894 -17.3169
# 6 23.4612 30.0811 -4.9252 4.4398 -17.3169 46.0083
#
#
#
# Elastic Compliance Matrix: (Units=1/GPa)
#
#
# Indices 1 2 3 4 5 6 
#
# 1 0.014756 0.003828 -0.008516 0.006238 -0.009857 -0.015251
# 2 0.003828 0.022288 -0.008385 0.015477 -0.014697 -0.024447
# 3 -0.008516 -0.008385 0.035574 0.019743 -0.001138 0.011300
# 4 0.006238 0.015477 0.019743 0.059448 -0.025021 -0.026341
# 5 -0.009857 -0.014697 -0.001138 -0.025021 0.048088 0.035028
# 6 -0.015251 -0.024447 0.011300 -0.026341 0.035028 0.062432
#
#
# Mechanical properties :
#
#
# Convention : Reuss Voigt Hill
#
# Bulk Modulus (GPa) = 21.51846 69.64184 45.58015
# Shear Modulus (GPa) = 17.59191 37.94665 27.76928
#
# Velocity S-wave (km/s) = 2.68437 3.94251 3.37262
# Velocity P-wave (km/s) = 4.29208 7.01787 5.81689
#
# Compressibility (1/GPa) = 0.04647173
#
# Stress axis : x y z
#
# Youngs Moduli (GPa) = 67.76899 44.86747 28.11056
#
# Poissons Ratio (x) = -0.17176 0.23939
# Poissons Ratio (y) = -0.25943 0.23571
# Poissons Ratio (z) = 0.57711 0.37622
#
# Static dielectric constant tensor:
#      x y z
#    x 1.949090 -0.009610 -0.035950 
#    y -0.009610 1.963610 0.036980 
#    z -0.035950 0.036980 2.034470 
# 
# From -- ./inp_files/273146.got.cif
#   From: 2010.05.17/outbox.cif.g08.bks.cpg/sg2_137_cif.got.tgz:273146.got - 2010.06.03 11:33:40.
