data_PCOD9099158
_publ_section_title
;
Structure prediction by ZEFSAII (Michael W. Deem and Ramdas Pophale) SiO2 
 PCOD9099158
Probable space group: P -1
;
_chemical_formula_sum "Si O2"
_cell_formula_units_Z 14
_cell_length_a 26.941341
_cell_length_b 11.399575
_cell_length_c 15.132863
_cell_angle_alpha 24.639169
_cell_angle_beta 161.645221
_cell_angle_gamma 152.552520
_cell_volume 599.230029
_symmetry_space_group_name_H-M "P -1"
_symmetry_group_IT_number 2
_symmetry_cell_setting 'triclinic'
loop_
_space_group_symop_operation_xyz
x,y,z
-x,-y,-z
loop_
_atom_site_type_symbol
_atom_site_label
_atom_site_fract_x
_atom_site_fract_y
_atom_site_fract_z
Si Si1 0.875592 0.739271 0.665184
Si Si2 0.080328 0.206394 0.097251
Si Si3 0.211060 0.890799 0.094896
Si Si4 0.527690 0.703833 0.047078
Si Si5 0.343272 0.802357 0.833231
Si Si6 0.119996 0.373284 0.856614
Si Si7 0.496269 0.083551 0.322394
O O1 0.899290 0.662709 0.860263
O O2 0.846138 0.450808 0.754229
O O3 0.701789 0.822278 0.303319
O O4 0.034205 0.967547 0.747542
O O5 0.214734 0.005222 0.458012
O O6 0.092835 0.398743 0.898851
O O7 0.915742 0.970029 0.980904
O O8 0.345516 0.021673 0.303172
O O9 0.321260 0.929916 0.166533
O O10 0.517837 0.397452 0.190864
O O11 0.392083 0.676789 0.909738
O O12 0.502163 0.908996 0.784042
O O13 0.284302 0.555870 0.974106
O O14 0.500000 0.000000 0.000000
O O15 0.000000 0.500000 0.500000
#
# Coordination Sequence:
#
# PCOD9099158 Si02
#       7
#     2   2   2   2   2   2   2
#     4  10  20  37  59  87 121 152 196 257 303 360
#     4  10  21  41  61  88 124 163 202 250 309 364
#     4   9  20  37  59  88 113 153 206 245 307 360
#     4  10  21  38  58  86 123 155 200 248 302 362
#     4  11  22  39  59  93 125 160 204 251 300 369
#     4   9  22  40  59  86 122 161 207 245 300 370
#     4   9  20  39  59  85 116 158 200 249 301 361
#
# _framework density 23.363315
#
# number of rings (size 3 to 8) (size 9 to 14) (size 15 to 20)
#    0.000    2.286    1.429    0.000    2.000    5.714 
#    5.143    0.000    0.000    0.000    0.000    0.000 
#    0.000    0.000    0.000    0.000    0.000    0.000 
#
# Total GULP energy -78024.899490 kJ/mol
# GULP energy per Si atom -5573.207106 kJ/mol
# Density = 2.331014 g / cm^3
# Si number density = 23.363315 Si / 1000 Ang^3
#
#
#
# Elastic Constant Matrix: (Units=GPa)
#
#
# Indices 1 2 3 4 5 6 
#
# 1 164.2157 61.5232 48.0329 9.4922 -19.4160 27.1603
# 2 61.5232 87.9090 44.6884 24.4878 0.1983 32.9741
# 3 48.0329 44.6884 63.9274 10.8128 -0.2748 16.3891
# 4 9.4922 24.4878 10.8128 27.6058 3.3860 9.3412
# 5 -19.4160 0.1983 -0.2748 3.3860 42.6714 2.0470
# 6 27.1603 32.9741 16.3891 9.3412 2.0470 48.4814
#
#
#
# Elastic Compliance Matrix: (Units=1/GPa)
#
#
# Indices 1 2 3 4 5 6 
#
# 1 0.009678 -0.005052 -0.003806 0.002588 0.004263 -0.001378
# 2 -0.005052 0.028630 -0.011009 -0.015930 -0.000767 -0.009818
# 3 -0.003806 -0.011009 0.025841 0.000887 -0.001622 0.000782
# 4 0.002588 -0.015930 0.000887 0.049563 -0.002659 -0.000352
# 5 0.004263 -0.000767 -0.001622 -0.002659 0.025669 -0.001890
# 6 -0.001378 -0.009818 0.000782 -0.000352 -0.001890 0.027959
#
#
# Mechanical properties :
#
#
# Convention : Reuss Voigt Hill
#
# Bulk Modulus (GPa) = 40.96080 69.39345 55.17713
# Shear Modulus (GPa) = 23.23268 34.53890 28.88579
#
# Velocity S-wave (km/s) = 3.15685 3.84909 3.52003
# Velocity P-wave (km/s) = 5.55497 7.03707 6.33948
#
# Compressibility (1/GPa) = 0.02441358
#
# Stress axis : x y z
#
# Youngs Moduli (GPa) = 103.32800 34.92877 38.69781
#
# Poissons Ratio (x) = 0.17645 0.14730
# Poissons Ratio (y) = 0.52200 0.42604
# Poissons Ratio (z) = 0.39330 0.38455
#
# Static dielectric constant tensor:
#      x y z
#    x 1.938780 0.017180 0.073820 
#    y 0.017180 1.916920 0.010410 
#    z 0.073820 0.010410 2.014810 
# 
# From -- ./inp_files/543937.got.cif
#   From: 2010.05.17/outbox.cif.g08.bks.cpg/sg2_272_cif.got.tgz:543937.got - 2010.06.03 11:33:40.
