data_PCOD9099123
_publ_section_title
;
Structure prediction by ZEFSAII (Michael W. Deem and Ramdas Pophale) SiO2 
 PCOD9099123
Probable space group: P -1
;
_chemical_formula_sum "Si O2"
_cell_formula_units_Z 14
_cell_length_a 6.462666
_cell_length_b 14.106207
_cell_length_c 7.777954
_cell_angle_alpha 79.710903
_cell_angle_beta 114.529512
_cell_angle_gamma 114.854134
_cell_volume 585.318693
_symmetry_space_group_name_H-M "P -1"
_symmetry_group_IT_number 2
_symmetry_cell_setting 'triclinic'
loop_
_space_group_symop_operation_xyz
x,y,z
-x,-y,-z
loop_
_atom_site_type_symbol
_atom_site_label
_atom_site_fract_x
_atom_site_fract_y
_atom_site_fract_z
Si Si1 0.123771 0.062177 0.249564
Si Si2 0.467292 0.345819 0.579058
Si Si3 0.316919 0.947570 0.113187
Si Si4 0.182678 0.749303 0.367905
Si Si5 0.891012 0.845559 0.425098
Si Si6 0.795643 0.552805 0.112693
Si Si7 0.127442 0.438509 0.249173
O O1 0.168235 0.136041 0.405449
O O2 0.334957 0.037060 0.231531
O O3 0.952369 0.950459 0.308089
O O4 0.959561 0.090589 0.046062
O O5 0.635836 0.310644 0.520729
O O6 0.346468 0.249021 0.695422
O O7 0.241658 0.366392 0.409251
O O8 0.644640 0.449252 0.698464
O O9 0.310225 0.844982 0.244997
O O10 0.500000 0.000000 0.000000
O O11 0.114874 0.808496 0.481975
O O12 0.932274 0.654691 0.244409
O O13 0.897980 0.463405 0.231150
O O14 0.500000 0.500000 0.000000
O O15 0.912964 0.591958 0.952837
#
# Coordination Sequence:
#
# PCOD9099123 Si02
#       7
#     2   2   2   2   2   2   2
#     4   9  21  37  57  88 124 164 208 252 316 372
#     4  10  20  37  59  85 126 167 204 260 308 377
#     4  10  20  38  61  88 126 163 205 263 309 372
#     4  10  22  36  62  94 124 166 216 248 318 376
#     4  10  20  37  59  85 126 167 204 260 308 377
#     4  10  20  38  61  88 126 163 205 263 309 372
#     4   9  21  37  57  88 124 164 208 252 316 372
#
# _framework density 23.918593000000001
#
# number of rings (size 3 to 8) (size 9 to 14) (size 15 to 20)
#    0.000    2.286    0.000    1.714    2.000    2.286 
#    0.000    8.571    3.143    0.000    0.000    0.000 
#    0.000    0.000    0.000    0.000    0.000    0.000 
#
# Total GULP energy -78059.221793 kJ/mol
# GULP energy per Si atom -5575.658699 kJ/mol
# Density = 2.386415 g / cm^3
# Si number density = 23.918593 Si / 1000 Ang^3
#
#
#
# Elastic Constant Matrix: (Units=GPa)
#
#
# Indices 1 2 3 4 5 6 
#
# 1 126.6714 67.5057 46.8725 0.3737 -0.7208 -18.2091
# 2 67.5057 109.3038 32.2857 6.3553 0.2731 -10.0448
# 3 46.8725 32.2857 77.4650 -0.6456 -1.1231 -20.8225
# 4 0.3737 6.3553 -0.6456 -0.3067 -8.1541 0.6499
# 5 -0.7208 0.2731 -1.1231 -8.1541 50.5859 0.1123
# 6 -18.2091 -10.0448 -20.8225 0.6499 0.1123 53.0411
#
#
#
# Elastic Compliance Matrix: (Units=1/GPa)
#
#
# Indices 1 2 3 4 5 6 
#
# 1 0.013005 -0.005377 -0.005383 -0.015783 -0.002453 0.001532
# 2 -0.005377 0.010305 -0.000809 0.039942 0.006290 -0.000715
# 3 -0.005383 -0.000809 0.017764 -0.011003 -0.001463 0.005110
# 4 -0.015783 0.039942 -0.011003 -0.454615 -0.073974 0.003553
# 5 -0.002453 0.006290 -0.001463 -0.073974 0.007741 0.000665
# 6 0.001532 -0.000715 0.005110 0.003553 0.000665 0.021205
#
#
# Mechanical properties :
#
#
# Convention : Reuss Voigt Hill
#
# Bulk Modulus (GPa) = 55.75805 67.41867 61.58836
# Shear Modulus (GPa) = -14.06560 31.78248 8.85844
#
# Velocity S-wave (km/s) = -2.42763 3.64919 1.92656
# Velocity P-wave (km/s) = 3.93756 6.78258 5.54562
#
# Compressibility (1/GPa) = 0.01793463
#
# Stress axis : x y z
#
# Youngs Moduli (GPa) = 76.89520 97.04118 56.29215
#
# Poissons Ratio (x) = 0.52179 0.30304
# Poissons Ratio (y) = 0.41347 0.04556
# Poissons Ratio (z) = 0.41395 0.07855
#
# Static dielectric constant tensor:
#      x y z
#    x 2.024570 -0.009760 -0.001230 
#    y -0.009760 1.921770 0.001450 
#    z -0.001230 0.001450 1.906800 
# 
# From -- ./inp_files/135403.got.cif
#   From: 2010.05.17/outbox.cif.g08.bks.cpg/sg2_68_cif.got.tgz:135403.got - 2010.06.03 11:33:40.
