data_PCOD9099518
_publ_section_title
;
Structure prediction by ZEFSAII (Michael W. Deem and Ramdas Pophale) SiO2 
 PCOD9099518
Probable space group: P -1
;
_chemical_formula_sum "Si O2"
_cell_formula_units_Z 16
_cell_length_a 5.124609
_cell_length_b 10.446824
_cell_length_c 16.342416
_cell_angle_alpha 119.007922
_cell_angle_beta 90.604822
_cell_angle_gamma 87.596930
_cell_volume 764.430422
_symmetry_space_group_name_H-M "P -1"
_symmetry_group_IT_number 2
_symmetry_cell_setting 'triclinic'
loop_
_space_group_symop_operation_xyz
x,y,z
-x,-y,-z
loop_
_atom_site_type_symbol
_atom_site_label
_atom_site_fract_x
_atom_site_fract_y
_atom_site_fract_z
Si Si1 0.781550 0.001323 0.232319
Si Si2 0.707034 0.186999 0.822445
Si Si3 0.254327 0.923710 0.935799
Si Si4 0.484274 0.715728 0.612326
Si Si5 0.728501 0.527085 0.685904
Si Si6 0.244765 0.427841 0.574014
Si Si7 0.167395 0.506911 0.139970
Si Si8 0.318501 0.649429 0.956266
O O1 0.755917 0.052872 0.153796
O O2 0.678967 0.135519 0.329334
O O3 0.580943 0.872009 0.204201
O O4 0.075851 0.942469 0.229975
O O5 0.766964 0.323685 0.807939
O O6 0.738445 0.251137 0.934054
O O7 0.279896 0.754946 0.910444
O O8 0.500000 0.000000 0.000000
O O9 0.000000 0.000000 0.000000
O O10 0.666374 0.675196 0.679422
O O11 0.288752 0.579519 0.570809
O O12 0.661067 0.698754 0.527050
O O13 0.460207 0.442078 0.650683
O O14 0.808612 0.552229 0.786174
O O15 0.959720 0.435276 0.612708
O O16 0.389945 0.418754 0.061839
O O17 0.887531 0.476060 0.092345
#
# Coordination Sequence:
#
# PCOD9099518 Si02
#       8
#     2   2   2   2   2   2   2   2
#     4  12  24  39  62  88 125 160 194 244 306 369
#     4  12  26  43  56  86 124 167 206 245 288 344
#     4  12  22  40  59  87 126 151 188 249 309 350
#     4   9  22  36  65  92 120 150 191 239 316 363
#     4  10  20  37  60  93 117 146 194 255 296 341
#     4   9  20  37  62  94 121 144 187 249 309 357
#     4  12  25  40  65  84 117 164 216 249 276 349
#     4  12  23  42  63  85 116 164 210 251 296 331
#
# _framework density 20.930615
#
# number of rings (size 3 to 8) (size 9 to 14) (size 15 to 20)
#    0.750    0.250    2.500    4.875    3.500    0.000 
#    0.000    0.000    0.000    4.500    0.000    0.000 
#    0.000    0.000    0.000    0.000    0.000    0.000 
#
# Total GULP energy -89466.802870 kJ/mol
# GULP energy per Si atom -5591.675179 kJ/mol
# Density = 2.088298 g / cm^3
# Si number density = 20.930615 Si / 1000 Ang^3
#
#
#
# Elastic Constant Matrix: (Units=GPa)
#
#
# Indices 1 2 3 4 5 6 
#
# 1 84.0348 -0.2555 11.7355 -6.4438 -14.9799 0.3359
# 2 -0.2555 35.7598 -3.0818 8.4275 -2.2637 1.5676
# 3 11.7355 -3.0818 73.8309 8.8224 -19.2626 -6.3056
# 4 -6.4438 8.4275 8.8224 16.4598 -7.7105 -2.8779
# 5 -14.9799 -2.2637 -19.2626 -7.7105 33.2035 7.7935
# 6 0.3359 1.5676 -6.3056 -2.8779 7.7935 26.4434
#
#
#
# Elastic Compliance Matrix: (Units=1/GPa)
#
#
# Indices 1 2 3 4 5 6 
#
# 1 0.014512 -0.002099 -0.001687 0.011321 0.008459 -0.001723
# 2 -0.002099 0.033251 0.003781 -0.020680 -0.000554 -0.003130
# 3 -0.001687 0.003781 0.016895 -0.008128 0.007219 0.000814
# 4 0.011321 -0.020680 -0.008128 0.089616 0.019021 0.003291
# 5 0.008459 -0.000554 0.007219 0.019021 0.044722 -0.009464
# 6 -0.001723 -0.003130 0.000814 0.003291 -0.009464 0.041365
#
#
# Mechanical properties :
#
#
# Convention : Reuss Voigt Hill
#
# Bulk Modulus (GPa) = 15.46875 23.38021 19.42448
# Shear Modulus (GPa) = 19.08969 27.56984 23.32976
#
# Velocity S-wave (km/s) = 3.02329 3.63326 3.34222
# Velocity P-wave (km/s) = 4.42646 5.36613 4.91879
#
# Compressibility (1/GPa) = 0.06464646
#
# Stress axis : x y z
#
# Youngs Moduli (GPa) = 68.90879 30.07434 59.19000
#
# Poissons Ratio (x) = 0.06312 0.09988
# Poissons Ratio (y) = 0.14463 -0.22378
# Poissons Ratio (z) = 0.11628 -0.11370
#
# Static dielectric constant tensor:
#      x y z
#    x 1.755110 0.012030 0.011420 
#    y 0.012030 1.775360 -0.009040 
#    z 0.011420 -0.009040 1.741330 
# 
# From -- ./inp_files/547462.got.cif
#   From: 2010.05.17/outbox.cif.g08.bks.cpg/sg2_274_cif.got.tgz:547462.got - 2010.06.03 11:33:40.
