data_PCOD9099041
_publ_section_title
;
Structure prediction by ZEFSAII (Michael W. Deem and Ramdas Pophale) SiO2 
 PCOD9099041
Probable space group: P -1
;
_chemical_formula_sum "Si O2"
_cell_formula_units_Z 16
_cell_length_a 8.397985
_cell_length_b 11.761735
_cell_length_c 16.101001
_cell_angle_alpha 54.212323
_cell_angle_beta 125.305503
_cell_angle_gamma 144.100217
_cell_volume 738.084732
_symmetry_space_group_name_H-M "P -1"
_symmetry_group_IT_number 2
_symmetry_cell_setting 'triclinic'
loop_
_space_group_symop_operation_xyz
x,y,z
-x,-y,-z
loop_
_atom_site_type_symbol
_atom_site_label
_atom_site_fract_x
_atom_site_fract_y
_atom_site_fract_z
Si Si1 0.769943 0.555691 0.377008
Si Si2 0.687531 0.047308 0.161635
Si Si3 0.451261 0.759562 0.077717
Si Si4 0.706301 0.534800 0.111657
Si Si5 0.994689 0.125869 0.831143
Si Si6 0.761978 0.229469 0.452366
Si Si7 0.699445 0.622026 0.792779
Si Si8 0.359918 0.794197 0.765767
O O1 0.746556 0.379079 0.422028
O O2 0.455113 0.447236 0.312943
O O3 0.948666 0.736002 0.286209
O O4 0.939462 0.666745 0.465346
O O5 0.658823 0.083837 0.231243
O O6 0.004463 0.155909 0.204275
O O7 0.484422 0.831348 0.151076
O O8 0.644373 0.163621 0.042173
O O9 0.270855 0.527438 0.115165
O O10 0.762174 0.865055 0.101211
O O11 0.521035 0.431216 0.184569
O O12 0.795218 0.426262 0.157227
O O13 0.958537 0.763910 0.116510
O O14 0.500000 0.500000 0.000000
O O15 0.683878 0.916004 0.817276
O O16 0.740515 0.225226 0.348594
O O17 0.500000 0.000000 0.500000
#
# Coordination Sequence:
#
# PCOD9099041 Si02
#       8
#     2   2   2   2   2   2   2   2
#     4   9  20  37  60  88 105 148 195 235 297 350
#     4  11  23  35  54  84 123 154 193 229 285 348
#     4   9  21  38  55  79 113 165 194 223 277 350
#     4  10  21  36  58  86 114 149 196 243 283 335
#     4  10  20  37  59  82 114 150 199 236 284 341
#     4  11  20  36  63  90 113 141 189 254 300 338
#     4  10  20  39  59  78 114 161 189 227 289 349
#     4  12  22  35  57  93 114 148 192 251 290 335
#
# _framework density 21.677728999999999
#
# number of rings (size 3 to 8) (size 9 to 14) (size 15 to 20)
#    0.000    2.000    3.750    2.625    0.000    5.000 
#    0.000    0.625    0.000    5.250    0.000    0.000 
#    0.000    0.000    0.000    0.000    0.000    0.000 
#
# Total GULP energy -89276.044234 kJ/mol
# GULP energy per Si atom -5579.752765 kJ/mol
# Density = 2.162839 g / cm^3
# Si number density = 21.677729 Si / 1000 Ang^3
#
#
#
# Elastic Constant Matrix: (Units=GPa)
#
#
# Indices 1 2 3 4 5 6 
#
# 1 38.6259 10.0985 -12.6154 7.9714 -2.7547 -3.7787
# 2 10.0985 93.5120 22.1007 24.1027 -6.2751 -9.7035
# 3 -12.6154 22.1007 86.4257 24.4478 -8.0452 12.1764
# 4 7.9714 24.1027 24.4478 37.1090 -10.2361 6.4724
# 5 -2.7547 -6.2751 -8.0452 -10.2361 24.6617 12.1432
# 6 -3.7787 -9.7035 12.1764 6.4724 12.1432 23.8081
#
#
#
# Elastic Compliance Matrix: (Units=1/GPa)
#
#
# Indices 1 2 3 4 5 6 
#
# 1 0.031637 -0.001844 0.007694 -0.011808 -0.001431 0.004274
# 2 -0.001844 0.016838 -0.004381 -0.014614 -0.012968 0.019398
# 3 0.007694 -0.004381 0.018251 -0.005772 0.009888 -0.013373
# 4 -0.011808 -0.014614 -0.005772 0.060464 0.038287 -0.040844
# 5 -0.001431 -0.012968 0.009888 0.038287 0.088850 -0.066296
# 6 0.004274 0.019398 -0.013373 -0.040844 -0.066296 0.102344
#
#
# Mechanical properties :
#
#
# Convention : Reuss Voigt Hill
#
# Bulk Modulus (GPa) = 14.35442 28.63680 21.49561
# Shear Modulus (GPa) = 14.76375 30.38108 22.57242
#
# Velocity S-wave (km/s) = 2.61254 3.74771 3.23038
# Velocity P-wave (km/s) = 3.96694 5.65385 4.88378
#
# Compressibility (1/GPa) = 0.06966497
#
# Stress axis : x y z
#
# Youngs Moduli (GPa) = 31.60817 59.38977 54.79085
#
# Poissons Ratio (x) = 0.10952 -0.42158
# Poissons Ratio (y) = 0.05829 0.24004
# Poissons Ratio (z) = -0.24320 0.26019
#
# Static dielectric constant tensor:
#      x y z
#    x 1.845880 -0.018080 -0.000500 
#    y -0.018080 1.793630 0.004820 
#    z -0.000500 0.004820 1.822080 
# 
# From -- ./inp_files/406903.got.cif
#   From: 2010.05.17/outbox.cif.g08.bks.cpg/sg2_204_cif.got.tgz:406903.got - 2010.06.03 11:33:40.
