data_PCOD9099191
_publ_section_title
;
Structure prediction by ZEFSAII (Michael W. Deem and Ramdas Pophale) SiO2 
 PCOD9099191
Probable space group: P -1
;
_chemical_formula_sum "Si O2"
_cell_formula_units_Z 15
_cell_length_a 9.901564
_cell_length_b 18.181416
_cell_length_c 8.833150
_cell_angle_alpha 33.961764
_cell_angle_beta 76.013981
_cell_angle_gamma 57.307448
_cell_volume 671.784442
_symmetry_space_group_name_H-M "P -1"
_symmetry_group_IT_number 2
_symmetry_cell_setting 'triclinic'
loop_
_space_group_symop_operation_xyz
x,y,z
-x,-y,-z
loop_
_atom_site_type_symbol
_atom_site_label
_atom_site_fract_x
_atom_site_fract_y
_atom_site_fract_z
Si Si1 0.500000 0.000000 0.500000
Si Si2 0.817210 0.917646 0.402596
Si Si3 0.341036 0.185792 0.544955
Si Si4 0.148112 0.564298 0.972468
Si Si5 0.694690 0.365340 0.466769
Si Si6 0.942773 0.127593 0.061671
Si Si7 0.322068 0.664386 0.966487
Si Si8 0.663910 0.139461 0.645252
O O1 0.358633 0.966433 0.645266
O O2 0.431429 0.122076 0.462142
O O3 0.756352 0.898120 0.288824
O O4 0.944249 0.731038 0.761914
O O5 0.926541 0.986194 0.251874
O O6 0.498348 0.137704 0.694814
O O7 0.190227 0.386361 0.256725
O O8 0.210742 0.597204 0.745222
O O9 0.266358 0.561450 0.075873
O O10 0.680652 0.226723 0.635274
O O11 0.816707 0.286923 0.714568
O O12 0.493741 0.538269 0.239691
O O13 0.851545 0.188203 0.146300
O O14 0.149765 0.038977 0.146712
O O15 0.370286 0.737307 0.695493
#
# Coordination Sequence:
#
# PCOD9099191 Si02
#       8
#     1   2   2   2   2   2   2   2
#     4   8  22  34  58  88 120 148 196 252 292 326
#     4  10  22  36  57  90 119 154 195 247 292 350
#     4  10  20  37  59  89 114 159 193 251 283 350
#     4  11  20  38  64  87 116 155 208 236 294 351
#     4  11  22  38  58  89 126 155 185 254 304 346
#     4  12  24  36  60  94 123 150 199 244 306 346
#     4  11  21  36  61  89 117 155 199 251 281 346
#     4  11  20  38  63  85 116 152 207 243 284 344
#
# _framework density 22.328589000000001
#
# number of rings (size 3 to 8) (size 9 to 14) (size 15 to 20)
#    0.800    0.533    5.333    3.200    1.867    0.000 
#    0.000    0.667    0.000    0.000    0.000    5.600 
#    0.000    0.000    0.000    0.000    0.000    0.000 
#
# Total GULP energy -83530.823476 kJ/mol
# GULP energy per Si atom -5568.721565 kJ/mol
# Density = 2.227777 g / cm^3
# Si number density = 22.328589 Si / 1000 Ang^3
#
#
#
# Elastic Constant Matrix: (Units=GPa)
#
#
# Indices 1 2 3 4 5 6 
#
# 1 53.3631 -4.3494 1.4611 -2.0148 -0.9002 1.0062
# 2 -4.3494 50.6316 8.3511 -14.0065 -5.9038 2.3756
# 3 1.4611 8.3511 61.5919 -11.5039 16.3932 -3.2837
# 4 -2.0148 -14.0065 -11.5039 19.4812 -1.3391 3.6485
# 5 -0.9002 -5.9038 16.3932 -1.3391 33.6905 -7.4529
# 6 1.0062 2.3756 -3.2837 3.6485 -7.4529 29.1478
#
#
#
# Elastic Compliance Matrix: (Units=1/GPa)
#
#
# Indices 1 2 3 4 5 6 
#
# 1 0.019207 0.003094 -0.000461 0.004244 0.001184 -0.001196
# 2 0.003094 0.026467 -0.001707 0.019371 0.005556 -0.003460
# 3 -0.000461 -0.001707 0.021224 0.010815 -0.010541 -0.001503
# 4 0.004244 0.019371 0.010815 0.073889 -0.001034 -0.010020
# 5 0.001184 0.005556 -0.010541 -0.001034 0.037556 0.008051
# 6 -0.001196 -0.003460 -0.001503 -0.010020 0.008051 0.037775
#
#
# Mechanical properties :
#
#
# Convention : Reuss Voigt Hill
#
# Bulk Modulus (GPa) = 14.54563 19.61245 17.07904
# Shear Modulus (GPa) = 21.08077 27.13882 24.10979
#
# Velocity S-wave (km/s) = 3.07598 3.49008 3.28955
# Velocity P-wave (km/s) = 4.37539 5.00435 4.70040
#
# Compressibility (1/GPa) = 0.06874918
#
# Stress axis : x y z
#
# Youngs Moduli (GPa) = 52.06400 37.78323 47.11701
#
# Poissons Ratio (x) = -0.11691 0.02174
# Poissons Ratio (y) = -0.16110 0.08043
# Poissons Ratio (z) = 0.02402 0.06450
#
# Static dielectric constant tensor:
#      x y z
#    x 1.807360 0.086280 0.136320 
#    y 0.086280 1.769710 -0.067110 
#    z 0.136320 -0.067110 1.806190 
# 
# From -- ./inp_files/211667.got.cif
#   From: 2010.05.17/outbox.cif.g08.bks.cpg/sg2_106_cif.got.tgz:211667.got - 2010.06.03 11:33:40.
