data_PCOD9099857
_publ_section_title
;
Structure prediction by ZEFSAII (Michael W. Deem and Ramdas Pophale) SiO2 
 PCOD9099857
Probable space group: P -1
;
_chemical_formula_sum "Si O2"
_cell_formula_units_Z 14
_cell_length_a 11.441386
_cell_length_b 7.814417
_cell_length_c 7.258191
_cell_angle_alpha 103.292035
_cell_angle_beta 123.765442
_cell_angle_gamma 73.729012
_cell_volume 515.625188
_symmetry_space_group_name_H-M "P -1"
_symmetry_group_IT_number 2
_symmetry_cell_setting 'triclinic'
loop_
_space_group_symop_operation_xyz
x,y,z
-x,-y,-z
loop_
_atom_site_type_symbol
_atom_site_label
_atom_site_fract_x
_atom_site_fract_y
_atom_site_fract_z
Si Si1 0.849075 0.943250 0.319924
Si Si2 0.172795 0.587012 0.037396
Si Si3 0.609662 0.630585 0.576974
Si Si4 0.292659 0.383706 0.761009
Si Si5 0.573709 0.163250 0.048704
Si Si6 0.349525 0.885766 0.325363
Si Si7 0.901933 0.852000 0.920086
O O1 0.798463 0.775693 0.334512
O O2 0.723501 0.118922 0.276009
O O3 0.000000 0.000000 0.500000
O O4 0.861602 0.881605 0.104238
O O5 0.255520 0.414544 0.179231
O O6 0.247510 0.741039 0.228738
O O7 0.995545 0.336295 0.077713
O O8 0.208992 0.550550 0.844823
O O9 0.500000 0.500000 0.500000
O O10 0.668304 0.591392 0.410635
O O11 0.499534 0.822725 0.545560
O O12 0.445527 0.331648 0.990333
O O13 0.609124 0.146545 0.860101
O O14 0.500000 0.000000 0.000000
O O15 0.244913 0.076470 0.302425
O O16 0.000000 0.000000 0.000000
#
# Coordination Sequence:
#
# PCOD9099857 Si02
#       7
#     2   2   2   2   2   2   2
#     4  10  21  42  65  96 132 182 228 279 341 409
#     4  10  20  37  62 100 134 176 221 282 342 405
#     4   9  19  37  63 102 136 172 229 283 339 405
#     4  10  21  40  67  99 137 174 225 287 346 404
#     4   8  16  34  63  90 121 167 224 274 334 391
#     4   8  16  34  61  88 128 176 222 271 336 393
#     4   9  19  40  62  88 131 183 227 266 339 408
#
# _framework density 27.151506000000001
#
# number of rings (size 3 to 8) (size 9 to 14) (size 15 to 20)
#    0.000    2.857    0.000    0.000    0.000    5.714 
#   20.571    0.714    0.000    5.143    0.000    0.000 
#    0.000    0.000    0.000    0.000    0.000    0.000 
#
# Total GULP energy -78347.968562 kJ/mol
# GULP energy per Si atom -5596.283469 kJ/mol
# Density = 2.708971 g / cm^3
# Si number density = 27.151506 Si / 1000 Ang^3
#
#
#
# Elastic Constant Matrix: (Units=GPa)
#
#
# Indices 1 2 3 4 5 6 
#
# 1 203.3695 59.0573 73.5232 -11.4285 19.7042 -14.5005
# 2 59.0573 105.9206 61.7167 -11.3108 13.4106 -0.5012
# 3 73.5232 61.7167 109.9235 4.0801 31.1421 -5.2396
# 4 -11.4285 -11.3108 4.0801 45.0728 -1.6116 12.5770
# 5 19.7042 13.4106 31.1421 -1.6116 78.0687 -8.0629
# 6 -14.5005 -0.5012 -5.2396 12.5770 -8.0629 65.8680
#
#
#
# Elastic Compliance Matrix: (Units=1/GPa)
#
#
# Indices 1 2 3 4 5 6 
#
# 1 0.006855 -0.001452 -0.003829 0.001466 0.000173 0.000935
# 2 -0.001452 0.015405 -0.008191 0.004731 0.000916 -0.001645
# 3 -0.003829 -0.008191 0.017834 -0.005061 -0.004752 0.000898
# 4 0.001466 0.004731 -0.005061 0.025580 0.000866 -0.004822
# 5 0.000173 0.000916 -0.004752 0.000866 0.014656 0.001296
# 6 0.000935 -0.001645 0.000898 -0.004822 0.001296 0.016526
#
#
# Mechanical properties :
#
#
# Convention : Reuss Voigt Hill
#
# Bulk Modulus (GPa) = 76.04601 89.75646 82.90124
# Shear Modulus (GPa) = 39.00645 52.79632 45.90138
#
# Velocity S-wave (km/s) = 3.79439 4.41444 4.11611
# Velocity P-wave (km/s) = 6.87498 7.68846 7.29307
#
# Compressibility (1/GPa) = 0.01314993
#
# Stress axis : x y z
#
# Youngs Moduli (GPa) = 145.87157 64.91378 56.07226
#
# Poissons Ratio (x) = 0.09428 0.21469
# Poissons Ratio (y) = 0.21186 0.45930
# Poissons Ratio (z) = 0.55851 0.53172
#
# Static dielectric constant tensor:
#      x y z
#    x 2.068920 0.014490 0.027940 
#    y 0.014490 2.107840 -0.150980 
#    z 0.027940 -0.150980 2.074640 
# 
# From -- ./inp_files/184272.got.cif
#   From: 2010.05.17/outbox.cif.g08.bks.cpg/sg2_93_cif.got.tgz:184272.got - 2010.06.03 11:33:40.
