data_PCOD9099231
_publ_section_title
;
Structure prediction by ZEFSAII (Michael W. Deem and Ramdas Pophale) SiO2 
 PCOD9099231
Probable space group: P -1
;
_chemical_formula_sum "Si O2"
_cell_formula_units_Z 14
_cell_length_a 24.564248
_cell_length_b 13.272388
_cell_length_c 7.772604
_cell_angle_alpha 121.251343
_cell_angle_beta 45.045242
_cell_angle_gamma 159.006301
_cell_volume 534.193546
_symmetry_space_group_name_H-M "P -1"
_symmetry_group_IT_number 2
_symmetry_cell_setting 'triclinic'
loop_
_space_group_symop_operation_xyz
x,y,z
-x,-y,-z
loop_
_atom_site_type_symbol
_atom_site_label
_atom_site_fract_x
_atom_site_fract_y
_atom_site_fract_z
Si Si1 0.763475 0.429176 0.906284
Si Si2 0.311297 0.590853 0.605650
Si Si3 0.036252 0.983410 0.580475
Si Si4 0.910799 0.144047 0.139804
Si Si5 0.112897 0.630055 0.545787
Si Si6 0.644955 0.896944 0.028526
Si Si7 0.612507 0.639492 0.086332
O O1 0.996200 0.751692 0.785030
O O2 0.726551 0.248872 0.744378
O O3 0.820660 0.612776 0.807623
O O4 0.607546 0.246067 0.246750
O O5 0.150387 0.245258 0.677826
O O6 0.514887 0.834029 0.258961
O O7 0.140916 0.445942 0.790006
O O8 0.205678 0.128432 0.262447
O O9 0.000000 0.000000 0.500000
O O10 0.825034 0.153877 0.328747
O O11 0.724606 0.796384 0.160482
O O12 0.000000 0.500000 0.500000
O O13 0.903396 0.284373 0.815261
O O14 0.555428 0.690250 0.204717
O O15 0.572057 0.721801 0.863852
#
# Coordination Sequence:
#
# PCOD9099231 Si02
#       7
#     2   2   2   2   2   2   2
#     4   9  19  36  57  87 120 161 198 249 290 369
#     4   9  20  33  59  88 120 154 204 248 307 342
#     4  11  17  32  61  87 118 155 205 242 300 360
#     4   9  20  37  61  89 117 166 207 231 299 379
#     4  10  20  39  62  85 122 169 202 237 307 366
#     4  10  21  36  61  91 124 159 196 266 295 355
#     4  10  20  37  59  91 121 156 209 244 309 348
#
# _framework density 26.207727999999999
#
# number of rings (size 3 to 8) (size 9 to 14) (size 15 to 20)
#    0.857    1.429    2.857    0.429    0.000    1.143 
#    0.000    2.857   12.571    0.857    0.000    0.000 
#    0.000    0.000    0.000    0.000    0.000    0.000 
#
# Total GULP energy -78093.503094 kJ/mol
# GULP energy per Si atom -5578.107364 kJ/mol
# Density = 2.614808 g / cm^3
# Si number density = 26.207728 Si / 1000 Ang^3
#
#
#
# Elastic Constant Matrix: (Units=GPa)
#
#
# Indices 1 2 3 4 5 6 
#
# 1 69.9658 21.7565 4.0327 17.2893 0.9661 0.6772
# 2 21.7565 82.3821 30.8707 32.5538 7.0618 1.2581
# 3 4.0327 30.8707 87.6765 22.8983 -19.4126 -12.1219
# 4 17.2893 32.5538 22.8983 37.3679 -10.0235 0.4719
# 5 0.9661 7.0618 -19.4126 -10.0235 22.0454 10.2514
# 6 0.6772 1.2581 -12.1219 0.4719 10.2514 39.9767
#
#
#
# Elastic Compliance Matrix: (Units=1/GPa)
#
#
# Indices 1 2 3 4 5 6 
#
# 1 0.016721 -0.001307 0.001238 -0.008320 -0.003536 0.001138
# 2 -0.001307 0.030586 -0.009939 -0.029177 -0.034153 0.005148
# 3 0.001238 -0.009939 0.018960 0.001907 0.020316 0.000809
# 4 -0.008320 -0.029177 0.001907 0.067733 0.047455 -0.011332
# 5 -0.003536 -0.034153 0.020316 0.047455 0.105354 -0.020282
# 6 0.001138 0.005148 0.000809 -0.011332 -0.020282 0.030413
#
#
# Mechanical properties :
#
#
# Convention : Reuss Voigt Hill
#
# Bulk Modulus (GPa) = 21.62013 39.26048 30.44031
# Shear Modulus (GPa) = 16.38268 32.10230 24.24249
#
# Velocity S-wave (km/s) = 2.50293 3.50368 3.04470
# Velocity P-wave (km/s) = 4.07680 5.60185 4.89903
#
# Compressibility (1/GPa) = 0.04625318
#
# Stress axis : x y z
#
# Youngs Moduli (GPa) = 59.80361 32.69422 52.74187
#
# Poissons Ratio (x) = 0.04272 -0.06531
# Poissons Ratio (y) = 0.07814 0.52421
# Poissons Ratio (z) = -0.07406 0.32495
#
# Static dielectric constant tensor:
#      x y z
#    x 2.257750 -0.027110 -0.037440 
#    y -0.027110 2.080420 -0.014040 
#    z -0.037440 -0.014040 2.190570 
# 
# From -- ./inp_files/358799.got.cif
#   From: 2010.05.17/outbox.cif.g08.bks.cpg/sg2_180_cif.got.tgz:358799.got - 2010.06.03 11:33:40.
