data_PCOD9099819
_publ_section_title
;
Structure prediction by ZEFSAII (Michael W. Deem and Ramdas Pophale) SiO2 
 PCOD9099819
Probable space group: P -1
;
_chemical_formula_sum "Si O2"
_cell_formula_units_Z 14
_cell_length_a 10.812646
_cell_length_b 21.722758
_cell_length_c 9.276053
_cell_angle_alpha 29.543884
_cell_angle_beta 53.662160
_cell_angle_gamma 35.940767
_cell_volume 581.617941
_symmetry_space_group_name_H-M "P -1"
_symmetry_group_IT_number 2
_symmetry_cell_setting 'triclinic'
loop_
_space_group_symop_operation_xyz
x,y,z
-x,-y,-z
loop_
_atom_site_type_symbol
_atom_site_label
_atom_site_fract_x
_atom_site_fract_y
_atom_site_fract_z
Si Si1 0.776617 0.163032 0.732400
Si Si2 0.973771 0.443378 0.908931
Si Si3 0.347799 0.201607 0.759883
Si Si4 0.824159 0.879555 0.732650
Si Si5 0.728639 0.143806 0.492005
Si Si6 0.513030 0.780250 0.950857
Si Si7 0.405703 0.452965 0.865759
O O1 0.856142 0.108248 0.620806
O O2 0.686372 0.354210 0.442003
O O3 0.593097 0.178595 0.901254
O O4 0.000000 0.000000 0.000000
O O5 0.885913 0.616165 0.528196
O O6 0.962366 0.319451 0.080163
O O7 0.235376 0.310213 0.042638
O O8 0.793751 0.524759 0.993892
O O9 0.506324 0.223112 0.568566
O O10 0.287802 0.175631 0.004251
O O11 0.500000 0.000000 0.000000
O O12 0.845652 0.967598 0.668812
O O13 0.657937 0.037504 0.404743
O O14 0.620793 0.305220 0.125534
O O15 0.528638 0.635547 0.156793
#
# Coordination Sequence:
#
# PCOD9099819 Si02
#       7
#     2   2   2   2   2   2   2
#     4  12  25  43  64  93 128 170 216 269 323 376
#     4  11  21  38  68 101 128 167 213 265 320 378
#     4   9  19  36  60  94 129 163 209 261 316 378
#     4  10  20  37  61  94 129 166 210 259 316 380
#     4   9  21  41  62  86 126 170 213 263 315 382
#     4  11  24  42  65  97 133 168 212 268 322 381
#     4  10  23  43  64  91 127 170 215 261 320 385
#
# _framework density 24.070786999999999
#
# number of rings (size 3 to 8) (size 9 to 14) (size 15 to 20)
#    0.000    1.714    0.000    4.714    0.000    4.571 
#    0.000   10.714    0.000    0.000    0.000    0.000 
#    0.000    0.000    0.000    0.000    0.000    0.000 
#
# Total GULP energy -78115.417351 kJ/mol
# GULP energy per Si atom -5579.672668 kJ/mol
# Density = 2.401600 g / cm^3
# Si number density = 24.070787 Si / 1000 Ang^3
#
#
#
# Elastic Constant Matrix: (Units=GPa)
#
#
# Indices 1 2 3 4 5 6 
#
# 1 81.1505 28.5060 42.0010 -5.1533 13.4280 11.5736
# 2 28.5060 127.8267 34.5795 6.6639 16.0148 24.9489
# 3 42.0010 34.5795 131.8375 -17.4767 6.8370 8.5938
# 4 -5.1533 6.6639 -17.4767 41.8994 -7.8295 -3.3800
# 5 13.4280 16.0148 6.8370 -7.8295 15.6514 8.7846
# 6 11.5736 24.9489 8.5938 -3.3800 8.7846 46.3012
#
#
#
# Elastic Compliance Matrix: (Units=1/GPa)
#
#
# Indices 1 2 3 4 5 6 
#
# 1 0.017128 -0.000652 -0.004878 -0.002237 -0.012565 -0.000804
# 2 -0.000652 0.010888 -0.002559 -0.005028 -0.009891 -0.003719
# 3 -0.004878 -0.002559 0.010212 0.004964 0.004732 0.000167
# 4 -0.002237 -0.005028 0.004964 0.030177 0.019516 0.000847
# 5 -0.012565 -0.009891 0.004732 0.019516 0.097846 -0.009547
# 6 -0.000804 -0.003719 0.000167 0.000847 -0.009547 0.025645
#
#
# Mechanical properties :
#
#
# Convention : Reuss Voigt Hill
#
# Bulk Modulus (GPa) = 45.35283 61.22084 53.28684
# Shear Modulus (GPa) = 23.20978 36.48561 29.84769
#
# Velocity S-wave (km/s) = 3.10857 3.89750 3.52518
# Velocity P-wave (km/s) = 5.63619 6.76335 6.22533
#
# Compressibility (1/GPa) = 0.02204934
#
# Stress axis : x y z
#
# Youngs Moduli (GPa) = 58.38230 91.84362 97.92190
#
# Poissons Ratio (x) = 0.05991 0.47769
# Poissons Ratio (y) = 0.03809 0.25059
# Poissons Ratio (z) = 0.28480 0.23504
#
# Static dielectric constant tensor:
#      x y z
#    x 2.113400 -0.032600 -0.019740 
#    y -0.032600 1.917610 0.064260 
#    z -0.019740 0.064260 1.849130 
# 
# From -- ./inp_files/175923.got.cif
#   From: 2010.05.17/outbox.cif.g08.bks.cpg/sg2_88_cif.got.tgz:175923.got - 2010.06.03 11:33:40.
