data_PCOD9099908
_publ_section_title
;
Structure prediction by ZEFSAII (Michael W. Deem and Ramdas Pophale) SiO2 
 PCOD9099908
Probable space group: P -1
;
_chemical_formula_sum "Si O2"
_cell_formula_units_Z 16
_cell_length_a 16.915013
_cell_length_b 12.431996
_cell_length_c 11.803904
_cell_angle_alpha 137.971886
_cell_angle_beta 33.562254
_cell_angle_gamma 152.637646
_cell_volume 630.681779
_symmetry_space_group_name_H-M "P -1"
_symmetry_group_IT_number 2
_symmetry_cell_setting 'triclinic'
loop_
_space_group_symop_operation_xyz
x,y,z
-x,-y,-z
loop_
_atom_site_type_symbol
_atom_site_label
_atom_site_fract_x
_atom_site_fract_y
_atom_site_fract_z
Si Si1 0.869667 0.774482 0.826366
Si Si2 0.196639 0.587265 0.269602
Si Si3 0.432141 0.458946 0.677636
Si Si4 0.292160 0.085030 0.698903
Si Si5 0.151342 0.722370 0.740973
Si Si6 0.041204 0.382247 0.774523
Si Si7 0.010597 0.140407 0.812674
Si Si8 0.562726 0.921459 0.956666
O O1 0.738050 0.510238 0.805729
O O2 0.777240 0.841042 0.066094
O O3 0.093021 0.903371 0.711666
O O4 0.900740 0.876807 0.745214
O O5 0.000000 0.500000 0.500000
O O6 0.076095 0.463029 0.195488
O O7 0.414125 0.848916 0.183245
O O8 0.500000 0.500000 0.500000
O O9 0.460212 0.320029 0.608848
O O10 0.182971 0.268212 0.805286
O O11 0.509280 0.690235 0.817110
O O12 0.308822 0.928505 0.621632
O O13 0.161848 0.557927 0.660778
O O14 0.143154 0.847149 0.949035
O O15 0.114879 0.291912 0.692672
O O16 0.809540 0.135432 0.829052
O O17 0.000000 0.500000 0.000000
O O18 0.500000 0.000000 0.000000
#
# Coordination Sequence:
#
# PCOD9099908 Si02
#       8
#     2   2   2   2   2   2   2   2
#     4   8  14  29  53  77 107 146 197 230 295 362
#     4  11  20  33  58  90 124 153 201 263 313 360
#     4  11  21  36  62  93 122 153 210 268 315 365
#     4   8  14  29  56  78 109 150 192 246 297 357
#     4   9  16  34  57  83 110 156 205 243 300 364
#     4  10  20  37  62  86 123 171 204 246 318 372
#     4   9  17  35  60  83 111 164 196 240 314 374
#     4  12  22  38  61  95 126 157 212 267 303 372
#
# _framework density 25.36937
#
# number of rings (size 3 to 8) (size 9 to 14) (size 15 to 20)
#    0.000    2.250    3.750    2.250    0.000    3.000 
#    0.000    1.250    0.000    3.750    0.000    0.000 
#    0.000    0.000    0.000    0.000    0.000    0.000 
#
# Total GULP energy -89088.210226 kJ/mol
# GULP energy per Si atom -5568.013139 kJ/mol
# Density = 2.531163 g / cm^3
# Si number density = 25.369370 Si / 1000 Ang^3
#
#
#
# Elastic Constant Matrix: (Units=GPa)
#
#
# Indices 1 2 3 4 5 6 
#
# 1 123.6017 74.0499 6.3355 -16.1807 -4.2054 -59.7442
# 2 74.0499 168.1411 20.2919 -26.4678 11.6597 -71.9614
# 3 6.3355 20.2919 57.2863 -21.7484 12.2650 -16.6471
# 4 -16.1807 -26.4678 -21.7484 27.1901 -11.1115 18.4496
# 5 -4.2054 11.6597 12.2650 -11.1115 22.1810 -17.3419
# 6 -59.7442 -71.9614 -16.6471 18.4496 -17.3419 68.6147
#
#
#
# Elastic Compliance Matrix: (Units=1/GPa)
#
#
# Indices 1 2 3 4 5 6 
#
# 1 0.021024 -0.000196 0.002432 0.009177 0.024957 0.022531
# 2 -0.000196 0.011667 0.000291 0.005702 0.006001 0.012120
# 3 0.002432 0.000291 0.025771 0.019602 -0.001820 0.002944
# 4 0.009177 0.005702 0.019602 0.070411 0.028682 0.007043
# 5 0.024957 0.006001 -0.001820 0.028682 0.096674 0.044304
# 6 0.022531 0.012120 0.002944 0.007043 0.044304 0.056922
#
#
# Mechanical properties :
#
#
# Convention : Reuss Voigt Hill
#
# Bulk Modulus (GPa) = 15.74377 61.15373 38.44875
# Shear Modulus (GPa) = 16.74550 40.15394 28.44972
#
# Velocity S-wave (km/s) = 2.57197 3.98272 3.35239
# Velocity P-wave (km/s) = 3.87805 6.73106 5.49301
#
# Compressibility (1/GPa) = 0.06351718
#
# Stress axis : x y z
#
# Youngs Moduli (GPa) = 47.56383 85.71262 38.80258
#
# Poissons Ratio (x) = 0.01678 -0.09438
# Poissons Ratio (y) = 0.00931 -0.01128
# Poissons Ratio (z) = -0.11569 -0.02492
#
# Static dielectric constant tensor:
#      x y z
#    x 4.301410 -2.754480 -2.341130 
#    y -2.754480 5.488280 2.940850 
#    z -2.341130 2.940850 4.660850 
# 
# From -- ./inp_files/447369.got.cif
#   From: 2010.05.17/outbox.cif.g08.bks.cpg/sg2_224_cif.got.tgz:447369.got - 2010.06.03 11:33:40.
