data_PCOD9099980
_publ_section_title
;
Structure prediction by ZEFSAII (Michael W. Deem and Ramdas Pophale) SiO2 
 PCOD9099980
Probable space group: P -1
;
_chemical_formula_sum "Si O2"
_cell_formula_units_Z 16
_cell_length_a 23.475735
_cell_length_b 11.913492
_cell_length_c 17.721673
_cell_angle_alpha 36.194882
_cell_angle_beta 18.090931
_cell_angle_gamma 27.938828
_cell_volume 702.582183
_symmetry_space_group_name_H-M "P -1"
_symmetry_group_IT_number 2
_symmetry_cell_setting 'triclinic'
loop_
_space_group_symop_operation_xyz
x,y,z
-x,-y,-z
loop_
_atom_site_type_symbol
_atom_site_label
_atom_site_fract_x
_atom_site_fract_y
_atom_site_fract_z
Si Si1 0.043870 0.180144 0.784474
Si Si2 0.853287 0.615898 0.198843
Si Si3 0.536436 0.757522 0.217648
Si Si4 0.039921 0.287506 0.294657
Si Si5 0.078635 0.755431 0.926329
Si Si6 0.517351 0.504039 0.691716
Si Si7 0.343522 0.715916 0.197228
Si Si8 0.235330 0.314258 0.353719
O O1 0.153572 0.293338 0.548821
O O2 0.058772 0.174665 0.858585
O O3 0.765417 0.328406 0.039807
O O4 0.158644 0.920834 0.740035
O O5 0.610984 0.655057 0.474280
O O6 0.957272 0.447397 0.235327
O O7 0.000000 0.500000 0.000000
O O8 0.893696 0.809545 0.066217
O O9 0.684707 0.531280 0.213655
O O10 0.405400 0.693483 0.363968
O O11 0.379991 0.037789 0.287884
O O12 0.760176 0.714412 0.916802
O O13 0.819162 0.354481 0.584382
O O14 0.179141 0.009748 0.241218
O O15 0.608732 0.366366 0.730850
O O16 0.591442 0.617759 0.902518
O O17 0.000000 0.500000 0.500000
#
# Coordination Sequence:
#
# PCOD9099980 Si02
#       8
#     2   2   2   2   2   2   2   2
#     4  10  21  40  62  89 130 162 201 257 311 370
#     4  10  21  38  62  90 122 156 215 261 300 365
#     4   9  20  37  62  95 114 163 210 252 302 368
#     4   8  17  35  57  86 115 156 199 251 301 354
#     4   9  21  43  61  88 120 168 204 255 310 366
#     4  10  20  37  62  89 121 167 198 252 319 363
#     4   9  17  35  59  83 121 158 199 249 300 365
#     4  11  21  35  60  97 128 158 205 259 303 368
#
# _framework density 22.773136999999998
#
# number of rings (size 3 to 8) (size 9 to 14) (size 15 to 20)
#    0.000    2.500    1.250    0.000    1.750    3.000 
#   20.250    0.000    0.000   12.000    0.000    0.000 
#    0.000    0.000    0.000    0.000    0.000    0.000 
#
# Total GULP energy -89147.594552 kJ/mol
# GULP energy per Si atom -5571.724660 kJ/mol
# Density = 2.272130 g / cm^3
# Si number density = 22.773137 Si / 1000 Ang^3
#
#
#
# Elastic Constant Matrix: (Units=GPa)
#
#
# Indices 1 2 3 4 5 6 
#
# 1 46.9097 10.9711 31.9333 -14.6776 -17.3533 25.8991
# 2 10.9711 75.8620 25.9908 3.3832 -10.1889 12.6529
# 3 31.9333 25.9908 167.2544 -25.5661 -10.1583 3.8296
# 4 -14.6776 3.3832 -25.5661 39.6730 -2.9662 -1.6229
# 5 -17.3533 -10.1889 -10.1583 -2.9662 24.0691 -8.5758
# 6 25.8991 12.6529 3.8296 -1.6229 -8.5758 26.8896
#
#
#
# Elastic Compliance Matrix: (Units=1/GPa)
#
#
# Indices 1 2 3 4 5 6 
#
# 1 0.092654 0.007287 -0.010432 0.026926 0.041622 -0.076285
# 2 0.007287 0.016205 -0.003391 -0.000907 0.006212 -0.012235
# 3 -0.010432 -0.003391 0.008515 0.002218 -0.001496 0.010087
# 4 0.026926 -0.000907 0.002218 0.037311 0.018237 -0.017755
# 5 0.041622 0.006212 -0.001496 0.018237 0.068757 -0.019769
# 6 -0.076285 -0.012235 0.010087 -0.017755 -0.019769 0.107608
#
#
# Mechanical properties :
#
#
# Convention : Reuss Voigt Hill
#
# Bulk Modulus (GPa) = 9.58747 47.53517 28.56132
# Shear Modulus (GPa) = 13.19646 32.86841 23.03243
#
# Velocity S-wave (km/s) = 2.40984 3.80320 3.18368
# Velocity P-wave (km/s) = 3.45865 6.34069 5.10718
#
# Compressibility (1/GPa) = 0.10430279
#
# Stress axis : x y z
#
# Youngs Moduli (GPa) = 10.79283 61.70928 117.44329
#
# Poissons Ratio (x) = -0.44969 1.22517
# Poissons Ratio (y) = -0.07865 0.39822
# Poissons Ratio (z) = 0.11259 0.20924
#
# Static dielectric constant tensor:
#      x y z
#    x 1.849190 0.033560 -0.031900 
#    y 0.033560 1.922200 -0.020570 
#    z -0.031900 -0.020570 1.937730 
# 
# From -- ./inp_files/579233.got.cif
#   From: 2010.05.17/outbox.cif.g08.bks.cpg/sg2_290_cif.got.tgz:579233.got - 2010.06.03 11:33:40.
