data_PCOD9099248
_publ_section_title
;
Structure prediction by ZEFSAII (Michael W. Deem and Ramdas Pophale) SiO2 
 PCOD9099248
Probable space group: P -1
;
_chemical_formula_sum "Si O2"
_cell_formula_units_Z 16
_cell_length_a 11.853338
_cell_length_b 12.518286
_cell_length_c 12.607987
_cell_angle_alpha 40.034119
_cell_angle_beta 112.873489
_cell_angle_gamma 83.836923
_cell_volume 809.543871
_symmetry_space_group_name_H-M "P -1"
_symmetry_group_IT_number 2
_symmetry_cell_setting 'triclinic'
loop_
_space_group_symop_operation_xyz
x,y,z
-x,-y,-z
loop_
_atom_site_type_symbol
_atom_site_label
_atom_site_fract_x
_atom_site_fract_y
_atom_site_fract_z
Si Si1 0.891688 0.194564 0.094981
Si Si2 0.369712 0.182472 0.125039
Si Si3 0.693054 0.960163 0.519278
Si Si4 0.526200 0.478104 0.651962
Si Si5 0.532194 0.100431 0.027451
Si Si6 0.249194 0.948158 0.315047
Si Si7 0.152748 0.111835 0.575751
Si Si8 0.139105 0.504669 0.959918
O O1 0.905986 0.997443 0.301809
O O2 0.712198 0.372364 0.833503
O O3 0.885184 0.330434 0.087181
O O4 0.057725 0.072150 0.176964
O O5 0.545833 0.983947 0.399240
O O6 0.292961 0.386619 0.023627
O O7 0.256923 0.122754 0.131343
O O8 0.408300 0.197744 0.008387
O O9 0.663057 0.104651 0.498339
O O10 0.745680 0.026168 0.389757
O O11 0.824419 0.702565 0.809177
O O12 0.500000 0.500000 0.500000
O O13 0.520997 0.295481 0.830880
O O14 0.371159 0.719114 0.465654
O O15 0.500000 0.000000 0.000000
O O16 0.719736 0.906823 0.289604
O O17 0.010794 0.355614 0.286072
#
# Coordination Sequence:
#
# PCOD9099248 Si02
#       8
#     2   2   2   2   2   2   2   2
#     4  11  24  39  64  94 130 162 203 254 310 374
#     4  10  22  37  62  92 127 162 207 252 301 371
#     4  10  20  37  59  93 131 162 203 248 302 376
#     4  11  25  45  66  88 121 166 209 259 314 363
#     4  10  23  45  64  85 118 163 212 259 306 364
#     4  11  22  39  64  92 126 161 207 249 311 367
#     4  10  22  37  60  91 127 157 198 257 305 365
#     4  11  20  36  60  94 128 160 196 245 314 362
#
# _framework density 19.764216999999999
#
# number of rings (size 3 to 8) (size 9 to 14) (size 15 to 20)
#    0.000    1.500    1.250    4.500    3.500    1.500 
#    0.000    4.375    0.000    0.000    0.000    0.000 
#    0.000    0.000    0.000    0.000    0.000    0.000 
#
# Total GULP energy -89184.854963 kJ/mol
# GULP energy per Si atom -5574.053435 kJ/mol
# Density = 1.971923 g / cm^3
# Si number density = 19.764217 Si / 1000 Ang^3
#
#
#
# Elastic Constant Matrix: (Units=GPa)
#
#
# Indices 1 2 3 4 5 6 
#
# 1 150.4659 61.2367 50.1082 12.3023 12.3140 -16.6277
# 2 61.2367 140.5016 66.7841 10.2630 17.2446 -9.3901
# 3 50.1082 66.7841 103.4940 16.0558 16.2865 -8.2717
# 4 12.3023 10.2630 16.0558 33.3285 -8.6666 -0.9106
# 5 12.3140 17.2446 16.2865 -8.6666 16.7319 0.4077
# 6 -16.6277 -9.3901 -8.2717 -0.9106 0.4077 27.0068
#
#
#
# Elastic Compliance Matrix: (Units=1/GPa)
#
#
# Indices 1 2 3 4 5 6 
#
# 1 0.009152 -0.002200 -0.001406 -0.003162 -0.004844 0.004405
# 2 -0.002200 0.011411 -0.004881 -0.001996 -0.006452 0.001148
# 3 -0.001406 -0.004881 0.018241 -0.011261 -0.017594 0.002910
# 4 -0.003162 -0.001996 -0.011261 0.047492 0.040069 -0.005094
# 5 -0.004844 -0.006452 -0.017594 0.040069 0.108126 -0.010895
# 6 0.004405 0.001148 0.002910 -0.005094 -0.010895 0.041023
#
#
# Mechanical properties :
#
#
# Convention : Reuss Voigt Hill
#
# Bulk Modulus (GPa) = 45.81166 83.41329 64.61247
# Shear Modulus (GPa) = 19.25326 29.83562 24.54444
#
# Velocity S-wave (km/s) = 3.12452 3.88954 3.52783
# Velocity P-wave (km/s) = 6.02049 7.90362 7.02543
#
# Compressibility (1/GPa) = 0.02182850
#
# Stress axis : x y z
#
# Youngs Moduli (GPa) = 109.27062 87.63434 54.82079
#
# Poissons Ratio (x) = 0.19283 0.07708
# Poissons Ratio (y) = 0.24044 0.26760
# Poissons Ratio (z) = 0.15363 0.42777
#
# Static dielectric constant tensor:
#      x y z
#    x 1.783810 -0.040570 0.074840 
#    y -0.040570 1.691810 -0.039080 
#    z 0.074840 -0.039080 1.732340 
# 
# From -- ./inp_files/427441.got.cif
#   From: 2010.05.17/outbox.cif.g08.bks.cpg/sg2_214_cif.got.tgz:427441.got - 2010.06.03 11:33:40.
