data_PCOD9099763
_publ_section_title
;
Structure prediction by ZEFSAII (Michael W. Deem and Ramdas Pophale) SiO2 
 PCOD9099763
Probable space group: P -1
;
_chemical_formula_sum "Si O2"
_cell_formula_units_Z 16
_cell_length_a 21.185552
_cell_length_b 5.409120
_cell_length_c 10.210772
_cell_angle_alpha 116.032154
_cell_angle_beta 142.972751
_cell_angle_gamma 69.214653
_cell_volume 633.123198
_symmetry_space_group_name_H-M "P -1"
_symmetry_group_IT_number 2
_symmetry_cell_setting 'triclinic'
loop_
_space_group_symop_operation_xyz
x,y,z
-x,-y,-z
loop_
_atom_site_type_symbol
_atom_site_label
_atom_site_fract_x
_atom_site_fract_y
_atom_site_fract_z
Si Si1 0.885388 0.650687 0.039290
Si Si2 0.392340 0.146995 0.809400
Si Si3 0.772238 0.135569 0.911097
Si Si4 0.735669 0.303327 0.597389
Si Si5 0.818100 0.912479 0.264012
Si Si6 0.351306 0.717247 0.023712
Si Si7 0.584257 0.752852 0.438969
Si Si8 0.934417 0.495984 0.527117
O O1 0.987849 0.484859 0.214834
O O2 0.832346 0.717195 0.112467
O O3 0.827681 0.524424 0.783707
O O4 0.882300 0.976317 0.073332
O O5 0.370928 0.437775 0.911129
O O6 0.405175 0.204927 0.689174
O O7 0.291991 0.944656 0.599014
O O8 0.500000 0.000000 0.000000
O O9 0.771466 0.238333 0.787753
O O10 0.675018 0.921290 0.698969
O O11 0.730477 0.325171 0.003004
O O12 0.621865 0.444554 0.457260
O O13 0.699846 0.037135 0.089919
O O14 0.884245 0.194815 0.408736
O O15 0.857638 0.749541 0.420150
O O16 0.464578 0.799708 0.284581
O O17 0.000000 0.500000 0.500000
#
# Coordination Sequence:
#
# PCOD9099763 Si02
#       8
#     2   2   2   2   2   2   2   2
#     4   9  19  34  61  85 123 159 202 255 310 373
#     4  11  23  41  60  84 120 174 218 250 303 380
#     4   9  21  36  57  93 121 153 212 253 328 363
#     4  10  21  38  60  90 120 164 213 249 304 389
#     4  10  23  36  58  99 127 160 209 259 328 374
#     4  11  22  38  61  88 128 163 203 271 311 368
#     4  10  21  41  56  85 120 165 215 249 311 379
#     4  10  20  37  61  91 130 163 203 260 322 385
#
# _framework density 25.271543999999999
#
# number of rings (size 3 to 8) (size 9 to 14) (size 15 to 20)
#    0.000    2.000    1.250    2.250    8.750    1.500 
#    4.500    0.000    0.000    1.500    0.000    0.000 
#    0.000    0.000    0.000    0.000    0.000    0.000 
#
# Total GULP energy -89089.307765 kJ/mol
# GULP energy per Si atom -5568.081735 kJ/mol
# Density = 2.521402 g / cm^3
# Si number density = 25.271544 Si / 1000 Ang^3
#
#
#
# Elastic Constant Matrix: (Units=GPa)
#
#
# Indices 1 2 3 4 5 6 
#
# 1 29.3299 19.1371 -0.6220 -6.6511 -3.8188 -0.2015
# 2 19.1371 116.2972 65.7257 -23.2856 -1.7802 -18.0720
# 3 -0.6220 65.7257 159.0609 -12.4504 1.0992 -4.8266
# 4 -6.6511 -23.2856 -12.4504 70.5338 8.4969 -1.7899
# 5 -3.8188 -1.7802 1.0992 8.4969 33.1476 0.7047
# 6 -0.2015 -18.0720 -4.8266 -1.7899 0.7047 30.0956
#
#
#
# Elastic Compliance Matrix: (Units=1/GPa)
#
#
# Indices 1 2 3 4 5 6 
#
# 1 0.041081 -0.009547 0.003995 0.000824 0.003980 -0.004862
# 2 -0.009547 0.015529 -0.005910 0.003540 -0.001159 0.008551
# 3 0.003995 -0.005910 0.008673 -0.000088 -0.000077 -0.002134
# 4 0.000824 0.003540 -0.000088 0.015955 -0.003869 0.003157
# 5 0.003980 -0.001159 -0.000077 -0.003869 0.031594 -0.001652
# 6 -0.004862 0.008551 -0.002134 0.003157 -0.001652 0.038214
#
#
# Mechanical properties :
#
#
# Convention : Reuss Voigt Hill
#
# Bulk Modulus (GPa) = 23.60727 52.57441 38.09084
# Shear Modulus (GPa) = 26.58309 41.45189 34.01749
#
# Velocity S-wave (km/s) = 3.24682 4.05441 3.67287
# Velocity P-wave (km/s) = 4.83916 6.53961 5.75257
#
# Compressibility (1/GPa) = 0.04235982
#
# Stress axis : x y z
#
# Youngs Moduli (GPa) = 24.34231 64.39359 115.29586
#
# Poissons Ratio (x) = 0.61479 -0.46063
# Poissons Ratio (y) = 0.23241 0.68136
# Poissons Ratio (z) = -0.09725 0.38055
#
# Static dielectric constant tensor:
#      x y z
#    x 2.133730 0.177680 0.188120 
#    y 0.177680 2.393590 0.329490 
#    z 0.188120 0.329490 2.352330 
# 
# From -- ./inp_files/459012.got.cif
#   From: 2010.05.17/outbox.cif.g08.bks.cpg/sg2_230_cif.got.tgz:459012.got - 2010.06.03 11:33:40.
