data_PCOD9099549
_publ_section_title
;
Structure prediction by ZEFSAII (Michael W. Deem and Ramdas Pophale) SiO2 
 PCOD9099549
Probable space group: P -1
;
_chemical_formula_sum "Si O2"
_cell_formula_units_Z 16
_cell_length_a 8.068401
_cell_length_b 13.336236
_cell_length_c 13.598382
_cell_angle_alpha 63.066884
_cell_angle_beta 105.035895
_cell_angle_gamma 144.599121
_cell_volume 738.422642
_symmetry_space_group_name_H-M "P -1"
_symmetry_group_IT_number 2
_symmetry_cell_setting 'triclinic'
loop_
_space_group_symop_operation_xyz
x,y,z
-x,-y,-z
loop_
_atom_site_type_symbol
_atom_site_label
_atom_site_fract_x
_atom_site_fract_y
_atom_site_fract_z
Si Si1 0.687585 0.982737 0.690173
Si Si2 0.621927 0.689672 0.843781
Si Si3 0.623835 0.916683 0.500587
Si Si4 0.208448 0.427716 0.563438
Si Si5 0.245450 0.279465 0.365451
Si Si6 0.983457 0.730041 0.026272
Si Si7 0.455984 0.980560 0.146727
Si Si8 0.756029 0.326617 0.639706
O O1 0.726650 0.872408 0.766477
O O2 0.547264 0.961873 0.774163
O O3 0.516350 0.900788 0.597085
O O4 0.991826 0.208587 0.615613
O O5 0.693740 0.662286 0.765158
O O6 0.270738 0.495729 0.890770
O O7 0.797623 0.727849 0.943894
O O8 0.917968 0.131986 0.412395
O O9 0.711502 0.832740 0.568230
O O10 0.398644 0.796637 0.430452
O O11 0.517876 0.549608 0.596930
O O12 0.230257 0.532153 0.433323
O O13 0.067898 0.429800 0.630513
O O14 0.166657 0.860898 0.093482
O O15 0.248621 0.836180 0.947543
O O16 0.417052 0.825492 0.231536
#
# Coordination Sequence:
#
# PCOD9099549 Si02
#       8
#     2   2   2   2   2   2   2   2
#     4  10  21  35  57  87 116 139 176 236 281 317
#     4  10  20  37  61  82 107 145 189 233 274 317
#     4   9  18  31  52  80 109 141 175 212 270 338
#     4   9  18  31  52  80 111 142 173 210 271 339
#     4   9  17  33  53  76 108 144 176 212 268 340
#     4  10  22  39  59  79 104 152 199 225 269 330
#     4  10  21  38  58  81 111 146 189 233 271 317
#     4   9  17  33  54  76 110 148 175 209 268 342
#
# _framework density 21.667807
#
# number of rings (size 3 to 8) (size 9 to 14) (size 15 to 20)
#    0.000    2.500    0.000    2.250    0.000    5.500 
#    0.000    0.000    0.000    7.500    0.000    0.000 
#    0.000    0.000    0.000    0.000    0.000    0.000 
#
# Total GULP energy -89270.445557 kJ/mol
# GULP energy per Si atom -5579.402847 kJ/mol
# Density = 2.161849 g / cm^3
# Si number density = 21.667807 Si / 1000 Ang^3
#
#
#
# Elastic Constant Matrix: (Units=GPa)
#
#
# Indices 1 2 3 4 5 6 
#
# 1 53.2450 37.2950 21.6852 1.2337 -2.6113 5.0133
# 2 37.2950 108.4954 38.8391 -11.4252 1.7693 15.8009
# 3 21.6852 38.8391 97.1411 4.9180 -1.7287 0.1011
# 4 1.2337 -11.4252 4.9180 32.0310 0.6299 0.3489
# 5 -2.6113 1.7693 -1.7287 0.6299 35.5409 -6.7098
# 6 5.0133 15.8009 0.1011 0.3489 -6.7098 23.8803
#
#
#
# Elastic Compliance Matrix: (Units=1/GPa)
#
#
# Indices 1 2 3 4 5 6 
#
# 1 0.025863 -0.008786 -0.002020 -0.003882 0.002527 0.001159
# 2 -0.008786 0.016288 -0.004966 0.007093 -0.003723 -0.010061
# 3 -0.002020 -0.004966 0.012945 -0.003757 0.001579 0.004154
# 4 -0.003882 0.007093 -0.003757 0.034578 -0.002385 -0.005038
# 5 0.002527 -0.003723 0.001579 -0.002385 0.030621 0.010565
# 6 0.001159 -0.010061 0.004154 -0.005038 0.010565 0.051314
#
#
# Mechanical properties :
#
#
# Convention : Reuss Voigt Hill
#
# Bulk Modulus (GPa) = 42.46072 50.50225 46.48149
# Shear Modulus (GPa) = 23.69637 29.02792 26.36215
#
# Velocity S-wave (km/s) = 3.31058 3.66413 3.49184
# Velocity P-wave (km/s) = 5.85252 6.42334 6.14456
#
# Compressibility (1/GPa) = 0.02355118
#
# Stress axis : x y z
#
# Youngs Moduli (GPa) = 38.66586 61.39595 77.25141
#
# Poissons Ratio (x) = 0.53941 0.15607
# Poissons Ratio (y) = 0.33971 0.38362
# Poissons Ratio (z) = 0.07812 0.30488
#
# Static dielectric constant tensor:
#      x y z
#    x 1.811330 -0.015250 0.001220 
#    y -0.015250 1.843740 -0.009550 
#    z 0.001220 -0.009550 1.820140 
# 
# From -- ./inp_files/505414.got.cif
#   From: 2010.05.17/outbox.cif.g08.bks.cpg/sg2_253_cif.got.tgz:505414.got - 2010.06.03 11:33:40.
