data_PCOD9099718
_publ_section_title
;
Structure prediction by ZEFSAII (Michael W. Deem and Ramdas Pophale) SiO2 
 PCOD9099718
Probable space group: P -1
;
_chemical_formula_sum "Si O2"
_cell_formula_units_Z 16
_cell_length_a 19.089409
_cell_length_b 7.977895
_cell_length_c 14.084470
_cell_angle_alpha 61.841764
_cell_angle_beta 145.367104
_cell_angle_gamma 140.661088
_cell_volume 687.526423
_symmetry_space_group_name_H-M "P -1"
_symmetry_group_IT_number 2
_symmetry_cell_setting 'triclinic'
loop_
_space_group_symop_operation_xyz
x,y,z
-x,-y,-z
loop_
_atom_site_type_symbol
_atom_site_label
_atom_site_fract_x
_atom_site_fract_y
_atom_site_fract_z
Si Si1 0.835354 0.538824 0.393659
Si Si2 0.221430 0.691475 0.190594
Si Si3 0.693664 0.331470 0.094223
Si Si4 0.250104 0.269993 0.360319
Si Si5 0.336939 0.177403 0.283540
Si Si6 0.410037 0.986176 0.117721
Si Si7 0.868198 0.893336 0.104138
Si Si8 0.171510 0.021013 0.769018
O O1 0.837786 0.468995 0.306453
O O2 0.031119 0.742800 0.615522
O O3 0.811601 0.742169 0.310133
O O4 0.639560 0.225831 0.306252
O O5 0.230717 0.474607 0.265910
O O6 0.324331 0.870414 0.158274
O O7 0.325936 0.937083 0.324230
O O8 0.000000 0.500000 0.000000
O O9 0.688483 0.553524 0.027458
O O10 0.707694 0.292528 0.009788
O O11 0.500000 0.000000 0.000000
O O12 0.273521 0.181299 0.313341
O O13 0.447313 0.488130 0.580074
O O14 0.052338 0.979430 0.267268
O O15 0.198296 0.089949 0.070628
O O16 0.364327 0.134189 0.976843
O O17 0.926213 0.089126 0.205856
#
# Coordination Sequence:
#
# PCOD9099718 Si02
#       8
#     2   2   2   2   2   2   2   2
#     4   9  21  39  59  86 121 157 201 258 308 372
#     4  12  24  42  66  97 133 173 214 267 320 381
#     4   9  21  40  63  91 124 161 204 261 320 373
#     4  11  25  43  65  95 130 173 216 268 320 379
#     4  11  24  43  65  95 131 170 221 267 317 378
#     4  11  21  38  61  88 120 163 202 252 318 370
#     4  11  21  41  66  87 127 167 208 261 316 386
#     4  10  20  37  61  90 117 156 207 250 311 375
#
# _framework density 23.271832
#
# number of rings (size 3 to 8) (size 9 to 14) (size 15 to 20)
#    0.000    1.500    2.500    1.875    3.500    0.500 
#    2.250    2.500    0.000    0.000    0.000    0.000 
#    0.000    0.000    0.000    0.000    0.000    0.000 
#
# Total GULP energy -89256.537494 kJ/mol
# GULP energy per Si atom -5578.533593 kJ/mol
# Density = 2.321886 g / cm^3
# Si number density = 23.271832 Si / 1000 Ang^3
#
#
#
# Elastic Constant Matrix: (Units=GPa)
#
#
# Indices 1 2 3 4 5 6 
#
# 1 109.1751 18.6549 36.6153 21.6307 -23.6043 -11.8486
# 2 18.6549 58.8871 11.0032 19.9577 -9.7759 -1.5255
# 3 36.6153 11.0032 102.1918 26.6879 -19.2524 5.4055
# 4 21.6307 19.9577 26.6879 24.7013 -9.7787 -1.0910
# 5 -23.6043 -9.7759 -19.2524 -9.7787 36.6230 12.1926
# 6 -11.8486 -1.5255 5.4055 -1.0910 12.1926 34.0979
#
#
#
# Elastic Compliance Matrix: (Units=1/GPa)
#
#
# Indices 1 2 3 4 5 6 
#
# 1 0.012437 -0.000646 -0.002128 -0.006339 0.004039 0.002983
# 2 -0.000646 0.024513 0.004100 -0.022657 0.002725 -0.001477
# 3 -0.002128 0.004100 0.015743 -0.016559 0.005414 -0.005518
# 4 -0.006339 -0.022657 -0.016559 0.083517 0.003143 0.000957
# 5 0.004039 0.002725 0.005414 0.003143 0.038669 -0.013060
# 6 0.002983 -0.001477 -0.005518 0.000957 -0.013060 0.035873
#
#
# Mechanical properties :
#
#
# Convention : Reuss Voigt Hill
#
# Bulk Modulus (GPa) = 18.06844 44.75565 31.41205
# Shear Modulus (GPa) = 22.07048 32.68315 27.37681
#
# Velocity S-wave (km/s) = 3.08291 3.75161 3.43358
# Velocity P-wave (km/s) = 4.52255 6.16762 5.40800
#
# Compressibility (1/GPa) = 0.05534512
#
# Stress axis : x y z
#
# Youngs Moduli (GPa) = 80.40835 40.79499 63.52129
#
# Poissons Ratio (x) = 0.02636 0.13517
# Poissons Ratio (y) = 0.05195 -0.26047
# Poissons Ratio (z) = 0.17110 -0.16728
#
# Static dielectric constant tensor:
#      x y z
#    x 1.925680 -0.027270 0.031020 
#    y -0.027270 1.971220 0.023830 
#    z 0.031020 0.023830 1.890950 
# 
# From -- ./inp_files/540225.got.cif
#   From: 2010.05.17/outbox.cif.g08.bks.cpg/sg2_271_cif.got.tgz:540225.got - 2010.06.03 11:33:40.
