data_PCOD9099903
_publ_section_title
;
Structure prediction by ZEFSAII (Michael W. Deem and Ramdas Pophale) SiO2 
 PCOD9099903
Probable space group: P -1
;
_chemical_formula_sum "Si O2"
_cell_formula_units_Z 16
_cell_length_a 5.511598
_cell_length_b 25.225799
_cell_length_c 7.621224
_cell_angle_alpha 44.234314
_cell_angle_beta 80.297421
_cell_angle_gamma 59.158945
_cell_volume 598.682221
_symmetry_space_group_name_H-M "P -1"
_symmetry_group_IT_number 2
_symmetry_cell_setting 'triclinic'
loop_
_space_group_symop_operation_xyz
x,y,z
-x,-y,-z
loop_
_atom_site_type_symbol
_atom_site_label
_atom_site_fract_x
_atom_site_fract_y
_atom_site_fract_z
Si Si1 0.888782 0.890275 0.586087
Si Si2 0.506522 0.911288 0.921930
Si Si3 0.617039 0.703415 0.653593
Si Si4 0.922290 0.505531 0.203788
Si Si5 0.617631 0.205267 0.994054
Si Si6 0.067677 0.744204 0.380341
Si Si7 0.594189 0.485546 0.812336
Si Si8 0.892660 0.723727 0.868299
O O1 0.650368 0.906018 0.726765
O O2 0.980359 0.796359 0.703102
O O3 0.164860 0.872996 0.706505
O O4 0.736128 0.981366 0.269885
O O5 0.375752 0.850229 0.046501
O O6 0.784545 0.851944 0.159523
O O7 0.714326 0.616310 0.973215
O O8 0.342871 0.717397 0.541625
O O9 0.628592 0.766656 0.649468
O O10 0.903270 0.690294 0.539545
O O11 0.711822 0.473454 0.349290
O O12 0.228604 0.468099 0.351837
O O13 0.000000 0.500000 0.000000
O O14 0.282562 0.270915 0.949518
O O15 0.769408 0.259987 0.809578
O O16 0.830730 0.378197 0.982471
O O17 0.500000 0.500000 0.000000
#
# Coordination Sequence:
#
# PCOD9099903 Si02
#       8
#     2   2   2   2   2   2   2   2
#     4   9  19  33  61  85 119 156 214 264 296 346
#     4   9  18  38  56  85 115 170 210 251 299 367
#     4  11  22  37  60  89 127 157 196 253 305 369
#     4   9  18  34  57  87 115 150 193 238 290 356
#     4  10  20  37  62  86 119 157 219 256 302 354
#     4  11  22  39  59  85 123 168 202 241 312 375
#     4   9  18  33  56  88 121 147 182 242 305 356
#     4  10  22  35  58  95 120 154 206 262 299 355
#
# _framework density 26.725365
#
# number of rings (size 3 to 8) (size 9 to 14) (size 15 to 20)
#    0.000    2.250    1.250    1.875    5.250    1.000 
#    0.000    1.250    0.000    0.000    0.000   47.250 
#    0.000    0.000    0.000    0.000    0.000    0.000 
#
# Total GULP energy -89096.917929 kJ/mol
# GULP energy per Si atom -5568.557371 kJ/mol
# Density = 2.666454 g / cm^3
# Si number density = 26.725365 Si / 1000 Ang^3
#
#
#
# Elastic Constant Matrix: (Units=GPa)
#
#
# Indices 1 2 3 4 5 6 
#
# 1 232.4884 12.3636 38.8475 -4.3614 36.5245 5.4138
# 2 12.3636 80.3755 11.3121 -19.8012 -1.3036 2.2034
# 3 38.8475 11.3121 83.1722 -17.1312 17.5944 3.1162
# 4 -4.3614 -19.8012 -17.1312 23.7817 -6.4038 -2.4812
# 5 36.5245 -1.3036 17.5944 -6.4038 40.1999 18.3006
# 6 5.4138 2.2034 3.1162 -2.4812 18.3006 33.4172
#
#
#
# Elastic Compliance Matrix: (Units=1/GPa)
#
#
# Indices 1 2 3 4 5 6 
#
# 1 0.005473 -0.001431 -0.001814 -0.002793 -0.005717 0.002300
# 2 -0.001431 0.016415 0.000505 0.014889 0.005179 -0.002629
# 3 -0.001814 0.000505 0.015845 0.010496 -0.004528 0.002042
# 4 -0.002793 0.014889 0.010496 0.063846 0.009493 -0.001966
# 5 -0.005717 0.005179 -0.004528 0.009493 0.043897 -0.022328
# 6 0.002300 -0.002629 0.002042 -0.001966 -0.022328 0.041617
#
#
# Mechanical properties :
#
#
# Convention : Reuss Voigt Hill
#
# Bulk Modulus (GPa) = 31.00365 57.89805 44.45085
# Shear Modulus (GPa) = 24.59175 41.71394 33.15285
#
# Velocity S-wave (km/s) = 3.03671 3.95503 3.52590
# Velocity P-wave (km/s) = 4.89096 6.52437 5.76580
#
# Compressibility (1/GPa) = 0.03225426
#
# Stress axis : x y z
#
# Youngs Moduli (GPa) = 182.72811 60.92094 63.11183
#
# Poissons Ratio (x) = 0.08715 0.11447
# Poissons Ratio (y) = 0.26139 -0.03189
# Poissons Ratio (z) = 0.33141 -0.03078
#
# Static dielectric constant tensor:
#      x y z
#    x 2.149960 -0.058060 0.019870 
#    y -0.058060 2.165610 0.081450 
#    z 0.019870 0.081450 2.096370 
# 
# From -- ./inp_files/143112.got.cif
#   From: 2010.05.17/outbox.cif.g08.bks.cpg/sg2_72_cif.got.tgz:143112.got - 2010.06.03 11:33:40.
