data_PCOD9099883
_publ_section_title
;
Structure prediction by ZEFSAII (Michael W. Deem and Ramdas Pophale) SiO2 
 PCOD9099883
Probable space group: P -1
;
_chemical_formula_sum "Si O2"
_cell_formula_units_Z 16
_cell_length_a 18.216257
_cell_length_b 6.176734
_cell_length_c 10.878700
_cell_angle_alpha 46.688914
_cell_angle_beta 43.171488
_cell_angle_gamma 52.915857
_cell_volume 596.265035
_symmetry_space_group_name_H-M "P -1"
_symmetry_group_IT_number 2
_symmetry_cell_setting 'triclinic'
loop_
_space_group_symop_operation_xyz
x,y,z
-x,-y,-z
loop_
_atom_site_type_symbol
_atom_site_label
_atom_site_fract_x
_atom_site_fract_y
_atom_site_fract_z
Si Si1 0.716860 0.799317 0.532217
Si Si2 0.504860 0.236019 0.742709
Si Si3 0.883566 0.184885 0.116769
Si Si4 0.605325 0.137655 0.331364
Si Si5 0.088612 0.219756 0.442937
Si Si6 0.057492 0.206495 0.192632
Si Si7 0.223763 0.658404 0.079262
Si Si8 0.595164 0.301524 0.878913
O O1 0.701983 0.452812 0.704389
O O2 0.609597 0.016870 0.638336
O O3 0.823099 0.952182 0.355291
O O4 0.692197 0.864935 0.391650
O O5 0.436596 0.559908 0.654833
O O6 0.554909 0.315213 0.781336
O O7 0.409351 0.042296 0.947877
O O8 0.912437 0.490939 0.017783
O O9 0.811671 0.301206 0.037264
O O10 0.000000 0.000000 0.000000
O O11 0.500000 0.000000 0.500000
O O12 0.657313 0.262985 0.099764
O O13 0.068053 0.233570 0.316060
O O14 0.204089 0.330391 0.275548
O O15 0.000000 0.500000 0.500000
O O16 0.057751 0.902557 0.643449
O O17 0.144709 0.922973 0.145253
O O18 0.500000 0.500000 0.000000
#
# Coordination Sequence:
#
# PCOD9099883 Si02
#       8
#     2   2   2   2   2   2   2   2
#     4  10  21  38  61  84 118 151 193 239 288 342
#     4  10  20  37  62  84 118 154 191 234 292 339
#     4  10  22  37  55  83 112 147 191 235 278 336
#     4  11  21  35  58  92 119 149 189 240 284 345
#     4   8  15  33  58  78 104 143 181 225 281 328
#     4   9  17  33  59  78 107 149 178 231 284 326
#     4   9  20  36  56  83 117 144 186 232 281 338
#     4   9  19  38  60  81 114 158 193 233 280 345
#
# _framework density 26.833704000000001
#
# number of rings (size 3 to 8) (size 9 to 14) (size 15 to 20)
#    0.000    2.500    1.250    0.375    1.750    0.500 
#    4.500    0.000   44.000    0.000    0.000    0.000 
#    0.000    0.000    0.000    0.000    0.000    0.000 
#
# Total GULP energy -89368.465330 kJ/mol
# GULP energy per Si atom -5585.529083 kJ/mol
# Density = 2.677263 g / cm^3
# Si number density = 26.833704 Si / 1000 Ang^3
#
#
#
# Elastic Constant Matrix: (Units=GPa)
#
#
# Indices 1 2 3 4 5 6 
#
# 1 77.5950 11.0982 34.2364 -17.3987 -24.7351 21.3796
# 2 11.0982 88.6067 76.9643 -32.3596 -12.6522 16.6919
# 3 34.2364 76.9643 271.5288 -51.5765 -52.3168 13.7511
# 4 -17.3987 -32.3596 -51.5765 67.3038 15.1667 -7.0178
# 5 -24.7351 -12.6522 -52.3168 15.1667 50.3619 -7.6747
# 6 21.3796 16.6919 13.7511 -7.0178 -7.6747 40.8749
#
#
#
# Elastic Compliance Matrix: (Units=1/GPa)
#
#
# Indices 1 2 3 4 5 6 
#
# 1 0.017819 0.001682 -0.000538 0.002674 0.006571 -0.008134
# 2 0.001682 0.017590 -0.004178 0.005433 -0.001651 -0.006035
# 3 -0.000538 -0.004178 0.006083 0.001569 0.004700 0.001093
# 4 0.002674 0.005433 0.001569 0.019649 -0.001778 -0.001105
# 5 0.006571 -0.001651 0.004700 -0.001778 0.028184 0.000643
# 6 -0.008134 -0.006035 0.001093 -0.001105 0.000643 0.030747
#
#
# Mechanical properties :
#
#
# Convention : Reuss Voigt Hill
#
# Bulk Modulus (GPa) = 28.22888 75.81425 52.02157
# Shear Modulus (GPa) = 36.24559 52.73691 44.49125
#
# Velocity S-wave (km/s) = 3.67924 4.43801 4.07632
# Velocity P-wave (km/s) = 5.34714 7.38755 6.44856
#
# Compressibility (1/GPa) = 0.03542471
#
# Stress axis : x y z
#
# Youngs Moduli (GPa) = 56.11847 56.85162 164.38966
#
# Poissons Ratio (x) = -0.09564 0.08838
# Poissons Ratio (y) = -0.09441 0.68689
# Poissons Ratio (z) = 0.03017 0.23755
#
# Static dielectric constant tensor:
#      x y z
#    x 2.257200 0.049590 0.011700 
#    y 0.049590 1.999750 0.004370 
#    z 0.011700 0.004370 2.224390 
# 
# From -- ./inp_files/98298.got.cif
#   From: 2010.05.17/outbox.cif.g08.bks.cpg/sg2_50_cif.got.tgz:98298.got - 2010.06.03 11:33:40.
