data_PCOD9099394
_publ_section_title
;
Structure prediction by ZEFSAII (Michael W. Deem and Ramdas Pophale) SiO2 
 PCOD9099394
Probable space group: P -1
;
_chemical_formula_sum "Si O2"
_cell_formula_units_Z 14
_cell_length_a 9.043944
_cell_length_b 21.249707
_cell_length_c 9.454859
_cell_angle_alpha 51.194644
_cell_angle_beta 148.435262
_cell_angle_gamma 119.087800
_cell_volume 736.105966
_symmetry_space_group_name_H-M "P -1"
_symmetry_group_IT_number 2
_symmetry_cell_setting 'triclinic'
loop_
_space_group_symop_operation_xyz
x,y,z
-x,-y,-z
loop_
_atom_site_type_symbol
_atom_site_label
_atom_site_fract_x
_atom_site_fract_y
_atom_site_fract_z
Si Si1 0.144865 0.910905 0.277835
Si Si2 0.581776 0.315363 0.815175
Si Si3 0.973292 0.416716 0.177633
Si Si4 0.427998 0.174869 0.069807
Si Si5 0.220673 0.716190 0.292469
Si Si6 0.613431 0.796822 0.698098
Si Si7 0.192317 0.552480 0.674994
O O1 0.331941 0.899521 0.589860
O O2 0.394945 0.879885 0.412379
O O3 0.885670 0.854313 0.153706
O O4 0.000000 0.000000 0.000000
O O5 0.728435 0.310698 0.788875
O O6 0.273823 0.363848 0.483703
O O7 0.751516 0.364374 0.995683
O O8 0.530410 0.226167 0.953691
O O9 0.901460 0.434295 0.257946
O O10 0.000000 0.500000 0.000000
O O11 0.431385 0.231058 0.135899
O O12 0.493914 0.747310 0.544442
O O13 0.171052 0.639390 0.457031
O O14 0.952501 0.786588 0.977302
O O15 0.000000 0.500000 0.500000
O O16 0.500000 0.500000 0.000000
#
# Coordination Sequence:
#
# PCOD9099394 Si02
#       7
#     2   2   2   2   2   2   2
#     4  10  20  37  66  94 119 150 202 248 299 362
#     4  12  24  39  60  88 122 160 199 253 298 360
#     4  12  24  41  60  85 122 161 208 249 306 354
#     4  10  20  37  60  90 117 152 202 237 306 344
#     4  12  22  38  59  86 121 155 203 248 297 356
#     4  10  20  37  60  88 114 152 200 240 297 347
#     4  12  24  40  59  84 116 157 203 251 300 347
#
# _framework density 19.019002
#
# number of rings (size 3 to 8) (size 9 to 14) (size 15 to 20)
#    0.857    0.000    1.429    7.714    0.000    0.000 
#    0.000    0.000    0.000    5.143    0.000    0.000 
#    0.000    0.000    0.000    0.000    0.000    0.000 
#
# Total GULP energy -78023.278939 kJ/mol
# GULP energy per Si atom -5573.091353 kJ/mol
# Density = 1.897571 g / cm^3
# Si number density = 19.019002 Si / 1000 Ang^3
#
#
#
# Elastic Constant Matrix: (Units=GPa)
#
#
# Indices 1 2 3 4 5 6 
#
# 1 141.5575 26.2948 48.7852 -8.9866 -8.1736 -12.6131
# 2 26.2948 51.0288 28.2051 5.9957 -1.0394 3.9949
# 3 48.7852 28.2051 132.8028 2.7052 25.8737 6.5189
# 4 -8.9866 5.9957 2.7052 45.1648 -1.6557 -0.4632
# 5 -8.1736 -1.0394 25.8737 -1.6557 36.2147 3.1978
# 6 -12.6131 3.9949 6.5189 -0.4632 3.1978 22.9071
#
#
#
# Elastic Compliance Matrix: (Units=1/GPa)
#
#
# Indices 1 2 3 4 5 6 
#
# 1 0.010362 -0.003732 -0.004369 0.003069 0.004877 0.006981
# 2 -0.003732 0.024762 -0.004149 -0.003724 0.003166 -0.005710
# 3 -0.004369 -0.004149 0.012076 -0.001428 -0.009460 -0.003827
# 4 0.003069 -0.003724 -0.001428 0.023450 0.002424 0.002882
# 5 0.004877 0.003166 -0.009460 0.002424 0.035684 -0.000107
# 6 0.006981 -0.005710 -0.003827 0.002882 -0.000107 0.049657
#
#
# Mechanical properties :
#
#
# Convention : Reuss Voigt Hill
#
# Bulk Modulus (GPa) = 44.05306 59.10659 51.57983
# Shear Modulus (GPa) = 26.58763 35.66426 31.12594
#
# Velocity S-wave (km/s) = 3.74297 4.33505 4.04984
# Velocity P-wave (km/s) = 6.47246 7.49680 7.00338
#
# Compressibility (1/GPa) = 0.02269990
#
# Stress axis : x y z
#
# Youngs Moduli (GPa) = 96.50914 40.38413 82.80779
#
# Poissons Ratio (x) = 0.15072 0.36179
# Poissons Ratio (y) = 0.36019 0.34355
# Poissons Ratio (z) = 0.42165 0.16755
#
# Static dielectric constant tensor:
#      x y z
#    x 1.656990 0.001820 -0.000480 
#    y 0.001820 1.681550 -0.019850 
#    z -0.000480 -0.019850 1.673430 
# 
# From -- ./inp_files/223306.got.cif
#   From: 2010.05.17/outbox.cif.g08.bks.cpg/sg2_112_cif.got.tgz:223306.got - 2010.06.03 11:33:40.
