data_PCOD9099412
_publ_section_title
;
Structure prediction by ZEFSAII (Michael W. Deem and Ramdas Pophale) SiO2 
 PCOD9099412
Probable space group: P -1
;
_chemical_formula_sum "Si O2"
_cell_formula_units_Z 16
_cell_length_a 6.642861
_cell_length_b 18.283648
_cell_length_c 19.058924
_cell_angle_alpha 23.511350
_cell_angle_beta 99.924754
_cell_angle_gamma 114.344784
_cell_volume 693.712531
_symmetry_space_group_name_H-M "P -1"
_symmetry_group_IT_number 2
_symmetry_cell_setting 'triclinic'
loop_
_space_group_symop_operation_xyz
x,y,z
-x,-y,-z
loop_
_atom_site_type_symbol
_atom_site_label
_atom_site_fract_x
_atom_site_fract_y
_atom_site_fract_z
Si Si1 0.062674 0.754307 0.276543
Si Si2 0.648515 0.173041 0.456409
Si Si3 0.571985 0.185290 0.664167
Si Si4 0.578251 0.451553 0.119215
Si Si5 0.796957 0.962635 0.102793
Si Si6 0.198533 0.809642 0.856000
Si Si7 0.784310 0.600486 0.734467
Si Si8 0.290374 0.461006 0.749727
O O1 0.234419 0.870811 0.256794
O O2 0.000000 0.500000 0.500000
O O3 0.213703 0.919470 0.071503
O O4 0.830240 0.769838 0.254798
O O5 0.593571 0.241523 0.318644
O O6 0.740112 0.396011 0.318625
O O7 0.903657 0.185598 0.454450
O O8 0.381086 0.941845 0.680965
O O9 0.713466 0.436359 0.414594
O O10 0.450950 0.159215 0.754620
O O11 0.344821 0.005488 0.753257
O O12 0.351893 0.377532 0.227082
O O13 0.500000 0.500000 0.000000
O O14 0.890112 0.690121 0.937747
O O15 0.048810 0.179942 0.973564
O O16 0.215221 0.610008 0.057083
O O17 0.574052 0.528111 0.724019
#
# Coordination Sequence:
#
# PCOD9099412 Si02
#       8
#     2   2   2   2   2   2   2   2
#     4  11  24  43  59  89 126 163 213 262 315 382
#     4   9  21  38  60  90 123 159 206 260 310 376
#     4  11  22  40  63  89 118 161 206 262 315 381
#     4  10  22  40  60  88 128 164 202 256 312 374
#     4  11  23  41  63  85 125 167 208 260 328 372
#     4  10  22  39  62  91 122 158 208 261 314 374
#     4  10  20  37  60  88 121 162 207 253 312 374
#     4  10  21  38  60  90 122 156 209 260 316 376
#
# _framework density 23.064308
#
# number of rings (size 3 to 8) (size 9 to 14) (size 15 to 20)
#    0.000    1.750    1.250    3.375    0.000    9.000 
#    4.500    1.250    0.000    0.000    0.000    0.000 
#    0.000    0.000    0.000    0.000    0.000    0.000 
#
# Total GULP energy -89255.500697 kJ/mol
# GULP energy per Si atom -5578.468794 kJ/mol
# Density = 2.301181 g / cm^3
# Si number density = 23.064308 Si / 1000 Ang^3
#
#
#
# Elastic Constant Matrix: (Units=GPa)
#
#
# Indices 1 2 3 4 5 6 
#
# 1 130.1797 31.6233 49.6750 9.9900 -6.0350 17.3894
# 2 31.6233 61.4520 31.1445 29.3745 8.0820 24.1987
# 3 49.6750 31.1445 111.9069 26.3848 3.8182 7.6275
# 4 9.9900 29.3745 26.3848 45.9908 2.0938 8.8544
# 5 -6.0350 8.0820 3.8182 2.0938 40.1688 1.4136
# 6 17.3894 24.1987 7.6275 8.8544 1.4136 32.5906
#
#
#
# Elastic Compliance Matrix: (Units=1/GPa)
#
#
# Indices 1 2 3 4 5 6 
#
# 1 0.010503 -0.004159 -0.004163 0.003122 0.002736 -0.002508
# 2 -0.004159 0.036097 -0.002774 -0.016594 -0.006085 -0.019161
# 3 -0.004163 -0.002774 0.012591 -0.005027 -0.001099 0.002747
# 4 0.003122 -0.016594 -0.005027 0.033956 0.002428 0.002502
# 5 0.002736 -0.006085 -0.001099 0.002428 0.026455 0.001508
# 6 -0.002508 -0.019161 0.002747 0.002502 0.001508 0.044861
#
#
# Mechanical properties :
#
#
# Convention : Reuss Voigt Hill
#
# Bulk Modulus (GPa) = 27.02766 58.71382 42.87074
# Shear Modulus (GPa) = 25.12706 36.48976 30.80841
#
# Velocity S-wave (km/s) = 3.30424 3.98186 3.65877
# Velocity P-wave (km/s) = 5.12847 6.83024 6.03959
#
# Compressibility (1/GPa) = 0.03699913
#
# Stress axis : x y z
#
# Youngs Moduli (GPa) = 95.21083 27.70327 79.41994
#
# Poissons Ratio (x) = 0.11523 0.33063
# Poissons Ratio (y) = 0.39602 0.22027
# Poissons Ratio (z) = 0.39637 0.07684
#
# Static dielectric constant tensor:
#      x y z
#    x 1.866620 0.005280 -0.022620 
#    y 0.005280 1.962050 -0.072470 
#    z -0.022620 -0.072470 1.916840 
# 
# From -- ./inp_files/120431.got.cif
#   From: 2010.05.17/outbox.cif.g08.bks.cpg/sg2_61_cif.got.tgz:120431.got - 2010.06.03 11:33:40.
