data_PCOD9099243
_publ_section_title
;
Structure prediction by ZEFSAII (Michael W. Deem and Ramdas Pophale) SiO2 
 PCOD9099243
Probable space group: P -1
;
_chemical_formula_sum "Si O2"
_cell_formula_units_Z 14
_cell_length_a 17.734639
_cell_length_b 9.441422
_cell_length_c 5.056256
_cell_angle_alpha 46.136834
_cell_angle_beta 64.875254
_cell_angle_gamma 84.777810
_cell_volume 525.200147
_symmetry_space_group_name_H-M "P -1"
_symmetry_group_IT_number 2
_symmetry_cell_setting 'triclinic'
loop_
_space_group_symop_operation_xyz
x,y,z
-x,-y,-z
loop_
_atom_site_type_symbol
_atom_site_label
_atom_site_fract_x
_atom_site_fract_y
_atom_site_fract_z
Si Si1 0.319978 0.896360 0.539545
Si Si2 0.468911 0.721904 0.589373
Si Si3 0.052016 0.958578 0.725139
Si Si4 0.158328 0.753016 0.569746
Si Si5 0.775240 0.524994 0.457169
Si Si6 0.602554 0.547864 0.455171
Si Si7 0.794291 0.876570 0.385857
O O1 0.419429 0.890028 0.391206
O O2 0.254564 0.836520 0.460992
O O3 0.299236 0.091093 0.452875
O O4 0.276020 0.696437 0.048047
O O5 0.569582 0.737699 0.356639
O O6 0.422166 0.537811 0.690248
O O7 0.448086 0.638533 0.025933
O O8 0.079913 0.753939 0.884154
O O9 0.149697 0.108093 0.451136
O O10 0.000000 0.000000 0.500000
O O11 0.000000 0.000000 0.000000
O O12 0.150197 0.531918 0.743525
O O13 0.159064 0.918905 0.125259
O O14 0.703138 0.578211 0.316464
O O15 0.797451 0.685973 0.453130
#
# Coordination Sequence:
#
# PCOD9099243 Si02
#       7
#     2   2   2   2   2   2   2
#     4   9  19  35  57  85 121 162 199 243 286 352
#     4   9  16  31  53  81 114 159 201 235 292 333
#     4  11  22  43  66  86 119 156 190 238 299 359
#     4  10  20  38  64  86 120 156 192 240 296 353
#     4  10  20  37  59  93 118 155 203 244 290 348
#     4   9  17  30  54  82 115 155 198 245 281 342
#     4  10  22  38  63  91 119 154 194 247 294 349
#
# _framework density 26.656506
#
# number of rings (size 3 to 8) (size 9 to 14) (size 15 to 20)
#    0.000    2.286    2.857    0.000    0.000    2.286 
#    0.000    2.143    0.000    0.857    0.000    0.000 
#    0.000    0.000    0.000    0.000    0.000    0.000 
#
# Total GULP energy -78289.437536 kJ/mol
# GULP energy per Si atom -5592.102681 kJ/mol
# Density = 2.659583 g / cm^3
# Si number density = 26.656506 Si / 1000 Ang^3
#
#
#
# Elastic Constant Matrix: (Units=GPa)
#
#
# Indices 1 2 3 4 5 6 
#
# 1 158.3833 84.2329 29.0419 18.8947 21.7151 -26.3611
# 2 84.2329 242.9915 29.3973 -2.1665 14.0517 -52.2305
# 3 29.0419 29.3973 64.1814 -2.1969 18.3087 -15.0294
# 4 18.8947 -2.1665 -2.1969 34.0870 -6.3022 5.0040
# 5 21.7151 14.0517 18.3087 -6.3022 37.1454 16.6043
# 6 -26.3611 -52.2305 -15.0294 5.0040 16.6043 69.1057
#
#
#
# Elastic Compliance Matrix: (Units=1/GPa)
#
#
# Indices 1 2 3 4 5 6 
#
# 1 0.010571 -0.002072 -0.000366 -0.008424 -0.008945 0.005146
# 2 -0.002072 0.005951 0.000128 0.000322 -0.003034 0.004441
# 3 -0.000366 0.000128 0.021772 -0.002340 -0.014717 0.008398
# 4 -0.008424 0.000322 -0.002340 0.038571 0.017145 -0.010391
# 5 -0.008945 -0.003034 -0.014717 0.017145 0.053772 -0.023067
# 6 0.005146 0.004441 0.008398 -0.010391 -0.023067 0.027911
#
#
# Mechanical properties :
#
#
# Convention : Reuss Voigt Hill
#
# Bulk Modulus (GPa) = 29.69563 83.43336 56.56450
# Shear Modulus (GPa) = 28.67102 49.59323 39.13212
#
# Velocity S-wave (km/s) = 3.28315 4.31798 3.83562
# Velocity P-wave (km/s) = 5.05335 7.49849 6.39389
#
# Compressibility (1/GPa) = 0.03367499
#
# Stress axis : x y z
#
# Youngs Moduli (GPa) = 94.60269 168.04224 45.92974
#
# Poissons Ratio (x) = 0.34813 0.01680
# Poissons Ratio (y) = 0.19599 -0.00588
# Poissons Ratio (z) = 0.03460 -0.02152
#
# Static dielectric constant tensor:
#      x y z
#    x 2.083270 -0.062190 -0.047940 
#    y -0.062190 2.102100 0.034940 
#    z -0.047940 0.034940 2.236250 
# 
# From -- ./inp_files/7971.got.cif
#   From: 2010.05.17/outbox.cif.g08.bks.cpg/sg2_4_cif.got.tgz:7971.got - 2010.06.03 11:33:40.
