data_PCOD9099342
_publ_section_title
;
Structure prediction by ZEFSAII (Michael W. Deem and Ramdas Pophale) SiO2 
 PCOD9099342
Probable space group: P -1
;
_chemical_formula_sum "Si O2"
_cell_formula_units_Z 14
_cell_length_a 9.610160
_cell_length_b 12.129960
_cell_length_c 8.004379
_cell_angle_alpha 144.256425
_cell_angle_beta 84.949121
_cell_angle_gamma 103.945339
_cell_volume 519.392131
_symmetry_space_group_name_H-M "P -1"
_symmetry_group_IT_number 2
_symmetry_cell_setting 'triclinic'
loop_
_space_group_symop_operation_xyz
x,y,z
-x,-y,-z
loop_
_atom_site_type_symbol
_atom_site_label
_atom_site_fract_x
_atom_site_fract_y
_atom_site_fract_z
Si Si1 0.831955 0.481920 0.594094
Si Si2 0.194398 0.614101 0.191131
Si Si3 0.477249 0.123932 0.451005
Si Si4 0.491984 0.552858 0.376787
Si Si5 0.805705 0.833742 0.340101
Si Si6 0.297207 0.686038 0.947741
Si Si7 0.991211 0.926363 0.106250
O O1 0.876878 0.362561 0.594639
O O2 0.681227 0.521710 0.732035
O O3 0.772105 0.370584 0.294673
O O4 0.947771 0.689094 0.800451
O O5 0.357838 0.767556 0.382654
O O6 0.161117 0.375204 0.892468
O O7 0.169394 0.675684 0.082121
O O8 0.462882 0.217212 0.387461
O O9 0.366228 0.192429 0.666412
O O10 0.421728 0.891812 0.173341
O O11 0.500000 0.500000 0.500000
O O12 0.616457 0.466340 0.183483
O O13 0.872349 0.933970 0.278606
O O14 0.867145 0.963684 0.661936
O O15 0.000000 0.000000 0.000000
#
# Coordination Sequence:
#
# PCOD9099342 Si02
#       7
#     2   2   2   2   2   2   2
#     4   9  21  37  59  90 119 160 206 246 297 359
#     4  10  20  37  60  85 125 158 191 246 303 357
#     4  11  22  37  61  96 125 157 199 245 308 369
#     4   9  20  35  59  90 123 158 191 241 302 357
#     4  10  21  39  61  88 123 156 202 258 293 355
#     4  11  21  37  61  92 130 156 192 248 304 364
#     4  10  21  37  64  89 112 163 215 244 298 356
#
# _framework density 26.954588000000001
#
# number of rings (size 3 to 8) (size 9 to 14) (size 15 to 20)
#    0.000    2.000    1.429    1.714    6.000    5.143 
#    0.000    2.143    0.000   12.000    0.000    0.000 
#    0.000    0.000    0.000    0.000    0.000    0.000 
#
# Total GULP energy -78095.402676 kJ/mol
# GULP energy per Si atom -5578.243048 kJ/mol
# Density = 2.689324 g / cm^3
# Si number density = 26.954588 Si / 1000 Ang^3
#
#
#
# Elastic Constant Matrix: (Units=GPa)
#
#
# Indices 1 2 3 4 5 6 
#
# 1 95.3758 18.8770 16.4335 4.9557 16.0495 23.5188
# 2 18.8770 270.7671 79.3673 -13.8956 17.9914 4.8680
# 3 16.4335 79.3673 139.3991 -6.0854 19.6694 -3.9947
# 4 4.9557 -13.8956 -6.0854 57.1962 1.2426 -1.4978
# 5 16.0495 17.9914 19.6694 1.2426 35.7917 0.1053
# 6 23.5188 4.8680 -3.9947 -1.4978 0.1053 36.0121
#
#
#
# Elastic Compliance Matrix: (Units=1/GPa)
#
#
# Indices 1 2 3 4 5 6 
#
# 1 0.014007 -0.000201 -0.001093 -0.001502 -0.005500 -0.009288
# 2 -0.000201 0.004531 -0.002413 0.000862 -0.000889 -0.000710
# 3 -0.001093 -0.002413 0.009244 0.000621 -0.003405 0.002101
# 4 -0.001502 0.000862 0.000621 0.017949 -0.000729 0.001682
# 5 -0.005500 -0.000889 -0.003405 -0.000729 0.032740 0.003208
# 6 -0.009288 -0.000710 0.002101 0.001682 0.003208 0.034224
#
#
# Mechanical properties :
#
#
# Convention : Reuss Voigt Hill
#
# Bulk Modulus (GPa) = 49.09579 81.65528 65.37553
# Shear Modulus (GPa) = 39.40205 51.85761 45.62983
#
# Velocity S-wave (km/s) = 3.82749 4.39097 4.11888
# Velocity P-wave (km/s) = 6.14709 7.48779 6.85032
#
# Compressibility (1/GPa) = 0.02036835
#
# Stress axis : x y z
#
# Youngs Moduli (GPa) = 71.39408 220.71921 108.17697
#
# Poissons Ratio (x) = 0.04435 0.11819
# Poissons Ratio (y) = 0.01435 0.26105
# Poissons Ratio (z) = 0.07800 0.53262
#
# Static dielectric constant tensor:
#      x y z
#    x 2.301460 -0.013990 -0.086980 
#    y -0.013990 2.204500 -0.108600 
#    z -0.086980 -0.108600 2.166130 
# 
# From -- ./inp_files/261065.got.cif
#   From: 2010.05.17/outbox.cif.g08.bks.cpg/sg2_131_cif.got.tgz:261065.got - 2010.06.03 11:33:40.
