data_PCOD9099560
_publ_section_title
;
Structure prediction by ZEFSAII (Michael W. Deem and Ramdas Pophale) SiO2 
 PCOD9099560
Probable space group: P -1
;
_chemical_formula_sum "Si O2"
_cell_formula_units_Z 12
_cell_length_a 21.478343
_cell_length_b 12.110568
_cell_length_c 8.240454
_cell_angle_alpha 143.455621
_cell_angle_beta 154.725792
_cell_angle_gamma 28.974700
_cell_volume 442.536710
_symmetry_space_group_name_H-M "P -1"
_symmetry_group_IT_number 2
_symmetry_cell_setting 'triclinic'
loop_
_space_group_symop_operation_xyz
x,y,z
-x,-y,-z
loop_
_atom_site_type_symbol
_atom_site_label
_atom_site_fract_x
_atom_site_fract_y
_atom_site_fract_z
Si Si1 0.747084 0.593476 0.629555
Si Si2 0.165956 0.273752 0.327086
Si Si3 0.688825 0.982656 0.150004
Si Si4 0.888108 0.327460 0.146423
Si Si5 0.657719 0.200217 0.651551
Si Si6 0.349349 0.621112 0.627977
O O1 0.725993 0.704767 0.537623
O O2 0.664316 0.457112 0.318909
O O3 0.666869 0.793372 0.809962
O O4 0.961173 0.412846 0.945901
O O5 0.163334 0.421617 0.643646
O O6 0.242679 0.019102 0.256702
O O7 0.900860 0.843820 0.526769
O O8 0.594940 0.123980 0.258400
O O9 0.647480 0.160703 0.121346
O O10 0.785569 0.266503 0.957799
O O11 0.833762 0.304696 0.812092
O O12 0.493172 0.420109 0.610663
#
# Coordination Sequence:
#
# PCOD9099560 Si02
#       6
#     2   2   2   2   2   2
#     4  10  22  39  58  81 110 146 186 226 270 323
#     4  10  22  39  58  81 110 146 186 226 270 323
#     4  10  20  37  61  83 107 143 187 229 268 320
#     4  10  20  37  61  83 107 143 187 229 268 320
#     4  11  22  36  57  84 114 144 179 227 277 325
#     4  11  22  36  57  84 114 144 179 227 277 325
#
# _framework density 27.116396000000002
#
# number of rings (size 3 to 8) (size 9 to 14) (size 15 to 20)
#    0.000    1.667    0.000    7.000    0.000    8.667 
#    0.000    6.667    0.000    0.000    0.000    0.000 
#    0.000    0.000    0.000    0.000    0.000    0.000 
#
# Total GULP energy -67405.627927 kJ/mol
# GULP energy per Si atom -5617.135661 kJ/mol
# Density = 2.705468 g / cm^3
# Si number density = 27.116396 Si / 1000 Ang^3
#
#
#
# Elastic Constant Matrix: (Units=GPa)
#
#
# Indices 1 2 3 4 5 6 
#
# 1 135.9751 25.1489 24.9723 -1.7549 20.8470 26.4564
# 2 25.1489 149.7717 23.6968 2.1771 8.1605 24.9177
# 3 24.9723 23.6968 74.0077 2.0580 7.4397 -3.1797
# 4 -1.7549 2.1771 2.0580 33.9028 4.5132 1.3565
# 5 20.8470 8.1605 7.4397 4.5132 45.1415 5.9193
# 6 26.4564 24.9177 -3.1797 1.3565 5.9193 51.4146
#
#
#
# Elastic Compliance Matrix: (Units=1/GPa)
#
#
# Indices 1 2 3 4 5 6 
#
# 1 0.009352 -0.000174 -0.002998 0.001303 -0.003325 -0.004565
# 2 -0.000174 0.007761 -0.002545 -0.000149 -0.000392 -0.003780
# 3 -0.002998 -0.002545 0.015648 -0.000944 -0.001152 0.003901
# 4 0.001303 -0.000149 -0.000944 0.030111 -0.003289 -0.001072
# 5 -0.003325 -0.000392 -0.001152 -0.003289 0.024395 -0.000892
# 6 -0.004565 -0.003780 0.003901 -0.001072 -0.000892 0.024003
#
#
# Mechanical properties :
#
#
# Convention : Reuss Voigt Hill
#
# Bulk Modulus (GPa) = 46.88949 56.37673 51.63311
# Shear Modulus (GPa) = 38.51693 45.15420 41.83556
#
# Velocity S-wave (km/s) = 3.77295 4.08511 3.93213
# Velocity P-wave (km/s) = 6.02575 6.56404 6.30065
#
# Compressibility (1/GPa) = 0.02132674
#
# Stress axis : x y z
#
# Youngs Moduli (GPa) = 106.93138 128.84573 63.90501
#
# Poissons Ratio (x) = 0.02246 0.19158
# Poissons Ratio (y) = 0.01864 0.16264
# Poissons Ratio (z) = 0.32056 0.32792
#
# Static dielectric constant tensor:
#      x y z
#    x 2.099230 0.019050 -0.000900 
#    y 0.019050 2.048920 -0.075540 
#    z -0.000900 -0.075540 2.151280 
# 
# From -- ./inp_files/150322.got.cif
#   From: 2010.05.17/outbox.cif.g08.bks.cpg/sg2_76_cif.got.tgz:150322.got - 2010.06.03 11:33:40.
