data_PCOD9099652
_publ_section_title
;
Structure prediction by ZEFSAII (Michael W. Deem and Ramdas Pophale) SiO2 
 PCOD9099652
Probable space group: P -1
;
_chemical_formula_sum "Si O2"
_cell_formula_units_Z 16
_cell_length_a 15.681176
_cell_length_b 15.195786
_cell_length_c 15.225901
_cell_angle_alpha 37.755483
_cell_angle_beta 160.000564
_cell_angle_gamma 139.676853
_cell_volume 756.487578
_symmetry_space_group_name_H-M "P -1"
_symmetry_group_IT_number 2
_symmetry_cell_setting 'triclinic'
loop_
_space_group_symop_operation_xyz
x,y,z
-x,-y,-z
loop_
_atom_site_type_symbol
_atom_site_label
_atom_site_fract_x
_atom_site_fract_y
_atom_site_fract_z
Si Si1 0.718279 0.272441 0.685340
Si Si2 0.460831 0.441745 0.778881
Si Si3 0.159438 0.260580 0.478276
Si Si4 0.422811 0.172515 0.057381
Si Si5 0.876811 0.508875 0.002605
Si Si6 0.064328 0.940661 0.436740
Si Si7 0.264386 0.998228 0.207798
Si Si8 0.332520 0.239166 0.486024
O O1 0.599937 0.393165 0.415046
O O2 0.537784 0.206103 0.639734
O O3 0.934623 0.364088 0.875810
O O4 0.774949 0.144527 0.777974
O O5 0.289744 0.354960 0.608359
O O6 0.436844 0.344827 0.918201
O O7 0.735319 0.442350 0.003654
O O8 0.363563 0.224597 0.632176
O O9 0.993955 0.373764 0.180077
O O10 0.992827 0.131268 0.465998
O O11 0.686726 0.118572 0.319897
O O12 0.349716 0.126588 0.121242
O O13 0.186406 0.103399 0.826226
O O14 0.700975 0.594640 0.702933
O O15 0.111081 0.113146 0.353483
O O16 0.500000 0.000000 0.500000
O O17 0.000000 0.000000 0.000000
#
# Coordination Sequence:
#
# PCOD9099652 Si02
#       8
#     2   2   2   2   2   2   2   2
#     4  10  23  41  63  92 126 170 212 259 328 374
#     4   9  21  39  65  87 131 172 212 258 303 386
#     4  10  21  37  55  96 127 176 222 259 302 357
#     4  11  22  45  68  94 126 171 208 256 334 373
#     4  10  20  37  61  87 126 175 216 259 306 373
#     4  11  22  40  64  92 133 173 216 257 309 381
#     4  12  27  46  73 100 126 155 208 270 327 397
#     4  11  22  35  59  89 133 173 218 267 305 369
#
# _framework density 21.150379999999998
#
# number of rings (size 3 to 8) (size 9 to 14) (size 15 to 20)
#    0.000    1.500    2.500    2.250    3.500    5.500 
#    0.000    3.125    0.000    0.000    0.000    0.000 
#    0.000    0.000    0.000    0.000    0.000    0.000 
#
# Total GULP energy -89215.786685 kJ/mol
# GULP energy per Si atom -5575.986668 kJ/mol
# Density = 2.110224 g / cm^3
# Si number density = 21.150380 Si / 1000 Ang^3
#
#
#
# Elastic Constant Matrix: (Units=GPa)
#
#
# Indices 1 2 3 4 5 6 
#
# 1 148.3153 19.1458 47.7559 -11.9408 46.0052 42.0246
# 2 19.1458 23.4987 28.1947 9.7545 79.5329 56.6075
# 3 47.7559 28.1947 68.0703 -5.1259 -3.0844 6.1857
# 4 -11.9408 9.7545 -5.1259 23.8646 -14.8036 -4.5556
# 5 46.0052 79.5329 -3.0844 -14.8036 -46.6071 -22.1759
# 6 42.0246 56.6075 6.1857 -4.5556 -22.1759 28.4250
#
#
#
# Elastic Compliance Matrix: (Units=1/GPa)
#
#
# Indices 1 2 3 4 5 6 
#
# 1 0.009304 -0.004270 -0.004035 0.005948 0.001387 -0.002338
# 2 -0.004270 0.009301 0.000015 0.001287 0.012368 -0.002357
# 3 -0.004035 0.000015 0.017358 -0.001114 -0.004153 -0.001260
# 4 0.005948 0.001287 -0.001114 0.041606 -0.002157 -0.006130
# 5 0.001387 0.012368 -0.004153 -0.002157 0.010507 -0.017925
# 6 -0.002338 -0.002357 -0.001260 -0.006130 -0.017925 0.028638
#
#
# Mechanical properties :
#
#
# Convention : Reuss Voigt Hill
#
# Bulk Modulus (GPa) = 51.59591 47.78636 49.69114
# Shear Modulus (GPa) = 35.77682 10.78901 23.28292
#
# Velocity S-wave (km/s) = 4.11730 2.26101 3.32147
# Velocity P-wave (km/s) = 6.85935 5.42761 6.18504
#
# Compressibility (1/GPa) = 0.01938138
#
# Stress axis : x y z
#
# Youngs Moduli (GPa) = 107.47940 107.51816 57.61018
#
# Poissons Ratio (x) = 0.45914 0.23249
# Poissons Ratio (y) = 0.45897 -0.00087
# Poissons Ratio (z) = 0.43373 -0.00162
#
# Static dielectric constant tensor:
#      x y z
#    x 1.766690 0.010180 -0.002510 
#    y 0.010180 1.786520 -0.050350 
#    z -0.002510 -0.050350 1.892960 
# 
# From -- ./inp_files/53134.got.cif
#   From: 2010.05.17/outbox.cif.g08.bks.cpg/sg2_27_cif.got.tgz:53134.got - 2010.06.03 11:33:40.
