data_PCOD9099615
_publ_section_title
;
Structure prediction by ZEFSAII (Michael W. Deem and Ramdas Pophale) SiO2 
 PCOD9099615
Probable space group: P -1
;
_chemical_formula_sum "Si O2"
_cell_formula_units_Z 16
_cell_length_a 14.606014
_cell_length_b 9.453743
_cell_length_c 27.325221
_cell_angle_alpha 41.268574
_cell_angle_beta 160.979487
_cell_angle_gamma 141.837091
_cell_volume 759.174023
_symmetry_space_group_name_H-M "P -1"
_symmetry_group_IT_number 2
_symmetry_cell_setting 'triclinic'
loop_
_space_group_symop_operation_xyz
x,y,z
-x,-y,-z
loop_
_atom_site_type_symbol
_atom_site_label
_atom_site_fract_x
_atom_site_fract_y
_atom_site_fract_z
Si Si1 0.841382 0.571095 0.947472
Si Si2 0.725165 0.404252 0.669339
Si Si3 0.823982 0.445299 0.373957
Si Si4 0.908861 0.103993 0.277324
Si Si5 0.307985 0.867520 0.483006
Si Si6 0.193054 0.045265 0.537161
Si Si7 0.132889 0.005130 0.202781
Si Si8 0.308302 0.893594 0.978301
O O1 0.484335 0.510819 0.787608
O O2 0.944277 0.846288 0.918528
O O3 0.874056 0.377977 0.051473
O O4 0.000000 0.500000 0.000000
O O5 0.500000 0.500000 0.500000
O O6 0.511647 0.254939 0.643204
O O7 0.006644 0.631001 0.763631
O O8 0.833378 0.226622 0.739466
O O9 0.000000 0.500000 0.500000
O O10 0.059996 0.620861 0.410665
O O11 0.752462 0.187035 0.388482
O O12 0.000589 0.089101 0.383553
O O13 0.567433 0.949790 0.135944
O O14 0.120492 0.009573 0.375786
O O15 0.545148 0.851499 0.647757
O O16 0.500000 0.000000 0.500000
O O17 0.000000 0.000000 0.500000
O O18 0.909203 0.985557 0.140253
O O19 0.500000 0.000000 0.000000
#
# Coordination Sequence:
#
# PCOD9099615 Si02
#       8
#     2   2   2   2   2   2   2   2
#     4  10  20  37  61  86 121 164 203 264 325 372
#     4  10  20  40  63  86 128 169 209 261 321 383
#     4  12  19  39  66  92 128 162 218 269 322 384
#     4  11  22  42  61  90 135 164 213 267 319 382
#     4  12  23  34  62 100 125 163 216 272 323 377
#     4  11  23  39  64 100 128 169 211 267 324 386
#     4  11  21  40  62  87 128 172 206 261 330 372
#     4  11  24  42  63  95 126 164 215 271 327 382
#
# _framework density 21.075537000000001
#
# number of rings (size 3 to 8) (size 9 to 14) (size 15 to 20)
#    0.000    1.000    7.500    0.750    1.750    0.500 
#    0.000    0.000    0.000    1.500    0.000    0.000 
#    0.000    0.000    0.000    0.000    0.000    0.000 
#
# Total GULP energy -89141.842300 kJ/mol
# GULP energy per Si atom -5571.365144 kJ/mol
# Density = 2.102757 g / cm^3
# Si number density = 21.075537 Si / 1000 Ang^3
#
#
#
# Elastic Constant Matrix: (Units=GPa)
#
#
# Indices 1 2 3 4 5 6 
#
# 1 102.2892 30.6129 25.2363 -9.0497 26.5760 25.0523
# 2 30.6129 123.5994 15.1644 -20.7954 9.3926 22.5842
# 3 25.2363 15.1644 65.7162 -9.4333 33.8448 -7.9616
# 4 -9.0497 -20.7954 -9.4333 35.1361 -0.5611 3.8002
# 5 26.5760 9.3926 33.8448 -0.5611 35.2833 2.9226
# 6 25.0523 22.5842 -7.9616 3.8002 2.9226 30.8579
#
#
#
# Elastic Compliance Matrix: (Units=1/GPa)
#
#
# Indices 1 2 3 4 5 6 
#
# 1 0.016571 0.000410 -0.003270 0.005065 -0.008176 -0.014446
# 2 0.000410 0.011499 -0.003686 0.007096 0.001163 -0.010684
# 3 -0.003270 -0.003686 0.037717 0.004638 -0.034131 0.017745
# 4 0.005065 0.007096 0.004638 0.036346 -0.008600 -0.011770
# 5 -0.008176 0.001163 -0.034131 -0.008600 0.067485 -0.008352
# 6 -0.014446 -0.010684 0.017745 -0.011770 -0.008352 0.058773
#
#
# Mechanical properties :
#
#
# Convention : Reuss Voigt Hill
#
# Bulk Modulus (GPa) = 18.97736 48.18132 33.57934
# Shear Modulus (GPa) = 19.30143 34.96154 27.13149
#
# Velocity S-wave (km/s) = 3.02954 4.07734 3.59185
# Velocity P-wave (km/s) = 4.61101 6.71395 5.75928
#
# Compressibility (1/GPa) = 0.05269437
#
# Stress axis : x y z
#
# Youngs Moduli (GPa) = 60.34670 86.96497 26.51327
#
# Poissons Ratio (x) = -0.03567 0.08671
# Poissons Ratio (y) = -0.02475 0.09773
# Poissons Ratio (z) = 0.19736 0.32054
#
# Static dielectric constant tensor:
#      x y z
#    x 1.758410 0.038310 -0.056360 
#    y 0.038310 1.847750 -0.016470 
#    z -0.056360 -0.016470 1.817140 
# 
# From -- ./inp_files/329055.got.cif
#   From: 2010.05.17/outbox.cif.g08.bks.cpg/sg2_165_cif.got.tgz:329055.got - 2010.06.03 11:33:40.
