data_PCOD9099455
_publ_section_title
;
Structure prediction by ZEFSAII (Michael W. Deem and Ramdas Pophale) SiO2 
 PCOD9099455
Probable space group: P -1
;
_chemical_formula_sum "Si O2"
_cell_formula_units_Z 16
_cell_length_a 12.350442
_cell_length_b 8.105421
_cell_length_c 8.925374
_cell_angle_alpha 112.373012
_cell_angle_beta 97.923588
_cell_angle_gamma 56.324283
_cell_volume 684.455677
_symmetry_space_group_name_H-M "P -1"
_symmetry_group_IT_number 2
_symmetry_cell_setting 'triclinic'
loop_
_space_group_symop_operation_xyz
x,y,z
-x,-y,-z
loop_
_atom_site_type_symbol
_atom_site_label
_atom_site_fract_x
_atom_site_fract_y
_atom_site_fract_z
Si Si1 0.799650 0.043412 0.557035
Si Si2 0.987133 0.919071 0.275680
Si Si3 0.179119 0.037158 0.008847
Si Si4 0.586708 0.505187 0.789439
Si Si5 0.968980 0.500198 0.818896
Si Si6 0.575998 0.037835 0.157002
Si Si7 0.333559 0.551456 0.900177
Si Si8 0.742860 0.726867 0.339844
O O1 0.685869 0.283721 0.653514
O O2 0.926616 0.982804 0.657790
O O3 0.859700 0.027359 0.396509
O O4 0.747435 0.888120 0.512870
O O5 0.940032 0.926739 0.102412
O O6 0.071071 0.671095 0.261375
O O7 0.291327 0.011135 0.911165
O O8 0.245890 0.803264 0.008116
O O9 0.128808 0.256007 0.162947
O O10 0.519335 0.710483 0.740844
O O11 0.469626 0.496251 0.838592
O O12 0.649483 0.544675 0.962812
O O13 0.108858 0.392334 0.732004
O O14 0.000000 0.500000 0.000000
O O15 0.626003 0.891640 0.262222
O O16 0.500000 0.000000 0.000000
O O17 0.276697 0.468936 0.735347
#
# Coordination Sequence:
#
# PCOD9099455 Si02
#       8
#     2   2   2   2   2   2   2   2
#     4  10  21  38  63  85 120 152 197 242 299 341
#     4   9  19  37  62  91 117 147 194 257 287 343
#     4  10  20  37  60  90 120 149 196 244 296 346
#     4  10  23  39  60  85 119 160 196 241 295 341
#     4   9  17  32  61  88 112 144 194 247 292 330
#     4  11  20  34  61  88 111 151 205 247 278 338
#     4  10  23  40  57  85 126 156 195 242 284 353
#     4  11  21  39  59  88 119 155 197 243 289 349
#
# _framework density 23.376239000000002
#
# number of rings (size 3 to 8) (size 9 to 14) (size 15 to 20)
#    0.000    2.000    5.000    0.000    5.250    1.500 
#    0.000    0.625    5.500    0.000    0.000    0.000 
#    0.000    0.000    0.000    0.000    0.000    0.000 
#
# Total GULP energy -89211.157832 kJ/mol
# GULP energy per Si atom -5575.697364 kJ/mol
# Density = 2.332303 g / cm^3
# Si number density = 23.376239 Si / 1000 Ang^3
#
#
#
# Elastic Constant Matrix: (Units=GPa)
#
#
# Indices 1 2 3 4 5 6 
#
# 1 63.1095 3.5169 26.0104 4.7683 28.6024 -8.7039
# 2 3.5169 99.7375 32.9632 33.8544 -7.8400 -5.8799
# 3 26.0104 32.9632 78.7979 37.0661 13.2756 -4.9360
# 4 4.7683 33.8544 37.0661 41.9867 -7.7458 -1.1524
# 5 28.6024 -7.8400 13.2756 -7.7458 38.4689 1.5687
# 6 -8.7039 -5.8799 -4.9360 -1.1524 1.5687 21.9748
#
#
#
# Elastic Compliance Matrix: (Units=1/GPa)
#
#
# Indices 1 2 3 4 5 6 
#
# 1 0.029067 0.000627 -0.003234 -0.004637 -0.021802 0.012267
# 2 0.000627 0.014092 -0.001266 -0.010104 0.000679 0.003156
# 3 -0.003234 -0.001266 0.029732 -0.027278 -0.013794 0.004613
# 4 -0.004637 -0.010104 -0.027278 0.060635 0.023384 -0.009157
# 5 -0.021802 0.000679 -0.013794 0.023384 0.052386 -0.014065
# 6 0.012267 0.003156 0.004613 -0.009157 -0.014065 0.052770
#
#
# Mechanical properties :
#
#
# Convention : Reuss Voigt Hill
#
# Bulk Modulus (GPa) = 15.35030 40.73622 28.04326
# Shear Modulus (GPa) = 18.64682 32.42968 25.53825
#
# Velocity S-wave (km/s) = 2.82739 3.72868 3.30887
# Velocity P-wave (km/s) = 4.15208 6.00013 5.15952
#
# Compressibility (1/GPa) = 0.06514529
#
# Stress axis : x y z
#
# Youngs Moduli (GPa) = 34.40363 70.96357 33.63347
#
# Poissons Ratio (x) = -0.04452 0.10879
# Poissons Ratio (y) = -0.02159 0.04257
# Poissons Ratio (z) = 0.11128 0.08981
#
# Static dielectric constant tensor:
#      x y z
#    x 1.878900 0.025340 0.031220 
#    y 0.025340 1.906670 -0.021240 
#    z 0.031220 -0.021240 1.923840 
# 
# From -- ./inp_files/354381.got.cif
#   From: 2010.05.17/outbox.cif.g08.bks.cpg/sg2_178_cif.got.tgz:354381.got - 2010.06.03 11:33:40.
