data_PCOD9099080
_publ_section_title
;
Structure prediction by ZEFSAII (Michael W. Deem and Ramdas Pophale) SiO2 
 PCOD9099080
Probable space group: P -1
;
_chemical_formula_sum "Si O2"
_cell_formula_units_Z 16
_cell_length_a 6.441178
_cell_length_b 15.606964
_cell_length_c 14.711033
_cell_angle_alpha 39.045259
_cell_angle_beta 59.444699
_cell_angle_gamma 72.452857
_cell_volume 790.259598
_symmetry_space_group_name_H-M "P -1"
_symmetry_group_IT_number 2
_symmetry_cell_setting 'triclinic'
loop_
_space_group_symop_operation_xyz
x,y,z
-x,-y,-z
loop_
_atom_site_type_symbol
_atom_site_label
_atom_site_fract_x
_atom_site_fract_y
_atom_site_fract_z
Si Si1 0.270794 0.421041 0.235926
Si Si2 0.196890 0.601199 0.933766
Si Si3 0.210532 0.953316 0.111781
Si Si4 0.370112 0.755524 0.372329
Si Si5 0.903183 0.140088 0.508203
Si Si6 0.780228 0.083784 0.371816
Si Si7 0.919553 0.804494 0.133008
Si Si8 0.009937 0.497422 0.610545
O O1 0.546606 0.407265 0.165316
O O2 0.101680 0.277802 0.364186
O O3 0.213187 0.453015 0.326916
O O4 0.203238 0.536591 0.086319
O O5 0.178758 0.763526 0.807353
O O6 0.000000 0.500000 0.000000
O O7 0.189110 0.836674 0.287984
O O8 0.106920 0.881998 0.100840
O O9 0.500000 0.000000 0.000000
O O10 0.090405 0.090191 0.034737
O O11 0.339092 0.821890 0.421915
O O12 0.647180 0.782500 0.255159
O O13 0.250991 0.597495 0.512217
O O14 0.842697 0.112128 0.440243
O O15 0.027080 0.013640 0.622405
O O16 0.500000 0.000000 0.500000
O O17 0.984026 0.655466 0.229202
O O18 0.000000 0.500000 0.500000
#
# Coordination Sequence:
#
# PCOD9099080 Si02
#       8
#     2   2   2   2   2   2   2   2
#     4  10  23  41  64  92 127 162 206 259 307 378
#     4  11  22  43  66  92 126 165 207 256 325 368
#     4   9  19  37  58  78 113 159 200 251 297 347
#     4  10  21  38  60  87 123 159 199 254 304 366
#     4  10  22  38  60  95 120 154 207 251 313 375
#     4  11  22  39  66  90 121 158 203 264 310 376
#     4  10  20  37  59  84 117 162 204 248 303 360
#     4  11  22  40  62  93 126 162 208 254 304 364
#
# _framework density 20.246511000000002
#
# number of rings (size 3 to 8) (size 9 to 14) (size 15 to 20)
#    0.000    1.750    3.750    0.375    0.000    3.000 
#    2.250    6.250    0.000    0.000    0.000    0.000 
#    0.000    0.000    0.000    0.000    0.000    0.000 
#
# Total GULP energy -89197.898496 kJ/mol
# GULP energy per Si atom -5574.868656 kJ/mol
# Density = 2.020043 g / cm^3
# Si number density = 20.246511 Si / 1000 Ang^3
#
#
#
# Elastic Constant Matrix: (Units=GPa)
#
#
# Indices 1 2 3 4 5 6 
#
# 1 56.1933 29.7396 16.5751 -11.6494 -3.2776 -0.4910
# 2 29.7396 106.2561 32.9560 -12.6721 0.3422 5.8707
# 3 16.5751 32.9560 80.5678 -35.9367 6.0123 -0.2914
# 4 -11.6494 -12.6721 -35.9367 49.8001 -6.0607 3.9982
# 5 -3.2776 0.3422 6.0123 -6.0607 29.1547 -2.1233
# 6 -0.4910 5.8707 -0.2914 3.9982 -2.1233 16.3694
#
#
#
# Elastic Compliance Matrix: (Units=1/GPa)
#
#
# Indices 1 2 3 4 5 6 
#
# 1 0.021952 -0.005570 -0.001072 0.003194 0.003587 0.002322
# 2 -0.005570 0.012462 -0.004371 -0.000972 -0.000403 -0.004529
# 3 -0.001072 -0.004371 0.020492 0.013352 -0.001634 -0.001573
# 4 0.003194 -0.000972 0.013352 0.031175 0.003627 -0.006462
# 5 0.003587 -0.000403 -0.001634 0.003627 0.036092 0.004019
# 6 0.002322 -0.004529 -0.001573 -0.006462 0.004019 0.064855
#
#
# Mechanical properties :
#
#
# Convention : Reuss Voigt Hill
#
# Bulk Modulus (GPa) = 30.41529 44.61761 37.51645
# Shear Modulus (GPa) = 22.72574 29.98126 26.35350
#
# Velocity S-wave (km/s) = 3.35394 3.85231 3.61173
# Velocity P-wave (km/s) = 5.48212 6.47086 5.99690
#
# Compressibility (1/GPa) = 0.03287820
#
# Stress axis : x y z
#
# Youngs Moduli (GPa) = 45.55457 80.24602 48.79870
#
# Poissons Ratio (x) = 0.44700 0.05232
# Poissons Ratio (y) = 0.25376 0.21331
# Poissons Ratio (z) = 0.04884 0.35077
#
# Static dielectric constant tensor:
#      x y z
#    x 1.713480 -0.019600 0.038600 
#    y -0.019600 1.762270 0.012650 
#    z 0.038600 0.012650 1.787510 
# 
# From -- ./inp_files/98388.got.cif
#   From: 2010.05.17/outbox.cif.g08.bks.cpg/sg2_50_cif.got.tgz:98388.got - 2010.06.03 11:33:40.
