data_PCOD9099636
_publ_section_title
;
Structure prediction by ZEFSAII (Michael W. Deem and Ramdas Pophale) SiO2 
 PCOD9099636
Probable space group: P -1
;
_chemical_formula_sum "Si O2"
_cell_formula_units_Z 14
_cell_length_a 7.285881
_cell_length_b 12.351481
_cell_length_c 15.861944
_cell_angle_alpha 155.588920
_cell_angle_beta 113.868191
_cell_angle_gamma 63.054338
_cell_volume 525.763587
_symmetry_space_group_name_H-M "P -1"
_symmetry_group_IT_number 2
_symmetry_cell_setting 'triclinic'
loop_
_space_group_symop_operation_xyz
x,y,z
-x,-y,-z
loop_
_atom_site_type_symbol
_atom_site_label
_atom_site_fract_x
_atom_site_fract_y
_atom_site_fract_z
Si Si1 0.141130 0.577983 0.883005
Si Si2 0.413623 0.514999 0.674276
Si Si3 0.686998 0.112551 0.325806
Si Si4 0.275465 0.008203 0.100286
Si Si5 0.558904 0.284845 0.720174
Si Si6 0.994118 0.775191 0.268342
Si Si7 0.994253 0.595072 0.440764
O O1 0.158741 0.851117 0.033391
O O2 0.379251 0.457270 0.865194
O O3 0.010389 0.504258 0.883590
O O4 0.863174 0.698753 0.729090
O O5 0.576664 0.398538 0.551211
O O6 0.315863 0.827669 0.894313
O O7 0.523060 0.415654 0.712965
O O8 0.781371 0.621767 0.469784
O O9 0.794566 0.257344 0.767038
O O10 0.873564 0.186679 0.361188
O O11 0.793296 0.899800 0.264831
O O12 0.504101 0.018481 0.179469
O O13 0.500000 0.000000 0.500000
O O14 0.924452 0.595661 0.330182
O O15 0.000000 0.000000 0.500000
#
# Coordination Sequence:
#
# PCOD9099636 Si02
#       7
#     2   2   2   2   2   2   2
#     4  10  20  37  60  85 121 156 196 245 296 356
#     4  10  21  39  61  86 118 161 199 238 307 352
#     4  12  23  39  64  90 121 158 200 250 298 354
#     4  10  24  41  59  92 124 154 203 251 293 353
#     4  10  16  31  56  85 113 148 196 237 284 353
#     4  12  19  34  61  92 113 159 201 236 301 360
#     4  10  20  41  64  86 121 161 199 247 298 355
#
# _framework density 26.627938
#
# number of rings (size 3 to 8) (size 9 to 14) (size 15 to 20)
#    0.000    1.714    4.286    3.000    0.000    1.714 
#    0.000   11.429    0.000    0.857    0.000    0.000 
#    0.000    0.000    0.000    0.000    0.000    0.000 
#
# Total GULP energy -78425.529450 kJ/mol
# GULP energy per Si atom -5601.823532 kJ/mol
# Density = 2.656733 g / cm^3
# Si number density = 26.627938 Si / 1000 Ang^3
#
#
#
# Elastic Constant Matrix: (Units=GPa)
#
#
# Indices 1 2 3 4 5 6 
#
# 1 163.1462 48.7126 19.9787 0.1279 22.4688 -18.7608
# 2 48.7126 83.6255 36.4440 3.1764 9.3480 -26.7599
# 3 19.9787 36.4440 74.0661 1.0697 18.2919 12.1487
# 4 0.1279 3.1764 1.0697 44.4620 2.1486 10.8265
# 5 22.4688 9.3480 18.2919 2.1486 42.4834 0.3477
# 6 -18.7608 -26.7599 12.1487 10.8265 0.3477 42.6555
#
#
#
# Elastic Compliance Matrix: (Units=1/GPa)
#
#
# Indices 1 2 3 4 5 6 
#
# 1 0.007896 -0.004514 0.000925 0.000376 -0.003602 0.000311
# 2 -0.004514 0.030245 -0.018480 -0.007783 0.003885 0.024196
# 3 0.000925 -0.018480 0.027728 0.006066 -0.008500 -0.020555
# 4 0.000376 -0.007783 0.006066 0.026196 -0.002316 -0.013075
# 5 -0.003602 0.003885 -0.008500 -0.002316 0.028336 0.003630
# 6 0.000311 0.024196 -0.020555 -0.013075 0.003630 0.047903
#
#
# Mechanical properties :
#
#
# Convention : Reuss Voigt Hill
#
# Bulk Modulus (GPa) = 46.02024 59.01201 52.51612
# Shear Modulus (GPa) = 22.75967 40.30036 31.53001
#
# Velocity S-wave (km/s) = 2.92675 3.89454 3.44480
# Velocity P-wave (km/s) = 5.36109 6.51407 5.96550
#
# Compressibility (1/GPa) = 0.02172957
#
# Stress axis : x y z
#
# Youngs Moduli (GPa) = 126.65058 33.06306 36.06431
#
# Poissons Ratio (x) = 0.14925 -0.03334
# Poissons Ratio (y) = 0.57172 0.66647
# Poissons Ratio (z) = -0.11709 0.61101
#
# Static dielectric constant tensor:
#      x y z
#    x 2.048930 0.032460 -0.003320 
#    y 0.032460 2.069510 -0.008590 
#    z -0.003320 -0.008590 2.097550 
# 
# From -- ./inp_files/559411.got.cif
#   From: 2010.05.17/outbox.cif.g08.bks.cpg/sg2_280_cif.got.tgz:559411.got - 2010.06.03 11:33:40.
