data_PCOD9099416
_publ_section_title
;
Structure prediction by ZEFSAII (Michael W. Deem and Ramdas Pophale) SiO2 
 PCOD9099416
Probable space group: P -1
;
_chemical_formula_sum "Si O2"
_cell_formula_units_Z 16
_cell_length_a 8.698571
_cell_length_b 21.902507
_cell_length_c 5.217028
_cell_angle_alpha 52.334156
_cell_angle_beta 59.230811
_cell_angle_gamma 50.544680
_cell_volume 595.020063
_symmetry_space_group_name_H-M "P -1"
_symmetry_group_IT_number 2
_symmetry_cell_setting 'triclinic'
loop_
_space_group_symop_operation_xyz
x,y,z
-x,-y,-z
loop_
_atom_site_type_symbol
_atom_site_label
_atom_site_fract_x
_atom_site_fract_y
_atom_site_fract_z
Si Si1 0.285955 0.073486 0.616434
Si Si2 0.716989 0.276547 0.381292
Si Si3 0.200188 0.623855 0.542228
Si Si4 0.587202 0.557666 0.041486
Si Si5 0.220118 0.351030 0.061562
Si Si6 0.194705 0.007490 0.388193
Si Si7 0.521764 0.185023 0.490872
Si Si8 0.852447 0.754606 0.989830
O O1 0.223675 0.174203 0.361423
O O2 0.500000 0.000000 0.500000
O O3 0.146370 0.057881 0.567833
O O4 0.252588 0.051510 0.988857
O O5 0.781969 0.294957 0.557424
O O6 0.668307 0.200169 0.527345
O O7 0.919884 0.264532 0.086659
O O8 0.499982 0.364182 0.291298
O O9 0.373312 0.579579 0.298082
O O10 0.286071 0.543220 0.886075
O O11 0.972547 0.643245 0.628924
O O12 0.732352 0.572574 0.083867
O O13 0.433425 0.266134 0.163908
O O14 0.158102 0.330651 0.889603
O O15 0.372076 0.907260 0.502158
O O16 0.000000 0.000000 0.500000
O O17 0.325868 0.196852 0.782125
#
# Coordination Sequence:
#
# PCOD9099416 Si02
#       8
#     2   2   2   2   2   2   2   2
#     4  12  25  46  71  99 136 182 231 281 345 408
#     4  10  22  39  58  94 121 167 212 266 329 394
#     4  10  20  37  61  87 123 162 209 262 321 394
#     4  10  20  37  60  88 123 163 207 263 322 392
#     4  10  22  38  59  92 122 165 210 266 327 395
#     4  12  27  47  70 102 137 181 232 285 344 410
#     4  11  23  41  64  89 130 168 216 275 332 397
#     4  11  23  40  65  89 129 170 217 274 330 398
#
# _framework density 26.889852000000001
#
# number of rings (size 3 to 8) (size 9 to 14) (size 15 to 20)
#    0.000    1.250    1.250    4.500    1.750    0.000 
#    9.000    0.000    0.000   12.000    0.000    0.000 
#    0.000    0.000    0.000    0.000    0.000    0.000 
#
# Total GULP energy -89461.007183 kJ/mol
# GULP energy per Si atom -5591.312949 kJ/mol
# Density = 2.682865 g / cm^3
# Si number density = 26.889852 Si / 1000 Ang^3
#
#
#
# Elastic Constant Matrix: (Units=GPa)
#
#
# Indices 1 2 3 4 5 6 
#
# 1 169.9933 51.0899 22.1050 5.2470 -23.9591 12.3107
# 2 51.0899 96.8140 9.9980 4.6725 -12.9911 1.6616
# 3 22.1050 9.9980 44.2915 0.9265 -16.1992 -2.4450
# 4 5.2470 4.6725 0.9265 29.8895 -8.1643 -3.3277
# 5 -23.9591 -12.9911 -16.1992 -8.1643 46.2979 4.4608
# 6 12.3107 1.6616 -2.4450 -3.3277 4.4608 68.7502
#
#
#
# Elastic Compliance Matrix: (Units=1/GPa)
#
#
# Indices 1 2 3 4 5 6 
#
# 1 0.007662 -0.003460 -0.002283 -0.000277 0.002294 -0.001532
# 2 -0.003460 0.012433 -0.000569 -0.000940 0.001317 0.000168
# 3 -0.002283 -0.000569 0.026906 0.002039 0.008342 0.000937
# 4 -0.000277 -0.000940 0.002039 0.035506 0.006428 0.001446
# 5 0.002294 0.001317 0.008342 0.006428 0.027364 -0.001610
# 6 -0.001532 0.000168 0.000937 0.001446 -0.001610 0.015023
#
#
# Mechanical properties :
#
#
# Convention : Reuss Voigt Hill
#
# Bulk Modulus (GPa) = 29.08909 53.05383 41.07146
# Shear Modulus (GPa) = 33.56241 44.18126 38.87183
#
# Velocity S-wave (km/s) = 3.53674 4.05785 3.80622
# Velocity P-wave (km/s) = 5.24589 6.45970 5.88418
#
# Compressibility (1/GPa) = 0.03437715
#
# Stress axis : x y z
#
# Youngs Moduli (GPa) = 130.51134 80.43090 37.16705
#
# Poissons Ratio (x) = 0.27830 0.08484
# Poissons Ratio (y) = 0.45159 0.02115
# Poissons Ratio (z) = 0.29791 0.04577
#
# Static dielectric constant tensor:
#      x y z
#    x 3.881710 -0.930980 0.518430 
#    y -0.930980 2.639610 -0.292930 
#    z 0.518430 -0.292930 2.390970 
# 
# From -- ./inp_files/55250.got.cif
#   From: 2010.05.17/outbox.cif.g08.bks.cpg/sg2_28_cif.got.tgz:55250.got - 2010.06.03 11:33:40.
