data_PCOD9099258
_publ_section_title
;
Structure prediction by ZEFSAII (Michael W. Deem and Ramdas Pophale) SiO2 
 PCOD9099258
Probable space group: P -1
;
_chemical_formula_sum "Si O2"
_cell_formula_units_Z 16
_cell_length_a 14.143517
_cell_length_b 9.625590
_cell_length_c 11.001385
_cell_angle_alpha 106.279224
_cell_angle_beta 51.351524
_cell_angle_gamma 65.216542
_cell_volume 684.502641
_symmetry_space_group_name_H-M "P -1"
_symmetry_group_IT_number 2
_symmetry_cell_setting 'triclinic'
loop_
_space_group_symop_operation_xyz
x,y,z
-x,-y,-z
loop_
_atom_site_type_symbol
_atom_site_label
_atom_site_fract_x
_atom_site_fract_y
_atom_site_fract_z
Si Si1 0.331118 0.480514 0.551522
Si Si2 0.590907 0.754573 0.941864
Si Si3 0.726342 0.158101 0.424733
Si Si4 0.026302 0.007041 0.340808
Si Si5 0.378070 0.984169 0.925363
Si Si6 0.318177 0.491916 0.958015
Si Si7 0.942387 0.389108 0.993329
Si Si8 0.945225 0.388547 0.404762
O O1 0.317840 0.666600 0.589347
O O2 0.541054 0.206132 0.284336
O O3 0.234147 0.510295 0.758059
O O4 0.192012 0.542878 0.574281
O O5 0.438572 0.866532 0.982707
O O6 0.793400 0.611156 0.672500
O O7 0.640284 0.579790 0.951446
O O8 0.516976 0.957334 0.134865
O O9 0.523166 0.287797 0.671796
O O10 0.847647 0.113783 0.428941
O O11 0.870271 0.893447 0.201005
O O12 0.226721 0.737703 0.072493
O O13 0.000000 0.000000 0.500000
O O14 0.024532 0.177454 0.364763
O O15 0.151161 0.243897 0.147170
O O16 0.146366 0.550579 0.056237
O O17 0.000000 0.500000 0.000000
#
# Coordination Sequence:
#
# PCOD9099258 Si02
#       8
#     2   2   2   2   2   2   2   2
#     4  10  23  44  64  93 124 163 220 255 309 381
#     4  10  22  37  55  95 130 162 209 254 310 384
#     4  10  24  43  66  93 125 172 208 260 319 371
#     4  10  20  37  59  96 127 161 205 252 306 379
#     4  10  22  37  61  90 125 170 209 252 311 379
#     4  11  24  40  65  95 130 166 211 258 322 366
#     4  11  27  45  66  94 124 164 217 271 316 369
#     4  10  20  38  63  88 127 171 200 252 318 364
#
# _framework density 23.374635999999999
#
# number of rings (size 3 to 8) (size 9 to 14) (size 15 to 20)
#    0.000    1.750    1.250    1.500    5.250    2.500 
#    0.000    0.000    0.000    0.000    0.000    0.000 
#    0.000    0.000    0.000    0.000    0.000    0.000 
#
# Total GULP energy -89317.947807 kJ/mol
# GULP energy per Si atom -5582.371738 kJ/mol
# Density = 2.332143 g / cm^3
# Si number density = 23.374636 Si / 1000 Ang^3
#
#
#
# Elastic Constant Matrix: (Units=GPa)
#
#
# Indices 1 2 3 4 5 6 
#
# 1 29.2756 13.4305 28.5344 13.9340 -4.6169 5.5818
# 2 13.4305 77.1525 21.1328 11.5381 2.1322 -3.2891
# 3 28.5344 21.1328 106.0608 18.0968 -6.8138 11.9081
# 4 13.9340 11.5381 18.0968 33.4066 1.9177 9.4002
# 5 -4.6169 2.1322 -6.8138 1.9177 31.9656 7.9821
# 6 5.5818 -3.2891 11.9081 9.4002 7.9821 28.4471
#
#
#
# Elastic Compliance Matrix: (Units=1/GPa)
#
#
# Indices 1 2 3 4 5 6 
#
# 1 0.056035 -0.005043 -0.010446 -0.015178 0.008237 -0.004501
# 2 -0.005043 0.015227 -0.001930 -0.003510 -0.003358 0.005660
# 3 -0.010446 -0.001930 0.013468 -0.001261 0.002596 -0.004123
# 4 -0.015178 -0.003510 -0.001261 0.041058 -0.002233 -0.009841
# 5 0.008237 -0.003358 0.002596 -0.002233 0.036532 -0.012604
# 6 -0.004501 0.005660 -0.004123 -0.009841 -0.012604 0.045205
#
#
# Mechanical properties :
#
#
# Convention : Reuss Voigt Hill
#
# Bulk Modulus (GPa) = 20.04303 37.63159 28.83731
# Shear Modulus (GPa) = 19.30556 28.72326 24.01441
#
# Velocity S-wave (km/s) = 2.87700 3.50926 3.20874
# Velocity P-wave (km/s) = 4.43052 5.70562 5.10801
#
# Compressibility (1/GPa) = 0.04989265
#
# Stress axis : x y z
#
# Youngs Moduli (GPa) = 17.84606 65.67398 74.24795
#
# Poissons Ratio (x) = 0.33117 0.77563
# Poissons Ratio (y) = 0.08999 0.14326
# Poissons Ratio (z) = 0.18643 0.12672
#
# Static dielectric constant tensor:
#      x y z
#    x 1.934120 0.008060 -0.046070 
#    y 0.008060 1.909580 -0.074840 
#    z -0.046070 -0.074840 2.101970 
# 
# From -- ./inp_files/70889.got.cif
#   From: 2010.05.17/outbox.cif.g08.bks.cpg/sg2_36_cif.got.tgz:70889.got - 2010.06.03 11:33:40.
