data_PCOD9099935
_publ_section_title
;
Structure prediction by ZEFSAII (Michael W. Deem and Ramdas Pophale) SiO2 
 PCOD9099935
Probable space group: P -1
;
_chemical_formula_sum "Si O2"
_cell_formula_units_Z 16
_cell_length_a 24.675794
_cell_length_b 7.176004
_cell_length_c 8.033224
_cell_angle_alpha 58.081069
_cell_angle_beta 113.482121
_cell_angle_gamma 66.703856
_cell_volume 694.888040
_symmetry_space_group_name_H-M "P -1"
_symmetry_group_IT_number 2
_symmetry_cell_setting 'triclinic'
loop_
_space_group_symop_operation_xyz
x,y,z
-x,-y,-z
loop_
_atom_site_type_symbol
_atom_site_label
_atom_site_fract_x
_atom_site_fract_y
_atom_site_fract_z
Si Si1 0.378524 0.943992 0.497918
Si Si2 0.991862 0.141550 0.249496
Si Si3 0.209608 0.193901 0.817938
Si Si4 0.792632 0.868396 0.758838
Si Si5 0.016606 0.631108 0.316037
Si Si6 0.610458 0.124756 0.828678
Si Si7 0.542794 0.101587 0.070181
Si Si8 0.852879 0.124490 0.611360
O O1 0.363635 0.056678 0.234115
O O2 0.409248 0.037643 0.623779
O O3 0.287033 0.081928 0.389624
O O4 0.459136 0.523056 0.785394
O O5 0.002680 0.917629 0.234656
O O6 0.888134 0.536219 0.935432
O O7 0.000000 0.000000 0.500000
O O8 0.078440 0.059578 0.378134
O O9 0.191581 0.504999 0.613764
O O10 0.128354 0.303396 0.566338
O O11 0.193387 0.181158 0.999370
O O12 0.321120 0.860456 0.079602
O O13 0.775443 0.163197 0.531547
O O14 0.000000 0.500000 0.500000
O O15 0.934534 0.844906 0.980803
O O16 0.500000 0.500000 0.500000
O O17 0.613769 0.980392 0.071736
O O18 0.500000 0.000000 0.000000
#
# Coordination Sequence:
#
# PCOD9099935 Si02
#       8
#     2   2   2   2   2   2   2   2
#     4   9  22  41  62  94 129 162 210 270 326 386
#     4  11  20  37  56  83 123 162 207 257 308 377
#     4  10  20  37  62  87 129 167 213 265 322 391
#     4  11  21  39  61  87 125 163 205 270 320 380
#     4  11  21  38  58  91 124 170 212 259 316 383
#     4   9  20  40  64  91 133 168 208 278 334 380
#     4  10  21  40  67  94 124 167 213 262 331 400
#     4  11  22  36  62  86 124 172 207 257 326 377
#
# _framework density 23.025289999999998
#
# number of rings (size 3 to 8) (size 9 to 14) (size 15 to 20)
#    0.000    1.750    3.750    1.875    1.750    2.500 
#    0.000    0.000    0.000    0.000    0.000    0.000 
#    0.000    0.000    0.000    0.000    0.000    0.000 
#
# Total GULP energy -89246.951048 kJ/mol
# GULP energy per Si atom -5577.934440 kJ/mol
# Density = 2.297288 g / cm^3
# Si number density = 23.025290 Si / 1000 Ang^3
#
#
#
# Elastic Constant Matrix: (Units=GPa)
#
#
# Indices 1 2 3 4 5 6 
#
# 1 133.1198 41.8107 23.1042 3.4798 8.5697 -7.4979
# 2 41.8107 72.1178 18.5909 19.4745 8.6367 8.9617
# 3 23.1042 18.5909 66.5669 13.7325 5.6779 -2.0995
# 4 3.4798 19.4745 13.7325 41.9123 -5.0926 3.8795
# 5 8.5697 8.6367 5.6779 -5.0926 51.2196 0.6377
# 6 -7.4979 8.9617 -2.0995 3.8795 0.6377 30.6912
#
#
#
# Elastic Compliance Matrix: (Units=1/GPa)
#
#
# Indices 1 2 3 4 5 6 
#
# 1 0.010052 -0.006416 -0.002063 0.002442 -0.000177 0.003883
# 2 -0.006416 0.021657 -0.001993 -0.008621 -0.003129 -0.006873
# 3 -0.002063 -0.001993 0.017552 -0.005052 -0.001791 0.001954
# 4 0.002442 -0.008621 -0.005052 0.029980 0.004600 -0.001117
# 5 -0.000177 -0.003129 -0.001791 0.004600 0.020740 -0.000264
# 6 0.003883 -0.006873 0.001954 -0.001117 -0.000264 0.035818
#
#
# Mechanical properties :
#
#
# Convention : Reuss Voigt Hill
#
# Bulk Modulus (GPa) = 35.31587 48.75733 42.03660
# Shear Modulus (GPa) = 30.08758 37.31785 33.70271
#
# Velocity S-wave (km/s) = 3.61878 4.03020 3.83002
# Velocity P-wave (km/s) = 5.72991 6.54815 6.15265
#
# Compressibility (1/GPa) = 0.02831588
#
# Stress axis : x y z
#
# Youngs Moduli (GPa) = 99.48620 46.17511 56.97464
#
# Poissons Ratio (x) = 0.29628 0.11754
# Poissons Ratio (y) = 0.63835 0.11353
# Poissons Ratio (z) = 0.20524 0.09201
#
# Static dielectric constant tensor:
#      x y z
#    x 1.880580 0.004300 0.004600 
#    y 0.004300 1.904680 -0.025970 
#    z 0.004600 -0.025970 1.947160 
# 
# From -- ./inp_files/352038.got.cif
#   From: 2010.05.17/outbox.cif.g08.bks.cpg/sg2_177_cif.got.tgz:352038.got - 2010.06.03 11:33:40.
