data_PCOD9099628
_publ_section_title
;
Structure prediction by ZEFSAII (Michael W. Deem and Ramdas Pophale) SiO2 
 PCOD9099628
Probable space group: P -1
;
_chemical_formula_sum "Si O2"
_cell_formula_units_Z 14
_cell_length_a 8.882368
_cell_length_b 15.062586
_cell_length_c 9.375706
_cell_angle_alpha 46.165428
_cell_angle_beta 64.881291
_cell_angle_gamma 54.903769
_cell_volume 739.597004
_symmetry_space_group_name_H-M "P -1"
_symmetry_group_IT_number 2
_symmetry_cell_setting 'triclinic'
loop_
_space_group_symop_operation_xyz
x,y,z
-x,-y,-z
loop_
_atom_site_type_symbol
_atom_site_label
_atom_site_fract_x
_atom_site_fract_y
_atom_site_fract_z
Si Si1 0.969473 0.227790 0.900704
Si Si2 0.897849 0.373564 0.044884
Si Si3 0.863566 0.136333 0.485026
Si Si4 0.113426 0.173605 0.590886
Si Si5 0.748331 0.676418 0.852510
Si Si6 0.652002 0.135817 0.078731
Si Si7 0.667417 0.040949 0.870401
O O1 0.020664 0.241185 0.702179
O O2 0.924854 0.351024 0.890209
O O3 0.797379 0.190603 0.009488
O O4 0.144377 0.097109 0.037860
O O5 0.828257 0.265262 0.256181
O O6 0.096469 0.337852 0.076848
O O7 0.769067 0.526508 0.973603
O O8 0.689505 0.113699 0.637144
O O9 0.967951 0.155716 0.561790
O O10 0.000000 0.000000 0.500000
O O11 0.199805 0.260088 0.376992
O O12 0.267441 0.022171 0.731878
O O13 0.548530 0.775518 0.878585
O O14 0.652078 0.134284 0.909003
O O15 0.500000 0.000000 0.000000
#
# Coordination Sequence:
#
# PCOD9099628 Si02
#       7
#     2   2   2   2   2   2   2
#     4  11  20  39  59  86 119 152 184 247 292 338
#     4  10  22  40  61  81 121 153 198 227 291 336
#     4  11  19  37  63  86 113 154 190 238 288 340
#     4  10  20  37  61  87 117 149 191 236 296 330
#     4  10  23  39  60  86 114 158 194 238 270 354
#     4  11  20  37  61  86 119 146 193 239 294 334
#     4  11  21  35  59  93 115 146 192 243 287 338
#
# _framework density 18.929228999999999
#
# number of rings (size 3 to 8) (size 9 to 14) (size 15 to 20)
#    0.000    1.429    4.286    2.143    2.000    1.143 
#    5.143    0.714    3.143    0.000    0.000    0.000 
#    0.000    0.000    0.000    0.000    0.000    0.000 
#
# Total GULP energy -78198.672420 kJ/mol
# GULP energy per Si atom -5585.619459 kJ/mol
# Density = 1.888615 g / cm^3
# Si number density = 18.929229 Si / 1000 Ang^3
#
#
#
# Elastic Constant Matrix: (Units=GPa)
#
#
# Indices 1 2 3 4 5 6 
#
# 1 52.1345 25.3351 21.2109 10.0112 -11.4878 2.6954
# 2 25.3351 72.0379 50.9021 10.3087 -2.2210 17.8796
# 3 21.2109 50.9021 94.6118 13.0590 -15.8009 5.5946
# 4 10.0112 10.3087 13.0590 21.5645 6.4361 2.9308
# 5 -11.4878 -2.2210 -15.8009 6.4361 29.9859 7.1041
# 6 2.6954 17.8796 5.5946 2.9308 7.1041 31.7698
#
#
#
# Elastic Compliance Matrix: (Units=1/GPa)
#
#
# Indices 1 2 3 4 5 6 
#
# 1 0.029038 -0.010309 0.003731 -0.015529 0.015507 0.000646
# 2 -0.010309 0.030506 -0.015051 0.003195 -0.007397 -0.012284
# 3 0.003731 -0.015051 0.021654 -0.012079 0.013754 0.002379
# 4 -0.015529 0.003195 -0.012079 0.067183 -0.026841 0.001451
# 5 0.015507 -0.007397 0.013754 -0.026841 0.053920 -0.009156
# 6 0.000646 -0.012284 0.002379 0.001451 -0.009156 0.039829
#
#
# Mechanical properties :
#
#
# Convention : Reuss Voigt Hill
#
# Bulk Modulus (GPa) = 26.35699 45.96448 36.16074
# Shear Modulus (GPa) = 16.77646 24.75309 20.76477
#
# Velocity S-wave (km/s) = 2.98026 3.62009 3.31565
# Velocity P-wave (km/s) = 5.07906 6.46594 5.81400
#
# Compressibility (1/GPa) = 0.03794059
#
# Stress axis : x y z
#
# Youngs Moduli (GPa) = 34.43709 32.78031 46.18022
#
# Poissons Ratio (x) = 0.33794 -0.17232
# Poissons Ratio (y) = 0.35502 0.69507
# Poissons Ratio (z) = -0.12850 0.49339
#
# Static dielectric constant tensor:
#      x y z
#    x 1.679520 0.021020 0.006440 
#    y 0.021020 1.623630 0.010970 
#    z 0.006440 0.010970 1.668930 
# 
# From -- ./inp_files/157104.got.cif
#   From: 2010.05.17/outbox.cif.g08.bks.cpg/sg2_79_cif.got.tgz:157104.got - 2010.06.03 11:33:40.
