data_PCOD9099453
_publ_section_title
;
Structure prediction by ZEFSAII (Michael W. Deem and Ramdas Pophale) SiO2 
 PCOD9099453
Probable space group: P -1
;
_chemical_formula_sum "Si O2"
_cell_formula_units_Z 16
_cell_length_a 28.332256
_cell_length_b 9.042720
_cell_length_c 5.148248
_cell_angle_alpha 87.563290
_cell_angle_beta 78.194443
_cell_angle_gamma 29.118063
_cell_volume 602.016539
_symmetry_space_group_name_H-M "P -1"
_symmetry_group_IT_number 2
_symmetry_cell_setting 'triclinic'
loop_
_space_group_symop_operation_xyz
x,y,z
-x,-y,-z
loop_
_atom_site_type_symbol
_atom_site_label
_atom_site_fract_x
_atom_site_fract_y
_atom_site_fract_z
Si Si1 0.700450 0.748328 0.887688
Si Si2 0.215487 0.247087 0.835284
Si Si3 0.609725 0.775091 0.666693
Si Si4 0.408596 0.717120 0.379154
Si Si5 0.908089 0.192122 0.413785
Si Si6 0.183537 0.049130 0.158290
Si Si7 0.837794 0.087138 0.299224
Si Si8 0.574544 0.586910 0.994255
O O1 0.643976 0.747025 0.916534
O O2 0.817585 0.401950 0.704329
O O3 0.646127 0.991181 0.705272
O O4 0.710787 0.829163 0.108741
O O5 0.132908 0.562856 0.739385
O O6 0.303434 0.923580 0.593289
O O7 0.161792 0.280722 0.095680
O O8 0.718050 0.475266 0.413673
O O9 0.569142 0.722680 0.762983
O O10 0.506864 0.150940 0.708542
O O11 0.500000 0.500000 0.500000
O O12 0.445298 0.514405 0.115672
O O13 0.911048 0.030847 0.261762
O O14 0.000000 0.000000 0.500000
O O15 0.143431 0.052341 0.974814
O O16 0.152553 0.057442 0.464324
O O17 0.307751 0.717295 0.033434
#
# Coordination Sequence:
#
# PCOD9099453 Si02
#       8
#     2   2   2   2   2   2   2   2
#     4  10  22  41  63  94 131 172 231 281 345 400
#     4  11  23  40  70  96 137 183 230 286 348 412
#     4   9  20  37  56  91 129 178 227 275 321 398
#     4  11  23  38  59  95 139 187 231 283 333 405
#     4  10  25  47  72 101 131 176 230 290 360 425
#     4  11  23  43  69  99 139 186 231 282 345 411
#     4  10  24  45  70  97 140 182 229 288 353 406
#     4  10  20  37  60  89 134 182 233 270 329 395
#
# _framework density 26.577345000000001
#
# number of rings (size 3 to 8) (size 9 to 14) (size 15 to 20)
#    0.000    1.750    1.250    2.250    8.750    2.000 
#    9.000    1.250    0.000    0.000    0.000    0.000 
#    0.000    0.000    0.000    0.000    0.000    0.000 
#
# Total GULP energy -89465.556697 kJ/mol
# GULP energy per Si atom -5591.597294 kJ/mol
# Density = 2.651685 g / cm^3
# Si number density = 26.577345 Si / 1000 Ang^3
#
#
#
# Elastic Constant Matrix: (Units=GPa)
#
#
# Indices 1 2 3 4 5 6 
#
# 1 148.7738 52.9926 29.6648 -23.0853 17.8032 -5.4254
# 2 52.9926 74.2229 23.9577 -38.5148 -1.3272 -18.4365
# 3 29.6648 23.9577 95.4113 -34.2813 18.2821 0.1528
# 4 -23.0853 -38.5148 -34.2813 38.6022 -4.6644 2.8735
# 5 17.8032 -1.3272 18.2821 -4.6644 36.9506 -5.5663
# 6 -5.4254 -18.4365 0.1528 2.8735 -5.5663 43.7720
#
#
#
# Elastic Compliance Matrix: (Units=1/GPa)
#
#
# Indices 1 2 3 4 5 6 
#
# 1 0.010950 -0.012646 -0.001960 -0.008272 -0.006443 -0.004238
# 2 -0.012646 0.050477 0.005979 0.048421 0.013809 0.018250
# 3 -0.001960 0.005979 0.017699 0.019882 -0.005048 0.000267
# 4 -0.008272 0.048421 0.019882 0.086925 0.009082 0.014748
# 5 -0.006443 0.013809 -0.005048 0.009082 0.035659 0.008974
# 6 -0.004238 0.018250 0.000267 0.014748 0.008974 0.030179
#
#
# Mechanical properties :
#
#
# Convention : Reuss Voigt Hill
#
# Bulk Modulus (GPa) = 16.16201 59.07091 37.61646
# Shear Modulus (GPa) = 18.53452 37.98450 28.25951
#
# Velocity S-wave (km/s) = 2.64366 3.78459 3.26436
# Velocity P-wave (km/s) = 3.92593 6.43209 5.32845
#
# Compressibility (1/GPa) = 0.06187349
#
# Stress axis : x y z
#
# Youngs Moduli (GPa) = 91.32837 19.81090 56.49900
#
# Poissons Ratio (x) = 0.25052 0.11074
# Poissons Ratio (y) = 1.15489 -0.33782
# Poissons Ratio (z) = 0.17901 -0.11845
#
# Static dielectric constant tensor:
#      x y z
#    x 2.104080 0.070050 -0.005100 
#    y 0.070050 2.155990 0.012070 
#    z -0.005100 0.012070 2.123820 
# 
# From -- ./inp_files/126443.got.cif
#   From: 2010.05.17/outbox.cif.g08.bks.cpg/sg2_64_cif.got.tgz:126443.got - 2010.06.03 11:33:40.
