data_PCOD9099981
_publ_section_title
;
Structure prediction by ZEFSAII (Michael W. Deem and Ramdas Pophale) SiO2 
 PCOD9099981
Probable space group: P -1
;
_chemical_formula_sum "Si O2"
_cell_formula_units_Z 16
_cell_length_a 11.962002
_cell_length_b 18.620842
_cell_length_c 14.968096
_cell_angle_alpha 35.481277
_cell_angle_beta 148.358800
_cell_angle_gamma 153.325387
_cell_volume 764.600023
_symmetry_space_group_name_H-M "P -1"
_symmetry_group_IT_number 2
_symmetry_cell_setting 'triclinic'
loop_
_space_group_symop_operation_xyz
x,y,z
-x,-y,-z
loop_
_atom_site_type_symbol
_atom_site_label
_atom_site_fract_x
_atom_site_fract_y
_atom_site_fract_z
Si Si1 0.242527 0.718071 0.752679
Si Si2 0.184495 0.866817 0.839478
Si Si3 0.779900 0.150564 0.916463
Si Si4 0.173109 0.274310 0.620800
Si Si5 0.624587 0.550335 0.753327
Si Si6 0.724352 0.394747 0.830434
Si Si7 0.188825 0.050891 0.990748
Si Si8 0.680324 0.497271 0.051952
O O1 0.119227 0.794384 0.548899
O O2 0.967161 0.546895 0.781585
O O3 0.486787 0.833572 0.873130
O O4 0.362856 0.665938 0.815939
O O5 0.176714 0.896917 0.908587
O O6 0.867370 0.745642 0.707725
O O7 0.265109 0.749605 0.012356
O O8 0.440950 0.037495 0.795382
O O9 0.990115 0.346035 0.864326
O O10 0.877258 0.097705 0.957983
O O11 0.322135 0.443253 0.607712
O O12 0.409150 0.320159 0.663103
O O13 0.148409 0.151417 0.796288
O O14 0.737864 0.470641 0.858635
O O15 0.607719 0.516461 0.881914
O O16 0.000000 0.000000 0.000000
O O17 0.500000 0.500000 0.000000
#
# Coordination Sequence:
#
# PCOD9099981 Si02
#       8
#     2   2   2   2   2   2   2   2
#     4  12  22  41  67  92 123 161 207 262 302 367
#     4  10  16  31  58  88 121 159 193 249 317 365
#     4  10  20  32  58  89 120 157 200 250 310 360
#     4  10  23  37  65  98 120 154 215 253 309 362
#     4   9  18  33  60  88 119 154 210 245 303 364
#     4  10  17  34  60  94 124 148 202 259 307 369
#     4  12  24  41  65  86 123 169 213 254 298 362
#     4  11  22  38  61  88 121 168 212 250 305 360
#
# _framework density 20.925974
#
# number of rings (size 3 to 8) (size 9 to 14) (size 15 to 20)
#    0.750    0.750    5.000    2.250    0.000    0.500 
#    0.000    0.625    5.500    1.500    0.000    0.000 
#    0.000    0.000    0.000    0.000    0.000    0.000 
#
# Total GULP energy -89205.436910 kJ/mol
# GULP energy per Si atom -5575.339807 kJ/mol
# Density = 2.087835 g / cm^3
# Si number density = 20.925974 Si / 1000 Ang^3
#
#
#
# Elastic Constant Matrix: (Units=GPa)
#
#
# Indices 1 2 3 4 5 6 
#
# 1 120.0863 -0.7532 4.8759 4.0511 -2.9925 -17.9521
# 2 -0.7532 67.0559 12.7320 4.8077 -4.3323 -15.1533
# 3 4.8759 12.7320 78.5903 17.7095 3.2159 0.2582
# 4 4.0511 4.8077 17.7095 10.2158 1.9293 -0.2959
# 5 -2.9925 -4.3323 3.2159 1.9293 11.8407 -0.2891
# 6 -17.9521 -15.1533 0.2582 -0.2959 -0.2891 34.0986
#
#
#
# Elastic Compliance Matrix: (Units=1/GPa)
#
#
# Indices 1 2 3 4 5 6 
#
# 1 0.009515 0.002092 0.000150 -0.005639 0.004193 0.005925
# 2 0.002092 0.018564 -0.001737 -0.008047 0.009333 0.009374
# 3 0.000150 -0.001737 0.021065 -0.035692 -0.000531 -0.001166
# 4 -0.005639 -0.008047 -0.035692 0.169885 -0.022479 -0.004991
# 5 0.004193 0.009333 -0.000531 -0.022479 0.092906 0.006952
# 6 0.005925 0.009374 -0.001166 -0.004991 0.006952 0.036636
#
#
# Mechanical properties :
#
#
# Convention : Reuss Voigt Hill
#
# Bulk Modulus (GPa) = 19.93798 33.27133 26.60466
# Shear Modulus (GPa) = 13.72577 27.82286 20.77431
#
# Velocity S-wave (km/s) = 2.56387 3.65030 3.15422
# Velocity P-wave (km/s) = 4.27938 5.80520 5.09968
#
# Compressibility (1/GPa) = 0.05015553
#
# Stress axis : x y z
#
# Youngs Moduli (GPa) = 105.09993 53.86638 47.47276
#
# Poissons Ratio (x) = -0.11271 -0.00713
# Poissons Ratio (y) = -0.21991 0.08245
# Poissons Ratio (z) = -0.01579 0.09356
#
# Static dielectric constant tensor:
#      x y z
#    x 1.785060 0.036400 0.006690 
#    y 0.036400 1.822910 0.052570 
#    z 0.006690 0.052570 1.786290 
# 
# From -- ./inp_files/522982.got.cif
#   From: 2010.05.17/outbox.cif.g08.bks.cpg/sg2_262_cif.got.tgz:522982.got - 2010.06.03 11:33:40.
