data_PCOD9099515
_publ_section_title
;
Structure prediction by ZEFSAII (Michael W. Deem and Ramdas Pophale) SiO2 
 PCOD9099515
Probable space group: P -1
;
_chemical_formula_sum "Si O2"
_cell_formula_units_Z 16
_cell_length_a 15.008266
_cell_length_b 15.159048
_cell_length_c 6.948496
_cell_angle_alpha 126.010273
_cell_angle_beta 116.052667
_cell_angle_gamma 35.245601
_cell_volume 735.113042
_symmetry_space_group_name_H-M "P -1"
_symmetry_group_IT_number 2
_symmetry_cell_setting 'triclinic'
loop_
_space_group_symop_operation_xyz
x,y,z
-x,-y,-z
loop_
_atom_site_type_symbol
_atom_site_label
_atom_site_fract_x
_atom_site_fract_y
_atom_site_fract_z
Si Si1 0.354075 0.654814 0.299022
Si Si2 0.507805 0.320676 0.863999
Si Si3 0.690290 0.723414 0.435404
Si Si4 0.949688 0.121160 0.935235
Si Si5 0.289459 0.861307 0.830565
Si Si6 0.973627 0.339919 0.348168
Si Si7 0.727636 0.885230 0.933047
Si Si8 0.860017 0.689390 0.198268
O O1 0.399608 0.490214 0.109260
O O2 0.186512 0.806982 0.235224
O O3 0.355203 0.704552 0.574273
O O4 0.466846 0.634331 0.249878
O O5 0.665209 0.180848 0.956903
O O6 0.437137 0.262043 0.690806
O O7 0.838086 0.542053 0.448123
O O8 0.638670 0.869491 0.703473
O O9 0.755208 0.710056 0.275185
O O10 0.905657 0.276640 0.179206
O O11 0.105749 0.009781 0.821118
O O12 0.000000 0.000000 0.000000
O O13 0.344607 0.933200 0.903494
O O14 0.107090 0.245129 0.191961
O O15 0.058755 0.286564 0.562981
O O16 0.761552 0.818312 0.094046
O O17 0.000000 0.500000 0.000000
#
# Coordination Sequence:
#
# PCOD9099515 Si02
#       8
#     2   2   2   2   2   2   2   2
#     4  11  24  45  67  92 127 171 213 256 316 380
#     4  11  25  45  65  90 132 172 208 259 315 383
#     4  11  21  39  62  92 127 168 209 254 317 374
#     4  11  22  42  67  97 127 164 208 267 320 361
#     4  11  25  43  66  95 129 164 214 263 314 378
#     4  10  20  37  60  92 130 159 204 261 313 369
#     4  10  22  38  62  93 124 162 205 267 311 364
#     4  11  19  35  61  92 126 159 209 260 309 367
#
# _framework density 21.765357999999999
#
# number of rings (size 3 to 8) (size 9 to 14) (size 15 to 20)
#    0.000    1.250    5.000    1.500    1.750    2.500 
#    2.250    1.250    0.000    0.000    0.000    0.000 
#    0.000    0.000    0.000    0.000    0.000    0.000 
#
# Total GULP energy -89449.467051 kJ/mol
# GULP energy per Si atom -5590.591691 kJ/mol
# Density = 2.171582 g / cm^3
# Si number density = 21.765358 Si / 1000 Ang^3
#
#
#
# Elastic Constant Matrix: (Units=GPa)
#
#
# Indices 1 2 3 4 5 6 
#
# 1 59.7616 2.2193 47.0475 -4.4898 23.8082 8.5708
# 2 2.2193 36.9988 1.4973 0.6318 7.0969 3.4374
# 3 47.0475 1.4973 108.2166 -4.2602 16.5685 0.6937
# 4 -4.4898 0.6318 -4.2602 30.8514 8.3646 4.1473
# 5 23.8082 7.0969 16.5685 8.3646 30.8017 -3.7824
# 6 8.5708 3.4374 0.6937 4.1473 -3.7824 34.0295
#
#
#
# Elastic Compliance Matrix: (Units=1/GPa)
#
#
# Indices 1 2 3 4 5 6 
#
# 1 0.045139 0.006053 -0.013467 0.016655 -0.035738 -0.017708
# 2 0.006053 0.029749 -0.000806 0.004605 -0.013153 -0.006536
# 3 -0.013467 -0.000806 0.014464 -0.001447 0.003670 0.003763
# 4 0.016655 0.004605 -0.001447 0.043471 -0.026543 -0.012879
# 5 -0.035738 -0.013153 0.003670 -0.026543 0.070979 0.021379
# 6 -0.017708 -0.006536 0.003763 -0.012879 0.021379 0.038376
#
#
# Mechanical properties :
#
#
# Convention : Reuss Voigt Hill
#
# Bulk Modulus (GPa) = 13.71531 34.05613 23.88572
# Shear Modulus (GPa) = 17.67276 29.41739 23.54508
#
# Velocity S-wave (km/s) = 2.85260 3.68036 3.29259
# Velocity P-wave (km/s) = 4.14305 5.80870 5.04509
#
# Compressibility (1/GPa) = 0.07291122
#
# Stress axis : x y z
#
# Youngs Moduli (GPa) = 22.15388 33.61463 69.13826
#
# Poissons Ratio (x) = -0.20348 0.93109
# Poissons Ratio (y) = -0.13410 0.05575
# Poissons Ratio (z) = 0.29835 0.02711
#
# Static dielectric constant tensor:
#      x y z
#    x 1.805170 -0.015140 0.006460 
#    y -0.015140 1.822310 0.025960 
#    z 0.006460 0.025960 1.771620 
# 
# From -- ./inp_files/70336.got.cif
#   From: 2010.05.17/outbox.cif.g08.bks.cpg/sg2_36_cif.got.tgz:70336.got - 2010.06.03 11:33:40.
