data_PCOD9099954
_publ_section_title
;
Structure prediction by ZEFSAII (Michael W. Deem and Ramdas Pophale) SiO2 
 PCOD9099954
Probable space group: P -1
;
_chemical_formula_sum "Si O2"
_cell_formula_units_Z 16
_cell_length_a 7.788120
_cell_length_b 12.660865
_cell_length_c 7.455239
_cell_angle_alpha 95.236785
_cell_angle_beta 58.773725
_cell_angle_gamma 97.798635
_cell_volume 622.615649
_symmetry_space_group_name_H-M "P -1"
_symmetry_group_IT_number 2
_symmetry_cell_setting 'triclinic'
loop_
_space_group_symop_operation_xyz
x,y,z
-x,-y,-z
loop_
_atom_site_type_symbol
_atom_site_label
_atom_site_fract_x
_atom_site_fract_y
_atom_site_fract_z
Si Si1 0.782583 0.494227 0.217912
Si Si2 0.523973 0.891167 0.861176
Si Si3 0.066198 0.681561 0.677006
Si Si4 0.102488 0.108751 0.776335
Si Si5 0.912960 0.680838 0.387563
Si Si6 0.710855 0.763401 0.016581
Si Si7 0.759468 0.098804 0.275043
Si Si8 0.646652 0.341357 0.978236
O O1 0.755497 0.606793 0.341118
O O2 0.810381 0.414312 0.355599
O O3 0.630814 0.431440 0.149893
O O4 0.000000 0.500000 0.000000
O O5 0.711642 0.842597 0.853478
O O6 0.462884 0.916993 0.694986
O O7 0.377596 0.778716 0.945392
O O8 0.500000 0.000000 0.000000
O O9 0.907646 0.662181 0.598614
O O10 0.912360 0.705921 0.922592
O O11 0.207123 0.792356 0.613444
O O12 0.081895 0.195991 0.649170
O O13 0.156569 0.994270 0.669437
O O14 0.290070 0.157964 0.805146
O O15 0.910241 0.097392 0.015870
O O16 0.133282 0.644295 0.221687
O O17 0.527265 0.673257 0.077277
#
# Coordination Sequence:
#
# PCOD9099954 Si02
#       8
#     2   2   2   2   2   2   2   2
#     4  10  19  38  61  78 105 147 193 224 259 333
#     4  10  16  31  58  84 103 137 187 233 259 312
#     4  11  21  35  55  85 112 141 179 231 283 319
#     4  10  18  32  53  80 105 144 188 220 259 324
#     4  11  22  36  54  80 116 145 182 225 277 328
#     4   9  18  32  56  79 109 133 187 226 266 319
#     4  10  17  32  56  77 106 145 186 221 263 327
#     4   9  18  35  58  79 103 143 189 222 267 322
#
# _framework density 25.698035999999998
#
# number of rings (size 3 to 8) (size 9 to 14) (size 15 to 20)
#    0.750    1.250    3.750    2.625    0.000    0.500 
#    0.000    8.750    0.000    2.250    0.000    0.000 
#    0.000    0.000    0.000    0.000    0.000    0.000 
#
# Total GULP energy -89159.076465 kJ/mol
# GULP energy per Si atom -5572.442279 kJ/mol
# Density = 2.563955 g / cm^3
# Si number density = 25.698036 Si / 1000 Ang^3
#
#
#
# Elastic Constant Matrix: (Units=GPa)
#
#
# Indices 1 2 3 4 5 6 
#
# 1 67.4549 4.0378 -0.1340 0.0539 13.8137 15.4925
# 2 4.0378 110.7532 16.4006 -0.6063 3.1226 -2.3344
# 3 -0.1340 16.4006 41.1086 2.8718 2.9219 4.6390
# 4 0.0539 -0.6063 2.8718 11.3477 4.8218 15.5891
# 5 13.8137 3.1226 2.9219 4.8218 27.3817 1.5404
# 6 15.4925 -2.3344 4.6390 15.5891 1.5404 45.9960
#
#
#
# Elastic Compliance Matrix: (Units=1/GPa)
#
#
# Indices 1 2 3 4 5 6 
#
# 1 0.021883 -0.000760 0.001328 0.029345 -0.015307 -0.016976
# 2 -0.000760 0.009680 -0.003974 0.000182 -0.000390 0.001100
# 3 0.001328 -0.003974 0.026540 -0.002696 -0.002443 -0.002330
# 4 0.029345 0.000182 -0.002696 0.225748 -0.049539 -0.084455
# 5 -0.015307 -0.000390 -0.002443 -0.049539 0.052123 0.020427
# 6 -0.016976 0.001100 -0.002330 -0.084455 0.020427 0.055689
#
#
# Mechanical properties :
#
#
# Convention : Reuss Voigt Hill
#
# Bulk Modulus (GPa) = 19.49582 28.88064 24.18823
# Shear Modulus (GPa) = 12.03161 30.21256 21.12209
#
# Velocity S-wave (km/s) = 2.16612 3.43253 2.87005
# Velocity P-wave (km/s) = 3.72278 5.19351 4.51839
#
# Compressibility (1/GPa) = 0.05129305
#
# Stress axis : x y z
#
# Youngs Moduli (GPa) = 45.69741 103.30157 37.67845
#
# Poissons Ratio (x) = 0.07852 -0.05005
# Poissons Ratio (y) = 0.03473 0.14972
# Poissons Ratio (z) = -0.06070 0.41048
#
# Static dielectric constant tensor:
#      x y z
#    x 2.090430 0.053970 0.014490 
#    y 0.053970 2.092080 -0.051820 
#    z 0.014490 -0.051820 2.141840 
# 
# From -- ./inp_files/178961.got.cif
#   From: 2010.05.17/outbox.cif.g08.bks.cpg/sg2_90_cif.got.tgz:178961.got - 2010.06.03 11:33:40.
