data_PCOD9099479
_publ_section_title
;
Structure prediction by ZEFSAII (Michael W. Deem and Ramdas Pophale) SiO2 
 PCOD9099479
Probable space group: P -1
;
_chemical_formula_sum "Si O2"
_cell_formula_units_Z 15
_cell_length_a 7.629098
_cell_length_b 11.660376
_cell_length_c 8.031851
_cell_angle_alpha 124.517683
_cell_angle_beta 77.298736
_cell_angle_gamma 87.915782
_cell_volume 562.673452
_symmetry_space_group_name_H-M "P -1"
_symmetry_group_IT_number 2
_symmetry_cell_setting 'triclinic'
loop_
_space_group_symop_operation_xyz
x,y,z
-x,-y,-z
loop_
_atom_site_type_symbol
_atom_site_label
_atom_site_fract_x
_atom_site_fract_y
_atom_site_fract_z
Si Si1 0.648851 0.761040 0.323478
Si Si2 0.859085 0.917988 0.180904
Si Si3 0.618535 0.880372 0.763851
Si Si4 0.012529 0.819684 0.708161
Si Si5 0.512047 0.616684 0.732167
Si Si6 0.968441 0.418232 0.737849
Si Si7 0.500000 0.500000 0.000000
Si Si8 0.125508 0.684096 0.010358
O O1 0.693287 0.854146 0.235145
O O2 0.559305 0.861973 0.573813
O O3 0.840003 0.670024 0.291501
O O4 0.533124 0.647566 0.203205
O O5 0.950440 0.841003 0.929804
O O6 0.843404 0.083010 0.287709
O O7 0.019569 0.840678 0.208413
O O8 0.825497 0.900711 0.727227
O O9 0.620813 0.730356 0.731487
O O10 0.500000 0.000000 0.000000
O O11 0.058101 0.662316 0.492545
O O12 0.500000 0.500000 0.500000
O O13 0.576697 0.553711 0.844405
O O14 0.301354 0.691128 0.872377
O O15 0.006639 0.576933 0.863088
O O16 0.814424 0.397918 0.892730
#
# Coordination Sequence:
#
# PCOD9099479 Si02
#       8
#     2   2   2   2   2   2   1   2
#     4  10  21  40  65  94 123 175 213 266 332 381
#     4  10  22  39  65  89 126 160 222 266 325 384
#     4  11  23  41  66  94 135 174 218 270 330 396
#     4  10  21  41  59  92 125 172 205 270 325 390
#     4  12  23  42  65  96 135 179 215 265 329 399
#     4   9  19  38  61  87 126 153 214 264 319 374
#     4  12  22  42  68  94 130 178 216 264 326 396
#     4  10  20  37  60  91 120 160 211 267 311 377
#
# _framework density 26.658445
#
# number of rings (size 3 to 8) (size 9 to 14) (size 15 to 20)
#    0.000    1.600    2.667    2.400    0.000    6.400 
#    2.400    4.000    0.000    0.000    0.000    0.000 
#    0.000    0.000    0.000    0.000    0.000    0.000 
#
# Total GULP energy -83745.198643 kJ/mol
# GULP energy per Si atom -5583.013243 kJ/mol
# Density = 2.659777 g / cm^3
# Si number density = 26.658445 Si / 1000 Ang^3
#
#
#
# Elastic Constant Matrix: (Units=GPa)
#
#
# Indices 1 2 3 4 5 6 
#
# 1 53.8025 16.3184 8.3148 3.1813 -6.5680 21.2603
# 2 16.3184 172.6202 37.1579 4.3077 14.5949 34.6993
# 3 8.3148 37.1579 143.1962 -7.6030 2.0761 3.8305
# 4 3.1813 4.3077 -7.6030 36.0749 -0.9959 -2.4613
# 5 -6.5680 14.5949 2.0761 -0.9959 31.8761 -0.0001
# 6 21.2603 34.6993 3.8305 -2.4613 -0.0001 46.9944
#
#
#
# Elastic Compliance Matrix: (Units=1/GPa)
#
#
# Indices 1 2 3 4 5 6 
#
# 1 0.023853 -0.000173 -0.001282 -0.002946 0.004986 -0.010713
# 2 -0.000173 0.007660 -0.001873 -0.001767 -0.003476 -0.005517
# 3 -0.001282 -0.001873 0.007611 0.002044 0.000162 0.001450
# 4 -0.002946 -0.001767 0.002044 0.028920 0.000972 0.003985
# 5 0.004986 -0.003476 0.000162 0.000972 0.034010 0.000349
# 6 -0.010713 -0.005517 0.001450 0.003985 0.000349 0.030290
#
#
# Mechanical properties :
#
#
# Convention : Reuss Voigt Hill
#
# Bulk Modulus (GPa) = 30.80099 54.80011 42.80055
# Shear Modulus (GPa) = 33.37220 43.51094 38.44157
#
# Velocity S-wave (km/s) = 3.54198 4.04439 3.80149
# Velocity P-wave (km/s) = 5.32039 6.51233 5.94630
#
# Compressibility (1/GPa) = 0.03246648
#
# Stress axis : x y z
#
# Youngs Moduli (GPa) = 41.92267 130.55309 131.38181
#
# Poissons Ratio (x) = 0.02265 0.16846
# Poissons Ratio (y) = 0.00727 0.24612
# Poissons Ratio (z) = 0.05375 0.24457
#
# Static dielectric constant tensor:
#      x y z
#    x 2.806350 -0.318260 0.048020 
#    y -0.318260 2.147420 -0.119130 
#    z 0.048020 -0.119130 2.061670 
# 
# From -- ./inp_files/183159.got.cif
#   From: 2010.05.17/outbox.cif.g08.bks.cpg/sg2_92_cif.got.tgz:183159.got - 2010.06.03 11:33:40.
