data_PCOD9099218
_publ_section_title
;
Structure prediction by ZEFSAII (Michael W. Deem and Ramdas Pophale) SiO2 
 PCOD9099218
Probable space group: P -1
;
_chemical_formula_sum "Si O2"
_cell_formula_units_Z 16
_cell_length_a 12.749761
_cell_length_b 5.131978
_cell_length_c 12.400522
_cell_angle_alpha 106.015000
_cell_angle_beta 66.004816
_cell_angle_gamma 71.155364
_cell_volume 618.839567
_symmetry_space_group_name_H-M "P -1"
_symmetry_group_IT_number 2
_symmetry_cell_setting 'triclinic'
loop_
_space_group_symop_operation_xyz
x,y,z
-x,-y,-z
loop_
_atom_site_type_symbol
_atom_site_label
_atom_site_fract_x
_atom_site_fract_y
_atom_site_fract_z
Si Si1 0.082614 0.206332 0.086449
Si Si2 0.211362 0.717698 0.579222
Si Si3 0.277545 0.553654 0.915701
Si Si4 0.266207 0.377135 0.136219
Si Si5 0.939131 0.931177 0.623711
Si Si6 0.478335 0.466072 0.131922
Si Si7 0.179501 0.220875 0.805376
Si Si8 0.274304 0.078588 0.407078
O O1 0.173731 0.223320 0.146076
O O2 0.938117 0.507824 0.185230
O O3 0.129899 0.233412 0.949315
O O4 0.126241 0.841004 0.023228
O O5 0.295345 0.349901 0.479048
O O6 0.059808 0.789788 0.640392
O O7 0.223823 0.884676 0.699488
O O8 0.241655 0.901154 0.494135
O O9 0.381632 0.678304 0.882845
O O10 0.286768 0.331920 0.789634
O O11 0.309446 0.374852 0.994899
O O12 0.392704 0.287568 0.148510
O O13 0.169227 0.733157 0.249153
O O14 0.855479 0.768849 0.599849
O O15 0.000000 0.000000 0.500000
O O16 0.391870 0.805027 0.260038
O O17 0.500000 0.500000 0.000000
#
# Coordination Sequence:
#
# PCOD9099218 Si02
#       8
#     2   2   2   2   2   2   2   2
#     4  10  20  37  59  90 122 154 213 256 317 370
#     4  11  22  40  64  90 129 168 206 259 322 379
#     4  10  21  37  61  87 119 167 205 263 310 374
#     4   9  18  37  57  90 122 151 206 258 316 371
#     4   9  18  37  57  88 126 161 202 255 321 382
#     4   9  20  44  62  89 125 159 214 261 317 368
#     4  10  22  37  58  89 125 160 207 260 313 372
#     4  10  23  41  62  94 125 164 213 260 313 384
#
# _framework density 25.854845000000001
#
# number of rings (size 3 to 8) (size 9 to 14) (size 15 to 20)
#    0.000    2.250    1.250    0.750    1.750    1.500 
#   27.000    1.250    0.000    0.000    0.000    0.000 
#    0.000    0.000    0.000    0.000    0.000    0.000 
#
# Total GULP energy -89442.214594 kJ/mol
# GULP energy per Si atom -5590.138412 kJ/mol
# Density = 2.579600 g / cm^3
# Si number density = 25.854845 Si / 1000 Ang^3
#
#
#
# Elastic Constant Matrix: (Units=GPa)
#
#
# Indices 1 2 3 4 5 6 
#
# 1 138.3330 26.3049 59.2036 18.2986 31.3856 12.4100
# 2 26.3049 96.6342 34.8386 11.0411 15.5488 11.5667
# 3 59.2036 34.8386 138.2049 29.7135 29.5691 8.1967
# 4 18.2986 11.0411 29.7135 44.1518 9.9397 7.6959
# 5 31.3856 15.5488 29.5691 9.9397 42.4446 17.6263
# 6 12.4100 11.5667 8.1967 7.6959 17.6263 20.9102
#
#
#
# Elastic Compliance Matrix: (Units=1/GPa)
#
#
# Indices 1 2 3 4 5 6 
#
# 1 0.009771 -0.000798 -0.002753 -0.000931 -0.004866 0.000166
# 2 -0.000798 0.012057 -0.002351 -0.000198 0.000027 -0.005224
# 3 -0.002753 -0.002351 0.011090 -0.005375 -0.005854 0.005500
# 4 -0.000931 -0.000198 -0.005375 0.027876 0.001674 -0.008902
# 5 -0.004866 0.000027 -0.005854 0.001674 0.044534 -0.032988
# 6 0.000166 -0.005224 0.005500 -0.008902 -0.032988 0.079542
#
#
# Mechanical properties :
#
#
# Convention : Reuss Voigt Hill
#
# Bulk Modulus (GPa) = 47.36317 68.20736 57.78527
# Shear Modulus (GPa) = 24.54455 38.35634 31.45044
#
# Velocity S-wave (km/s) = 3.08445 3.85584 3.49151
# Velocity P-wave (km/s) = 5.57169 6.80158 6.21712
#
# Compressibility (1/GPa) = 0.02111345
#
# Stress axis : x y z
#
# Youngs Moduli (GPa) = 102.34126 82.94231 90.17538
#
# Poissons Ratio (x) = 0.06617 0.24828
# Poissons Ratio (y) = 0.08164 0.21199
# Poissons Ratio (z) = 0.28178 0.19498
#
# Static dielectric constant tensor:
#      x y z
#    x 2.143520 0.025480 -0.020980 
#    y 0.025480 2.036840 -0.021770 
#    z -0.020980 -0.021770 2.040730 
# 
# From -- ./inp_files/526003.got.cif
#   From: 2010.05.17/outbox.cif.g08.bks.cpg/sg2_264_cif.got.tgz:526003.got - 2010.06.03 11:33:40.
