data_PCOD9099360
_publ_section_title
;
Structure prediction by ZEFSAII (Michael W. Deem and Ramdas Pophale) SiO2 
 PCOD9099360
Probable space group: P -1
;
_chemical_formula_sum "Si O2"
_cell_formula_units_Z 16
_cell_length_a 14.792954
_cell_length_b 18.716778
_cell_length_c 11.313035
_cell_angle_alpha 28.187925
_cell_angle_beta 144.937728
_cell_angle_gamma 149.128079
_cell_volume 733.947858
_symmetry_space_group_name_H-M "P -1"
_symmetry_group_IT_number 2
_symmetry_cell_setting 'triclinic'
loop_
_space_group_symop_operation_xyz
x,y,z
-x,-y,-z
loop_
_atom_site_type_symbol
_atom_site_label
_atom_site_fract_x
_atom_site_fract_y
_atom_site_fract_z
Si Si1 0.525453 0.870049 0.826232
Si Si2 0.397191 0.826752 0.371323
Si Si3 0.613515 0.480451 0.045239
Si Si4 0.082455 0.392320 0.307567
Si Si5 0.185014 0.816824 0.471295
Si Si6 0.457881 0.644275 0.478542
Si Si7 0.012505 0.685368 0.230767
Si Si8 0.337353 0.301153 0.600918
O O1 0.319806 0.737387 0.755554
O O2 0.492945 0.983288 0.728263
O O3 0.658535 0.990889 0.687025
O O4 0.636889 0.797528 0.118442
O O5 0.387847 0.693701 0.658219
O O6 0.453928 0.766193 0.402010
O O7 0.193495 0.797574 0.184454
O O8 0.820832 0.641819 0.036741
O O9 0.500000 0.500000 0.000000
O O10 0.514785 0.505349 0.790851
O O11 0.258034 0.531660 0.370013
O O12 0.154648 0.308023 0.410696
O O13 0.941092 0.240333 0.465737
O O14 0.000000 0.500000 0.000000
O O15 0.052631 0.754687 0.306786
O O16 0.610494 0.756189 0.380932
O O17 0.000000 0.500000 0.500000
O O18 0.500000 0.500000 0.500000
#
# Coordination Sequence:
#
# PCOD9099360 Si02
#       8
#     2   2   2   2   2   2   2   2
#     4  10  22  39  60  90 121 159 200 241 303 364
#     4   9  19  35  59  90 121 153 198 241 294 364
#     4   9  17  32  55  87 119 151 198 241 288 349
#     4  11  23  39  62  90 117 154 206 247 294 361
#     4  10  20  37  60  86 124 159 188 243 301 343
#     4  10  21  38  63  87 120 162 193 248 303 341
#     4   9  17  30  54  87 116 148 197 242 284 349
#     4  10  23  40  58  84 116 154 205 249 292 361
#
# _framework density 21.799914000000001
#
# number of rings (size 3 to 8) (size 9 to 14) (size 15 to 20)
#    0.000    2.250    0.000    3.750    0.000   13.000 
#    0.000    5.000    0.000    4.500    0.000    0.000 
#    0.000    0.000    0.000    0.000    0.000    0.000 
#
# Total GULP energy -89088.414292 kJ/mol
# GULP energy per Si atom -5568.025893 kJ/mol
# Density = 2.175030 g / cm^3
# Si number density = 21.799914 Si / 1000 Ang^3
#
#
#
# Elastic Constant Matrix: (Units=GPa)
#
#
# Indices 1 2 3 4 5 6 
#
# 1 173.1235 37.3220 27.8108 8.6723 -0.1172 16.1074
# 2 37.3220 57.5741 21.9519 19.7281 0.9575 -1.3727
# 3 27.8108 21.9519 123.8834 28.3340 -1.6257 9.6631
# 4 8.6723 19.7281 28.3340 32.2503 3.8060 -3.0610
# 5 -0.1172 0.9575 -1.6257 3.8060 27.7885 0.8356
# 6 16.1074 -1.3727 9.6631 -3.0610 0.8356 35.4969
#
#
#
# Elastic Compliance Matrix: (Units=1/GPa)
#
#
# Indices 1 2 3 4 5 6 
#
# 1 0.007187 -0.004936 -0.000848 0.001535 0.000033 -0.003090
# 2 -0.004936 0.025492 -0.000402 -0.013819 0.000906 0.002122
# 3 -0.000848 -0.000402 0.010829 -0.009611 0.002064 -0.003456
# 4 0.001535 -0.013819 -0.009611 0.048859 -0.006945 0.005762
# 5 0.000033 0.000906 0.002064 -0.006945 0.037087 -0.002014
# 6 -0.003090 0.002122 -0.003456 0.005762 -0.002014 0.031140
#
#
# Mechanical properties :
#
#
# Convention : Reuss Voigt Hill
#
# Bulk Modulus (GPa) = 32.11738 58.75003 45.43370
# Shear Modulus (GPa) = 27.27083 36.94025 32.10554
#
# Velocity S-wave (km/s) = 3.54073 4.12091 3.84179
# Velocity P-wave (km/s) = 5.61075 7.04633 6.36911
#
# Compressibility (1/GPa) = 0.03113579
#
# Stress axis : x y z
#
# Youngs Moduli (GPa) = 139.13730 39.22723 92.34731
#
# Poissons Ratio (x) = 0.19361 0.07835
# Poissons Ratio (y) = 0.68673 0.03714
# Poissons Ratio (z) = 0.11805 0.01578
#
# Static dielectric constant tensor:
#      x y z
#    x 1.868930 -0.064110 -0.006740 
#    y -0.064110 1.896000 0.014430 
#    z -0.006740 0.014430 1.894910 
# 
# From -- ./inp_files/457656.got.cif
#   From: 2010.05.17/outbox.cif.g08.bks.cpg/sg2_229_cif.got.tgz:457656.got - 2010.06.03 11:33:40.
