data_PCOD9099257
_publ_section_title
;
Structure prediction by ZEFSAII (Michael W. Deem and Ramdas Pophale) SiO2 
 PCOD9099257
Probable space group: P -1
;
_chemical_formula_sum "Si O2"
_cell_formula_units_Z 12
_cell_length_a 7.670796
_cell_length_b 10.191283
_cell_length_c 14.214663
_cell_angle_alpha 54.726795
_cell_angle_beta 42.984038
_cell_angle_gamma 43.670607
_cell_volume 520.390381
_symmetry_space_group_name_H-M "P -1"
_symmetry_group_IT_number 2
_symmetry_cell_setting 'triclinic'
loop_
_space_group_symop_operation_xyz
x,y,z
-x,-y,-z
loop_
_atom_site_type_symbol
_atom_site_label
_atom_site_fract_x
_atom_site_fract_y
_atom_site_fract_z
Si Si1 0.311409 0.333911 0.650159
Si Si2 0.723581 0.934393 0.721297
Si Si3 0.114909 0.781817 0.437443
Si Si4 0.691138 0.197574 0.011376
Si Si5 0.366889 0.228236 0.462610
Si Si6 0.624899 0.536084 0.806604
O O1 0.536613 0.364796 0.610638
O O2 0.407768 0.289404 0.522441
O O3 0.957496 0.482717 0.732158
O O4 0.407866 0.124973 0.734441
O O5 0.599505 0.824157 0.870938
O O6 0.915737 0.840754 0.588316
O O7 0.891185 0.026913 0.668721
O O8 0.984158 0.700360 0.449835
O O9 0.623490 0.332297 0.072758
O O10 0.675836 0.325656 0.875769
O O11 0.000000 0.000000 0.000000
O O12 0.456960 0.327233 0.307648
O O13 0.500000 0.000000 0.500000
#
# Coordination Sequence:
#
# PCOD9099257 Si02
#       6
#     2   2   2   2   2   2
#     4  10  20  37  59  96 124 148 206 257 303 363
#     4   9  16  36  58  89 117 162 195 249 306 348
#     4   9  18  35  62  94 118 163 201 244 320 356
#     4  11  20  39  62  86 129 161 211 252 293 378
#     4  12  20  37  63  92 130 159 198 258 307 362
#     4  11  24  35  60 100 115 167 213 241 312 368
#
# _framework density 23.059611
#
# number of rings (size 3 to 8) (size 9 to 14) (size 15 to 20)
#    1.000    0.667    5.000    0.500    0.000    0.667 
#    0.000    0.000    0.000    5.000    4.333    0.000 
#    0.000    0.000    0.000    0.000    0.000    0.000 
#
# Total GULP energy -66828.720901 kJ/mol
# GULP energy per Si atom -5569.060075 kJ/mol
# Density = 2.300713 g / cm^3
# Si number density = 23.059611 Si / 1000 Ang^3
#
#
#
# Elastic Constant Matrix: (Units=GPa)
#
#
# Indices 1 2 3 4 5 6 
#
# 1 65.8201 -9.4943 22.2536 -15.7832 -9.4199 4.5134
# 2 -9.4943 113.6815 48.1764 -14.9293 0.2090 -11.0080
# 3 22.2536 48.1764 120.1994 -46.3474 -7.3328 -0.7592
# 4 -15.7832 -14.9293 -46.3474 55.3291 2.6277 -8.1584
# 5 -9.4199 0.2090 -7.3328 2.6277 30.7813 -6.5147
# 6 4.5134 -11.0080 -0.7592 -8.1584 -6.5147 28.6425
#
#
#
# Elastic Compliance Matrix: (Units=1/GPa)
#
#
# Indices 1 2 3 4 5 6 
#
# 1 0.018146 0.003295 -0.003144 0.003258 0.004565 0.000290
# 2 0.003295 0.011667 -0.005065 0.000420 0.000549 0.004075
# 3 -0.003144 -0.005065 0.015242 0.010770 0.002323 0.002549
# 4 0.003258 0.000420 0.010770 0.029318 0.002953 0.008956
# 5 0.004565 0.000549 0.002323 0.002953 0.035998 0.008582
# 6 0.000290 0.004075 0.002549 0.008956 0.008582 0.041004
#
#
# Mechanical properties :
#
#
# Convention : Reuss Voigt Hill
#
# Bulk Modulus (GPa) = 28.38641 46.84137 37.61389
# Shear Modulus (GPa) = 28.91088 38.86828 33.88958
#
# Velocity S-wave (km/s) = 3.54467 4.11001 3.83776
# Velocity P-wave (km/s) = 5.39348 6.54829 5.99874
#
# Compressibility (1/GPa) = 0.03522812
#
# Stress axis : x y z
#
# Youngs Moduli (GPa) = 55.10913 85.71241 65.60728
#
# Poissons Ratio (x) = -0.28245 0.20625
# Poissons Ratio (y) = -0.18160 0.33230
# Poissons Ratio (z) = 0.17324 0.43414
#
# Static dielectric constant tensor:
#      x y z
#    x 1.883200 -0.012640 -0.042600 
#    y -0.012640 2.008850 -0.068230 
#    z -0.042600 -0.068230 1.936590 
# 
# From -- ./inp_files/558413.got.cif
#   From: 2010.05.17/outbox.cif.g08.bks.cpg/sg2_280_cif.got.tgz:558413.got - 2010.06.03 11:33:40.
