data_PCOD9099468
_publ_section_title
;
Structure prediction by ZEFSAII (Michael W. Deem and Ramdas Pophale) SiO2 
 PCOD9099468
Probable space group: P -1
;
_chemical_formula_sum "Si O2"
_cell_formula_units_Z 16
_cell_length_a 18.362124
_cell_length_b 9.591540
_cell_length_c 11.463774
_cell_angle_alpha 124.130107
_cell_angle_beta 146.469683
_cell_angle_gamma 42.608250
_cell_volume 747.545971
_symmetry_space_group_name_H-M "P -1"
_symmetry_group_IT_number 2
_symmetry_cell_setting 'triclinic'
loop_
_space_group_symop_operation_xyz
x,y,z
-x,-y,-z
loop_
_atom_site_type_symbol
_atom_site_label
_atom_site_fract_x
_atom_site_fract_y
_atom_site_fract_z
Si Si1 0.181034 0.929891 0.172339
Si Si2 0.201814 0.335220 0.808756
Si Si3 0.349588 0.500558 0.456339
Si Si4 0.889893 0.802887 0.589440
Si Si5 0.589174 0.098816 0.722203
Si Si6 0.900218 0.112651 0.583191
Si Si7 0.774255 0.006804 0.162156
Si Si8 0.597807 0.571485 0.758064
O O1 0.244528 0.977009 0.162713
O O2 0.285633 0.679925 0.194980
O O3 0.208716 0.049956 0.365012
O O4 0.000000 0.000000 0.000000
O O5 0.205434 0.252967 0.647488
O O6 0.188024 0.196049 0.817532
O O7 0.050418 0.577465 0.733101
O O8 0.359953 0.322800 0.042260
O O9 0.458196 0.340073 0.626468
O O10 0.170612 0.676706 0.341014
O O11 0.422769 0.626601 0.575642
O O12 0.372720 0.381429 0.310982
O O13 0.935999 0.928582 0.629487
O O14 0.500000 0.000000 0.500000
O O15 0.637708 0.075464 0.912783
O O16 0.064775 0.047202 0.712429
O O17 0.766178 0.148480 0.325334
#
# Coordination Sequence:
#
# PCOD9099468 Si02
#       8
#     2   2   2   2   2   2   2   2
#     4  11  20  37  67  93 116 168 223 262 304 377
#     4  10  21  37  60  94 125 157 200 270 318 357
#     4  10  22  38  63  89 123 164 210 255 313 381
#     4  10  20  37  62  95 120 153 214 268 308 360
#     4  11  25  42  59  91 135 170 203 264 329 382
#     4  10  21  42  66  93 119 170 215 258 312 384
#     4  10  23  41  64  89 131 167 210 256 316 388
#     4  10  20  37  60  90 124 156 207 261 314 368
#
# _framework density 21.403365999999998
#
# number of rings (size 3 to 8) (size 9 to 14) (size 15 to 20)
#    0.000    1.750    2.500    1.500    1.750    1.500 
#    2.250    3.125    0.000    0.000    0.000    0.000 
#    0.000    0.000    0.000    0.000    0.000    0.000 
#
# Total GULP energy -89172.536083 kJ/mol
# GULP energy per Si atom -5573.283505 kJ/mol
# Density = 2.135465 g / cm^3
# Si number density = 21.403366 Si / 1000 Ang^3
#
#
#
# Elastic Constant Matrix: (Units=GPa)
#
#
# Indices 1 2 3 4 5 6 
#
# 1 51.6354 9.0137 0.1571 -0.1277 -13.2667 1.7713
# 2 9.0137 58.9678 6.4247 -0.5671 -11.8988 5.0682
# 3 0.1571 6.4247 84.5054 18.6335 -20.5268 14.2597
# 4 -0.1277 -0.5671 18.6335 29.9156 -0.6775 -5.2128
# 5 -13.2667 -11.8988 -20.5268 -0.6775 36.3122 -6.9738
# 6 1.7713 5.0682 14.2597 -5.2128 -6.9738 21.5165
#
#
#
# Elastic Compliance Matrix: (Units=1/GPa)
#
#
# Indices 1 2 3 4 5 6 
#
# 1 0.021953 -0.001833 0.002683 -0.001532 0.008778 -0.000680
# 2 -0.001833 0.018458 0.000368 -0.000274 0.005029 -0.002877
# 3 0.002683 0.000368 0.019515 -0.014318 0.009231 -0.013717
# 4 -0.001532 -0.000274 -0.014318 0.045616 -0.004170 0.019379
# 5 0.008778 0.005029 0.009231 -0.004170 0.038175 0.003338
# 6 -0.000680 -0.002877 -0.013717 0.019379 0.003338 0.062078
#
#
# Mechanical properties :
#
#
# Convention : Reuss Voigt Hill
#
# Bulk Modulus (GPa) = 16.03570 25.14441 20.59005
# Shear Modulus (GPa) = 22.30687 29.51640 25.91164
#
# Velocity S-wave (km/s) = 3.23184 3.71759 3.48319
# Velocity P-wave (km/s) = 4.62977 5.49551 5.08111
#
# Compressibility (1/GPa) = 0.06236086
#
# Stress axis : x y z
#
# Youngs Moduli (GPa) = 45.55154 54.17730 51.24372
#
# Poissons Ratio (x) = 0.09932 -0.13750
# Poissons Ratio (y) = 0.08350 -0.01884
# Poissons Ratio (z) = -0.12223 -0.01991
#
# Static dielectric constant tensor:
#      x y z
#    x 1.790010 0.008380 -0.038510 
#    y 0.008380 1.761700 -0.002690 
#    z -0.038510 -0.002690 1.895160 
# 
# From -- ./inp_files/462380.got.cif
#   From: 2010.05.17/outbox.cif.g08.bks.cpg/sg2_232_cif.got.tgz:462380.got - 2010.06.03 11:33:40.
