data_PCOD9099578
_publ_section_title
;
Structure prediction by ZEFSAII (Michael W. Deem and Ramdas Pophale) SiO2 
 PCOD9099578
Probable space group: P -1
;
_chemical_formula_sum "Si O2"
_cell_formula_units_Z 12
_cell_length_a 8.842167
_cell_length_b 14.656524
_cell_length_c 9.643063
_cell_angle_alpha 69.961193
_cell_angle_beta 72.406429
_cell_angle_gamma 25.507683
_cell_volume 505.504303
_symmetry_space_group_name_H-M "P -1"
_symmetry_group_IT_number 2
_symmetry_cell_setting 'triclinic'
loop_
_space_group_symop_operation_xyz
x,y,z
-x,-y,-z
loop_
_atom_site_type_symbol
_atom_site_label
_atom_site_fract_x
_atom_site_fract_y
_atom_site_fract_z
Si Si1 0.872958 0.210156 0.312095
Si Si2 0.833698 0.451589 0.185305
Si Si3 0.943465 0.301278 0.775275
Si Si4 0.126381 0.019664 0.050415
Si Si5 0.210617 0.732726 0.397637
Si Si6 0.085095 0.388480 0.874272
O O1 0.999674 0.254242 0.253774
O O2 0.457236 0.446725 0.270749
O O3 0.932862 0.141385 0.488520
O O4 0.022700 0.069547 0.214793
O O5 0.454834 0.656312 0.259969
O O6 0.021214 0.441939 0.208914
O O7 0.825238 0.479845 0.008894
O O8 0.055911 0.184569 0.664387
O O9 0.133160 0.294209 0.778106
O O10 0.967338 0.206644 0.936451
O O11 0.544489 0.807433 0.046656
O O12 0.000000 0.000000 0.000000
O O13 0.500000 0.500000 0.500000
#
# Coordination Sequence:
#
# PCOD9099578 Si02
#       6
#     2   2   2   2   2   2
#     4  10  21  40  62  81 117 154 190 227 285 343
#     4   9  19  36  60  81 118 145 189 228 288 328
#     4  10  20  37  61  85 111 152 191 231 282 334
#     4  12  24  36  58  88 116 149 192 239 284 333
#     4   8  18  38  61  82 110 155 192 224 277 349
#     4  11  22  34  58  92 118 140 191 245 280 327
#
# _framework density 23.738669000000002
#
# number of rings (size 3 to 8) (size 9 to 14) (size 15 to 20)
#    0.000    2.333    1.667    3.000    7.000    0.000 
#    0.000   11.667    3.667    0.000    0.000    0.000 
#    0.000    0.000    0.000    0.000    0.000    0.000 
#
# Total GULP energy -66940.220764 kJ/mol
# GULP energy per Si atom -5578.351730 kJ/mol
# Density = 2.368464 g / cm^3
# Si number density = 23.738669 Si / 1000 Ang^3
#
#
#
# Elastic Constant Matrix: (Units=GPa)
#
#
# Indices 1 2 3 4 5 6 
#
# 1 158.9973 28.5917 57.0444 8.9329 31.6152 26.3185
# 2 28.5917 62.1934 30.5763 18.4551 17.5318 10.3783
# 3 57.0444 30.5763 135.9745 28.0553 35.0090 10.3141
# 4 8.9329 18.4551 28.0553 31.6906 14.3630 14.0444
# 5 31.6152 17.5318 35.0090 14.3630 36.6256 7.3741
# 6 26.3185 10.3783 10.3141 14.0444 7.3741 29.4636
#
#
#
# Elastic Compliance Matrix: (Units=1/GPa)
#
#
# Indices 1 2 3 4 5 6 
#
# 1 0.010141 -0.002265 -0.003190 0.008207 -0.005910 -0.009577
# 2 -0.002265 0.021394 -0.000990 -0.009360 -0.003714 0.000225
# 3 -0.003190 -0.000990 0.011749 -0.008360 -0.005626 0.004479
# 4 0.008207 -0.009360 -0.008360 0.059477 -0.012643 -0.026294
# 5 -0.005910 -0.003714 -0.005626 -0.012643 0.043789 0.003624
# 6 -0.009577 0.000225 0.004479 -0.026294 0.003624 0.052474
#
#
# Mechanical properties :
#
#
# Convention : Reuss Voigt Hill
#
# Bulk Modulus (GPa) = 32.90245 65.50999 49.20622
# Shear Modulus (GPa) = 22.51804 35.61949 29.06877
#
# Velocity S-wave (km/s) = 3.08325 3.87781 3.50313
# Velocity P-wave (km/s) = 5.15418 6.90696 6.09392
#
# Compressibility (1/GPa) = 0.03039287
#
# Stress axis : x y z
#
# Youngs Moduli (GPa) = 98.61424 46.74263 85.11291
#
# Poissons Ratio (x) = 0.10586 0.27153
# Poissons Ratio (y) = 0.22334 0.08428
# Poissons Ratio (z) = 0.31460 0.04629
#
# Static dielectric constant tensor:
#      x y z
#    x 1.992390 0.036920 -0.010520 
#    y 0.036920 1.955160 0.026450 
#    z -0.010520 0.026450 1.964130 
# 
# From -- ./inp_files/153374.got.cif
#   From: 2010.05.17/outbox.cif.g08.bks.cpg/sg2_77_cif.got.tgz:153374.got - 2010.06.03 11:33:40.
