data_PCOD9099331
_publ_section_title
;
Structure prediction by ZEFSAII (Michael W. Deem and Ramdas Pophale) SiO2 
 PCOD9099331
Probable space group: P -1
;
_chemical_formula_sum "Si O2"
_cell_formula_units_Z 14
_cell_length_a 5.344603
_cell_length_b 17.779139
_cell_length_c 8.063365
_cell_angle_alpha 60.742720
_cell_angle_beta 118.198811
_cell_angle_gamma 83.718287
_cell_volume 528.258489
_symmetry_space_group_name_H-M "P -1"
_symmetry_group_IT_number 2
_symmetry_cell_setting 'triclinic'
loop_
_space_group_symop_operation_xyz
x,y,z
-x,-y,-z
loop_
_atom_site_type_symbol
_atom_site_label
_atom_site_fract_x
_atom_site_fract_y
_atom_site_fract_z
Si Si1 0.226248 0.584407 0.929056
Si Si2 0.281738 0.072646 0.489888
Si Si3 0.531567 0.317196 0.872961
Si Si4 0.307447 0.861098 0.322426
Si Si5 0.801925 0.049003 0.148710
Si Si6 0.943505 0.276378 0.734608
Si Si7 0.692290 0.562575 0.623502
O O1 0.350763 0.660509 0.941270
O O2 0.168274 0.539558 0.133385
O O3 0.500000 0.500000 0.000000
O O4 0.898306 0.616014 0.695116
O O5 0.365690 0.160284 0.458164
O O6 0.373104 0.003828 0.754174
O O7 0.062860 0.907912 0.707312
O O8 0.500000 0.000000 0.500000
O O9 0.823652 0.265837 0.892668
O O10 0.335738 0.419599 0.601016
O O11 0.286359 0.271756 0.855429
O O12 0.127342 0.794681 0.330399
O O13 0.077241 0.959194 0.236603
O O14 0.359414 0.878169 0.127948
O O15 0.669025 0.380967 0.489025
#
# Coordination Sequence:
#
# PCOD9099331 Si02
#       7
#     2   2   2   2   2   2   2
#     4  11  22  39  71  93 123 161 218 258 309 367
#     4   9  18  35  56  87 115 148 203 260 303 359
#     4  10  24  44  61  91 130 164 209 254 315 382
#     4  10  20  37  60  85 117 165 202 259 307 373
#     4   9  19  35  62  87 114 152 217 253 305 365
#     4  10  24  43  62  90 134 168 202 257 324 369
#     4   9  23  40  63  97 120 167 205 257 315 373
#
# _framework density 26.502178000000001
#
# number of rings (size 3 to 8) (size 9 to 14) (size 15 to 20)
#    0.857    1.429    0.000    1.714    6.000    1.143 
#    2.571    0.000    3.143    0.000    0.000    0.000 
#    0.000    0.000    0.000    0.000    0.000    0.000 
#
# Total GULP energy -78165.194143 kJ/mol
# GULP energy per Si atom -5583.228153 kJ/mol
# Density = 2.644186 g / cm^3
# Si number density = 26.502178 Si / 1000 Ang^3
#
#
#
# Elastic Constant Matrix: (Units=GPa)
#
#
# Indices 1 2 3 4 5 6 
#
# 1 141.4485 57.2318 14.6947 16.1141 -8.1695 27.9556
# 2 57.2318 183.6481 3.0310 37.6920 11.2017 50.9996
# 3 14.6947 3.0310 68.8108 9.8980 -7.7885 5.1438
# 4 16.1141 37.6920 9.8980 31.5176 7.0352 8.0931
# 5 -8.1695 11.2017 -7.7885 7.0352 38.5294 6.8911
# 6 27.9556 50.9996 5.1438 8.0931 6.8911 50.4577
#
#
#
# Elastic Compliance Matrix: (Units=1/GPa)
#
#
# Indices 1 2 3 4 5 6 
#
# 1 0.008892 -0.001565 -0.000901 -0.002244 0.003163 -0.003325
# 2 -0.001565 0.010165 0.001968 -0.009989 0.000376 -0.008057
# 3 -0.000901 0.001968 0.016380 -0.007347 0.004350 -0.002576
# 4 -0.002244 -0.009989 -0.007347 0.047636 -0.008764 0.005645
# 5 0.003163 0.000376 0.004350 -0.008764 0.029936 -0.005258
# 6 -0.003325 -0.008057 -0.002576 0.005645 -0.005258 0.029879
#
#
# Mechanical properties :
#
#
# Convention : Reuss Voigt Hill
#
# Bulk Modulus (GPa) = 29.03480 60.42471 44.72975
# Shear Modulus (GPa) = 32.18243 45.36426 38.77335
#
# Velocity S-wave (km/s) = 3.48851 4.14178 3.82910
# Velocity P-wave (km/s) = 5.21590 6.76179 6.03852
#
# Compressibility (1/GPa) = 0.03444143
#
# Stress axis : x y z
#
# Youngs Moduli (GPa) = 112.46089 98.37380 61.05004
#
# Poissons Ratio (x) = 0.15400 0.05499
# Poissons Ratio (y) = 0.17605 -0.12016
# Poissons Ratio (z) = 0.10130 -0.19362
#
# Static dielectric constant tensor:
#      x y z
#    x 2.086490 0.014090 0.021360 
#    y 0.014090 2.129050 -0.057610 
#    z 0.021360 -0.057610 2.139730 
# 
# From -- ./inp_files/136599.got.cif
#   From: 2010.05.17/outbox.cif.g08.bks.cpg/sg2_69_cif.got.tgz:136599.got - 2010.06.03 11:33:40.
