data_PCOD9099120
_publ_section_title
;
Structure prediction by ZEFSAII (Michael W. Deem and Ramdas Pophale) SiO2 
 PCOD9099120
Probable space group: P -1
;
_chemical_formula_sum "Si O2"
_cell_formula_units_Z 14
_cell_length_a 9.291403
_cell_length_b 10.829515
_cell_length_c 7.977243
_cell_angle_alpha 47.229278
_cell_angle_beta 118.680448
_cell_angle_gamma 109.450008
_cell_volume 516.905935
_symmetry_space_group_name_H-M "P -1"
_symmetry_group_IT_number 2
_symmetry_cell_setting 'triclinic'
loop_
_space_group_symop_operation_xyz
x,y,z
-x,-y,-z
loop_
_atom_site_type_symbol
_atom_site_label
_atom_site_fract_x
_atom_site_fract_y
_atom_site_fract_z
Si Si1 0.351428 0.377888 0.070438
Si Si2 0.160098 0.987425 0.491097
Si Si3 0.024358 0.318994 0.949719
Si Si4 0.670744 0.290399 0.754973
Si Si5 0.665258 0.674011 0.271288
Si Si6 0.493329 0.083538 0.604881
Si Si7 0.001365 0.172777 0.730827
O O1 0.338902 0.287541 0.964574
O O2 0.170386 0.453415 0.937865
O O3 0.500000 0.500000 0.000000
O O4 0.423917 0.270069 0.361295
O O5 0.333963 0.988843 0.678483
O O6 0.000000 0.000000 0.500000
O O7 0.138486 0.844977 0.470026
O O8 0.133959 0.159625 0.211226
O O9 0.844238 0.297038 0.945816
O O10 0.983820 0.311738 0.736457
O O11 0.678555 0.475136 0.500701
O O12 0.504746 0.279270 0.780286
O O13 0.648844 0.128728 0.765612
O O14 0.830466 0.776417 0.320134
O O15 0.500000 0.000000 0.500000
O O16 0.000000 0.000000 0.000000
#
# Coordination Sequence:
#
# PCOD9099120 Si02
#       7
#     2   2   2   2   2   2   2
#     4  10  20  42  63  86 125 165 204 249 310 368
#     4  10  20  37  59  85 122 158 196 253 310 354
#     4   9  21  37  61  85 117 160 205 248 297 374
#     4  11  22  40  60  95 126 159 211 252 316 374
#     4  10  22  38  65  87 126 169 201 259 313 368
#     4  11  23  39  63  92 124 158 206 260 302 364
#     4   9  18  37  58  85 115 159 207 244 299 367
#
# _framework density 27.084230999999999
#
# number of rings (size 3 to 8) (size 9 to 14) (size 15 to 20)
#    0.000    2.000    1.429    2.571    0.000    5.714 
#    2.571    5.000    0.000    0.000    0.000    0.000 
#    0.000    0.000    0.000    0.000    0.000    0.000 
#
# Total GULP energy -78074.753352 kJ/mol
# GULP energy per Si atom -5576.768097 kJ/mol
# Density = 2.702259 g / cm^3
# Si number density = 27.084231 Si / 1000 Ang^3
#
#
#
# Elastic Constant Matrix: (Units=GPa)
#
#
# Indices 1 2 3 4 5 6 
#
# 1 193.1730 40.7362 12.0174 -1.0457 6.2279 42.2878
# 2 40.7362 98.9675 21.1095 9.8255 17.3307 35.1016
# 3 12.0174 21.1095 82.6033 -11.0656 4.6662 13.7609
# 4 -1.0457 9.8255 -11.0656 27.8237 10.5149 2.1852
# 5 6.2279 17.3307 4.6662 10.5149 42.9712 8.8245
# 6 42.2878 35.1016 13.7609 2.1852 8.8245 56.8123
#
#
#
# Elastic Compliance Matrix: (Units=1/GPa)
#
#
# Indices 1 2 3 4 5 6 
#
# 1 0.006324 -0.001375 0.000227 0.001062 0.000171 -0.003980
# 2 -0.001375 0.014635 -0.002904 -0.004774 -0.002846 -0.006689
# 3 0.000227 -0.002904 0.014236 0.007550 -0.001881 -0.001821
# 4 0.001062 -0.004774 0.007550 0.044416 -0.009951 0.000168
# 5 0.000171 -0.002846 -0.001881 -0.009951 0.027401 -0.001787
# 6 -0.003980 -0.006689 -0.001821 0.000168 -0.001787 0.025409
#
#
# Mechanical properties :
#
#
# Convention : Reuss Voigt Hill
#
# Bulk Modulus (GPa) = 36.91399 58.05223 47.48311
# Shear Modulus (GPa) = 33.43220 45.58016 39.50618
#
# Velocity S-wave (km/s) = 3.51718 4.10677 3.82336
# Velocity P-wave (km/s) = 5.49118 6.63083 6.08773
#
# Compressibility (1/GPa) = 0.02709000
#
# Stress axis : x y z
#
# Youngs Moduli (GPa) = 158.12565 68.33083 70.24336
#
# Poissons Ratio (x) = 0.09397 -0.01594
# Poissons Ratio (y) = 0.21745 0.20400
# Poissons Ratio (z) = -0.03589 0.19845
#
# Static dielectric constant tensor:
#      x y z
#    x 2.390390 0.144770 -0.045720 
#    y 0.144770 2.506480 -0.019860 
#    z -0.045720 -0.019860 2.167970 
# 
# From -- ./inp_files/158014.got.cif
#   From: 2010.05.17/outbox.cif.g08.bks.cpg/sg2_80_cif.got.tgz:158014.got - 2010.06.03 11:33:40.
