data_PCOD9099117
_publ_section_title
;
Structure prediction by ZEFSAII (Michael W. Deem and Ramdas Pophale) SiO2 
 PCOD9099117
Probable space group: P -1
;
_chemical_formula_sum "Si O2"
_cell_formula_units_Z 16
_cell_length_a 4.923521
_cell_length_b 25.762342
_cell_length_c 5.859854
_cell_angle_alpha 124.721595
_cell_angle_beta 84.201760
_cell_angle_gamma 91.909862
_cell_volume 607.525209
_symmetry_space_group_name_H-M "P -1"
_symmetry_group_IT_number 2
_symmetry_cell_setting 'triclinic'
loop_
_space_group_symop_operation_xyz
x,y,z
-x,-y,-z
loop_
_atom_site_type_symbol
_atom_site_label
_atom_site_fract_x
_atom_site_fract_y
_atom_site_fract_z
Si Si1 0.551785 0.670037 0.573339
Si Si2 0.908237 0.097825 0.179395
Si Si3 0.658860 0.870380 0.160366
Si Si4 0.829467 0.756156 0.150663
Si Si5 0.512766 0.574418 0.708626
Si Si6 0.781974 0.982562 0.667121
Si Si7 0.000071 0.360959 0.926160
Si Si8 0.619815 0.215639 0.370157
O O1 0.446593 0.609291 0.561090
O O2 0.804000 0.651008 0.337816
O O3 0.331106 0.715701 0.571380
O O4 0.670221 0.714090 0.873809
O O5 0.792388 0.168759 0.403232
O O6 0.048857 0.061086 0.280519
O O7 0.141885 0.108318 0.000855
O O8 0.698169 0.047676 0.963506
O O9 0.836888 0.822256 0.183690
O O10 0.566456 0.934127 0.460384
O O11 0.431524 0.829752 0.955898
O O12 0.052882 0.706099 0.107982
O O13 0.649941 0.771097 0.427125
O O14 0.500000 0.500000 0.500000
O O15 0.807718 0.596975 0.822130
O O16 0.286891 0.601774 0.974991
O O17 0.000000 0.000000 0.500000
#
# Coordination Sequence:
#
# PCOD9099117 Si02
#       8
#     2   2   2   2   2   2   2   2
#     4   9  22  43  62  97 137 172 224 282 337 396
#     4  10  21  37  59  82 118 160 211 266 330 405
#     4  10  20  37  59  85 119 160 209 267 334 396
#     4   9  20  40  59  89 125 161 214 272 333 395
#     4  11  24  43  71 103 141 185 230 279 337 406
#     4   9  20  38  54  84 120 159 204 264 336 401
#     4  10  23  43  66 101 140 182 232 281 337 409
#     4  10  21  39  61  91 118 163 221 269 332 398
#
# _framework density 26.336357
#
# number of rings (size 3 to 8) (size 9 to 14) (size 15 to 20)
#    0.000    2.250    0.000    1.125    1.750    7.500 
#   22.500    8.750    0.000    0.000    0.000    0.000 
#    0.000    0.000    0.000    0.000    0.000    0.000 
#
# Total GULP energy -89536.285468 kJ/mol
# GULP energy per Si atom -5596.017842 kJ/mol
# Density = 2.627641 g / cm^3
# Si number density = 26.336357 Si / 1000 Ang^3
#
#
#
# Elastic Constant Matrix: (Units=GPa)
#
#
# Indices 1 2 3 4 5 6 
#
# 1 74.6135 26.0133 18.3452 11.6447 -11.0082 -2.2310
# 2 26.0133 213.6183 64.4584 24.2563 -4.2772 9.9900
# 3 18.3452 64.4584 100.6012 22.0502 -1.7184 8.6159
# 4 11.6447 24.2563 22.0502 53.1941 -5.2287 -0.3365
# 5 -11.0082 -4.2772 -1.7184 -5.2287 30.0258 2.8634
# 6 -2.2310 9.9900 8.6159 -0.3365 2.8634 34.1972
#
#
#
# Elastic Compliance Matrix: (Units=1/GPa)
#
#
# Indices 1 2 3 4 5 6 
#
# 1 0.015235 -0.001110 -0.001743 -0.001615 0.004920 0.001329
# 2 -0.001110 0.005990 -0.003302 -0.001110 0.000161 -0.001014
# 3 -0.001743 -0.003302 0.013399 -0.003757 -0.000759 -0.002498
# 4 -0.001615 -0.001110 -0.003757 0.021485 0.002666 0.001154
# 5 0.004920 0.000161 -0.000759 0.002666 0.035791 -0.002505
# 6 0.001329 -0.001014 -0.002498 0.001154 -0.002505 0.030476
#
#
# Mechanical properties :
#
#
# Convention : Reuss Voigt Hill
#
# Bulk Modulus (GPa) = 44.81690 67.38519 56.10105
# Shear Modulus (GPa) = 35.18048 42.15114 38.66581
#
# Velocity S-wave (km/s) = 3.65884 4.00496 3.83581
# Velocity P-wave (km/s) = 5.90793 6.85771 6.40046
#
# Compressibility (1/GPa) = 0.02231301
#
# Stress axis : x y z
#
# Youngs Moduli (GPa) = 65.63632 166.95695 74.63493
#
# Poissons Ratio (x) = 0.18526 0.13011
# Poissons Ratio (y) = 0.07283 0.24648
# Poissons Ratio (z) = 0.11442 0.55137
#
# Static dielectric constant tensor:
#      x y z
#    x 2.090840 -0.038510 0.092370 
#    y -0.038510 2.057870 -0.025960 
#    z 0.092370 -0.025960 2.110930 
# 
# From -- ./inp_files/10857.got.cif
#   From: 2010.05.17/outbox.cif.g08.bks.cpg/sg2_6_cif.got.tgz:10857.got - 2010.06.03 11:33:40.
