data_PCOD9099554
_publ_section_title
;
Structure prediction by ZEFSAII (Michael W. Deem and Ramdas Pophale) SiO2 
 PCOD9099554
Probable space group: P -1
;
_chemical_formula_sum "Si O2"
_cell_formula_units_Z 16
_cell_length_a 15.824296
_cell_length_b 8.991789
_cell_length_c 11.584915
_cell_angle_alpha 115.750833
_cell_angle_beta 52.562837
_cell_angle_gamma 136.734089
_cell_volume 896.975447
_symmetry_space_group_name_H-M "P -1"
_symmetry_group_IT_number 2
_symmetry_cell_setting 'triclinic'
loop_
_space_group_symop_operation_xyz
x,y,z
-x,-y,-z
loop_
_atom_site_type_symbol
_atom_site_label
_atom_site_fract_x
_atom_site_fract_y
_atom_site_fract_z
Si Si1 0.126029 0.981485 0.666166
Si Si2 0.826776 0.512077 0.355836
Si Si3 0.059406 0.906935 0.140789
Si Si4 0.540801 0.594193 0.182723
Si Si5 0.783358 0.095557 0.204141
Si Si6 0.702413 0.587089 0.858152
Si Si7 0.377050 0.381254 0.471117
Si Si8 0.911066 0.573756 0.573058
O O1 0.144434 0.882243 0.726929
O O2 0.269442 0.144744 0.534783
O O3 0.057866 0.081939 0.803634
O O4 0.022467 0.824986 0.597644
O O5 0.711935 0.538836 0.438479
O O6 0.856459 0.527496 0.472957
O O7 0.771158 0.280572 0.278302
O O8 0.027853 0.288401 0.760280
O O9 0.189115 0.149521 0.162957
O O10 0.122354 0.865279 0.969494
O O11 0.639507 0.844442 0.228241
O O12 0.428268 0.539237 0.162716
O O13 0.449793 0.426160 0.303707
O O14 0.642080 0.563205 0.026962
O O15 0.784599 0.499319 0.738330
O O16 0.500000 0.500000 0.500000
O O17 0.000000 0.500000 0.500000
#
# Coordination Sequence:
#
# PCOD9099554 Si02
#       8
#     2   2   2   2   2   2   2   2
#     4  10  21  35  59  85 114 152 196 235 284 336
#     4  11  23  37  59  86 117 152 191 241 292 338
#     4   9  21  36  60  83 114 153 193 236 282 338
#     4  10  20  37  61  82 114 151 195 235 281 342
#     4  11  20  38  56  87 119 152 185 237 291 349
#     4   9  20  38  60  84 109 153 196 236 281 339
#     4  11  22  39  57  87 114 151 197 239 285 343
#     4  11  21  38  58  89 116 150 193 241 292 336
#
# _framework density 17.837724000000001
#
# number of rings (size 3 to 8) (size 9 to 14) (size 15 to 20)
#    0.000    1.750    3.750    0.750    1.750    2.000 
#    2.250    0.000    0.000    0.750    0.000    0.000 
#    0.000    0.000    0.000    0.000    0.000    0.000 
#
# Total GULP energy -89074.220089 kJ/mol
# GULP energy per Si atom -5567.138756 kJ/mol
# Density = 1.779712 g / cm^3
# Si number density = 17.837724 Si / 1000 Ang^3
#
#
#
# Elastic Constant Matrix: (Units=GPa)
#
#
# Indices 1 2 3 4 5 6 
#
# 1 64.6245 8.2884 30.8141 2.9391 -2.6329 3.6531
# 2 8.2884 31.7986 38.3170 -6.3481 1.0837 11.1322
# 3 30.8141 38.3170 122.6181 -8.0174 -6.1457 -1.4814
# 4 2.9391 -6.3481 -8.0174 25.5551 6.6519 -2.7493
# 5 -2.6329 1.0837 -6.1457 6.6519 21.0061 1.5202
# 6 3.6531 11.1322 -1.4814 -2.7493 1.5202 29.4746
#
#
#
# Elastic Compliance Matrix: (Units=1/GPa)
#
#
# Indices 1 2 3 4 5 6 
#
# 1 0.018330 0.002408 -0.005576 -0.004253 0.002176 -0.003970
# 2 0.002408 0.069557 -0.022562 0.010011 -0.011162 -0.026194
# 3 -0.005576 -0.022562 0.016973 0.000210 0.004652 0.009845
# 4 -0.004253 0.010011 0.000210 0.046505 -0.015853 0.001912
# 5 0.002176 -0.011162 0.004652 -0.015853 0.054844 -0.000128
# 6 -0.003970 -0.026194 0.009845 0.001912 -0.000128 0.044992
#
#
# Mechanical properties :
#
#
# Convention : Reuss Voigt Hill
#
# Bulk Modulus (GPa) = 18.72683 41.54222 30.13453
# Shear Modulus (GPa) = 15.60248 24.64860 20.12554
#
# Velocity S-wave (km/s) = 2.96072 3.72132 3.36260
# Velocity P-wave (km/s) = 4.71265 6.46559 5.65743
#
# Compressibility (1/GPa) = 0.05339932
#
# Stress axis : x y z
#
# Youngs Moduli (GPa) = 54.55420 14.37679 58.91743
#
# Poissons Ratio (x) = -0.03462 0.32851
# Poissons Ratio (y) = -0.13135 1.32931
# Poissons Ratio (z) = 0.30418 0.32437
#
# Static dielectric constant tensor:
#      x y z
#    x 4.289710 -1.256220 2.904190 
#    y -1.256220 2.370300 -1.416470 
#    z 2.904190 -1.416470 4.873140 
# 
# From -- ./inp_files/445005.got.cif
#   From: 2010.05.17/outbox.cif.g08.bks.cpg/sg2_223_cif.got.tgz:445005.got - 2010.06.03 11:33:40.
