data_PCOD9099166
_publ_section_title
;
Structure prediction by ZEFSAII (Michael W. Deem and Ramdas Pophale) SiO2 
 PCOD9099166
Probable space group: P -1
;
_chemical_formula_sum "Si O2"
_cell_formula_units_Z 16
_cell_length_a 18.108361
_cell_length_b 11.179767
_cell_length_c 10.520810
_cell_angle_alpha 137.822883
_cell_angle_beta 107.784942
_cell_angle_gamma 40.311804
_cell_volume 741.700987
_symmetry_space_group_name_H-M "P -1"
_symmetry_group_IT_number 2
_symmetry_cell_setting 'triclinic'
loop_
_space_group_symop_operation_xyz
x,y,z
-x,-y,-z
loop_
_atom_site_type_symbol
_atom_site_label
_atom_site_fract_x
_atom_site_fract_y
_atom_site_fract_z
Si Si1 0.581082 0.669359 0.408728
Si Si2 0.446042 0.303730 0.877800
Si Si3 0.799514 0.439724 0.992126
Si Si4 0.384319 0.775387 0.903843
Si Si5 0.936612 0.200533 0.494338
Si Si6 0.156153 0.621610 0.759936
Si Si7 0.350522 0.185654 0.055273
Si Si8 0.900632 0.588959 0.618901
O O1 0.528355 0.724295 0.280677
O O2 0.566457 0.510699 0.345338
O O3 0.741741 0.422678 0.274332
O O4 0.507669 0.983992 0.678343
O O5 0.279455 0.598480 0.055444
O O6 0.516162 0.317207 0.012622
O O7 0.783808 0.561747 0.216623
O O8 0.725434 0.657554 0.998591
O O9 0.967631 0.093063 0.785202
O O10 0.370492 0.944620 0.918251
O O11 0.231141 0.047084 0.107162
O O12 0.767318 0.509171 0.666949
O O13 0.964297 0.353830 0.587642
O O14 0.000000 0.000000 0.500000
O O15 0.160872 0.453719 0.531238
O O16 0.000000 0.000000 0.000000
O O17 0.500000 0.000000 0.000000
O O18 0.000000 0.500000 0.500000
#
# Coordination Sequence:
#
# PCOD9099166 Si02
#       8
#     2   2   2   2   2   2   2   2
#     4  10  22  37  57  92 127 163 206 262 323 373
#     4  10  20  37  59  87 126 163 206 264 312 375
#     4  10  20  37  62  87 123 168 213 255 319 376
#     4  11  21  38  63  90 127 162 214 261 318 381
#     4   9  20  38  62  89 122 169 212 255 316 385
#     4  11  20  36  62  88 126 168 203 261 324 370
#     4  10  20  38  64  91 125 171 216 262 314 382
#     4  11  22  37  62  94 126 160 213 266 318 385
#
# _framework density 21.572035
#
# number of rings (size 3 to 8) (size 9 to 14) (size 15 to 20)
#    0.000    1.750    3.750    1.125    1.750    0.000 
#    0.000    0.625    2.750    3.000    0.000    0.000 
#    0.000    0.000    0.000    0.000    0.000    0.000 
#
# Total GULP energy -89169.039977 kJ/mol
# GULP energy per Si atom -5573.064999 kJ/mol
# Density = 2.152294 g / cm^3
# Si number density = 21.572035 Si / 1000 Ang^3
#
#
#
# Elastic Constant Matrix: (Units=GPa)
#
#
# Indices 1 2 3 4 5 6 
#
# 1 120.3217 33.2305 42.4263 10.0104 -2.9777 13.4501
# 2 33.2305 83.9873 13.5393 -1.5290 -1.7701 8.4364
# 3 42.4263 13.5393 65.7473 13.7918 -6.1871 -8.9121
# 4 10.0104 -1.5290 13.7918 26.1667 -4.3037 -6.4762
# 5 -2.9777 -1.7701 -6.1871 -4.3037 43.3608 -2.2752
# 6 13.4501 8.4364 -8.9121 -6.4762 -2.2752 24.0921
#
#
#
# Elastic Compliance Matrix: (Units=1/GPa)
#
#
# Indices 1 2 3 4 5 6 
#
# 1 0.013935 -0.002981 -0.009279 -0.003645 -0.001443 -0.011284
# 2 -0.002981 0.013736 -0.001769 0.002102 0.000143 -0.003222
# 3 -0.009279 -0.001769 0.024922 -0.005796 0.002993 0.013744
# 4 -0.003645 0.002102 -0.005796 0.046470 0.004253 0.012048
# 5 -0.001443 0.000143 0.002993 0.004253 0.024095 0.005281
# 6 -0.011284 -0.003222 0.013744 0.012048 0.005281 0.057757
#
#
# Mechanical properties :
#
#
# Convention : Reuss Voigt Hill
#
# Bulk Modulus (GPa) = 40.75854 49.82761 45.29307
# Shear Modulus (GPa) = 23.02527 30.78125 26.90326
#
# Velocity S-wave (km/s) = 3.27060 3.78154 3.53531
# Velocity P-wave (km/s) = 5.76174 6.49731 6.14055
#
# Compressibility (1/GPa) = 0.02453474
#
# Stress axis : x y z
#
# Youngs Moduli (GPa) = 71.76060 72.80067 40.12463
#
# Poissons Ratio (x) = 0.21702 0.37233
# Poissons Ratio (y) = 0.21392 0.07099
# Poissons Ratio (z) = 0.66589 0.12880
#
# Static dielectric constant tensor:
#      x y z
#    x 1.814350 0.048860 -0.054110 
#    y 0.048860 1.878630 0.041570 
#    z -0.054110 0.041570 1.824050 
# 
# From -- ./inp_files/465144.got.cif
#   From: 2010.05.17/outbox.cif.g08.bks.cpg/sg2_233_cif.got.tgz:465144.got - 2010.06.03 11:33:40.
