data_PCOD9099068
_publ_section_title
;
Structure prediction by ZEFSAII (Michael W. Deem and Ramdas Pophale) SiO2 
 PCOD9099068
Probable space group: P -1
;
_chemical_formula_sum "Si O2"
_cell_formula_units_Z 12
_cell_length_a 8.978694
_cell_length_b 15.575406
_cell_length_c 6.797360
_cell_angle_alpha 130.386627
_cell_angle_beta 92.612681
_cell_angle_gamma 57.542687
_cell_volume 539.227274
_symmetry_space_group_name_H-M "P -1"
_symmetry_group_IT_number 2
_symmetry_cell_setting 'triclinic'
loop_
_space_group_symop_operation_xyz
x,y,z
-x,-y,-z
loop_
_atom_site_type_symbol
_atom_site_label
_atom_site_fract_x
_atom_site_fract_y
_atom_site_fract_z
Si Si1 0.823739 0.415105 0.435748
Si Si2 0.741541 0.779686 0.833420
Si Si3 0.656229 0.681203 0.058314
Si Si4 0.274731 0.718390 0.493737
Si Si5 0.751173 0.467287 0.063222
Si Si6 0.619840 0.098227 0.299425
O O1 0.786278 0.307333 0.343341
O O2 0.839154 0.423620 0.218744
O O3 0.036826 0.354174 0.434048
O O4 0.643242 0.578164 0.762144
O O5 0.564744 0.818323 0.744370
O O6 0.726297 0.738456 0.991774
O O7 0.716307 0.927050 0.053360
O O8 0.781849 0.560421 0.064519
O O9 0.468437 0.825754 0.378609
O O10 0.512329 0.587421 0.270930
O O11 0.238124 0.869358 0.701486
O O12 0.185114 0.677445 0.265302
#
# Coordination Sequence:
#
# PCOD9099068 Si02
#       6
#     2   2   2   2   2   2
#     4  11  22  36  61  92 115 143 190 245 288 329
#     4  11  24  39  58  86 118 153 191 234 286 338
#     4  10  20  37  59  84 113 149 189 232 282 337
#     4   9  19  36  59  84 114 152 189 232 286 338
#     4   9  19  35  59  88 116 145 189 239 284 336
#     4  10  23  42  59  80 117 159 193 228 280 348
#
# _framework density 22.254066000000002
#
# number of rings (size 3 to 8) (size 9 to 14) (size 15 to 20)
#    0.000    2.000    0.000    4.500    0.000    8.667 
#    0.000    0.833    0.000    0.000    0.000    0.000 
#    0.000    0.000    0.000    0.000    0.000    0.000 
#
# Total GULP energy -66904.116540 kJ/mol
# GULP energy per Si atom -5575.343045 kJ/mol
# Density = 2.220341 g / cm^3
# Si number density = 22.254066 Si / 1000 Ang^3
#
#
#
# Elastic Constant Matrix: (Units=GPa)
#
#
# Indices 1 2 3 4 5 6 
#
# 1 22.4467 57.9280 0.0768 2.3523 1.0121 3.3906
# 2 57.9280 104.3400 62.7927 -19.7134 2.1117 50.5805
# 3 0.0768 62.7927 73.2286 3.3244 16.9851 -0.2235
# 4 2.3523 -19.7134 3.3244 28.2536 15.2366 7.7494
# 5 1.0121 2.1117 16.9851 15.2366 32.7797 7.8702
# 6 3.3906 50.5805 -0.2235 7.7494 7.8702 28.9401
#
#
#
# Elastic Compliance Matrix: (Units=1/GPa)
#
#
# Indices 1 2 3 4 5 6 
#
# 1 0.018899 0.010908 -0.011225 0.011570 0.005377 -0.025926
# 2 0.010908 -0.004464 0.004499 -0.006028 -0.001648 0.008621
# 3 -0.011225 0.004499 0.011342 0.009118 -0.008475 -0.006597
# 4 0.011570 -0.006028 0.009118 0.041313 -0.025101 0.005014
# 5 0.005377 -0.001648 -0.008475 -0.025101 0.047466 -0.004002
# 6 -0.025926 0.008621 -0.006597 0.005014 -0.004002 0.022219
#
#
# Mechanical properties :
#
#
# Convention : Reuss Voigt Hill
#
# Bulk Modulus (GPa) = 29.29108 49.06781 39.17944
# Shear Modulus (GPa) = 35.76749 23.27586 29.52167
#
# Velocity S-wave (km/s) = 4.01338 3.23757 3.64617
# Velocity P-wave (km/s) = 5.88787 6.00605 5.94725
#
# Compressibility (1/GPa) = 0.03414009
#
# Stress axis : x y z
#
# Youngs Moduli (GPa) = 52.91370 -224.02187 88.16928
#
# Poissons Ratio (x) = 2.44369 0.98971
# Poissons Ratio (y) = -0.57720 -0.39663
# Poissons Ratio (z) = 0.59396 1.00776
#
# Static dielectric constant tensor:
#      x y z
#    x 1.828490 0.009680 0.034730 
#    y 0.009680 1.838400 0.001480 
#    z 0.034730 0.001480 1.816970 
# 
# From -- ./inp_files/26929.got.cif
#   From: 2010.05.17/outbox.cif.g08.bks.cpg/sg2_14_cif.got.tgz:26929.got - 2010.06.03 11:33:40.
