data_PCOD9099406
_publ_section_title
;
Structure prediction by ZEFSAII (Michael W. Deem and Ramdas Pophale) SiO2 
 PCOD9099406
Probable space group: P -1
;
_chemical_formula_sum "Si O2"
_cell_formula_units_Z 15
_cell_length_a 19.540188
_cell_length_b 9.181826
_cell_length_c 4.896884
_cell_angle_alpha 75.706978
_cell_angle_beta 90.226253
_cell_angle_gamma 46.772640
_cell_volume 601.432424
_symmetry_space_group_name_H-M "P -1"
_symmetry_group_IT_number 2
_symmetry_cell_setting 'triclinic'
loop_
_space_group_symop_operation_xyz
x,y,z
-x,-y,-z
loop_
_atom_site_type_symbol
_atom_site_label
_atom_site_fract_x
_atom_site_fract_y
_atom_site_fract_z
Si Si1 0.945805 0.926011 0.551663
Si Si2 0.729715 0.722218 0.382186
Si Si3 0.834901 0.982486 0.996164
Si Si4 0.079137 0.461483 0.699260
Si Si5 0.627529 0.768295 0.845670
Si Si6 0.500000 0.500000 0.500000
Si Si7 0.517938 0.741663 0.260365
Si Si8 0.364059 0.809268 0.867454
O O1 0.903654 0.942480 0.251641
O O2 0.023519 0.677694 0.760316
O O3 0.856835 0.049034 0.703119
O O4 0.000000 0.000000 0.500000
O O5 0.842712 0.576451 0.473994
O O6 0.677171 0.684372 0.593051
O O7 0.675980 0.963604 0.323353
O O8 0.708230 0.710332 0.077019
O O9 0.864769 0.760300 0.042561
O O10 0.727186 0.137235 0.039516
O O11 0.000000 0.500000 0.500000
O O12 0.541176 0.026707 0.730272
O O13 0.582065 0.700253 0.036340
O O14 0.558147 0.569809 0.565446
O O15 0.415580 0.658408 0.681533
O O16 0.439970 0.732663 0.152989
#
# Coordination Sequence:
#
# PCOD9099406 Si02
#       8
#     2   2   2   2   2   1   2   2
#     4  11  23  41  65  94 132 161 202 262 332 376
#     4  10  21  37  63  89 120 155 211 258 302 372
#     4  10  21  40  67  92 122 170 212 257 303 385
#     4   9  21  40  66  93 121 163 213 258 311 375
#     4  10  20  37  60  88 120 159 200 255 313 358
#     4   8  16  40  58  88 124 162 208 252 306 370
#     4   8  18  34  62  83 123 158 206 250 307 365
#     4   8  18  35  63  87 120 161 212 252 303 358
#
# _framework density 24.940456000000001
#
# number of rings (size 3 to 8) (size 9 to 14) (size 15 to 20)
#    0.800    1.867    0.000    0.800    0.000   16.533 
#    2.400    0.667    0.000    0.000    0.000    0.000 
#    0.000    0.000    0.000    0.000    0.000    0.000 
#
# Total GULP energy -83773.116730 kJ/mol
# GULP energy per Si atom -5584.874449 kJ/mol
# Density = 2.488369 g / cm^3
# Si number density = 24.940456 Si / 1000 Ang^3
#
#
#
# Elastic Constant Matrix: (Units=GPa)
#
#
# Indices 1 2 3 4 5 6 
#
# 1 159.0779 51.8600 37.7793 0.9073 -37.0878 1.5822
# 2 51.8600 76.8919 26.2598 9.3159 -12.2763 -11.4181
# 3 37.7793 26.2598 77.8668 20.1519 -22.7780 0.6358
# 4 0.9073 9.3159 20.1519 31.5877 0.5768 -8.4255
# 5 -37.0878 -12.2763 -22.7780 0.5768 63.2361 1.4223
# 6 1.5822 -11.4181 0.6358 -8.4255 1.4223 36.8227
#
#
#
# Elastic Compliance Matrix: (Units=1/GPa)
#
#
# Indices 1 2 3 4 5 6 
#
# 1 0.009504 -0.005594 -0.002209 0.002256 0.003711 -0.001732
# 2 -0.005594 0.018902 -0.003615 -0.001528 -0.001031 0.005854
# 3 -0.002209 -0.003615 0.020150 -0.013045 0.005483 -0.004570
# 4 0.002256 -0.001528 -0.013045 0.043022 -0.004282 0.009664
# 5 0.003711 -0.001031 0.005483 -0.004282 0.019856 -0.002320
# 6 -0.001732 0.005854 -0.004570 0.009664 -0.002320 0.031427
#
#
# Mechanical properties :
#
#
# Convention : Reuss Voigt Hill
#
# Bulk Modulus (GPa) = 38.87725 60.62607 49.75166
# Shear Modulus (GPa) = 28.69120 39.52514 34.10817
#
# Velocity S-wave (km/s) = 3.39542 3.98525 3.70210
# Velocity P-wave (km/s) = 5.56720 6.74814 6.18591
#
# Compressibility (1/GPa) = 0.02572199
#
# Stress axis : x y z
#
# Youngs Moduli (GPa) = 105.22047 52.90393 49.62677
#
# Poissons Ratio (x) = 0.29592 0.10962
# Poissons Ratio (y) = 0.58856 0.17938
# Poissons Ratio (z) = 0.23243 0.19123
#
# Static dielectric constant tensor:
#      x y z
#    x 2.009530 0.007620 0.011710 
#    y 0.007620 2.001980 -0.088370 
#    z 0.011710 -0.088370 2.020220 
# 
# From -- ./inp_files/34762.got.cif
#   From: 2010.05.17/outbox.cif.g08.bks.cpg/sg2_18_cif.got.tgz:34762.got - 2010.06.03 11:33:40.
