data_PCOD9099753
_publ_section_title
;
Structure prediction by ZEFSAII (Michael W. Deem and Ramdas Pophale) SiO2 
 PCOD9099753
Probable space group: P -1
;
_chemical_formula_sum "Si O2"
_cell_formula_units_Z 14
_cell_length_a 14.538302
_cell_length_b 7.223540
_cell_length_c 14.380924
_cell_angle_alpha 99.288041
_cell_angle_beta 152.845681
_cell_angle_gamma 64.753212
_cell_volume 529.294789
_symmetry_space_group_name_H-M "P -1"
_symmetry_group_IT_number 2
_symmetry_cell_setting 'triclinic'
loop_
_space_group_symop_operation_xyz
x,y,z
-x,-y,-z
loop_
_atom_site_type_symbol
_atom_site_label
_atom_site_fract_x
_atom_site_fract_y
_atom_site_fract_z
Si Si1 0.941492 0.914229 0.222070
Si Si2 0.388656 0.803422 0.504719
Si Si3 0.758351 0.690146 0.534653
Si Si4 0.212851 0.571913 0.818921
Si Si5 0.264014 0.940586 0.200099
Si Si6 0.177314 0.323390 0.022920
Si Si7 0.222592 0.725524 0.646681
O O1 0.831531 0.182493 0.171208
O O2 0.142366 0.823415 0.310473
O O3 0.123287 0.734815 0.455255
O O4 0.743564 0.871969 0.004940
O O5 0.423068 0.815723 0.428355
O O6 0.640221 0.611037 0.776642
O O7 0.320721 0.046113 0.504498
O O8 0.476123 0.755199 0.297164
O O9 0.973065 0.587494 0.638220
O O10 0.923975 0.548758 0.764305
O O11 0.232678 0.564332 0.724200
O O12 0.488793 0.356168 0.095179
O O13 0.174263 0.198125 0.103055
O O14 0.000000 0.000000 0.000000
O O15 0.000000 0.000000 0.500000
#
# Coordination Sequence:
#
# PCOD9099753 Si02
#       7
#     2   2   2   2   2   2   2
#     4  10  20  37  61  91 123 162 201 252 302 367
#     4  10  22  41  60  86 127 165 200 257 308 358
#     4  10  22  38  62  91 123 161 207 254 304 362
#     4   9  19  38  63  91 125 166 198 252 311 364
#     4  11  23  42  61  87 126 165 208 255 306 363
#     4  11  22  38  60  91 123 159 210 252 305 365
#     4   9  18  35  64  94 121 161 206 245 309 371
#
# _framework density 26.450291
#
# number of rings (size 3 to 8) (size 9 to 14) (size 15 to 20)
#    0.000    2.000    1.429    2.571    0.000    6.286 
#    2.571    0.714    0.000   42.857    0.000    0.000 
#    0.000    0.000    0.000    0.000    0.000    0.000 
#
# Total GULP energy -78041.324113 kJ/mol
# GULP energy per Si atom -5574.380294 kJ/mol
# Density = 2.639009 g / cm^3
# Si number density = 26.450291 Si / 1000 Ang^3
#
#
#
# Elastic Constant Matrix: (Units=GPa)
#
#
# Indices 1 2 3 4 5 6 
#
# 1 161.2758 8.5481 58.4301 10.2491 4.3227 4.4406
# 2 8.5481 39.0587 26.3087 7.8321 15.2273 7.6363
# 3 58.4301 26.3087 153.1298 -2.8764 -2.7927 -3.2544
# 4 10.2491 7.8321 -2.8764 34.8221 -8.0643 -2.8045
# 5 4.3227 15.2273 -2.7927 -8.0643 65.6334 8.9030
# 6 4.4406 7.6363 -3.2544 -2.8045 8.9030 29.0742
#
#
#
# Elastic Compliance Matrix: (Units=1/GPa)
#
#
# Indices 1 2 3 4 5 6 
#
# 1 0.007644 0.002278 -0.003443 -0.003522 -0.001328 -0.002084
# 2 0.002278 0.039031 -0.008210 -0.013196 -0.009850 -0.009775
# 3 -0.003443 -0.008210 0.009459 0.004522 0.002632 0.003371
# 4 -0.003522 -0.013196 0.004522 0.035187 0.007029 0.005752
# 5 -0.001328 -0.009850 0.002632 0.007029 0.018857 -0.002012
# 6 -0.002084 -0.009775 0.003371 0.005752 -0.002012 0.038829
#
#
# Mechanical properties :
#
#
# Convention : Reuss Voigt Hill
#
# Bulk Modulus (GPa) = 26.74946 60.00422 43.37684
# Shear Modulus (GPa) = 27.74399 43.25108 35.49753
#
# Velocity S-wave (km/s) = 3.24220 4.04813 3.66737
# Velocity P-wave (km/s) = 4.91436 6.67718 5.86240
#
# Compressibility (1/GPa) = 0.03738394
#
# Stress axis : x y z
#
# Youngs Moduli (GPa) = 130.82287 25.62037 105.71727
#
# Poissons Ratio (x) = -0.05835 0.36395
# Poissons Ratio (y) = -0.29795 0.86795
# Poissons Ratio (z) = 0.45038 0.21035
#
# Static dielectric constant tensor:
#      x y z
#    x 2.091390 -0.018980 0.042730 
#    y -0.018980 2.193980 -0.004890 
#    z 0.042730 -0.004890 2.170050 
# 
# From -- ./inp_files/529801.got.cif
#   From: 2010.05.17/outbox.cif.g08.bks.cpg/sg2_265_cif.got.tgz:529801.got - 2010.06.03 11:33:40.
