data_PCOD9099604
_publ_section_title
;
Structure prediction by ZEFSAII (Michael W. Deem and Ramdas Pophale) SiO2 
 PCOD9099604
Probable space group: P -1
;
_chemical_formula_sum "Si O2"
_cell_formula_units_Z 16
_cell_length_a 13.367192
_cell_length_b 7.919607
_cell_length_c 13.858844
_cell_angle_alpha 111.593892
_cell_angle_beta 137.262028
_cell_angle_gamma 98.693161
_cell_volume 689.033047
_symmetry_space_group_name_H-M "P -1"
_symmetry_group_IT_number 2
_symmetry_cell_setting 'triclinic'
loop_
_space_group_symop_operation_xyz
x,y,z
-x,-y,-z
loop_
_atom_site_type_symbol
_atom_site_label
_atom_site_fract_x
_atom_site_fract_y
_atom_site_fract_z
Si Si1 0.018044 0.403518 0.090390
Si Si2 0.672101 0.566347 0.787680
Si Si3 0.858521 0.749812 0.153974
Si Si4 0.270533 0.261556 0.502896
Si Si5 0.797722 0.388556 0.536053
Si Si6 0.175286 0.584739 0.778323
Si Si7 0.658320 0.991673 0.867852
Si Si8 0.484558 0.601361 0.911835
O O1 0.180373 0.380679 0.178221
O O2 0.106263 0.573814 0.283660
O O3 0.000000 0.500000 0.000000
O O4 0.801218 0.157421 0.915221
O O5 0.443170 0.316397 0.570583
O O6 0.664972 0.779086 0.833062
O O7 0.763812 0.579025 0.957027
O O8 0.840464 0.599860 0.198760
O O9 0.714815 0.803482 0.087166
O O10 0.077795 0.988743 0.332385
O O11 0.205680 0.397106 0.436618
O O12 0.376436 0.399289 0.708222
O O13 0.941882 0.429976 0.563054
O O14 0.571218 0.139778 0.325596
O O15 0.344787 0.660622 0.840408
O O16 0.250747 0.823039 0.939270
O O17 0.500000 0.500000 0.000000
#
# Coordination Sequence:
#
# PCOD9099604 Si02
#       8
#     2   2   2   2   2   2   2   2
#     4  11  23  39  60  89 118 150 196 242 290 345
#     4  10  21  39  61  85 118 155 191 239 293 347
#     4  10  20  37  61  86 117 154 194 243 292 341
#     4  10  22  39  60  88 116 153 198 238 290 346
#     4  10  23  40  58  86 119 152 194 239 289 349
#     4  10  21  37  58  86 121 155 191 241 291 343
#     4  10  22  39  58  84 120 155 190 237 293 350
#     4   9  21  38  58  88 119 153 196 239 291 345
#
# _framework density 23.220948
#
# number of rings (size 3 to 8) (size 9 to 14) (size 15 to 20)
#    0.000    2.000    0.000    3.375    0.000   11.000 
#    0.000    8.750    0.000    0.000    0.000    0.000 
#    0.000    0.000    0.000    0.000    0.000    0.000 
#
# Total GULP energy -89319.819844 kJ/mol
# GULP energy per Si atom -5582.488740 kJ/mol
# Density = 2.316810 g / cm^3
# Si number density = 23.220948 Si / 1000 Ang^3
#
#
#
# Elastic Constant Matrix: (Units=GPa)
#
#
# Indices 1 2 3 4 5 6 
#
# 1 132.0443 14.1598 46.3835 19.1619 34.2317 -22.8147
# 2 14.1598 72.6252 27.4686 -0.3346 19.2966 15.6264
# 3 46.3835 27.4686 97.8385 5.5540 52.3591 3.4511
# 4 19.1619 -0.3346 5.5540 33.9870 21.2540 6.8725
# 5 34.2317 19.2966 52.3591 21.2540 27.3882 -11.5447
# 6 -22.8147 15.6264 3.4511 6.8725 -11.5447 27.2641
#
#
#
# Elastic Compliance Matrix: (Units=1/GPa)
#
#
# Indices 1 2 3 4 5 6 
#
# 1 0.011583 -0.000946 0.000076 -0.001467 -0.010166 0.006291
# 2 -0.000946 0.014973 -0.009555 -0.004481 0.011457 -0.002183
# 3 0.000076 -0.009555 0.004034 -0.014655 0.017011 0.015927
# 4 -0.001467 -0.004481 -0.014655 0.011987 0.028944 0.012430
# 5 -0.010166 0.011457 0.017011 0.028944 -0.029425 -0.036982
# 6 0.006291 -0.002183 0.015927 0.012430 -0.036982 0.022385
#
#
# Mechanical properties :
#
#
# Convention : Reuss Voigt Hill
#
# Bulk Modulus (GPa) = 102.67420 53.17017 77.92219
# Shear Modulus (GPa) = 83.84430 32.02760 57.93595
#
# Velocity S-wave (km/s) = 6.01544 3.71786 5.00040
# Velocity P-wave (km/s) = 9.62079 6.43251 8.18342
#
# Compressibility (1/GPa) = 0.00973954
#
# Stress axis : x y z
#
# Youngs Moduli (GPa) = 86.33114 66.78806 247.90393
#
# Poissons Ratio (x) = 0.06321 -0.01886
# Poissons Ratio (y) = 0.08170 2.36869
# Poissons Ratio (z) = -0.00657 0.63815
#
# Static dielectric constant tensor:
#      x y z
#    x 1.981200 -0.023540 0.067350 
#    y -0.023540 1.903480 -0.046440 
#    z 0.067350 -0.046440 1.886130 
# 
# From -- ./inp_files/528576.got.cif
#   From: 2010.05.17/outbox.cif.g08.bks.cpg/sg2_265_cif.got.tgz:528576.got - 2010.06.03 11:33:40.
