data_PCOD9099389
_publ_section_title
;
Structure prediction by ZEFSAII (Michael W. Deem and Ramdas Pophale) SiO2 
 PCOD9099389
Probable space group: P -1
;
_chemical_formula_sum "Si O2"
_cell_formula_units_Z 15
_cell_length_a 21.352714
_cell_length_b 8.111739
_cell_length_c 21.253325
_cell_angle_alpha 150.416274
_cell_angle_beta 19.929109
_cell_angle_gamma 139.349342
_cell_volume 580.344608
_symmetry_space_group_name_H-M "P -1"
_symmetry_group_IT_number 2
_symmetry_cell_setting 'triclinic'
loop_
_space_group_symop_operation_xyz
x,y,z
-x,-y,-z
loop_
_atom_site_type_symbol
_atom_site_label
_atom_site_fract_x
_atom_site_fract_y
_atom_site_fract_z
Si Si1 0.000000 0.500000 0.500000
Si Si2 0.682274 0.559185 0.730491
Si Si3 0.296402 0.526746 0.124105
Si Si4 0.599403 0.263325 0.211425
Si Si5 0.484209 0.019421 0.595689
Si Si6 0.998023 0.854003 0.156257
Si Si7 0.909948 0.572330 0.828766
Si Si8 0.332337 0.430530 0.395676
O O1 0.836663 0.693754 0.664294
O O2 0.827187 0.425172 0.680247
O O3 0.479443 0.653596 0.990380
O O4 0.642246 0.695971 0.742323
O O5 0.808044 0.129631 0.462434
O O6 0.399176 0.096347 0.877305
O O7 0.157441 0.639732 0.232103
O O8 0.508861 0.617255 0.456426
O O9 0.486101 0.303302 0.265395
O O10 0.830001 0.223317 0.978179
O O11 0.500000 0.000000 0.500000
O O12 0.655053 0.174252 0.499799
O O13 0.275295 0.282532 0.902793
O O14 0.059678 0.097853 0.128388
O O15 0.000000 0.500000 0.000000
O O16 0.122269 0.408838 0.606341
#
# Coordination Sequence:
#
# PCOD9099389 Si02
#       8
#     1   2   2   2   2   2   2   2
#     4  12  22  46  66  88 120 156 230 250 326 364
#     4  11  22  41  67  88 120 169 206 255 317 379
#     4  11  23  40  65  91 115 162 212 270 307 368
#     4  10  21  37  58  96 128 158 205 264 300 365
#     4  10  21  35  58  90 132 170 203 240 310 385
#     4  10  21  37  62  94 128 164 205 255 307 375
#     4  10  20  37  60  87 125 172 201 243 316 370
#     4  10  20  40  60  90 131 167 203 249 313 377
#
# _framework density 25.846710999999999
#
# number of rings (size 3 to 8) (size 9 to 14) (size 15 to 20)
#    0.000    1.600    5.333    2.000    1.867    3.200 
#    4.800    0.667    0.000    1.600    0.000    0.000 
#    0.000    0.000    0.000    0.000    0.000    0.000 
#
# Total GULP energy -83527.048932 kJ/mol
# GULP energy per Si atom -5568.469929 kJ/mol
# Density = 2.578788 g / cm^3
# Si number density = 25.846711 Si / 1000 Ang^3
#
#
#
# Elastic Constant Matrix: (Units=GPa)
#
#
# Indices 1 2 3 4 5 6 
#
# 1 150.5521 16.1823 62.7378 -14.7026 -34.8503 9.2186
# 2 16.1823 61.1259 30.2756 -1.0638 -12.9713 12.9133
# 3 62.7378 30.2756 147.3884 -32.5355 -5.2579 -0.1311
# 4 -14.7026 -1.0638 -32.5355 56.7305 -0.5608 -2.3023
# 5 -34.8503 -12.9713 -5.2579 -0.5608 52.2541 -12.5219
# 6 9.2186 12.9133 -0.1311 -2.3023 -12.5219 31.9564
#
#
#
# Elastic Compliance Matrix: (Units=1/GPa)
#
#
# Indices 1 2 3 4 5 6 
#
# 1 0.009721 0.000898 -0.004051 0.000242 0.006116 -0.000769
# 2 0.000898 0.020958 -0.005145 -0.002599 0.003437 -0.007589
# 3 -0.004051 -0.005145 0.010600 0.005024 -0.002189 0.002796
# 4 0.000242 -0.002599 0.005024 0.020648 0.000927 0.002852
# 5 0.006116 0.003437 -0.002189 0.000927 0.025513 0.006902
# 6 -0.000769 -0.007589 0.002796 0.002852 0.006902 0.037503
#
#
# Mechanical properties :
#
#
# Convention : Reuss Voigt Hill
#
# Bulk Modulus (GPa) = 40.51678 64.16197 52.33938
# Shear Modulus (GPa) = 33.38553 44.84624 39.11588
#
# Velocity S-wave (km/s) = 3.59789 4.16995 3.89444
# Velocity P-wave (km/s) = 5.74191 6.93272 6.36522
#
# Compressibility (1/GPa) = 0.02468113
#
# Stress axis : x y z
#
# Youngs Moduli (GPa) = 102.87532 47.71494 94.34285
#
# Poissons Ratio (x) = -0.04284 0.38220
# Poissons Ratio (y) = -0.09237 0.48540
# Poissons Ratio (z) = 0.41677 0.24550
#
# Static dielectric constant tensor:
#      x y z
#    x 2.055320 0.034450 -0.017060 
#    y 0.034450 2.189010 0.215180 
#    z -0.017060 0.215180 2.171360 
# 
# From -- ./inp_files/601216.got.cif
#   From: 2010.05.17/outbox.cif.g08.bks.cpg/sg2_301_cif.got.tgz:601216.got - 2010.06.03 11:33:40.
