data_PCOD9099589
_publ_section_title
;
Structure prediction by ZEFSAII (Michael W. Deem and Ramdas Pophale) SiO2 
 PCOD9099589
Probable space group: P -1
;
_chemical_formula_sum "Si O2"
_cell_formula_units_Z 14
_cell_length_a 6.210966
_cell_length_b 8.927010
_cell_length_c 15.337130
_cell_angle_alpha 68.935948
_cell_angle_beta 95.334833
_cell_angle_gamma 126.070189
_cell_volume 633.440095
_symmetry_space_group_name_H-M "P -1"
_symmetry_group_IT_number 2
_symmetry_cell_setting 'triclinic'
loop_
_space_group_symop_operation_xyz
x,y,z
-x,-y,-z
loop_
_atom_site_type_symbol
_atom_site_label
_atom_site_fract_x
_atom_site_fract_y
_atom_site_fract_z
Si Si1 0.530640 0.476761 0.877559
Si Si2 0.273678 0.350325 0.453337
Si Si3 0.851537 0.455952 0.736744
Si Si4 0.422563 0.782134 0.768991
Si Si5 0.306375 0.024206 0.428717
Si Si6 0.376824 0.758677 0.959872
Si Si7 0.108452 0.823157 0.097328
O O1 0.673076 0.461166 0.803120
O O2 0.565341 0.681839 0.827232
O O3 0.210604 0.301085 0.893282
O O4 0.652526 0.440843 0.974037
O O5 0.500000 0.500000 0.500000
O O6 0.220870 0.487514 0.366457
O O7 0.341756 0.226562 0.419141
O O8 0.998432 0.168767 0.526637
O O9 0.821241 0.254286 0.798738
O O10 0.163697 0.628653 0.732631
O O11 0.615796 0.959549 0.673270
O O12 0.302927 0.788511 0.855159
O O13 0.500000 0.000000 0.500000
O O14 0.695188 0.938942 0.941864
O O15 0.212433 0.776306 0.024983
#
# Coordination Sequence:
#
# PCOD9099589 Si02
#       7
#     2   2   2   2   2   2   2
#     4  10  20  37  61  85 125 162 202 258 309 374
#     4  11  25  45  70  99 130 172 222 276 335 393
#     4  10  21  40  60  88 126 161 208 265 314 390
#     4  11  22  38  62  89 123 167 208 259 323 381
#     4  11  24  46  68  98 134 168 223 276 327 400
#     4  10  21  37  58  91 122 164 209 256 313 378
#     4   9  21  38  57  89 127 159 211 259 308 387
#
# _framework density 22.101538999999999
#
# number of rings (size 3 to 8) (size 9 to 14) (size 15 to 20)
#    0.000    1.714    2.857    0.857    0.000    9.143 
#    0.000    0.000    0.000    0.000    0.000    0.000 
#    0.000    0.000    0.000    0.000    0.000    0.000 
#
# Total GULP energy -78155.163179 kJ/mol
# GULP energy per Si atom -5582.511656 kJ/mol
# Density = 2.205123 g / cm^3
# Si number density = 22.101539 Si / 1000 Ang^3
#
#
#
# Elastic Constant Matrix: (Units=GPa)
#
#
# Indices 1 2 3 4 5 6 
#
# 1 60.2468 23.3503 40.6702 -7.1053 -1.2400 7.0208
# 2 23.3503 65.3399 36.5010 -0.1233 8.4193 11.7083
# 3 40.6702 36.5010 189.7496 -4.1250 19.6422 7.6835
# 4 -7.1053 -0.1233 -4.1250 29.2906 5.5103 3.3462
# 5 -1.2400 8.4193 19.6422 5.5103 47.2396 -9.0151
# 6 7.0208 11.7083 7.6835 3.3462 -9.0151 21.9131
#
#
#
# Elastic Compliance Matrix: (Units=1/GPa)
#
#
# Indices 1 2 3 4 5 6 
#
# 1 0.022181 -0.005652 -0.003666 0.004763 0.002046 -0.002687
# 2 -0.005652 0.021014 -0.001813 0.000734 -0.005342 -0.011091
# 3 -0.003666 -0.001813 0.006797 0.000807 -0.002998 -0.001597
# 4 0.004763 0.000734 0.000807 0.037931 -0.006827 -0.010802
# 5 0.002046 -0.005342 -0.002998 -0.006827 0.027170 0.015470
# 6 -0.002687 -0.011091 -0.001597 -0.010802 0.015470 0.060996
#
#
# Mechanical properties :
#
#
# Convention : Reuss Voigt Hill
#
# Bulk Modulus (GPa) = 36.06162 57.37549 46.71856
# Shear Modulus (GPa) = 24.08546 34.00966 29.04756
#
# Velocity S-wave (km/s) = 3.30474 3.92700 3.62923
# Velocity P-wave (km/s) = 5.55999 6.82481 6.22461
#
# Compressibility (1/GPa) = 0.02773031
#
# Stress axis : x y z
#
# Youngs Moduli (GPa) = 45.08411 47.58668 147.11833
#
# Poissons Ratio (x) = 0.26894 0.53939
# Poissons Ratio (y) = 0.25480 0.26672
# Poissons Ratio (z) = 0.16530 0.08627
#
# Static dielectric constant tensor:
#      x y z
#    x 1.819460 -0.046780 -0.007720 
#    y -0.046780 1.855580 0.017360 
#    z -0.007720 0.017360 1.829430 
# 
# From -- ./inp_files/141076.got.cif
#   From: 2010.05.17/outbox.cif.g08.bks.cpg/sg2_71_cif.got.tgz:141076.got - 2010.06.03 11:33:40.
