data_PCOD9099551
_publ_section_title
;
Structure prediction by ZEFSAII (Michael W. Deem and Ramdas Pophale) SiO2 
 PCOD9099551
Probable space group: P -1
;
_chemical_formula_sum "Si O2"
_cell_formula_units_Z 16
_cell_length_a 28.447888
_cell_length_b 16.180564
_cell_length_c 8.661525
_cell_angle_alpha 136.835735
_cell_angle_beta 138.467507
_cell_angle_gamma 16.003706
_cell_volume 727.760268
_symmetry_space_group_name_H-M "P -1"
_symmetry_group_IT_number 2
_symmetry_cell_setting 'triclinic'
loop_
_space_group_symop_operation_xyz
x,y,z
-x,-y,-z
loop_
_atom_site_type_symbol
_atom_site_label
_atom_site_fract_x
_atom_site_fract_y
_atom_site_fract_z
Si Si1 0.764278 0.757001 0.944918
Si Si2 0.648543 0.757632 0.905854
Si Si3 0.286317 0.907543 0.687938
Si Si4 0.322093 0.654679 0.650056
Si Si5 0.414864 0.316533 0.637438
Si Si6 0.083203 0.697453 0.477959
Si Si7 0.153005 0.662751 0.917612
Si Si8 0.386972 0.513990 0.284218
O O1 0.587900 0.032253 0.779349
O O2 0.709912 0.784674 0.012768
O O3 0.895389 0.457591 0.779199
O O4 0.829904 0.791840 0.174216
O O5 0.578700 0.781494 0.629339
O O6 0.811012 0.446136 0.974472
O O7 0.500000 0.000000 0.000000
O O8 0.316983 0.803109 0.791015
O O9 0.249921 0.842246 0.408120
O O10 0.462076 0.681769 0.727505
O O11 0.395707 0.481630 0.749128
O O12 0.428051 0.438620 0.466113
O O13 0.114606 0.943262 0.530069
O O14 0.233339 0.555529 0.596098
O O15 0.122976 0.613797 0.642212
O O16 0.314839 0.496830 0.040786
O O17 0.000000 0.000000 0.000000
#
# Coordination Sequence:
#
# PCOD9099551 Si02
#       8
#     2   2   2   2   2   2   2   2
#     4  11  24  37  55  85 126 154 181 233 291 352
#     4  11  20  34  56  83 114 152 187 228 289 340
#     4   9  19  38  57  82 113 156 196 231 276 337
#     4  10  20  37  61  82 110 154 194 235 281 331
#     4  11  21  37  55  88 117 149 191 237 289 337
#     4  11  22  37  56  90 122 143 180 246 301 341
#     4  12  20  37  62  88 110 146 194 242 286 331
#     4   9  18  36  59  87 109 146 196 248 269 327
#
# _framework density 21.985261000000001
#
# number of rings (size 3 to 8) (size 9 to 14) (size 15 to 20)
#    0.750    0.750    2.500    4.875    0.000    2.000 
#    0.000    0.000    0.000    4.500    0.000    0.000 
#    0.000    0.000    0.000    0.000    0.000    0.000 
#
# Total GULP energy -89156.714688 kJ/mol
# GULP energy per Si atom -5572.294668 kJ/mol
# Density = 2.193522 g / cm^3
# Si number density = 21.985261 Si / 1000 Ang^3
#
#
#
# Elastic Constant Matrix: (Units=GPa)
#
#
# Indices 1 2 3 4 5 6 
#
# 1 121.2754 37.1553 8.8812 7.8938 -8.7180 12.9507
# 2 37.1553 60.2317 -5.4645 -5.1723 -14.2374 14.7219
# 3 8.8812 -5.4645 61.5928 13.5689 -11.1709 9.0301
# 4 7.8938 -5.1723 13.5689 25.4153 6.6148 3.7072
# 5 -8.7180 -14.2374 -11.1709 6.6148 26.5116 4.6948
# 6 12.9507 14.7219 9.0301 3.7072 4.6948 39.9703
#
#
#
# Elastic Compliance Matrix: (Units=1/GPa)
#
#
# Indices 1 2 3 4 5 6 
#
# 1 0.010797 -0.006913 -0.001085 -0.004259 0.000509 -0.000372
# 2 -0.006913 0.029533 0.009078 0.000082 0.019695 -0.013010
# 3 -0.001085 0.009078 0.025939 -0.015720 0.021119 -0.009875
# 4 -0.004259 0.000082 -0.015720 0.054449 -0.021996 0.002435
# 5 0.000509 0.019695 0.021119 -0.021996 0.066021 -0.017905
# 6 -0.000372 -0.013010 -0.009875 0.002435 -0.017905 0.034039
#
#
# Mechanical properties :
#
#
# Convention : Reuss Voigt Hill
#
# Bulk Modulus (GPa) = 14.61378 36.02709 25.32043
# Shear Modulus (GPa) = 20.71026 31.88130 26.29578
#
# Velocity S-wave (km/s) = 3.07254 3.81218 3.46217
# Velocity P-wave (km/s) = 4.38735 5.98326 5.24635
#
# Compressibility (1/GPa) = 0.06842858
#
# Stress axis : x y z
#
# Youngs Moduli (GPa) = 92.62114 33.86023 38.55254
#
# Poissons Ratio (x) = 0.23408 0.04183
# Poissons Ratio (y) = 0.64031 -0.34999
# Poissons Ratio (z) = 0.10049 -0.30739
#
# Static dielectric constant tensor:
#      x y z
#    x 1.829580 -0.012730 0.024090 
#    y -0.012730 1.892290 -0.001910 
#    z 0.024090 -0.001910 1.860030 
# 
# From -- ./inp_files/357344.got.cif
#   From: 2010.05.17/outbox.cif.g08.bks.cpg/sg2_179_cif.got.tgz:357344.got - 2010.06.03 11:33:40.
