data_PCOD9099361
_publ_section_title
;
Structure prediction by ZEFSAII (Michael W. Deem and Ramdas Pophale) SiO2 
 PCOD9099361
Probable space group: P -1
;
_chemical_formula_sum "Si O2"
_cell_formula_units_Z 16
_cell_length_a 13.658813
_cell_length_b 8.496978
_cell_length_c 8.296124
_cell_angle_alpha 68.886065
_cell_angle_beta 49.020227
_cell_angle_gamma 86.822234
_cell_volume 655.360712
_symmetry_space_group_name_H-M "P -1"
_symmetry_group_IT_number 2
_symmetry_cell_setting 'triclinic'
loop_
_space_group_symop_operation_xyz
x,y,z
-x,-y,-z
loop_
_atom_site_type_symbol
_atom_site_label
_atom_site_fract_x
_atom_site_fract_y
_atom_site_fract_z
Si Si1 0.485053 0.177598 0.031062
Si Si2 0.135833 0.436968 0.354270
Si Si3 0.824579 0.922800 0.647549
Si Si4 0.543196 0.338340 0.587927
Si Si5 0.786919 0.316674 0.106416
Si Si6 0.928112 0.705524 0.206106
Si Si7 0.936487 0.956522 0.847520
Si Si8 0.607196 0.030085 0.233077
O O1 0.324912 0.140772 0.235661
O O2 0.567234 0.170644 0.105930
O O3 0.542416 0.331350 0.785889
O O4 0.500000 0.000000 0.000000
O O5 0.118031 0.247531 0.364285
O O6 0.000000 0.500000 0.500000
O O7 0.170541 0.415293 0.513968
O O8 0.223162 0.560026 0.080406
O O9 0.841140 0.983172 0.793373
O O10 0.926102 0.066584 0.378137
O O11 0.500000 0.500000 0.500000
O O12 0.683736 0.328500 0.356264
O O13 0.427615 0.161559 0.736032
O O14 0.741663 0.122032 0.149076
O O15 0.944390 0.363438 0.960853
O O16 0.999302 0.875949 0.173899
O O17 0.870423 0.786234 0.086686
O O18 0.500000 0.000000 0.500000
#
# Coordination Sequence:
#
# PCOD9099361 Si02
#       8
#     2   2   2   2   2   2   2   2
#     4  10  22  37  59  92 127 162 210 249 308 369
#     4   9  19  39  59  86 119 165 205 258 317 361
#     4  10  20  37  60  86 126 158 202 264 305 374
#     4  10  21  39  59  90 123 162 207 252 311 361
#     4  10  20  38  62  80 125 164 197 256 302 370
#     4   9  19  36  60  89 118 153 209 250 315 368
#     4   9  20  35  60  93 115 154 204 254 320 361
#     4   9  21  39  61  90 115 168 212 242 312 370
#
# _framework density 24.414037
#
# number of rings (size 3 to 8) (size 9 to 14) (size 15 to 20)
#    0.000    2.500    0.000    0.750    8.750    0.000 
#    0.000   10.625    0.000    0.000    0.000    0.000 
#    0.000    0.000    0.000    0.000    0.000    0.000 
#
# Total GULP energy -89189.755630 kJ/mol
# GULP energy per Si atom -5574.359727 kJ/mol
# Density = 2.435847 g / cm^3
# Si number density = 24.414037 Si / 1000 Ang^3
#
#
#
# Elastic Constant Matrix: (Units=GPa)
#
#
# Indices 1 2 3 4 5 6 
#
# 1 78.8836 12.3430 25.4275 -1.4241 5.7354 -3.6950
# 2 12.3430 51.8341 -11.5363 -4.3625 -1.9317 -8.6986
# 3 25.4275 -11.5363 113.4148 -7.0762 17.0137 -6.9489
# 4 -1.4241 -4.3625 -7.0762 33.8811 -12.0946 3.8739
# 5 5.7354 -1.9317 17.0137 -12.0946 42.1422 -7.8852
# 6 -3.6950 -8.6986 -6.9489 3.8739 -7.8852 24.7691
#
#
#
# Elastic Compliance Matrix: (Units=1/GPa)
#
#
# Indices 1 2 3 4 5 6 
#
# 1 0.014603 -0.004534 -0.003670 -0.001071 -0.001140 -0.000639
# 2 -0.004534 0.023082 0.003699 0.003565 0.002855 0.008819
# 3 -0.003670 0.003699 0.010675 0.001254 -0.002782 0.002664
# 4 -0.001071 0.003565 0.001254 0.033604 0.009287 -0.000855
# 5 -0.001140 0.002855 -0.002782 0.009287 0.029286 0.007923
# 6 -0.000639 0.008819 0.002664 -0.000855 0.007923 0.046778
#
#
# Mechanical properties :
#
#
# Convention : Reuss Voigt Hill
#
# Bulk Modulus (GPa) = 25.41356 32.95567 29.18461
# Shear Modulus (GPa) = 27.75390 34.68502 31.21946
#
# Velocity S-wave (km/s) = 3.37531 3.77331 3.57984
# Velocity P-wave (km/s) = 5.06184 5.70191 5.39138
#
# Compressibility (1/GPa) = 0.03934907
#
# Stress axis : x y z
#
# Youngs Moduli (GPa) = 68.47901 43.32469 93.67587
#
# Poissons Ratio (x) = 0.19643 0.34380
# Poissons Ratio (y) = 0.31048 -0.34649
# Poissons Ratio (z) = 0.25132 -0.16025
#
# Static dielectric constant tensor:
#      x y z
#    x 1.963650 0.047660 0.072620 
#    y 0.047660 1.960220 -0.005460 
#    z 0.072620 -0.005460 1.976810 
# 
# From -- ./inp_files/294736.got.cif
#   From: 2010.05.17/outbox.cif.g08.bks.cpg/sg2_148_cif.got.tgz:294736.got - 2010.06.03 11:33:40.
