data_PCOD9099467
_publ_section_title
;
Structure prediction by ZEFSAII (Michael W. Deem and Ramdas Pophale) SiO2 
 PCOD9099467
Probable space group: P -1
;
_chemical_formula_sum "Si O2"
_cell_formula_units_Z 16
_cell_length_a 12.920503
_cell_length_b 9.641327
_cell_length_c 14.863099
_cell_angle_alpha 146.740589
_cell_angle_beta 40.404813
_cell_angle_gamma 127.185898
_cell_volume 655.450743
_symmetry_space_group_name_H-M "P -1"
_symmetry_group_IT_number 2
_symmetry_cell_setting 'triclinic'
loop_
_space_group_symop_operation_xyz
x,y,z
-x,-y,-z
loop_
_atom_site_type_symbol
_atom_site_label
_atom_site_fract_x
_atom_site_fract_y
_atom_site_fract_z
Si Si1 0.587251 0.637248 0.298497
Si Si2 0.823445 0.051384 0.550564
Si Si3 0.875593 0.263655 0.312195
Si Si4 0.270233 0.830241 0.962971
Si Si5 0.183447 0.171461 0.379291
Si Si6 0.535899 0.216662 0.719201
Si Si7 0.762566 0.872799 0.028484
Si Si8 0.094705 0.183425 0.813437
O O1 0.544080 0.915281 0.521186
O O2 0.772691 0.643091 0.143929
O O3 0.477709 0.623372 0.276306
O O4 0.600796 0.406131 0.232877
O O5 0.990701 0.168633 0.518494
O O6 0.755213 0.932242 0.620884
O O7 0.688254 0.234222 0.690077
O O8 0.873357 0.840645 0.326842
O O9 0.790139 0.543579 0.511996
O O10 0.811591 0.098195 0.184074
O O11 0.863323 0.091806 0.316450
O O12 0.066519 0.278830 0.185262
O O13 0.092664 0.746086 0.009110
O O14 0.243676 0.986609 0.158042
O O15 0.308713 0.008857 0.952557
O O16 0.371733 0.265831 0.908013
#
# Coordination Sequence:
#
# PCOD9099467 Si02
#       8
#     2   2   2   2   2   2   2   2
#     4  10  20  37  60  90 124 152 202 258 300 355
#     4   9  21  39  61  90 114 165 206 238 306 357
#     4  10  21  39  64  92 123 156 202 254 299 359
#     4  10  22  37  60  92 124 160 200 249 302 355
#     4  10  22  43  63  89 125 159 203 248 301 366
#     4  10  21  39  61  88 123 161 203 251 304 354
#     4  10  22  38  61  97 118 158 205 249 305 352
#     4   9  18  36  62  93 115 154 204 255 302 338
#
# _framework density 24.410684
#
# number of rings (size 3 to 8) (size 9 to 14) (size 15 to 20)
#    0.000    2.250    1.250    0.375    3.500    8.000 
#    0.000    3.125    0.000    0.000    0.000    0.000 
#    0.000    0.000    0.000    0.000    0.000    0.000 
#
# Total GULP energy -89474.495222 kJ/mol
# GULP energy per Si atom -5592.155951 kJ/mol
# Density = 2.435512 g / cm^3
# Si number density = 24.410684 Si / 1000 Ang^3
#
#
#
# Elastic Constant Matrix: (Units=GPa)
#
#
# Indices 1 2 3 4 5 6 
#
# 1 91.0113 31.6713 24.1257 1.9984 -17.9178 -38.0548
# 2 31.6713 73.8066 34.5766 -3.3038 11.4288 -31.5262
# 3 24.1257 34.5766 63.7543 19.2122 -1.8909 -12.6080
# 4 1.9984 -3.3038 19.2122 36.1092 4.5773 -8.7336
# 5 -17.9178 11.4288 -1.8909 4.5773 31.4732 -6.9480
# 6 -38.0548 -31.5262 -12.6080 -8.7336 -6.9480 38.0345
#
#
#
# Elastic Compliance Matrix: (Units=1/GPa)
#
#
# Indices 1 2 3 4 5 6 
#
# 1 0.033812 0.003709 -0.009010 0.009962 0.024909 0.040755
# 2 0.003709 0.040840 -0.025232 0.026368 -0.010719 0.033295
# 3 -0.009010 -0.025232 0.036657 -0.027568 0.005129 -0.023171
# 4 0.009962 0.026368 -0.027568 0.053142 -0.005822 0.033824
# 5 0.024909 -0.010719 0.005129 -0.005822 0.056917 0.026799
# 6 0.040755 0.033295 -0.023171 0.033824 0.026799 0.099648
#
#
# Mechanical properties :
#
#
# Convention : Reuss Voigt Hill
#
# Bulk Modulus (GPa) = 19.90364 45.47992 32.69178
# Shear Modulus (GPa) = 12.53669 30.33661 21.43665
#
# Velocity S-wave (km/s) = 2.26868 3.52910 2.96660
# Velocity P-wave (km/s) = 3.87735 5.93950 5.01555
#
# Compressibility (1/GPa) = 0.05024207
#
# Stress axis : x y z
#
# Youngs Moduli (GPa) = 29.57561 24.48572 27.28016
#
# Poissons Ratio (x) = -0.09082 0.24579
# Poissons Ratio (y) = -0.10970 0.68834
# Poissons Ratio (z) = 0.26648 0.61783
#
# Static dielectric constant tensor:
#      x y z
#    x 1.965120 0.038920 -0.023850 
#    y 0.038920 1.932690 -0.005070 
#    z -0.023850 -0.005070 1.949560 
# 
# From -- ./inp_files/308406.got.cif
#   From: 2010.05.17/outbox.cif.g08.bks.cpg/sg2_155_cif.got.tgz:308406.got - 2010.06.03 11:33:40.
