data_PCOD9099003
_publ_section_title
;
Structure prediction by ZEFSAII (Michael W. Deem and Ramdas Pophale) SiO2 
 PCOD9099003
Probable space group: P -1
;
_chemical_formula_sum "Si O2"
_cell_formula_units_Z 16
_cell_length_a 13.579010
_cell_length_b 14.782463
_cell_length_c 7.759082
_cell_angle_alpha 92.335415
_cell_angle_beta 123.482464
_cell_angle_gamma 131.714166
_cell_volume 732.669036
_symmetry_space_group_name_H-M "P -1"
_symmetry_group_IT_number 2
_symmetry_cell_setting 'triclinic'
loop_
_space_group_symop_operation_xyz
x,y,z
-x,-y,-z
loop_
_atom_site_type_symbol
_atom_site_label
_atom_site_fract_x
_atom_site_fract_y
_atom_site_fract_z
Si Si1 0.195263 0.557173 0.893559
Si Si2 0.794987 0.639703 0.486137
Si Si3 0.956703 0.931808 0.762050
Si Si4 0.394076 0.372213 0.246521
Si Si5 0.671937 0.916372 0.454683
Si Si6 0.159568 0.531013 0.442603
Si Si7 0.608521 0.831758 0.759940
Si Si8 0.959269 0.739712 0.265452
O O1 0.167407 0.534886 0.658257
O O2 0.125775 0.413671 0.881348
O O3 0.031002 0.526879 0.802461
O O4 0.431868 0.739989 0.167566
O O5 0.848444 0.765955 0.644570
O O6 0.543767 0.469643 0.230289
O O7 0.868529 0.592567 0.642864
O O8 0.894383 0.708839 0.399494
O O9 0.808796 0.913941 0.535132
O O10 0.000000 0.000000 0.000000
O O11 0.186397 0.053577 0.914456
O O12 0.500000 0.500000 0.500000
O O13 0.416041 0.286544 0.337635
O O14 0.170696 0.268184 0.968634
O O15 0.670667 0.929383 0.662381
O O16 0.796679 0.080622 0.508612
O O17 0.384620 0.711935 0.613772
#
# Coordination Sequence:
#
# PCOD9099003 Si02
#       8
#     2   2   2   2   2   2   2   2
#     4  10  22  45  64  86 124 168 208 264 314 354
#     4  10  22  37  62  91 118 167 206 257 310 371
#     4  10  20  37  58  91 128 155 197 250 314 377
#     4  11  20  36  61  88 125 167 199 254 314 375
#     4  11  23  39  62  93 129 162 202 259 314 372
#     4   9  22  44  64  85 120 164 217 259 303 372
#     4  10  21  37  59  88 124 158 204 248 308 376
#     4  11  23  39  60  95 127 161 213 254 313 374
#
# _framework density 21.837966000000002
#
# number of rings (size 3 to 8) (size 9 to 14) (size 15 to 20)
#    0.000    1.750    1.250    3.375    3.500    3.000 
#    2.250    2.500    0.000    0.000    0.000    0.000 
#    0.000    0.000    0.000    0.000    0.000    0.000 
#
# Total GULP energy -89221.310949 kJ/mol
# GULP energy per Si atom -5576.331934 kJ/mol
# Density = 2.178826 g / cm^3
# Si number density = 21.837966 Si / 1000 Ang^3
#
#
#
# Elastic Constant Matrix: (Units=GPa)
#
#
# Indices 1 2 3 4 5 6 
#
# 1 57.1824 29.9825 30.8025 7.5828 24.1557 -3.0679
# 2 29.9825 100.4619 25.0552 19.9763 15.3922 18.0845
# 3 30.8025 25.0552 88.8836 22.1485 38.0574 -5.0447
# 4 7.5828 19.9763 22.1485 34.4919 13.1154 -0.7213
# 5 24.1557 15.3922 38.0574 13.1154 35.0981 5.2166
# 6 -3.0679 18.0845 -5.0447 -0.7213 5.2166 32.9731
#
#
#
# Elastic Compliance Matrix: (Units=1/GPa)
#
#
# Indices 1 2 3 4 5 6 
#
# 1 0.031434 -0.009601 0.000108 0.007188 -0.021987 0.011842
# 2 -0.009601 0.016189 -0.003128 -0.008466 0.007797 -0.011669
# 3 0.000108 -0.003128 0.024322 -0.004168 -0.024900 0.009295
# 4 0.007188 -0.008466 -0.004168 0.040014 -0.012793 0.007573
# 5 -0.021987 0.007797 -0.024900 -0.012793 0.075302 -0.022325
# 6 0.011842 -0.011669 0.009295 0.007573 -0.022325 0.042949
#
#
# Mechanical properties :
#
#
# Convention : Reuss Voigt Hill
#
# Bulk Modulus (GPa) = 21.41139 46.46758 33.93949
# Shear Modulus (GPa) = 18.44890 31.22516 24.83703
#
# Velocity S-wave (km/s) = 2.90971 3.78545 3.37609
# Velocity P-wave (km/s) = 4.59505 6.35851 5.54731
#
# Compressibility (1/GPa) = 0.04670411
#
# Stress axis : x y z
#
# Youngs Moduli (GPa) = 31.81302 61.77141 41.11444
#
# Poissons Ratio (x) = 0.59305 -0.00444
# Poissons Ratio (y) = 0.30543 0.12859
# Poissons Ratio (z) = -0.00343 0.19319
#
# Static dielectric constant tensor:
#      x y z
#    x 1.849950 0.050120 0.024020 
#    y 0.050120 1.884890 0.037260 
#    z 0.024020 0.037260 1.842740 
# 
# From -- ./inp_files/315364.got.cif
#   From: 2010.05.17/outbox.cif.g08.bks.cpg/sg2_158_cif.got.tgz:315364.got - 2010.06.03 11:33:40.
