data_PCOD9099395
_publ_section_title
;
Structure prediction by ZEFSAII (Michael W. Deem and Ramdas Pophale) SiO2 
 PCOD9099395
Probable space group: P -1
;
_chemical_formula_sum "Si O2"
_cell_formula_units_Z 16
_cell_length_a 14.593743
_cell_length_b 8.264767
_cell_length_c 19.546831
_cell_angle_alpha 82.597428
_cell_angle_beta 157.613567
_cell_angle_gamma 86.170480
_cell_volume 775.059847
_symmetry_space_group_name_H-M "P -1"
_symmetry_group_IT_number 2
_symmetry_cell_setting 'triclinic'
loop_
_space_group_symop_operation_xyz
x,y,z
-x,-y,-z
loop_
_atom_site_type_symbol
_atom_site_label
_atom_site_fract_x
_atom_site_fract_y
_atom_site_fract_z
Si Si1 0.193258 0.065004 0.475676
Si Si2 0.214157 0.832634 0.702577
Si Si3 0.233185 0.520687 0.353608
Si Si4 0.353087 0.448439 0.839514
Si Si5 0.362585 0.143178 0.094455
Si Si6 0.372644 0.756611 0.095811
Si Si7 0.775798 0.863146 0.658351
Si Si8 0.814294 0.540034 0.522573
O O1 0.221350 0.036993 0.416194
O O2 0.194198 0.261788 0.476937
O O3 0.902871 0.101622 0.305563
O O4 0.442399 0.904644 0.701021
O O5 0.186508 0.651093 0.677037
O O6 0.510167 0.793353 0.883534
O O7 0.000000 0.000000 0.500000
O O8 0.500000 0.500000 0.500000
O O9 0.217785 0.332072 0.340324
O O10 0.243192 0.534790 0.442514
O O11 0.953180 0.698798 0.123578
O O12 0.552980 0.314916 0.926838
O O13 0.122015 0.406417 0.712764
O O14 0.500000 0.500000 0.000000
O O15 0.392450 0.944014 0.106963
O O16 0.585835 0.597376 0.302978
O O17 0.060787 0.811359 0.895051
O O18 0.500000 0.000000 0.500000
#
# Coordination Sequence:
#
# PCOD9099395 Si02
#       8
#     2   2   2   2   2   2   2   2
#     4   8  18  37  60  81 114 155 189 226 286 351
#     4   9  17  33  57  85 113 145 182 226 281 335
#     4  11  23  42  61  82 114 151 196 249 292 334
#     4  11  20  37  61  86 119 161 191 225 287 356
#     4  10  20  37  60  88 115 147 190 242 289 332
#     4  11  22  38  60  88 118 153 195 236 285 356
#     4  11  23  41  60  82 112 155 200 238 286 354
#     4   9  20  37  59  86 117 155 193 232 288 348
#
# _framework density 20.643567000000001
#
# number of rings (size 3 to 8) (size 9 to 14) (size 15 to 20)
#    0.000    2.000    0.000    5.625    0.000    1.000 
#    0.000   20.625    0.000    0.000    0.000    0.000 
#    0.000    0.000    0.000    0.000    0.000    0.000 
#
# Total GULP energy -89288.516598 kJ/mol
# GULP energy per Si atom -5580.532287 kJ/mol
# Density = 2.059658 g / cm^3
# Si number density = 20.643567 Si / 1000 Ang^3
#
#
#
# Elastic Constant Matrix: (Units=GPa)
#
#
# Indices 1 2 3 4 5 6 
#
# 1 81.7281 2.0335 38.0770 -1.3744 18.9492 12.2316
# 2 2.0335 25.6636 -9.7260 -9.9732 -0.6672 3.7222
# 3 38.0770 -9.7260 113.8295 -6.9985 15.8301 -0.9550
# 4 -1.3744 -9.9732 -6.9985 34.5091 2.5795 5.2900
# 5 18.9492 -0.6672 15.8301 2.5795 43.9128 0.7123
# 6 12.2316 3.7222 -0.9550 5.2900 0.7123 31.0227
#
#
#
# Elastic Compliance Matrix: (Units=1/GPa)
#
#
# Indices 1 2 3 4 5 6 
#
# 1 0.016918 -0.002355 -0.005143 0.000347 -0.005397 -0.006481
# 2 -0.002355 0.048957 0.006104 0.016547 -0.001290 -0.007550
# 3 -0.005143 0.006104 0.011568 0.003904 -0.002104 0.001034
# 4 0.000347 0.016547 0.003904 0.036049 -0.003292 -0.008074
# 5 -0.005397 -0.001290 -0.002104 -0.003292 0.025999 0.002183
# 6 -0.006481 -0.007550 0.001034 -0.008074 0.002183 0.037054
#
#
# Mechanical properties :
#
#
# Convention : Reuss Voigt Hill
#
# Bulk Modulus (GPa) = 13.39467 31.33223 22.36345
# Shear Modulus (GPa) = 24.48375 34.61136 29.54755
#
# Velocity S-wave (km/s) = 3.44760 4.09909 3.78738
# Velocity P-wave (km/s) = 4.72764 6.13303 5.47561
#
# Compressibility (1/GPa) = 0.07465656
#
# Stress axis : x y z
#
# Youngs Moduli (GPa) = 59.11033 20.42597 86.44330
#
# Poissons Ratio (x) = 0.04810 0.44455
# Poissons Ratio (y) = 0.13919 -0.52766
# Poissons Ratio (z) = 0.30399 -0.12468
#
# Static dielectric constant tensor:
#      x y z
#    x 1.773780 0.016770 -0.015270 
#    y 0.016770 1.757310 -0.014030 
#    z -0.015270 -0.014030 1.807570 
# 
# From -- ./inp_files/213220.got.cif
#   From: 2010.05.17/outbox.cif.g08.bks.cpg/sg2_107_cif.got.tgz:213220.got - 2010.06.03 11:33:40.
