data_PCOD9099449
_publ_section_title
;
Structure prediction by ZEFSAII (Michael W. Deem and Ramdas Pophale) SiO2 
 PCOD9099449
Probable space group: P -1
;
_chemical_formula_sum "Si O2"
_cell_formula_units_Z 12
_cell_length_a 16.888116
_cell_length_b 6.333008
_cell_length_c 9.614571
_cell_angle_alpha 134.352089
_cell_angle_beta 134.073096
_cell_angle_gamma 44.130540
_cell_volume 471.598387
_symmetry_space_group_name_H-M "P -1"
_symmetry_group_IT_number 2
_symmetry_cell_setting 'triclinic'
loop_
_space_group_symop_operation_xyz
x,y,z
-x,-y,-z
loop_
_atom_site_type_symbol
_atom_site_label
_atom_site_fract_x
_atom_site_fract_y
_atom_site_fract_z
Si Si1 0.170004 0.630869 0.403492
Si Si2 0.400428 0.756921 0.167691
Si Si3 0.212191 0.242458 0.989875
Si Si4 0.990956 0.351452 0.567033
Si Si5 0.568741 0.106513 0.435354
Si Si6 0.368025 0.912811 0.797805
O O1 0.188761 0.468230 0.200432
O O2 0.279575 0.731103 0.606657
O O3 0.139630 0.479775 0.435491
O O4 0.042155 0.969951 0.406690
O O5 0.359866 0.907339 0.341281
O O6 0.498471 0.374285 0.126268
O O7 0.282449 0.875519 0.977855
O O8 0.478500 0.945378 0.291614
O O9 0.089677 0.355297 0.801878
O O10 0.311614 0.207766 0.976060
O O11 0.000000 0.500000 0.500000
O O12 0.500000 0.500000 0.500000
O O13 0.634378 0.967849 0.306419
#
# Coordination Sequence:
#
# PCOD9099449 Si02
#       6
#     2   2   2   2   2   2
#     4  10  22  43  64  90 121 153 202 252 301 360
#     4  10  20  37  60  89 128 164 196 243 297 355
#     4  11  22  38  64  93 121 158 202 248 300 359
#     4  10  24  45  65  86 118 158 203 256 306 353
#     4   9  18  35  57  84 122 164 200 237 289 350
#     4  10  22  39  61  92 128 161 196 243 298 359
#
# _framework density 25.445381999999999
#
# number of rings (size 3 to 8) (size 9 to 14) (size 15 to 20)
#    0.000    2.000    0.000    4.000    0.000    6.667 
#    0.000   18.333    0.000    0.000    0.000    0.000 
#    0.000    0.000    0.000    0.000    0.000    0.000 
#
# Total GULP energy -67029.094455 kJ/mol
# GULP energy per Si atom -5585.757871 kJ/mol
# Density = 2.538747 g / cm^3
# Si number density = 25.445382 Si / 1000 Ang^3
#
#
#
# Elastic Constant Matrix: (Units=GPa)
#
#
# Indices 1 2 3 4 5 6 
#
# 1 189.9189 50.2566 100.6317 -5.6028 -53.4535 -1.6872
# 2 50.2566 70.9724 46.6494 -20.2645 -17.7052 -4.5725
# 3 100.6317 46.6494 197.9921 -21.8235 -52.6780 3.0352
# 4 -5.6028 -20.2645 -21.8235 49.1336 -7.7167 -17.0517
# 5 -53.4535 -17.7052 -52.6780 -7.7167 68.1908 2.3871
# 6 -1.6872 -4.5725 3.0352 -17.0517 2.3871 35.6615
#
#
#
# Elastic Compliance Matrix: (Units=1/GPa)
#
#
# Indices 1 2 3 4 5 6 
#
# 1 0.008700 -0.004023 -0.002696 -0.001616 0.003540 -0.000884
# 2 -0.004023 0.022217 -0.001400 0.011252 0.002527 0.007988
# 3 -0.002696 -0.001400 0.008296 0.003630 0.004327 0.000433
# 4 -0.001616 0.011252 0.003630 0.033346 0.007655 0.016489
# 5 0.003540 0.002527 0.004327 0.007655 0.022224 0.002296
# 6 -0.000884 0.007988 0.000433 0.016489 0.002296 0.036718
#
#
# Mechanical properties :
#
#
# Convention : Reuss Voigt Hill
#
# Bulk Modulus (GPa) = 43.52881 94.88429 69.20655
# Shear Modulus (GPa) = 32.17581 48.02021 40.09801
#
# Velocity S-wave (km/s) = 3.55985 4.34889 3.97400
# Velocity P-wave (km/s) = 5.83443 7.91122 6.95083
#
# Compressibility (1/GPa) = 0.02297329
#
# Stress axis : x y z
#
# Youngs Moduli (GPa) = 114.94765 45.01156 120.54507
#
# Poissons Ratio (x) = 0.18109 0.32505
# Poissons Ratio (y) = 0.46246 0.16871
# Poissons Ratio (z) = 0.30995 0.06299
#
# Static dielectric constant tensor:
#      x y z
#    x 2.144020 0.070270 0.014080 
#    y 0.070270 2.138400 0.012800 
#    z 0.014080 0.012800 2.032610 
# 
# From -- ./inp_files/115252.got.cif
#   From: 2010.05.17/outbox.cif.g08.bks.cpg/sg2_58_cif.got.tgz:115252.got - 2010.06.03 11:33:40.
