data_PCOD9099421
_publ_section_title
;
Structure prediction by ZEFSAII (Michael W. Deem and Ramdas Pophale) SiO2 
 PCOD9099421
Probable space group: P -1
;
_chemical_formula_sum "Si O2"
_cell_formula_units_Z 16
_cell_length_a 7.028315
_cell_length_b 27.624415
_cell_length_c 8.354576
_cell_angle_alpha 140.860162
_cell_angle_beta 58.120208
_cell_angle_gamma 142.708483
_cell_volume 603.339199
_symmetry_space_group_name_H-M "P -1"
_symmetry_group_IT_number 2
_symmetry_cell_setting 'triclinic'
loop_
_space_group_symop_operation_xyz
x,y,z
-x,-y,-z
loop_
_atom_site_type_symbol
_atom_site_label
_atom_site_fract_x
_atom_site_fract_y
_atom_site_fract_z
Si Si1 0.254941 0.055374 0.219386
Si Si2 0.264317 0.910116 0.656559
Si Si3 0.722174 0.473466 0.216057
Si Si4 0.844044 0.702715 0.479927
Si Si5 0.256530 0.733554 0.631960
Si Si6 0.281740 0.687608 0.064920
Si Si7 0.540490 0.865570 0.175026
Si Si8 0.301108 0.489673 0.317372
O O1 0.471378 0.064830 0.279617
O O2 0.433716 0.176352 0.391081
O O3 0.098124 0.023860 0.753057
O O4 0.272281 0.002230 0.922163
O O5 0.344005 0.889471 0.399757
O O6 0.925409 0.800573 0.606301
O O7 0.686898 0.373584 0.981710
O O8 0.476884 0.450220 0.138487
O O9 0.628176 0.467559 0.425529
O O10 0.056573 0.604343 0.385444
O O11 0.480003 0.588255 0.366462
O O12 0.005616 0.733677 0.663354
O O13 0.038028 0.687657 0.253782
O O14 0.352574 0.783647 0.895907
O O15 0.069465 0.602566 0.794990
O O16 0.554887 0.804015 0.152471
#
# Coordination Sequence:
#
# PCOD9099421 Si02
#       8
#     2   2   2   2   2   2   2   2
#     4  10  21  40  64  85 122 165 205 263 325 365
#     4   9  21  40  61  92 118 160 214 265 313 379
#     4  10  22  38  62  90 128 164 208 260 316 372
#     4   9  21  38  61  87 128 158 208 266 311 377
#     4  10  21  39  58  85 125 162 204 263 308 379
#     4  11  22  39  63  95 123 167 210 259 319 379
#     4  11  22  38  64  92 123 162 215 259 316 385
#     4  10  20  37  60  88 125 165 207 254 310 380
#
# _framework density 26.519078
#
# number of rings (size 3 to 8) (size 9 to 14) (size 15 to 20)
#    0.000    2.000    1.250    1.500    1.750    2.500 
#    2.250    2.500    2.750    0.000    0.000    0.000 
#    0.000    0.000    0.000    0.000    0.000    0.000 
#
# Total GULP energy -89477.806597 kJ/mol
# GULP energy per Si atom -5592.362912 kJ/mol
# Density = 2.645872 g / cm^3
# Si number density = 26.519078 Si / 1000 Ang^3
#
#
#
# Elastic Constant Matrix: (Units=GPa)
#
#
# Indices 1 2 3 4 5 6 
#
# 1 86.4118 44.3636 27.8207 13.3745 -9.8750 -21.4053
# 2 44.3636 210.9060 38.8834 20.3495 -16.2161 -3.9756
# 3 27.8207 38.8834 89.3795 -5.1201 -17.2541 -12.1813
# 4 13.3745 20.3495 -5.1201 50.4424 -13.9435 -4.4546
# 5 -9.8750 -16.2161 -17.2541 -13.9435 20.3700 2.4079
# 6 -21.4053 -3.9756 -12.1813 -4.4546 2.4079 21.4939
#
#
#
# Elastic Compliance Matrix: (Units=1/GPa)
#
#
# Indices 1 2 3 4 5 6 
#
# 1 0.018063 -0.002803 -0.002102 -0.002082 0.001466 0.015683
# 2 -0.002803 0.005902 -0.002175 -0.002016 0.000521 -0.003408
# 3 -0.002102 -0.002175 0.017602 0.008622 0.017194 0.007341
# 4 -0.002082 -0.002016 0.008622 0.029211 0.023999 0.005806
# 5 0.001466 0.000521 0.017194 0.023999 0.080349 0.007274
# 6 0.015683 -0.003408 0.007341 0.005806 0.007274 0.066062
#
#
# Mechanical properties :
#
#
# Convention : Reuss Voigt Hill
#
# Bulk Modulus (GPa) = 36.48477 67.64809 52.06643
# Shear Modulus (GPa) = 20.79143 36.83657 28.81400
#
# Velocity S-wave (km/s) = 2.80307 3.73105 3.29984
# Velocity P-wave (km/s) = 4.92586 6.64271 5.84763
#
# Compressibility (1/GPa) = 0.02740870
#
# Stress axis : x y z
#
# Youngs Moduli (GPa) = 55.36266 169.42757 56.81143
#
# Poissons Ratio (x) = 0.47486 0.11940
# Poissons Ratio (y) = 0.15517 0.12355
# Poissons Ratio (z) = 0.11636 0.36845
#
# Static dielectric constant tensor:
#      x y z
#    x 2.147800 -0.015560 -0.051350 
#    y -0.015560 2.080680 0.085300 
#    z -0.051350 0.085300 2.287970 
# 
# From -- ./inp_files/227956.got.cif
#   From: 2010.05.17/outbox.cif.g08.bks.cpg/sg2_114_cif.got.tgz:227956.got - 2010.06.03 11:33:40.
