data_PCOD9099254
_publ_section_title
;
Structure prediction by ZEFSAII (Michael W. Deem and Ramdas Pophale) SiO2 
 PCOD9099254
Probable space group: P -1
;
_chemical_formula_sum "Si O2"
_cell_formula_units_Z 14
_cell_length_a 20.625907
_cell_length_b 12.564499
_cell_length_c 6.455652
_cell_angle_alpha 70.813955
_cell_angle_beta 81.296910
_cell_angle_gamma 142.817578
_cell_volume 658.897047
_symmetry_space_group_name_H-M "P -1"
_symmetry_group_IT_number 2
_symmetry_cell_setting 'triclinic'
loop_
_space_group_symop_operation_xyz
x,y,z
-x,-y,-z
loop_
_atom_site_type_symbol
_atom_site_label
_atom_site_fract_x
_atom_site_fract_y
_atom_site_fract_z
Si Si1 0.255207 0.651058 0.289012
Si Si2 0.919981 0.814957 0.849387
Si Si3 0.595453 0.244423 0.179440
Si Si4 0.816237 0.090056 0.796275
Si Si5 0.918693 0.031508 0.970239
Si Si6 0.877515 0.376401 0.914932
Si Si7 0.675801 0.047338 0.616331
O O1 0.240615 0.718160 0.067460
O O2 0.295076 0.791412 0.374142
O O3 0.088756 0.334700 0.611264
O O4 0.369289 0.735237 0.089314
O O5 0.877621 0.846464 0.014530
O O6 0.761122 0.513340 0.039883
O O7 0.000000 0.000000 0.500000
O O8 0.043690 0.925610 0.832061
O O9 0.500000 0.000000 0.500000
O O10 0.489384 0.191047 0.261278
O O11 0.802116 0.944655 0.995057
O O12 0.869560 0.251148 0.860771
O O13 0.683328 0.953054 0.828980
O O14 0.956464 0.310118 0.419697
O O15 0.817042 0.260572 0.247510
#
# Coordination Sequence:
#
# PCOD9099254 Si02
#       7
#     2   2   2   2   2   2   2
#     4  10  20  37  59  95 126 163 206 254 314 364
#     4  11  24  43  64  91 123 160 216 254 309 378
#     4  12  23  39  64  97 130 164 201 262 318 366
#     4   9  20  36  59  88 126 162 212 252 306 369
#     4  10  22  41  65  88 118 166 210 259 305 362
#     4   9  18  34  55  92 124 164 207 254 301 366
#     4  11  21  34  59  94 131 163 203 254 316 371
#
# _framework density 21.247629
#
# number of rings (size 3 to 8) (size 9 to 14) (size 15 to 20)
#    0.000    1.714    2.857    2.571    0.000    1.143 
#    0.000    0.714    0.000    1.714    0.000    0.000 
#    0.000    0.000    0.000    0.000    0.000    0.000 
#
# Total GULP energy -78094.684136 kJ/mol
# GULP energy per Si atom -5578.191724 kJ/mol
# Density = 2.119927 g / cm^3
# Si number density = 21.247629 Si / 1000 Ang^3
#
#
#
# Elastic Constant Matrix: (Units=GPa)
#
#
# Indices 1 2 3 4 5 6 
#
# 1 105.4355 12.5716 21.2722 14.1408 18.2906 18.2259
# 2 12.5716 75.0976 25.7512 9.5293 3.8195 4.9947
# 3 21.2722 25.7512 77.3518 15.5560 8.3536 7.9326
# 4 14.1408 9.5293 15.5560 23.0222 2.7748 4.8129
# 5 18.2906 3.8195 8.3536 2.7748 36.7744 9.5777
# 6 18.2259 4.9947 7.9326 4.8129 9.5777 29.7183
#
#
#
# Elastic Compliance Matrix: (Units=1/GPa)
#
#
# Indices 1 2 3 4 5 6 
#
# 1 0.011970 -0.000437 -0.001244 -0.004832 -0.003993 -0.004866
# 2 -0.000437 0.015289 -0.004295 -0.003019 0.000007 -0.000668
# 3 -0.001244 -0.004295 0.016669 -0.008285 -0.001827 -0.001034
# 4 -0.004832 -0.003019 -0.008285 0.053809 0.001450 -0.003499
# 5 -0.003993 0.000007 -0.001827 0.001450 0.031418 -0.007425
# 6 -0.004866 -0.000668 -0.001034 -0.003499 -0.007425 0.039981
#
#
# Mechanical properties :
#
#
# Convention : Reuss Voigt Hill
#
# Bulk Modulus (GPa) = 31.27366 41.89719 36.58543
# Shear Modulus (GPa) = 26.07610 31.12231 28.59920
#
# Velocity S-wave (km/s) = 3.50701 3.83135 3.67276
# Velocity P-wave (km/s) = 5.58117 6.27165 5.93646
#
# Compressibility (1/GPa) = 0.03197579
#
# Stress axis : x y z
#
# Youngs Moduli (GPa) = 83.54561 65.40622 59.99010
#
# Poissons Ratio (x) = 0.02860 0.07464
# Poissons Ratio (y) = 0.03653 0.25764
# Poissons Ratio (z) = 0.10394 0.28090
#
# Static dielectric constant tensor:
#      x y z
#    x 1.847530 0.044290 -0.000480 
#    y 0.044290 1.822340 0.045370 
#    z -0.000480 0.045370 1.752150 
# 
# From -- ./inp_files/66984.got.cif
#   From: 2010.05.17/outbox.cif.g08.bks.cpg/sg2_34_cif.got.tgz:66984.got - 2010.06.03 11:33:40.
