data_PCOD9099586
_publ_section_title
;
Structure prediction by ZEFSAII (Michael W. Deem and Ramdas Pophale) SiO2 
 PCOD9099586
Probable space group: P -1
;
_chemical_formula_sum "Si O2"
_cell_formula_units_Z 16
_cell_length_a 17.581388
_cell_length_b 20.969592
_cell_length_c 9.514559
_cell_angle_alpha 150.111063
_cell_angle_beta 43.004007
_cell_angle_gamma 151.781729
_cell_volume 818.535827
_symmetry_space_group_name_H-M "P -1"
_symmetry_group_IT_number 2
_symmetry_cell_setting 'triclinic'
loop_
_space_group_symop_operation_xyz
x,y,z
-x,-y,-z
loop_
_atom_site_type_symbol
_atom_site_label
_atom_site_fract_x
_atom_site_fract_y
_atom_site_fract_z
Si Si1 0.521282 0.225240 0.848476
Si Si2 0.071240 0.679446 0.837921
Si Si3 0.702742 0.136235 0.356870
Si Si4 0.896377 0.743831 0.791461
Si Si5 0.777918 0.855487 0.974038
Si Si6 0.110095 0.216270 0.790635
Si Si7 0.019449 0.464916 0.749721
Si Si8 0.671372 0.596600 0.389433
O O1 0.607245 0.189414 0.572224
O O2 0.421227 0.069963 0.807605
O O3 0.386297 0.199341 0.905443
O O4 0.659844 0.435448 0.119537
O O5 0.225843 0.846385 0.854758
O O6 0.000000 0.500000 0.500000
O O7 0.092839 0.637419 0.881304
O O8 0.960930 0.713592 0.050597
O O9 0.848927 0.282158 0.551873
O O10 0.781126 0.754854 0.901085
O O11 0.872749 0.574051 0.470544
O O12 0.892091 0.758297 0.992272
O O13 0.068414 0.923096 0.826230
O O14 0.792951 0.780128 0.669688
O O15 0.281356 0.339260 0.713408
O O16 0.000000 0.000000 0.500000
O O17 0.000000 0.500000 0.000000
O O18 0.500000 0.500000 0.500000
#
# Coordination Sequence:
#
# PCOD9099586 Si02
#       8
#     2   2   2   2   2   2   2   2
#     4  10  20  37  61  85 122 165 211 242 316 378
#     4  10  20  37  61  88 121 154 212 260 302 361
#     4  10  20  38  64  86 118 166 205 260 308 372
#     4  11  22  38  64  89 131 156 207 268 320 363
#     4  10  21  39  57  92 127 162 199 261 315 374
#     4  12  22  38  65  96 126 163 214 260 311 372
#     4  11  23  37  63  93 120 156 209 267 321 364
#     4  10  22  36  61  88 123 164 207 249 299 386
#
# _framework density 19.547097999999998
#
# number of rings (size 3 to 8) (size 9 to 14) (size 15 to 20)
#    0.000    1.500    5.000    1.500    5.250    0.000 
#    0.000    2.500    0.000    4.500    0.000    0.000 
#    0.000    0.000    0.000    0.000    0.000    0.000 
#
# Total GULP energy -89151.894152 kJ/mol
# GULP energy per Si atom -5571.993384 kJ/mol
# Density = 1.950261 g / cm^3
# Si number density = 19.547098 Si / 1000 Ang^3
#
#
#
# Elastic Constant Matrix: (Units=GPa)
#
#
# Indices 1 2 3 4 5 6 
#
# 1 102.0005 12.8768 46.2560 -17.3189 -25.6718 -18.0027
# 2 12.8768 74.3812 25.3003 -24.2344 -3.0562 -12.4889
# 3 46.2560 25.3003 80.2201 -12.5236 -16.2673 -19.1329
# 4 -17.3189 -24.2344 -12.5236 29.6088 -7.0152 3.9970
# 5 -25.6718 -3.0562 -16.2673 -7.0152 34.5695 -9.3301
# 6 -18.0027 -12.4889 -19.1329 3.9970 -9.3301 27.5438
#
#
#
# Elastic Compliance Matrix: (Units=1/GPa)
#
#
# Indices 1 2 3 4 5 6 
#
# 1 0.028831 0.012271 -0.000314 0.031277 0.037419 0.032326
# 2 0.012271 0.026540 0.000056 0.031471 0.024282 0.023751
# 3 -0.000314 0.000056 0.022937 0.011158 0.018319 0.020339
# 4 0.031277 0.031471 0.011158 0.090707 0.063368 0.050765
# 5 0.037419 0.024282 0.018319 0.063368 0.100010 0.072873
# 6 0.032326 0.023751 0.020339 0.050765 0.072873 0.099650
#
#
# Mechanical properties :
#
#
# Convention : Reuss Voigt Hill
#
# Bulk Modulus (GPa) = 9.77194 47.27422 28.52308
# Shear Modulus (GPa) = 13.20103 29.82234 21.51168
#
# Velocity S-wave (km/s) = 2.60156 3.91021 3.32099
# Velocity P-wave (km/s) = 3.74622 6.68009 5.41562
#
# Compressibility (1/GPa) = 0.10233382
#
# Stress axis : x y z
#
# Youngs Moduli (GPa) = 34.68529 37.67890 43.59825
#
# Poissons Ratio (x) = -0.46236 0.01367
# Poissons Ratio (y) = -0.42562 -0.00243
# Poissons Ratio (z) = 0.01088 -0.00210
#
# Static dielectric constant tensor:
#      x y z
#    x 1.728190 0.016600 -0.021690 
#    y 0.016600 1.737170 0.045070 
#    z -0.021690 0.045070 1.760760 
# 
# From -- ./inp_files/338010.got.cif
#   From: 2010.05.17/outbox.cif.g08.bks.cpg/sg2_170_cif.got.tgz:338010.got - 2010.06.03 11:33:40.
