data_PCOD9099434
_publ_section_title
;
Structure prediction by ZEFSAII (Michael W. Deem and Ramdas Pophale) SiO2 
 PCOD9099434
Probable space group: P -1
;
_chemical_formula_sum "Si O2"
_cell_formula_units_Z 16
_cell_length_a 7.165176
_cell_length_b 19.040848
_cell_length_c 20.319995
_cell_angle_alpha 157.506892
_cell_angle_beta 130.246450
_cell_angle_gamma 59.493261
_cell_volume 770.752352
_symmetry_space_group_name_H-M "P -1"
_symmetry_group_IT_number 2
_symmetry_cell_setting 'triclinic'
loop_
_space_group_symop_operation_xyz
x,y,z
-x,-y,-z
loop_
_atom_site_type_symbol
_atom_site_label
_atom_site_fract_x
_atom_site_fract_y
_atom_site_fract_z
Si Si1 0.555266 0.295872 0.786385
Si Si2 0.630031 0.442224 0.413712
Si Si3 0.863181 0.000543 0.772554
Si Si4 0.860235 0.560406 0.773492
Si Si5 0.057776 0.354907 0.749523
Si Si6 0.365709 0.933369 0.518374
Si Si7 0.193537 0.143872 0.217135
Si Si8 0.763860 0.226652 0.364499
O O1 0.288234 0.331673 0.736062
O O2 0.656476 0.191074 0.660819
O O3 0.458095 0.152771 0.702830
O O4 0.778429 0.485509 0.023420
O O5 0.500000 0.500000 0.500000
O O6 0.408084 0.399082 0.270874
O O7 0.832500 0.642318 0.612040
O O8 0.727180 0.274512 0.320717
O O9 0.600957 0.915474 0.600116
O O10 0.839716 0.925739 0.776645
O O11 0.083986 0.926327 0.726234
O O12 0.936935 0.231093 0.991829
O O13 0.904875 0.426758 0.608143
O O14 0.871597 0.440820 0.738249
O O15 0.889566 0.159364 0.577178
O O16 0.482926 0.156894 0.272629
O O17 0.000000 0.000000 0.000000
#
# Coordination Sequence:
#
# PCOD9099434 Si02
#       8
#     2   2   2   2   2   2   2   2
#     4  10  23  40  64  91 121 160 201 256 315 371
#     4   8  17  35  56  79 117 158 191 250 305 342
#     4  12  23  38  64  90 121 166 207 251 311 367
#     4  10  20  39  60  87 126 156 204 260 302 362
#     4  11  21  41  64  88 123 163 199 254 320 365
#     4  11  22  40  63  93 123 157 208 255 305 377
#     4  10  20  37  60  89 119 158 212 257 300 368
#     4  10  22  40  59  86 124 166 202 258 310 358
#
# _framework density 20.758937
#
# number of rings (size 3 to 8) (size 9 to 14) (size 15 to 20)
#    0.000    2.000    1.250    5.250    0.000    2.500 
#    0.000    7.500    0.000    0.000    0.000    0.000 
#    0.000    0.000    0.000    0.000    0.000    0.000 
#
# Total GULP energy -89249.450194 kJ/mol
# GULP energy per Si atom -5578.090637 kJ/mol
# Density = 2.071169 g / cm^3
# Si number density = 20.758937 Si / 1000 Ang^3
#
#
#
# Elastic Constant Matrix: (Units=GPa)
#
#
# Indices 1 2 3 4 5 6 
#
# 1 49.2602 3.4600 7.3601 -0.2450 5.7028 -3.6538
# 2 3.4600 82.5927 17.3170 -6.4883 2.9245 3.5840
# 3 7.3601 17.3170 59.5226 -1.0673 12.0596 1.3916
# 4 -0.2450 -6.4883 -1.0673 29.4351 0.8341 8.1872
# 5 5.7028 2.9245 12.0596 0.8341 19.0079 3.4351
# 6 -3.6538 3.5840 1.3916 8.1872 3.4351 29.0346
#
#
#
# Elastic Compliance Matrix: (Units=1/GPa)
#
#
# Indices 1 2 3 4 5 6 
#
# 1 0.021539 -0.000642 -0.001332 -0.000903 -0.006173 0.003839
# 2 -0.000642 0.013298 -0.003850 0.003492 0.000911 -0.002630
# 3 -0.001332 -0.003850 0.020534 0.000019 -0.012174 0.000758
# 4 -0.000903 0.003492 0.000019 0.037857 0.000090 -0.011231
# 5 -0.006173 0.000911 -0.012174 0.000090 0.063458 -0.007839
# 6 0.003839 -0.002630 0.000758 -0.011231 -0.007839 0.039308
#
#
# Mechanical properties :
#
#
# Convention : Reuss Voigt Hill
#
# Bulk Modulus (GPa) = 22.87098 27.51664 25.19381
# Shear Modulus (GPa) = 22.50058 26.37807 24.43932
#
# Velocity S-wave (km/s) = 3.29583 3.56853 3.43489
# Velocity P-wave (km/s) = 5.05220 5.50121 5.28148
#
# Compressibility (1/GPa) = 0.04372354
#
# Stress axis : x y z
#
# Youngs Moduli (GPa) = 46.42677 75.19987 48.69929
#
# Poissons Ratio (x) = 0.04828 0.06487
# Poissons Ratio (y) = 0.02981 0.18749
# Poissons Ratio (z) = 0.06184 0.28951
#
# Static dielectric constant tensor:
#      x y z
#    x 1.745500 -0.074430 0.005910 
#    y -0.074430 1.676560 0.083690 
#    z 0.005910 0.083690 1.719140 
# 
# From -- ./inp_files/608594.got.cif
#   From: 2010.05.17/outbox.cif.g08.bks.cpg/sg2_305_cif.got.tgz:608594.got - 2010.06.03 11:33:40.
