data_PCOD9099489
_publ_section_title
;
Structure prediction by ZEFSAII (Michael W. Deem and Ramdas Pophale) SiO2 
 PCOD9099489
Probable space group: P -1
;
_chemical_formula_sum "Si O2"
_cell_formula_units_Z 16
_cell_length_a 5.441584
_cell_length_b 19.721461
_cell_length_c 16.863659
_cell_angle_alpha 157.870493
_cell_angle_beta 71.454628
_cell_angle_gamma 110.067671
_cell_volume 640.342228
_symmetry_space_group_name_H-M "P -1"
_symmetry_group_IT_number 2
_symmetry_cell_setting 'triclinic'
loop_
_space_group_symop_operation_xyz
x,y,z
-x,-y,-z
loop_
_atom_site_type_symbol
_atom_site_label
_atom_site_fract_x
_atom_site_fract_y
_atom_site_fract_z
Si Si1 0.226297 0.391710 0.388506
Si Si2 0.740257 0.898063 0.241740
Si Si3 0.558850 0.766110 0.957134
Si Si4 0.834419 0.523694 0.243802
Si Si5 0.794421 0.943742 0.889179
Si Si6 0.751133 0.924969 0.692738
Si Si7 0.664584 0.293222 0.680529
Si Si8 0.347868 0.614364 0.051834
O O1 0.500000 0.500000 0.500000
O O2 0.281348 0.278587 0.182848
O O3 0.181147 0.269228 0.338074
O O4 0.000000 0.500000 0.500000
O O5 0.604806 0.767841 0.182670
O O6 0.594709 0.077935 0.445964
O O7 0.701399 0.766536 0.026841
O O8 0.039014 0.992685 0.305812
O O9 0.297880 0.617266 0.830132
O O10 0.494276 0.969260 0.175022
O O11 0.694347 0.707227 0.456534
O O12 0.134275 0.618224 0.311341
O O13 0.797173 0.402646 0.035850
O O14 0.853050 0.986123 0.837217
O O15 0.500000 0.000000 0.000000
O O16 0.000000 0.000000 0.000000
O O17 0.794078 0.327897 0.792586
O O18 0.434551 0.416063 0.839288
#
# Coordination Sequence:
#
# PCOD9099489 Si02
#       8
#     2   2   2   2   2   2   2   2
#     4  12  27  47  70 102 137 181 233 286 347 418
#     4  10  22  38  60  93 123 169 215 270 334 401
#     4  11  23  42  66  89 133 171 218 281 338 402
#     4  10  22  39  60  96 124 169 219 268 338 397
#     4  12  25  46  71  99 136 182 230 284 350 411
#     4  11  23  41  66  91 130 171 222 278 336 406
#     4  10  20  37  60  91 124 167 214 267 326 401
#     4  10  20  37  61  87 129 166 211 269 328 397
#
# _framework density 24.986637999999999
#
# number of rings (size 3 to 8) (size 9 to 14) (size 15 to 20)
#    0.000    1.250    1.250    4.500    1.750    0.000 
#    9.000    0.000    0.000   12.000    0.000    0.000 
#    0.000    0.000    0.000    0.000    0.000    0.000 
#
# Total GULP energy -89282.127583 kJ/mol
# GULP energy per Si atom -5580.132974 kJ/mol
# Density = 2.492977 g / cm^3
# Si number density = 24.986638 Si / 1000 Ang^3
#
#
#
# Elastic Constant Matrix: (Units=GPa)
#
#
# Indices 1 2 3 4 5 6 
#
# 1 86.6648 13.2080 25.3085 -0.2837 -10.4905 -2.3079
# 2 13.2080 109.3033 20.1310 0.0361 -6.9542 12.9996
# 3 25.3085 20.1310 122.7527 -1.8228 -13.1720 0.3119
# 4 -0.2837 0.0361 -1.8228 41.5744 -5.2406 1.6495
# 5 -10.4905 -6.9542 -13.1720 -5.2406 43.9969 -3.8957
# 6 -2.3079 12.9996 0.3119 1.6495 -3.8957 23.6339
#
#
#
# Elastic Compliance Matrix: (Units=1/GPa)
#
#
# Indices 1 2 3 4 5 6 
#
# 1 0.012718 -0.001265 -0.002158 0.000205 0.002419 0.002351
# 2 -0.001265 0.010256 -0.001357 0.000203 0.000434 -0.005689
# 3 -0.002158 -0.001357 0.009049 0.000622 0.002118 0.000722
# 4 0.000205 0.000203 0.000622 0.024521 0.003072 -0.001305
# 5 0.002419 0.000434 0.002118 0.003072 0.024713 0.003829
# 6 0.002351 -0.005689 0.000722 -0.001305 0.003829 0.046384
#
#
# Mechanical properties :
#
#
# Convention : Reuss Voigt Hill
#
# Bulk Modulus (GPa) = 44.51985 48.44622 46.48303
# Shear Modulus (GPa) = 34.55722 39.17926 36.86824
#
# Velocity S-wave (km/s) = 3.72294 3.96410 3.84541
# Velocity P-wave (km/s) = 6.02798 6.35477 6.19353
#
# Compressibility (1/GPa) = 0.02246189
#
# Stress axis : x y z
#
# Youngs Moduli (GPa) = 78.63017 97.50541 110.51429
#
# Poissons Ratio (x) = 0.12335 0.23849
# Poissons Ratio (y) = 0.09947 0.14998
# Poissons Ratio (z) = 0.16968 0.13232
#
# Static dielectric constant tensor:
#      x y z
#    x 2.089800 -0.009280 0.063170 
#    y -0.009280 1.981100 -0.025880 
#    z 0.063170 -0.025880 1.965540 
# 
# From -- ./inp_files/55520.got.cif
#   From: 2010.05.17/outbox.cif.g08.bks.cpg/sg2_28_cif.got.tgz:55520.got - 2010.06.03 11:33:40.
