data_PCOD9099917
_publ_section_title
;
Structure prediction by ZEFSAII (Michael W. Deem and Ramdas Pophale) SiO2 
 PCOD9099917
Probable space group: P -1
;
_chemical_formula_sum "Si O2"
_cell_formula_units_Z 14
_cell_length_a 12.005145
_cell_length_b 7.072191
_cell_length_c 10.204807
_cell_angle_alpha 44.587512
_cell_angle_beta 84.244518
_cell_angle_gamma 87.795799
_cell_volume 604.481573
_symmetry_space_group_name_H-M "P -1"
_symmetry_group_IT_number 2
_symmetry_cell_setting 'triclinic'
loop_
_space_group_symop_operation_xyz
x,y,z
-x,-y,-z
loop_
_atom_site_type_symbol
_atom_site_label
_atom_site_fract_x
_atom_site_fract_y
_atom_site_fract_z
Si Si1 0.024998 0.328506 0.777026
Si Si2 0.321676 0.665847 0.456382
Si Si3 0.755422 0.546501 0.167889
Si Si4 0.570442 0.806335 0.442215
Si Si5 0.109883 0.473437 0.086930
Si Si6 0.462150 0.585084 0.819745
Si Si7 0.097883 0.868992 0.349101
O O1 0.916086 0.357074 0.866469
O O2 0.990577 0.132307 0.759308
O O3 0.138899 0.281606 0.868218
O O4 0.050517 0.624317 0.565256
O O5 0.272200 0.670083 0.607306
O O6 0.449373 0.782474 0.393014
O O7 0.337371 0.356875 0.564154
O O8 0.223489 0.798733 0.322082
O O9 0.629893 0.638544 0.111994
O O10 0.793305 0.457671 0.062793
O O11 0.551683 0.652212 0.660460
O O12 0.591591 0.122146 0.303221
O O13 0.112525 0.156152 0.275107
O O14 0.000000 0.500000 0.000000
O O15 0.500000 0.500000 0.000000
#
# Coordination Sequence:
#
# PCOD9099917 Si02
#       7
#     2   2   2   2   2   2   2
#     4   9  20  40  57  85 117 157 200 243 296 358
#     4   9  19  40  59  82 117 158 198 245 304 355
#     4   9  20  38  53  85 121 147 194 247 299 349
#     4   9  20  41  61  84 123 158 194 255 303 349
#     4  10  21  37  57  85 121 156 192 253 300 347
#     4  10  21  38  62  90 117 155 203 247 300 371
#     4  10  20  37  62  87 115 159 206 239 294 375
#
# _framework density 23.160343999999998
#
# number of rings (size 3 to 8) (size 9 to 14) (size 15 to 20)
#    0.000    2.571    0.000    0.429    2.000    3.429 
#   28.286    2.143    0.000    0.000    0.000    0.000 
#    0.000    0.000    0.000    0.000    0.000    0.000 
#
# Total GULP energy -77943.311319 kJ/mol
# GULP energy per Si atom -5567.379380 kJ/mol
# Density = 2.310763 g / cm^3
# Si number density = 23.160344 Si / 1000 Ang^3
#
#
#
# Elastic Constant Matrix: (Units=GPa)
#
#
# Indices 1 2 3 4 5 6 
#
# 1 79.5039 12.0879 37.6695 2.6182 7.2204 13.7344
# 2 12.0879 69.3755 29.1169 -1.3295 1.1519 6.5189
# 3 37.6695 29.1169 97.5306 6.6182 -5.1482 -0.2311
# 4 2.6182 -1.3295 6.6182 29.6942 2.6670 12.9788
# 5 7.2204 1.1519 -5.1482 2.6670 35.4053 11.1885
# 6 13.7344 6.5189 -0.2311 12.9788 11.1885 22.5360
#
#
#
# Elastic Compliance Matrix: (Units=1/GPa)
#
#
# Indices 1 2 3 4 5 6 
#
# 1 0.018876 0.001916 -0.008434 0.007393 -0.000607 -0.016101
# 2 0.001916 0.017945 -0.006526 0.006711 0.000976 -0.010774
# 3 -0.008434 -0.006526 0.016111 -0.008169 0.001341 0.011232
# 4 0.007393 0.006711 -0.008169 0.051724 0.005536 -0.039068
# 5 -0.000607 0.000976 0.001341 0.005536 0.034503 -0.020216
# 6 -0.016101 -0.010774 0.011232 -0.039068 -0.020216 0.089954
#
#
# Mechanical properties :
#
#
# Convention : Reuss Voigt Hill
#
# Bulk Modulus (GPa) = 37.25605 44.90651 41.08128
# Shear Modulus (GPa) = 18.92859 28.69616 23.81237
#
# Velocity S-wave (km/s) = 2.86192 3.52379 3.20996
# Velocity P-wave (km/s) = 5.20018 5.99897 5.61380
#
# Compressibility (1/GPa) = 0.02684128
#
# Stress axis : x y z
#
# Youngs Moduli (GPa) = 52.97704 55.72731 62.06964
#
# Poissons Ratio (x) = -0.10675 0.52352
# Poissons Ratio (y) = -0.10148 0.40509
# Poissons Ratio (z) = 0.44683 0.36370
#
# Static dielectric constant tensor:
#      x y z
#    x 1.982950 0.027500 -0.077780 
#    y 0.027500 1.917650 0.054980 
#    z -0.077780 0.054980 2.146160 
# 
# From -- ./inp_files/302062.got.cif
#   From: 2010.05.17/outbox.cif.g08.bks.cpg/sg2_152_cif.got.tgz:302062.got - 2010.06.03 11:33:40.
