data_PCOD9099630
_publ_section_title
;
Structure prediction by ZEFSAII (Michael W. Deem and Ramdas Pophale) SiO2 
 PCOD9099630
Probable space group: P -1
;
_chemical_formula_sum "Si O2"
_cell_formula_units_Z 16
_cell_length_a 13.937111
_cell_length_b 12.965238
_cell_length_c 13.825840
_cell_angle_alpha 148.359196
_cell_angle_beta 29.405946
_cell_angle_gamma 135.117699
_cell_volume 638.153181
_symmetry_space_group_name_H-M "P -1"
_symmetry_group_IT_number 2
_symmetry_cell_setting 'triclinic'
loop_
_space_group_symop_operation_xyz
x,y,z
-x,-y,-z
loop_
_atom_site_type_symbol
_atom_site_label
_atom_site_fract_x
_atom_site_fract_y
_atom_site_fract_z
Si Si1 0.229871 0.035925 0.047095
Si Si2 0.838686 0.168538 0.235564
Si Si3 0.394976 0.377352 0.642423
Si Si4 0.177740 0.772867 0.073664
Si Si5 0.295581 0.338519 0.374140
Si Si6 0.118656 0.462354 0.132432
Si Si7 0.275532 0.099285 0.384856
Si Si8 0.132823 0.658277 0.462817
O O1 0.337492 0.212561 0.138963
O O2 0.013744 0.155588 0.302904
O O3 0.208817 0.887262 0.037238
O O4 0.290505 0.931171 0.808316
O O5 0.745632 0.275546 0.499605
O O6 0.978942 0.306450 0.168640
O O7 0.000000 0.000000 0.000000
O O8 0.594498 0.469102 0.564639
O O9 0.402732 0.165649 0.414446
O O10 0.279164 0.546944 0.807983
O O11 0.263882 0.383008 0.857720
O O12 0.943517 0.803237 0.316676
O O13 0.254609 0.882371 0.188797
O O14 0.358359 0.205929 0.305474
O O15 0.057924 0.375729 0.621985
O O16 0.226053 0.549546 0.198815
O O17 0.000000 0.500000 0.500000
#
# Coordination Sequence:
#
# PCOD9099630 Si02
#       8
#     2   2   2   2   2   2   2   2
#     4   9  18  32  55  85 116 148 197 238 292 352
#     4   9  17  33  62  90 108 151 195 243 305 352
#     4  12  23  38  61  84 125 165 194 233 296 347
#     4  10  21  36  59  85 123 161 191 248 285 340
#     4  10  22  38  54  86 121 157 200 237 279 352
#     4  10  20  37  61  87 117 154 196 240 295 352
#     4  10  21  37  54  84 119 160 205 234 277 347
#     4   8  16  32  56  82 110 141 191 243 290 348
#
# _framework density 25.072348000000002
#
# number of rings (size 3 to 8) (size 9 to 14) (size 15 to 20)
#    0.000    2.250    1.250    1.500    3.500    2.000 
#    2.250    0.000    0.000   28.500    0.000    0.000 
#    0.000    0.000    0.000    0.000    0.000    0.000 
#
# Total GULP energy -89409.598560 kJ/mol
# GULP energy per Si atom -5588.099910 kJ/mol
# Density = 2.501528 g / cm^3
# Si number density = 25.072348 Si / 1000 Ang^3
#
#
#
# Elastic Constant Matrix: (Units=GPa)
#
#
# Indices 1 2 3 4 5 6 
#
# 1 184.0362 40.9322 47.0600 5.2807 50.8059 29.9432
# 2 40.9322 50.0498 24.7056 -2.0593 8.1096 17.0054
# 3 47.0600 24.7056 81.5569 0.0720 24.9718 17.2401
# 4 5.2807 -2.0593 0.0720 38.8652 7.7179 2.9933
# 5 50.8059 8.1096 24.9718 7.7179 48.1407 19.8008
# 6 29.9432 17.0054 17.2401 2.9933 19.8008 56.5073
#
#
#
# Elastic Compliance Matrix: (Units=1/GPa)
#
#
# Indices 1 2 3 4 5 6 
#
# 1 0.009255 -0.005701 -0.001089 0.000082 -0.008271 0.000037
# 2 -0.005701 0.028759 -0.006162 0.001460 0.006671 -0.006169
# 3 -0.001089 -0.006162 0.016860 0.001126 -0.006541 -0.000480
# 4 0.000082 0.001460 0.001126 0.026828 -0.005016 -0.000490
# 5 -0.008271 0.006671 -0.006541 -0.005016 0.035832 -0.007920
# 6 0.000037 -0.006169 -0.000480 -0.000490 -0.007920 0.022481
#
#
# Mechanical properties :
#
#
# Convention : Reuss Voigt Hill
#
# Bulk Modulus (GPa) = 34.51869 60.11539 47.31704
# Shear Modulus (GPa) = 28.47779 42.23231 35.35505
#
# Velocity S-wave (km/s) = 3.37386 4.10862 3.75923
# Velocity P-wave (km/s) = 5.38282 6.82177 6.14456
#
# Compressibility (1/GPa) = 0.02896981
#
# Stress axis : x y z
#
# Youngs Moduli (GPa) = 108.05150 34.77138 59.31248
#
# Poissons Ratio (x) = 0.19822 0.06459
# Poissons Ratio (y) = 0.61595 0.36551
# Poissons Ratio (z) = 0.11767 0.21428
#
# Static dielectric constant tensor:
#      x y z
#    x 2.167960 -0.025510 -0.139910 
#    y -0.025510 1.960700 0.117910 
#    z -0.139910 0.117910 2.135350 
# 
# From -- ./inp_files/379486.got.cif
#   From: 2010.05.17/outbox.cif.g08.bks.cpg/sg2_190_cif.got.tgz:379486.got - 2010.06.03 11:33:40.
