data_PCOD9099494
_publ_section_title
;
Structure prediction by ZEFSAII (Michael W. Deem and Ramdas Pophale) SiO2 
 PCOD9099494
Probable space group: P -1
;
_chemical_formula_sum "Si O2"
_cell_formula_units_Z 16
_cell_length_a 18.306677
_cell_length_b 8.786617
_cell_length_c 9.101547
_cell_angle_alpha 95.726509
_cell_angle_beta 64.773147
_cell_angle_gamma 138.701077
_cell_volume 812.334430
_symmetry_space_group_name_H-M "P -1"
_symmetry_group_IT_number 2
_symmetry_cell_setting 'triclinic'
loop_
_space_group_symop_operation_xyz
x,y,z
-x,-y,-z
loop_
_atom_site_type_symbol
_atom_site_label
_atom_site_fract_x
_atom_site_fract_y
_atom_site_fract_z
Si Si1 0.479816 0.819925 0.409325
Si Si2 0.992752 0.064145 0.286014
Si Si3 0.608390 0.716729 0.307258
Si Si4 0.669619 0.925583 0.964663
Si Si5 0.580718 0.303567 0.882941
Si Si6 0.174634 0.107671 0.308459
Si Si7 0.753152 0.388672 0.975035
Si Si8 0.759019 0.648692 0.250724
O O1 0.598646 0.883972 0.359155
O O2 0.465655 0.828383 0.248822
O O3 0.344257 0.540761 0.549822
O O4 0.500000 0.000000 0.500000
O O5 0.071149 0.036549 0.282822
O O6 0.102392 0.352404 0.181456
O O7 0.894056 0.986500 0.483902
O O8 0.904449 0.874264 0.210060
O O9 0.500000 0.500000 0.500000
O O10 0.722465 0.763288 0.234416
O O11 0.602558 0.724437 0.134012
O O12 0.736808 0.182788 0.990666
O O13 0.776504 0.983772 0.795919
O O14 0.547460 0.799449 0.958057
O O15 0.695570 0.595060 0.778817
O O16 0.646083 0.281668 0.935027
O O17 0.737488 0.481942 0.134474
#
# Coordination Sequence:
#
# PCOD9099494 Si02
#       8
#     2   2   2   2   2   2   2   2
#     4  10  20  37  60  91 128 156 198 259 315 362
#     4  10  22  41  62  87 121 173 209 248 300 368
#     4   9  20  36  59  88 122 156 203 245 305 372
#     4  11  22  39  62  94 125 158 203 266 312 356
#     4  10  20  40  61  91 120 164 202 252 319 365
#     4  10  21  40  65  89 121 161 219 248 297 376
#     4  11  24  39  62  92 130 161 208 257 309 362
#     4  11  20  40  62  88 120 165 211 249 302 370
#
# _framework density 19.69632
#
# number of rings (size 3 to 8) (size 9 to 14) (size 15 to 20)
#    0.000    1.750    1.250    4.125    0.000    1.500 
#    4.500    3.750    0.000    0.000    0.000    0.000 
#    0.000    0.000    0.000    0.000    0.000    0.000 
#
# Total GULP energy -89096.788339 kJ/mol
# GULP energy per Si atom -5568.549271 kJ/mol
# Density = 1.965149 g / cm^3
# Si number density = 19.696320 Si / 1000 Ang^3
#
#
#
# Elastic Constant Matrix: (Units=GPa)
#
#
# Indices 1 2 3 4 5 6 
#
# 1 95.3178 69.3542 57.7037 18.0697 -11.1037 -7.0098
# 2 69.3542 97.5472 38.6381 13.9657 -5.3582 -2.1850
# 3 57.7037 38.6381 108.7719 0.0105 -16.6988 -13.5409
# 4 18.0697 13.9657 0.0105 38.9779 -7.6158 -3.1144
# 5 -11.1037 -5.3582 -16.6988 -7.6158 37.0852 1.3189
# 6 -7.0098 -2.1850 -13.5409 -3.1144 1.3189 28.2798
#
#
#
# Elastic Compliance Matrix: (Units=1/GPa)
#
#
# Indices 1 2 3 4 5 6 
#
# 1 0.029827 -0.016082 -0.009979 -0.007933 0.000468 0.000477
# 2 -0.016082 0.021504 0.000377 -0.000737 -0.001613 -0.002150
# 3 -0.009979 0.000377 0.015847 0.005952 0.005227 0.005555
# 4 -0.007933 -0.000737 0.005952 0.031174 0.006459 0.003958
# 5 0.000468 -0.001613 0.005227 0.006459 0.030489 0.001784
# 6 0.000477 -0.002150 0.005555 0.003958 0.001784 0.038326
#
#
# Mechanical properties :
#
#
# Convention : Reuss Voigt Hill
#
# Bulk Modulus (GPa) = 63.24343 70.33654 66.78998
# Shear Modulus (GPa) = 22.34112 29.93129 26.13620
#
# Velocity S-wave (km/s) = 3.37156 3.90248 3.64670
# Velocity P-wave (km/s) = 6.88008 7.48958 7.19129
#
# Compressibility (1/GPa) = 0.01581192
#
# Stress axis : x y z
#
# Youngs Moduli (GPa) = 33.52701 46.50207 63.10485
#
# Poissons Ratio (x) = 0.74783 0.62970
# Poissons Ratio (y) = 0.53917 -0.02381
# Poissons Ratio (z) = 0.33455 -0.01754
#
# Static dielectric constant tensor:
#      x y z
#    x 1.704190 -0.012430 0.010900 
#    y -0.012430 1.687030 -0.010430 
#    z 0.010900 -0.010430 1.760880 
# 
# From -- ./inp_files/181664.got.cif
#   From: 2010.05.17/outbox.cif.g08.bks.cpg/sg2_91_cif.got.tgz:181664.got - 2010.06.03 11:33:40.
