data_PCOD9099770
_publ_section_title
;
Structure prediction by ZEFSAII (Michael W. Deem and Ramdas Pophale) SiO2 
 PCOD9099770
Probable space group: P -1
;
_chemical_formula_sum "Si O2"
_cell_formula_units_Z 14
_cell_length_a 5.056540
_cell_length_b 9.333963
_cell_length_c 23.007494
_cell_angle_alpha 51.453421
_cell_angle_beta 123.560280
_cell_angle_gamma 100.757453
_cell_volume 686.643725
_symmetry_space_group_name_H-M "P -1"
_symmetry_group_IT_number 2
_symmetry_cell_setting 'triclinic'
loop_
_space_group_symop_operation_xyz
x,y,z
-x,-y,-z
loop_
_atom_site_type_symbol
_atom_site_label
_atom_site_fract_x
_atom_site_fract_y
_atom_site_fract_z
Si Si1 0.700943 0.402847 0.993418
Si Si2 0.945260 0.888720 0.810785
Si Si3 0.228459 0.532934 0.601182
Si Si4 0.722211 0.295941 0.635262
Si Si5 0.345886 0.696452 0.797673
Si Si6 0.684444 0.744103 0.638516
Si Si7 0.645096 0.850121 0.470921
O O1 0.485005 0.480437 0.891329
O O2 0.500000 0.500000 0.000000
O O3 0.000000 0.500000 0.000000
O O4 0.860574 0.189556 0.086655
O O5 0.642751 0.788325 0.792352
O O6 0.183795 0.817047 0.803640
O O7 0.823955 0.112609 0.734698
O O8 0.404674 0.434520 0.590030
O O9 0.518845 0.568693 0.668220
O O10 0.005379 0.405017 0.633358
O O11 0.987637 0.741422 0.511458
O O12 0.623367 0.222013 0.580386
O O13 0.053359 0.710437 0.713594
O O14 0.671016 0.790588 0.556435
O O15 0.461298 0.924508 0.598964
#
# Coordination Sequence:
#
# PCOD9099770 Si02
#       7
#     2   2   2   2   2   2   2
#     4   8  16  32  58  88 120 145 191 249 297 346
#     4  10  20  37  61  93 118 154 200 246 298 354
#     4  12  26  44  58  89 123 166 206 246 303 355
#     4  12  25  41  65  85 125 162 206 250 293 363
#     4  10  20  37  61  92 120 154 194 252 304 348
#     4  11  25  41  64  89 127 156 204 255 303 359
#     4  11  25  43  62  89 116 167 209 253 295 351
#
# _framework density 20.389033000000001
#
# number of rings (size 3 to 8) (size 9 to 14) (size 15 to 20)
#    0.000    1.429    2.857    2.143    4.000    1.143 
#    0.000    0.000    0.000    1.714    0.000    0.000 
#    0.000    0.000    0.000    0.000    0.000    0.000 
#
# Total GULP energy -78180.740898 kJ/mol
# GULP energy per Si atom -5584.338636 kJ/mol
# Density = 2.034263 g / cm^3
# Si number density = 20.389033 Si / 1000 Ang^3
#
#
#
# Elastic Constant Matrix: (Units=GPa)
#
#
# Indices 1 2 3 4 5 6 
#
# 1 98.5455 26.9051 17.0782 -2.2171 -4.9787 4.4095
# 2 26.9051 96.7668 46.3575 1.1909 2.5263 0.0347
# 3 17.0782 46.3575 123.3792 -14.1129 3.6086 7.5877
# 4 -2.2171 1.1909 -14.1129 11.2274 3.5341 3.6060
# 5 -4.9787 2.5263 3.6086 3.5341 22.5045 3.2378
# 6 4.4095 0.0347 7.5877 3.6060 3.2378 29.3806
#
#
#
# Elastic Compliance Matrix: (Units=1/GPa)
#
#
# Indices 1 2 3 4 5 6 
#
# 1 0.011337 -0.003248 -0.000013 0.002416 0.002827 -0.002302
# 2 -0.003248 0.014514 -0.006546 -0.011560 0.000002 0.003580
# 3 -0.000013 -0.006546 0.013360 0.020467 -0.003829 -0.005531
# 4 0.002416 -0.011560 0.020467 0.128650 -0.018869 -0.019345
# 5 0.002827 0.000002 -0.003829 -0.018869 0.049000 -0.002520
# 6 -0.002302 0.003580 -0.005531 -0.019345 -0.002520 0.038458
#
#
# Mechanical properties :
#
#
# Convention : Reuss Voigt Hill
#
# Bulk Modulus (GPa) = 51.03430 55.48590 53.26010
# Shear Modulus (GPa) = 17.76404 27.84589 22.80496
#
# Velocity S-wave (km/s) = 2.95490 3.69959 3.34801
# Velocity P-wave (km/s) = 6.06024 6.74699 6.41282
#
# Compressibility (1/GPa) = 0.01959466
#
# Stress axis : x y z
#
# Youngs Moduli (GPa) = 88.20676 68.89713 74.85108
#
# Poissons Ratio (x) = 0.22380 0.00101
# Poissons Ratio (y) = 0.28653 0.49001
# Poissons Ratio (z) = 0.00119 0.45103
#
# Static dielectric constant tensor:
#      x y z
#    x 1.745300 -0.001590 -0.000480 
#    y -0.001590 1.714680 -0.019440 
#    z -0.000480 -0.019440 1.806440 
# 
# From -- ./inp_files/54358.got.cif
#   From: 2010.05.17/outbox.cif.g08.bks.cpg/sg2_28_cif.got.tgz:54358.got - 2010.06.03 11:33:40.
