data_PCOD9099528
_publ_section_title
;
Structure prediction by ZEFSAII (Michael W. Deem and Ramdas Pophale) SiO2 
 PCOD9099528
Probable space group: P -1
;
_chemical_formula_sum "Si O2"
_cell_formula_units_Z 14
_cell_length_a 8.343565
_cell_length_b 14.826732
_cell_length_c 13.500467
_cell_angle_alpha 145.742376
_cell_angle_beta 54.684041
_cell_angle_gamma 100.602147
_cell_volume 589.663270
_symmetry_space_group_name_H-M "P -1"
_symmetry_group_IT_number 2
_symmetry_cell_setting 'triclinic'
loop_
_space_group_symop_operation_xyz
x,y,z
-x,-y,-z
loop_
_atom_site_type_symbol
_atom_site_label
_atom_site_fract_x
_atom_site_fract_y
_atom_site_fract_z
Si Si1 0.780226 0.131107 0.799710
Si Si2 0.787869 0.312875 0.762986
Si Si3 0.683766 0.368297 0.224827
Si Si4 0.900967 0.057340 0.199907
Si Si5 0.006404 0.509072 0.763277
Si Si6 0.388324 0.084345 0.844103
Si Si7 0.220284 0.193969 0.230384
O O1 0.788794 0.262390 0.832204
O O2 0.656575 0.033858 0.712446
O O3 0.603975 0.294053 0.097605
O O4 0.058662 0.924374 0.548919
O O5 0.937116 0.392730 0.747188
O O6 0.500000 0.500000 0.000000
O O7 0.500000 0.500000 0.500000
O O8 0.795477 0.475263 0.241368
O O9 0.914338 0.155448 0.999911
O O10 0.983494 0.191193 0.327027
O O11 0.637086 0.093402 0.328297
O O12 0.000000 0.000000 0.000000
O O13 0.136403 0.386318 0.501830
O O14 0.759091 0.738044 0.025938
O O15 0.259854 0.181168 0.086578
O O16 0.500000 0.000000 0.000000
#
# Coordination Sequence:
#
# PCOD9099528 Si02
#       7
#     2   2   2   2   2   2   2
#     4  11  24  44  74  97 134 184 227 285 344 404
#     4  11  24  47  72  97 131 181 244 284 336 399
#     4  11  23  41  64 103 142 172 222 279 346 420
#     4   9  20  35  56  90 138 173 216 267 336 413
#     4  11  22  38  64  91 135 177 222 284 335 405
#     4  10  20  37  60  94 130 173 220 279 349 409
#     4  11  20  35  61  94 132 180 225 275 349 408
#
# _framework density 23.742363000000001
#
# number of rings (size 3 to 8) (size 9 to 14) (size 15 to 20)
#    0.000    1.429    1.429    4.714    0.000    4.000 
#    2.571    0.714    6.286    0.000    0.000    0.000 
#    0.000    0.000    0.000    0.000    0.000    0.000 
#
# Total GULP energy -78083.719851 kJ/mol
# GULP energy per Si atom -5577.408561 kJ/mol
# Density = 2.368832 g / cm^3
# Si number density = 23.742363 Si / 1000 Ang^3
#
#
#
# Elastic Constant Matrix: (Units=GPa)
#
#
# Indices 1 2 3 4 5 6 
#
# 1 100.1783 37.8827 32.7092 12.5142 6.4238 22.4332
# 2 37.8827 157.6218 17.4160 13.0826 -10.7032 3.4598
# 3 32.7092 17.4160 71.5386 6.6934 -10.3493 -3.6016
# 4 12.5142 13.0826 6.6934 33.8384 -6.5687 -2.6250
# 5 6.4238 -10.7032 -10.3493 -6.5687 27.7904 6.9042
# 6 22.4332 3.4598 -3.6016 -2.6250 6.9042 33.7008
#
#
#
# Elastic Compliance Matrix: (Units=1/GPa)
#
#
# Indices 1 2 3 4 5 6 
#
# 1 0.017549 -0.003032 -0.008302 -0.005892 -0.006900 -0.011303
# 2 -0.003032 0.007349 0.000191 -0.001093 0.003209 0.000542
# 3 -0.008302 0.000191 0.019057 0.001224 0.007882 0.006024
# 4 -0.005892 -0.001093 0.001224 0.033888 0.008130 0.005139
# 5 -0.006900 0.003209 0.007882 0.008130 0.044512 -0.003380
# 6 -0.011303 0.000542 0.006024 0.005139 -0.003380 0.038877
#
#
# Mechanical properties :
#
#
# Convention : Reuss Voigt Hill
#
# Bulk Modulus (GPa) = 46.14857 56.15050 51.14954
# Shear Modulus (GPa) = 26.21375 35.15462 30.68419
#
# Velocity S-wave (km/s) = 3.32639 3.85212 3.59887
# Velocity P-wave (km/s) = 5.85086 6.59442 6.23374
#
# Compressibility (1/GPa) = 0.02166914
#
# Stress axis : x y z
#
# Youngs Moduli (GPa) = 56.98387 136.08037 52.47492
#
# Poissons Ratio (x) = 0.41257 0.43563
# Poissons Ratio (y) = 0.17277 -0.01002
# Poissons Ratio (z) = 0.47306 -0.02599
#
# Static dielectric constant tensor:
#      x y z
#    x 2.001120 0.083950 -0.024940 
#    y 0.083950 1.835590 0.020390 
#    z -0.024940 0.020390 1.883470 
# 
# From -- ./inp_files/241405.got.cif
#   From: 2010.05.17/outbox.cif.g08.bks.cpg/sg2_121_cif.got.tgz:241405.got - 2010.06.03 11:33:40.
