data_PCOD9099100
_publ_section_title
;
Structure prediction by ZEFSAII (Michael W. Deem and Ramdas Pophale) SiO2 
 PCOD9099100
Probable space group: P -1
;
_chemical_formula_sum "Si O2"
_cell_formula_units_Z 16
_cell_length_a 8.386188
_cell_length_b 11.665817
_cell_length_c 12.969416
_cell_angle_alpha 74.034847
_cell_angle_beta 76.272162
_cell_angle_gamma 36.977980
_cell_volume 733.429125
_symmetry_space_group_name_H-M "P -1"
_symmetry_group_IT_number 2
_symmetry_cell_setting 'triclinic'
loop_
_space_group_symop_operation_xyz
x,y,z
-x,-y,-z
loop_
_atom_site_type_symbol
_atom_site_label
_atom_site_fract_x
_atom_site_fract_y
_atom_site_fract_z
Si Si1 0.809955 0.032692 0.946023
Si Si2 0.433343 0.939224 0.836347
Si Si3 0.645051 0.653137 0.728006
Si Si4 0.464274 0.375733 0.760143
Si Si5 0.581691 0.100601 0.672735
Si Si6 0.783435 0.724262 0.504334
Si Si7 0.043067 0.740436 0.315934
Si Si8 0.877285 0.207309 0.247863
O O1 0.988913 0.881227 0.863108
O O2 0.587283 0.242558 0.875088
O O3 0.668166 0.016346 0.043480
O O4 0.000000 0.000000 0.000000
O O5 0.621247 0.721389 0.828776
O O6 0.549671 0.000478 0.772332
O O7 0.179262 0.071284 0.766298
O O8 0.690282 0.743537 0.627238
O O9 0.867414 0.428252 0.721615
O O10 0.374352 0.736951 0.721563
O O11 0.415050 0.300968 0.703166
O O12 0.704290 0.320924 0.695140
O O13 0.226028 0.600304 0.764333
O O14 0.462766 0.147336 0.567543
O O15 0.890430 0.956950 0.667153
O O16 0.000000 0.500000 0.500000
O O17 0.924997 0.764695 0.436924
#
# Coordination Sequence:
#
# PCOD9099100 Si02
#       8
#     2   2   2   2   2   2   2   2
#     4  11  20  37  62  88 113 149 194 242 281 334
#     4  11  21  37  59  86 114 151 194 239 285 330
#     4  10  20  37  59  85 114 149 197 237 281 339
#     4  10  21  39  59  85 121 153 187 233 288 346
#     4  10  23  39  57  83 121 153 185 238 289 340
#     4   9  20  39  61  86 113 149 196 240 282 335
#     4   9  19  36  58  83 114 148 190 239 280 332
#     4  10  22  38  58  87 119 152 190 232 290 345
#
# _framework density 21.815331
#
# number of rings (size 3 to 8) (size 9 to 14) (size 15 to 20)
#    0.000    2.000    2.500    0.750    0.000    9.000 
#    0.000    9.375    0.000    0.000    0.000    0.000 
#    0.000    0.000    0.000    0.000    0.000    0.000 
#
# Total GULP energy -89386.897280 kJ/mol
# GULP energy per Si atom -5586.681080 kJ/mol
# Density = 2.176568 g / cm^3
# Si number density = 21.815331 Si / 1000 Ang^3
#
#
#
# Elastic Constant Matrix: (Units=GPa)
#
#
# Indices 1 2 3 4 5 6 
#
# 1 42.1732 8.1533 -4.3416 7.2087 -4.5305 10.5850
# 2 8.1533 118.4448 8.4243 2.4031 -3.6243 14.4221
# 3 -4.3416 8.4243 79.6128 4.6849 -18.0883 -5.1903
# 4 7.2087 2.4031 4.6849 23.5700 -1.2257 -4.7394
# 5 -4.5305 -3.6243 -18.0883 -1.2257 17.3040 -8.6560
# 6 10.5850 14.4221 -5.1903 -4.7394 -8.6560 26.6058
#
#
#
# Elastic Compliance Matrix: (Units=1/GPa)
#
#
# Indices 1 2 3 4 5 6 
#
# 1 0.029384 -0.000373 0.002229 -0.011675 0.003044 -0.012143
# 2 -0.000373 0.009420 -0.002345 -0.002049 -0.004315 -0.007184
# 3 0.002229 -0.002345 0.020118 -0.000329 0.027740 0.013275
# 4 -0.011675 -0.002049 -0.000329 0.050203 0.008416 0.017372
# 5 0.003044 -0.004315 0.027740 0.008416 0.109044 0.043515
# 6 -0.012143 -0.007184 0.013275 0.017372 0.043515 0.066153
#
#
# Mechanical properties :
#
#
# Convention : Reuss Voigt Hill
#
# Bulk Modulus (GPa) = 17.25842 29.41142 23.33492
# Shear Modulus (GPa) = 16.41428 28.69561 22.55494
#
# Velocity S-wave (km/s) = 2.74600 3.63076 3.21893
# Velocity P-wave (km/s) = 4.24056 5.57565 4.95329
#
# Compressibility (1/GPa) = 0.05794273
#
# Stress axis : x y z
#
# Youngs Moduli (GPa) = 34.03262 106.16273 49.70701
#
# Poissons Ratio (x) = 0.03956 -0.11078
# Poissons Ratio (y) = 0.01268 0.11657
# Poissons Ratio (z) = -0.07585 0.24898
#
# Static dielectric constant tensor:
#      x y z
#    x 1.826400 0.011810 -0.023200 
#    y 0.011810 1.815260 0.012780 
#    z -0.023200 0.012780 1.777660 
# 
# From -- ./inp_files/312986.got.cif
#   From: 2010.05.17/outbox.cif.g08.bks.cpg/sg2_157_cif.got.tgz:312986.got - 2010.06.03 11:33:40.
