data_PCOD9099056
_publ_section_title
;
Structure prediction by ZEFSAII (Michael W. Deem and Ramdas Pophale) SiO2 
 PCOD9099056
Probable space group: P -1
;
_chemical_formula_sum "Si O2"
_cell_formula_units_Z 14
_cell_length_a 14.915063
_cell_length_b 15.283082
_cell_length_c 5.808297
_cell_angle_alpha 79.936537
_cell_angle_beta 117.289808
_cell_angle_gamma 150.231825
_cell_volume 503.890278
_symmetry_space_group_name_H-M "P -1"
_symmetry_group_IT_number 2
_symmetry_cell_setting 'triclinic'
loop_
_space_group_symop_operation_xyz
x,y,z
-x,-y,-z
loop_
_atom_site_type_symbol
_atom_site_label
_atom_site_fract_x
_atom_site_fract_y
_atom_site_fract_z
Si Si1 0.511809 0.408467 0.690115
Si Si2 0.023970 0.107915 0.212826
Si Si3 0.566483 0.841402 0.128974
Si Si4 0.152635 0.462677 0.124385
Si Si5 0.907168 0.812620 0.235579
Si Si6 0.331116 0.736949 0.525792
Si Si7 0.297549 0.896285 0.530417
O O1 0.300012 0.303147 0.415511
O O2 0.375898 0.213350 0.712438
O O3 0.690137 0.501389 0.678961
O O4 0.668232 0.571985 0.005174
O O5 0.018036 0.152467 0.431170
O O6 0.955140 0.092913 0.889900
O O7 0.892705 0.909018 0.175694
O O8 0.304854 0.633634 0.027870
O O9 0.523598 0.824939 0.820433
O O10 0.712151 0.038270 0.312333
O O11 0.905546 0.248820 0.824983
O O12 0.141837 0.520309 0.300730
O O13 0.277500 0.775558 0.616828
O O14 0.455107 0.886360 0.394123
#
# Coordination Sequence:
#
# PCOD9099056 Si02
#       7
#     2   2   2   2   2   2   2
#     4  10  22  38  59  82 126 144 195 249 304 361
#     4  10  22  41  64  92 120 159 206 244 304 374
#     4   9  22  36  55  87 113 156 198 243 305 351
#     4   9  22  36  55  86 116 154 198 246 303 356
#     4  10  22  40  65  92 118 162 203 246 305 369
#     4  10  20  37  59  83 115 159 205 251 297 352
#     4  10  20  38  57  82 120 155 203 252 296 361
#
# _framework density 27.783829999999998
#
# number of rings (size 3 to 8) (size 9 to 14) (size 15 to 20)
#    0.857    1.429    0.000    1.714    2.000    4.000 
#    0.000    1.429    0.000    0.000    0.000    0.000 
#    0.000    0.000    0.000    0.000    0.000    0.000 
#
# Total GULP energy -78143.772406 kJ/mol
# GULP energy per Si atom -5581.698029 kJ/mol
# Density = 2.772059 g / cm^3
# Si number density = 27.783830 Si / 1000 Ang^3
#
#
#
# Elastic Constant Matrix: (Units=GPa)
#
#
# Indices 1 2 3 4 5 6 
#
# 1 118.9083 34.8698 47.3080 0.4863 -22.2268 -12.4904
# 2 34.8698 85.0619 38.4352 9.5229 -17.6550 -3.4614
# 3 47.3080 38.4352 156.2852 14.0029 -38.7834 -17.0500
# 4 0.4863 9.5229 14.0029 57.7113 -9.7094 -1.4070
# 5 -22.2268 -17.6550 -38.7834 -9.7094 50.1136 3.4384
# 6 -12.4904 -3.4614 -17.0500 -1.4070 3.4384 37.2466
#
#
#
# Elastic Compliance Matrix: (Units=1/GPa)
#
#
# Indices 1 2 3 4 5 6 
#
# 1 0.010714 -0.003164 -0.001735 0.001312 0.002388 0.002334
# 2 -0.003164 0.014530 -0.002119 -0.001570 0.001834 -0.000909
# 3 -0.001735 -0.002119 0.009125 -0.000909 0.005171 0.002886
# 4 0.001312 -0.001570 -0.000909 0.018283 0.002846 0.000306
# 5 0.002388 0.001834 0.005171 0.002846 0.026143 0.001033
# 6 0.002334 -0.000909 0.002886 0.000306 0.001033 0.028784
#
#
# Mechanical properties :
#
#
# Convention : Reuss Voigt Hill
#
# Bulk Modulus (GPa) = 49.18360 66.83126 58.00743
# Shear Modulus (GPa) = 38.94311 44.99046 41.96678
#
# Velocity S-wave (km/s) = 3.74792 4.02842 3.89070
# Velocity P-wave (km/s) = 6.03903 6.76342 6.41146
#
# Compressibility (1/GPa) = 0.02033198
#
# Stress axis : x y z
#
# Youngs Moduli (GPa) = 93.33263 68.82235 109.59372
#
# Poissons Ratio (x) = 0.21777 0.19018
# Poissons Ratio (y) = 0.29533 0.23223
# Poissons Ratio (z) = 0.16196 0.14584
#
# Static dielectric constant tensor:
#      x y z
#    x 2.284370 0.042960 0.007410 
#    y 0.042960 2.251190 -0.012680 
#    z 0.007410 -0.012680 2.123030 
# 
# From -- ./inp_files/111457.got.cif
#   From: 2010.05.17/outbox.cif.g08.bks.cpg/sg2_56_cif.got.tgz:111457.got - 2010.06.03 11:33:40.
