data_PCOD9099892
_publ_section_title
;
Structure prediction by ZEFSAII (Michael W. Deem and Ramdas Pophale) SiO2 
 PCOD9099892
Probable space group: P -1
;
_chemical_formula_sum "Si O2"
_cell_formula_units_Z 16
_cell_length_a 15.534422
_cell_length_b 11.802002
_cell_length_c 7.578168
_cell_angle_alpha 142.958980
_cell_angle_beta 69.535372
_cell_angle_gamma 130.213776
_cell_volume 596.198915
_symmetry_space_group_name_H-M "P -1"
_symmetry_group_IT_number 2
_symmetry_cell_setting 'triclinic'
loop_
_space_group_symop_operation_xyz
x,y,z
-x,-y,-z
loop_
_atom_site_type_symbol
_atom_site_label
_atom_site_fract_x
_atom_site_fract_y
_atom_site_fract_z
Si Si1 0.302801 0.370956 0.215918
Si Si2 0.201891 0.233902 0.725662
Si Si3 0.781635 0.259715 0.779736
Si Si4 0.109187 0.325879 0.497402
Si Si5 0.881088 0.175115 0.277604
Si Si6 0.534906 0.851640 0.533248
Si Si7 0.584606 0.293033 0.931098
Si Si8 0.967558 0.163263 0.867400
O O1 0.226049 0.441842 0.438060
O O2 0.443341 0.610094 0.416639
O O3 0.263794 0.298735 0.950716
O O4 0.246149 0.105246 0.005263
O O5 0.112849 0.940722 0.380352
O O6 0.316300 0.415540 0.734715
O O7 0.102976 0.272848 0.872978
O O8 0.855064 0.276656 0.585257
O O9 0.686035 0.276799 0.775381
O O10 0.676589 0.998875 0.629546
O O11 0.859653 0.467524 0.131514
O O12 0.087854 0.102146 0.337329
O O13 0.990966 0.197569 0.305454
O O14 0.931213 0.278466 0.172430
O O15 0.496875 0.759940 0.241489
O O16 0.519051 0.060954 0.823700
#
# Coordination Sequence:
#
# PCOD9099892 Si02
#       8
#     2   2   2   2   2   2   2   2
#     4  10  19  33  59  76 105 129 182 217 249 299
#     4  10  16  31  58  75  97 133 184 216 240 298
#     4  10  20  34  53  73 113 139 168 202 271 309
#     4  11  19  35  50  81 106 142 171 207 252 314
#     4  11  21  34  49  81 114 137 159 214 266 312
#     4   8  17  34  56  77  95 138 177 220 248 295
#     4   8  16  33  54  77  95 134 179 215 252 292
#     4  10  18  31  55  77 100 137 183 205 252 302
#
# _framework density 26.836680999999999
#
# number of rings (size 3 to 8) (size 9 to 14) (size 15 to 20)
#    0.750    1.500    3.750    1.125    0.000    1.000 
#    0.000    0.625    5.500    3.000    0.000    0.000 
#    0.000    0.000    0.000    0.000    0.000    0.000 
#
# Total GULP energy -89182.787221 kJ/mol
# GULP energy per Si atom -5573.924201 kJ/mol
# Density = 2.677560 g / cm^3
# Si number density = 26.836681 Si / 1000 Ang^3
#
#
#
# Elastic Constant Matrix: (Units=GPa)
#
#
# Indices 1 2 3 4 5 6 
#
# 1 36.0472 3.8469 -0.9421 9.9308 3.3047 9.1589
# 2 3.8469 130.9606 47.5526 26.2188 2.9294 11.1831
# 3 -0.9421 47.5526 152.2270 -1.7399 -0.4422 12.5885
# 4 9.9308 26.2188 -1.7399 56.5875 16.9995 4.3909
# 5 3.3047 2.9294 -0.4422 16.9995 35.3229 2.2348
# 6 9.1589 11.1831 12.5885 4.3909 2.2348 26.4952
#
#
#
# Elastic Compliance Matrix: (Units=1/GPa)
#
#
# Indices 1 2 3 4 5 6 
#
# 1 0.031836 0.000711 0.000815 -0.005080 0.000105 -0.010859
# 2 0.000711 0.009866 -0.002940 -0.005114 0.001685 -0.002308
# 3 0.000815 -0.002940 0.007760 0.001816 -0.000420 -0.002993
# 4 -0.005080 -0.005114 0.001816 0.024216 -0.010728 -0.000057
# 5 0.000105 0.001685 -0.000420 -0.010728 0.033419 -0.001589
# 6 -0.010859 -0.002308 -0.002993 -0.000057 -0.001589 0.044036
#
#
# Mechanical properties :
#
#
# Convention : Reuss Voigt Hill
#
# Bulk Modulus (GPa) = 21.44395 46.68330 34.06362
# Shear Modulus (GPa) = 29.49767 41.59960 35.54863
#
# Velocity S-wave (km/s) = 3.31895 3.94140 3.64349
# Velocity P-wave (km/s) = 4.76394 6.17624 5.51548
#
# Compressibility (1/GPa) = 0.04663320
#
# Stress axis : x y z
#
# Youngs Moduli (GPa) = 31.41103 101.36136 128.87105
#
# Poissons Ratio (x) = -0.07205 -0.10506
# Poissons Ratio (y) = -0.02233 0.37890
# Poissons Ratio (z) = -0.02561 0.29802
#
# Static dielectric constant tensor:
#      x y z
#    x 2.121330 -0.138760 -0.104730 
#    y -0.138760 2.239510 0.104740 
#    z -0.104730 0.104740 2.341270 
# 
# From -- ./inp_files/268433.got.cif
#   From: 2010.05.17/outbox.cif.g08.bks.cpg/sg2_135_cif.got.tgz:268433.got - 2010.06.03 11:33:40.
