data_PCOD9099462
_publ_section_title
;
Structure prediction by ZEFSAII (Michael W. Deem and Ramdas Pophale) SiO2 
 PCOD9099462
Probable space group: P -1
;
_chemical_formula_sum "Si O2"
_cell_formula_units_Z 16
_cell_length_a 5.531613
_cell_length_b 16.682934
_cell_length_c 19.202687
_cell_angle_alpha 158.884450
_cell_angle_beta 83.468015
_cell_angle_gamma 92.899613
_cell_volume 626.570749
_symmetry_space_group_name_H-M "P -1"
_symmetry_group_IT_number 2
_symmetry_cell_setting 'triclinic'
loop_
_space_group_symop_operation_xyz
x,y,z
-x,-y,-z
loop_
_atom_site_type_symbol
_atom_site_label
_atom_site_fract_x
_atom_site_fract_y
_atom_site_fract_z
Si Si1 0.361426 0.622587 0.036925
Si Si2 0.257644 0.133599 0.800347
Si Si3 0.370425 0.122612 0.036169
Si Si4 0.140717 0.773097 0.919611
Si Si5 0.916681 0.536606 0.199421
Si Si6 0.016982 0.191503 0.359015
Si Si7 0.521021 0.322272 0.418958
Si Si8 0.037081 0.009243 0.587624
O O1 0.469671 0.826096 0.157347
O O2 0.123722 0.766497 0.196224
O O3 0.500000 0.500000 0.000000
O O4 0.305471 0.454247 0.841376
O O5 0.094388 0.971796 0.713625
O O6 0.286143 0.039450 0.643947
O O7 0.133751 0.392298 0.029772
O O8 0.567597 0.290267 0.153768
O O9 0.078624 0.215565 0.120830
O O10 0.500000 0.000000 0.000000
O O11 0.402023 0.931290 0.820067
O O12 0.089576 0.615830 0.856774
O O13 0.103407 0.026259 0.157384
O O14 0.960679 0.773058 0.418432
O O15 0.767613 0.354766 0.478817
O O16 0.259615 0.312462 0.459250
O O17 0.500000 0.500000 0.500000
O O18 0.000000 0.000000 0.500000
#
# Coordination Sequence:
#
# PCOD9099462 Si02
#       8
#     2   2   2   2   2   2   2   2
#     4  11  24  41  68  97 129 179 229 281 348 411
#     4  10  23  41  66  92 129 177 222 279 343 407
#     4  10  20  38  59  89 124 164 210 267 328 403
#     4   9  20  37  62  87 122 172 214 264 337 397
#     4  10  23  41  66  92 131 174 226 279 343 405
#     4   9  20  36  64  84 126 166 218 266 331 401
#     4  10  20  37  60  90 120 167 209 267 331 396
#     4  11  24  43  63  97 135 168 226 285 342 410
#
# _framework density 25.535820999999999
#
# number of rings (size 3 to 8) (size 9 to 14) (size 15 to 20)
#    0.000    2.000    0.000    2.250   10.500    5.000 
#    4.500    0.000    0.000    0.000    0.000    0.000 
#    0.000    0.000    0.000    0.000    0.000    0.000 
#
# Total GULP energy -89140.244021 kJ/mol
# GULP energy per Si atom -5571.265251 kJ/mol
# Density = 2.547770 g / cm^3
# Si number density = 25.535821 Si / 1000 Ang^3
#
#
#
# Elastic Constant Matrix: (Units=GPa)
#
#
# Indices 1 2 3 4 5 6 
#
# 1 49.1825 -0.8573 15.7186 12.5802 6.2334 2.4048
# 2 -0.8573 55.2791 2.9275 10.9903 4.4113 1.8739
# 3 15.7186 2.9275 95.8549 -0.3797 10.9186 -6.6786
# 4 12.5802 10.9903 -0.3797 36.2800 0.3275 4.6263
# 5 6.2334 4.4113 10.9186 0.3275 39.3253 1.6221
# 6 2.4048 1.8739 -6.6786 4.6263 1.6221 39.9178
#
#
#
# Elastic Compliance Matrix: (Units=1/GPa)
#
#
# Indices 1 2 3 4 5 6 
#
# 1 0.024376 0.002672 -0.003850 -0.009141 -0.002975 -0.001058
# 2 0.002672 0.019735 -0.000825 -0.006850 -0.002337 -0.000337
# 3 -0.003850 -0.000825 0.011540 0.001457 -0.002602 0.002138
# 4 -0.009141 -0.006850 0.001457 0.033165 0.001652 -0.002795
# 5 -0.002975 -0.002337 -0.002602 0.001652 0.026930 -0.001432
# 6 -0.001058 -0.000337 0.002138 -0.002795 -0.001432 0.025871
#
#
# Mechanical properties :
#
#
# Convention : Reuss Voigt Hill
#
# Bulk Modulus (GPa) = 19.36273 26.21048 22.78661
# Shear Modulus (GPa) = 30.70536 35.27311 32.98924
#
# Velocity S-wave (km/s) = 3.47139 3.72064 3.59817
# Velocity P-wave (km/s) = 4.86481 5.36135 5.11910
#
# Compressibility (1/GPa) = 0.05164560
#
# Stress axis : x y z
#
# Youngs Moduli (GPa) = 41.02344 50.67164 86.65449
#
# Poissons Ratio (x) = -0.13542 0.33362
# Poissons Ratio (y) = -0.10963 0.07152
# Poissons Ratio (z) = 0.15794 0.04182
#
# Static dielectric constant tensor:
#      x y z
#    x 3.655610 0.074110 0.053690 
#    y 0.074110 2.103470 -0.018040 
#    z 0.053690 -0.018040 2.053180 
# 
# From -- ./inp_files/584080.got.cif
#   From: 2010.05.17/outbox.cif.g08.bks.cpg/sg2_293_cif.got.tgz:584080.got - 2010.06.03 11:33:40.
