data_PCOD9099007
_publ_section_title
;
Structure prediction by ZEFSAII (Michael W. Deem and Ramdas Pophale) SiO2 
 PCOD9099007
Probable space group: P -1
;
_chemical_formula_sum "Si O2"
_cell_formula_units_Z 14
_cell_length_a 10.846436
_cell_length_b 7.428677
_cell_length_c 9.982690
_cell_angle_alpha 54.154604
_cell_angle_beta 104.204876
_cell_angle_gamma 75.374625
_cell_volume 545.854030
_symmetry_space_group_name_H-M "P -1"
_symmetry_group_IT_number 2
_symmetry_cell_setting 'triclinic'
loop_
_space_group_symop_operation_xyz
x,y,z
-x,-y,-z
loop_
_atom_site_type_symbol
_atom_site_label
_atom_site_fract_x
_atom_site_fract_y
_atom_site_fract_z
Si Si1 0.661132 0.545029 0.597998
Si Si2 0.697695 0.170749 0.286825
Si Si3 0.034619 0.576300 0.190434
Si Si4 0.862180 0.353807 0.096714
Si Si5 0.426466 0.254031 0.032663
Si Si6 0.337747 0.834824 0.429112
Si Si7 0.742893 0.014101 0.944025
O O1 0.810010 0.553845 0.636195
O O2 0.503317 0.784933 0.485894
O O3 0.646576 0.435769 0.497586
O O4 0.683960 0.315431 0.807856
O O5 0.832113 0.139104 0.246370
O O6 0.589614 0.112420 0.196873
O O7 0.731242 0.062168 0.491644
O O8 0.602195 0.481606 0.158941
O O9 0.957587 0.413368 0.201483
O O10 0.070158 0.668568 0.019621
O O11 0.904868 0.824006 0.123811
O O12 0.695924 0.602215 0.944851
O O13 0.370807 0.084117 0.014642
O O14 0.242791 0.008864 0.205066
#
# Coordination Sequence:
#
# PCOD9099007 Si02
#       7
#     2   2   2   2   2   2   2
#     4   9  19  32  51  70 101 133 162 195 245 291
#     4   9  16  32  50  72 101 130 154 206 250 286
#     4  10  16  31  54  72  96 129 170 195 234 295
#     4   8  17  28  50  75  91 126 169 197 236 290
#     4   8  16  29  52  71  99 127 165 196 242 286
#     4   9  19  33  51  71 102 128 161 203 248 281
#     4   9  18  32  49  78  95 127 169 200 229 295
#
# _framework density 25.647881999999999
#
# number of rings (size 3 to 8) (size 9 to 14) (size 15 to 20)
#    1.714    1.429    0.000    1.286    0.000    0.571 
#    0.000    2.143    0.000    0.000    0.000    0.000 
#    0.000    0.000    0.000    0.000    0.000    0.000 
#
# Total GULP energy -78062.380484 kJ/mol
# GULP energy per Si atom -5575.884320 kJ/mol
# Density = 2.558951 g / cm^3
# Si number density = 25.647882 Si / 1000 Ang^3
#
#
#
# Elastic Constant Matrix: (Units=GPa)
#
#
# Indices 1 2 3 4 5 6 
#
# 1 166.2651 37.4682 35.1380 16.1525 28.7907 18.0204
# 2 37.4682 81.2377 15.2946 10.9986 6.4814 19.0570
# 3 35.1380 15.2946 48.5469 11.4843 21.5591 -7.2852
# 4 16.1525 10.9986 11.4843 27.0952 -0.2846 6.2344
# 5 28.7907 6.4814 21.5591 -0.2846 43.4968 9.3071
# 6 18.0204 19.0570 -7.2852 6.2344 9.3071 35.5449
#
#
#
# Elastic Compliance Matrix: (Units=1/GPa)
#
#
# Indices 1 2 3 4 5 6 
#
# 1 0.008282 -0.001797 -0.004559 -0.001538 -0.002256 -0.003309
# 2 -0.001797 0.016795 -0.007902 0.000197 0.004969 -0.011048
# 3 -0.004559 -0.007902 0.045451 -0.019468 -0.023926 0.025543
# 4 -0.001538 0.000197 -0.019468 0.049782 0.014345 -0.015804
# 5 -0.002256 0.004969 -0.023926 0.014345 0.039841 -0.019372
# 6 -0.003309 -0.011048 0.025543 -0.015804 -0.019372 0.048814
#
#
# Mechanical properties :
#
#
# Convention : Reuss Voigt Hill
#
# Bulk Modulus (GPa) = 23.80250 52.42793 38.11522
# Shear Modulus (GPa) = 19.88199 35.10394 27.49297
#
# Velocity S-wave (km/s) = 2.78724 3.70359 3.27760
# Velocity P-wave (km/s) = 4.43384 6.22692 5.40525
#
# Compressibility (1/GPa) = 0.04201239
#
# Stress axis : x y z
#
# Youngs Moduli (GPa) = 120.74912 59.54298 22.00153
#
# Poissons Ratio (x) = 0.10699 0.10031
# Poissons Ratio (y) = 0.21697 0.17385
# Poissons Ratio (z) = 0.55050 0.47049
#
# Static dielectric constant tensor:
#      x y z
#    x 2.003870 0.058700 -0.031820 
#    y 0.058700 2.086830 -0.037040 
#    z -0.031820 -0.037040 2.042830 
# 
# From -- ./inp_files/414369.got.cif
#   From: 2010.05.17/outbox.cif.g08.bks.cpg/sg2_208_cif.got.tgz:414369.got - 2010.06.03 11:33:40.
