data_PCOD9099454
_publ_section_title
;
Structure prediction by ZEFSAII (Michael W. Deem and Ramdas Pophale) SiO2 
 PCOD9099454
Probable space group: P -1
;
_chemical_formula_sum "Si O2"
_cell_formula_units_Z 12
_cell_length_a 4.977530
_cell_length_b 12.271049
_cell_length_c 8.016598
_cell_angle_alpha 81.530348
_cell_angle_beta 111.229335
_cell_angle_gamma 86.332128
_cell_volume 447.774892
_symmetry_space_group_name_H-M "P -1"
_symmetry_group_IT_number 2
_symmetry_cell_setting 'triclinic'
loop_
_space_group_symop_operation_xyz
x,y,z
-x,-y,-z
loop_
_atom_site_type_symbol
_atom_site_label
_atom_site_fract_x
_atom_site_fract_y
_atom_site_fract_z
Si Si1 0.433990 0.856959 0.202164
Si Si2 0.457858 0.928053 0.671328
Si Si3 0.694081 0.427128 0.316077
Si Si4 0.384316 0.267766 0.050958
Si Si5 0.899043 0.448686 0.816107
Si Si6 0.935805 0.207111 0.574387
O O1 0.428179 0.803156 0.031830
O O2 0.163953 0.847502 0.264840
O O3 0.723526 0.790786 0.365343
O O4 0.513719 0.982314 0.198839
O O5 0.168846 0.871605 0.577762
O O6 0.500000 0.000000 0.500000
O O7 0.673210 0.818572 0.796810
O O8 0.435269 0.639652 0.851573
O O9 0.446555 0.529171 0.274002
O O10 0.766766 0.330398 0.488833
O O11 0.980836 0.475611 0.314306
O O12 0.090018 0.329533 0.891297
O O13 0.000000 0.500000 0.000000
#
# Coordination Sequence:
#
# PCOD9099454 Si02
#       6
#     2   2   2   2   2   2
#     4  11  22  39  59  92 121 151 195 247 293 340
#     4   9  20  41  63  86 117 159 198 237 293 359
#     4  10  21  40  63  86 117 160 200 234 285 356
#     4  10  21  37  62  90 119 152 196 250 293 338
#     4  10  20  37  60  90 117 154 199 240 287 349
#     4  10  22  40  62  86 121 160 194 234 292 356
#
# _framework density 26.79918
#
# number of rings (size 3 to 8) (size 9 to 14) (size 15 to 20)
#    0.000    2.000    0.000    4.000    0.000    5.333 
#    0.000   22.500    0.000    0.000    0.000    0.000 
#    0.000    0.000    0.000    0.000    0.000    0.000 
#
# Total GULP energy -67189.497418 kJ/mol
# GULP energy per Si atom -5599.124785 kJ/mol
# Density = 2.673818 g / cm^3
# Si number density = 26.799180 Si / 1000 Ang^3
#
#
#
# Elastic Constant Matrix: (Units=GPa)
#
#
# Indices 1 2 3 4 5 6 
#
# 1 75.9634 11.6223 5.2603 -7.4965 -7.8202 4.3060
# 2 11.6223 138.1933 26.1317 5.4549 -9.1526 5.6989
# 3 5.2603 26.1317 99.1635 -13.2349 -13.9228 8.1783
# 4 -7.4965 5.4549 -13.2349 55.5830 -1.2771 6.2177
# 5 -7.8202 -9.1526 -13.9228 -1.2771 33.1594 3.3867
# 6 4.3060 5.6989 8.1783 6.2177 3.3867 28.8430
#
#
#
# Elastic Compliance Matrix: (Units=1/GPa)
#
#
# Indices 1 2 3 4 5 6 
#
# 1 0.014091 -0.001036 0.000647 0.002586 0.003723 -0.003077
# 2 -0.001036 0.007849 -0.001970 -0.001276 0.001117 -0.000694
# 3 0.000647 -0.001970 0.012214 0.003829 0.005357 -0.004625
# 4 0.002586 -0.001276 0.003829 0.020116 0.003247 -0.005937
# 5 0.003723 0.001117 0.005357 0.003247 0.034437 -0.007039
# 6 -0.003077 -0.000694 -0.004625 -0.005937 -0.007039 0.038685
#
#
# Mechanical properties :
#
#
# Convention : Reuss Voigt Hill
#
# Bulk Modulus (GPa) = 33.97180 44.37210 39.17195
# Shear Modulus (GPa) = 35.23124 41.53748 38.38436
#
# Velocity S-wave (km/s) = 3.62973 3.94122 3.78867
# Velocity P-wave (km/s) = 5.50187 6.10771 5.81269
#
# Compressibility (1/GPa) = 0.02943618
#
# Stress axis : x y z
#
# Youngs Moduli (GPa) = 70.96840 127.40878 81.87517
#
# Poissons Ratio (x) = 0.13200 -0.05298
# Poissons Ratio (y) = 0.07353 0.16126
# Poissons Ratio (z) = -0.04593 0.25094
#
# Static dielectric constant tensor:
#      x y z
#    x 2.022270 -0.028570 0.018360 
#    y -0.028570 2.137620 0.085070 
#    z 0.018360 0.085070 2.164340 
# 
# From -- ./inp_files/130632.got.cif
#   From: 2010.05.17/outbox.cif.g08.bks.cpg/sg2_66_cif.got.tgz:130632.got - 2010.06.03 11:33:40.
