data_PCOD9099089
_publ_section_title
;
Structure prediction by ZEFSAII (Michael W. Deem and Ramdas Pophale) SiO2 
 PCOD9099089
Probable space group: P -1
;
_chemical_formula_sum "Si O2"
_cell_formula_units_Z 16
_cell_length_a 5.896772
_cell_length_b 20.530292
_cell_length_c 8.031212
_cell_angle_alpha 124.750816
_cell_angle_beta 59.730906
_cell_angle_gamma 101.697279
_cell_volume 685.032595
_symmetry_space_group_name_H-M "P -1"
_symmetry_group_IT_number 2
_symmetry_cell_setting 'triclinic'
loop_
_space_group_symop_operation_xyz
x,y,z
-x,-y,-z
loop_
_atom_site_type_symbol
_atom_site_label
_atom_site_fract_x
_atom_site_fract_y
_atom_site_fract_z
Si Si1 0.132292 0.268451 0.143630
Si Si2 0.800045 0.435280 0.437504
Si Si3 0.224754 0.813098 0.633381
Si Si4 0.002682 0.180973 0.736632
Si Si5 0.352413 0.695514 0.142765
Si Si6 0.731148 0.472592 0.128477
Si Si7 0.646963 0.102159 0.970589
Si Si8 0.873437 0.937839 0.756860
O O1 0.923590 0.346786 0.309944
O O2 0.045353 0.224970 0.276582
O O3 0.415805 0.299120 0.068956
O O4 0.114452 0.207453 0.907912
O O5 0.766341 0.441186 0.259568
O O6 0.521493 0.461013 0.669419
O O7 0.000000 0.500000 0.500000
O O8 0.397771 0.748412 0.364200
O O9 0.349309 0.832578 0.790287
O O10 0.135673 0.893490 0.680073
O O11 0.912669 0.259144 0.774679
O O12 0.172086 0.115403 0.466800
O O13 0.738556 0.140144 0.823523
O O14 0.334639 0.604568 0.061157
O O15 0.000000 0.500000 0.000000
O O16 0.368789 0.067394 0.033508
O O17 0.865414 0.028414 0.833644
#
# Coordination Sequence:
#
# PCOD9099089 Si02
#       8
#     2   2   2   2   2   2   2   2
#     4  11  22  40  62  86 121 159 198 245 295 353
#     4  11  24  44  64  88 122 159 200 247 301 361
#     4  10  23  36  58  90 117 154 194 244 295 348
#     4  10  21  38  57  88 117 156 195 244 295 347
#     4  11  22  40  60  86 123 155 197 248 295 352
#     4  11  26  43  63  92 121 158 202 249 302 359
#     4  10  20  37  59  85 115 156 196 239 290 350
#     4  10  20  37  59  84 119 153 195 242 289 348
#
# _framework density 23.356553999999999
#
# number of rings (size 3 to 8) (size 9 to 14) (size 15 to 20)
#    0.000    1.500    2.500    2.250    1.750    1.500 
#    9.000    0.000    0.000   12.000    0.000    0.000 
#    0.000    0.000    0.000    0.000    0.000    0.000 
#
# Total GULP energy -89472.915072 kJ/mol
# GULP energy per Si atom -5592.057192 kJ/mol
# Density = 2.330339 g / cm^3
# Si number density = 23.356554 Si / 1000 Ang^3
#
#
#
# Elastic Constant Matrix: (Units=GPa)
#
#
# Indices 1 2 3 4 5 6 
#
# 1 30.6088 4.9633 16.5399 -0.4318 -7.2240 3.1223
# 2 4.9633 83.0832 39.5740 0.6198 -17.2476 4.3105
# 3 16.5399 39.5740 122.0623 3.1324 -13.2660 3.2772
# 4 -0.4318 0.6198 3.1324 36.3679 5.7538 -8.6726
# 5 -7.2240 -17.2476 -13.2660 5.7538 30.8370 -6.6548
# 6 3.1223 4.3105 3.2772 -8.6726 -6.6548 34.8645
#
#
#
# Elastic Compliance Matrix: (Units=1/GPa)
#
#
# Indices 1 2 3 4 5 6 
#
# 1 0.036819 0.001632 -0.004657 -0.000787 0.007279 -0.001868
# 2 0.001632 0.015607 -0.004444 -0.001150 0.007295 -0.000552
# 3 -0.004657 -0.004444 0.010412 -0.001065 0.001086 -0.000070
# 4 -0.000787 -0.001150 -0.001065 0.030070 -0.005438 0.006755
# 5 0.007279 0.007295 0.001086 -0.005438 0.040724 0.004765
# 6 -0.001868 -0.000552 -0.000070 0.006755 0.004765 0.031514
#
#
# Mechanical properties :
#
#
# Convention : Reuss Voigt Hill
#
# Bulk Modulus (GPa) = 20.87640 39.76764 30.32202
# Shear Modulus (GPa) = 25.50362 32.05902 28.78132
#
# Velocity S-wave (km/s) = 3.30801 3.70887 3.51416
# Velocity P-wave (km/s) = 4.85264 5.95015 5.42920
#
# Compressibility (1/GPa) = 0.04790097
#
# Stress axis : x y z
#
# Youngs Moduli (GPa) = 27.15955 64.07367 96.04651
#
# Poissons Ratio (x) = -0.10460 0.44729
# Poissons Ratio (y) = -0.04434 0.42683
# Poissons Ratio (z) = 0.12648 0.28474
#
# Static dielectric constant tensor:
#      x y z
#    x 1.961000 0.036290 -0.012410 
#    y 0.036290 1.847170 -0.005050 
#    z -0.012410 -0.005050 1.883450 
# 
# From -- ./inp_files/44509.got.cif
#   From: 2010.05.17/outbox.cif.g08.bks.cpg/sg2_23_cif.got.tgz:44509.got - 2010.06.03 11:33:40.
