data_PCOD9099362
_publ_section_title
;
Structure prediction by ZEFSAII (Michael W. Deem and Ramdas Pophale) SiO2 
 PCOD9099362
Probable space group: P -1
;
_chemical_formula_sum "Si O2"
_cell_formula_units_Z 15
_cell_length_a 8.995129
_cell_length_b 5.892394
_cell_length_c 17.081703
_cell_angle_alpha 78.756755
_cell_angle_beta 115.534496
_cell_angle_gamma 125.629465
_cell_volume 662.067748
_symmetry_space_group_name_H-M "P -1"
_symmetry_group_IT_number 2
_symmetry_cell_setting 'triclinic'
loop_
_space_group_symop_operation_xyz
x,y,z
-x,-y,-z
loop_
_atom_site_type_symbol
_atom_site_label
_atom_site_fract_x
_atom_site_fract_y
_atom_site_fract_z
Si Si1 0.331042 0.795480 0.228081
Si Si2 0.791549 0.969963 0.944930
Si Si3 0.709656 0.296958 0.460626
Si Si4 0.334855 0.190328 0.452198
Si Si5 0.268203 0.594348 0.709164
Si Si6 0.520964 0.635935 0.157104
Si Si7 0.500000 0.000000 0.000000
Si Si8 0.104685 0.416810 0.349588
O O1 0.412535 0.635695 0.211242
O O2 0.232619 0.637694 0.296237
O O3 0.190084 0.830341 0.135295
O O4 0.518123 0.111618 0.262771
O O5 0.629540 0.644808 0.907481
O O6 0.689851 0.028418 0.989790
O O7 0.000000 0.000000 0.000000
O O8 0.473405 0.158262 0.426188
O O9 0.784047 0.484606 0.388400
O O10 0.822090 0.457399 0.554627
O O11 0.730990 0.036464 0.479582
O O12 0.500000 0.500000 0.500000
O O13 0.153433 0.183195 0.373499
O O14 0.293281 0.378894 0.777195
O O15 0.114632 0.657451 0.704224
O O16 0.560035 0.892408 0.097351
#
# Coordination Sequence:
#
# PCOD9099362 Si02
#       8
#     2   2   2   2   2   2   1   2
#     4  10  23  42  60  96 132 169 220 268 328 396
#     4  10  23  44  71 100 131 172 214 273 337 404
#     4  10  20  37  60  86 127 173 220 275 323 379
#     4   9  18  33  56  82 113 161 210 263 319 378
#     4  11  23  39  62  92 132 171 220 278 328 385
#     4  10  23  45  65  96 134 167 213 275 328 399
#     4  10  22  42  72 100 130 170 214 264 336 400
#     4  11  23  38  62  92 124 175 224 268 328 386
#
# _framework density 22.656292000000001
#
# number of rings (size 3 to 8) (size 9 to 14) (size 15 to 20)
#    0.000    1.867    0.000    4.000    1.867    5.867 
#    7.200    0.000    0.000    0.000    0.000    0.000 
#    0.000    0.000    0.000    0.000    0.000    0.000 
#
# Total GULP energy -83509.970757 kJ/mol
# GULP energy per Si atom -5567.331384 kJ/mol
# Density = 2.260473 g / cm^3
# Si number density = 22.656292 Si / 1000 Ang^3
#
#
#
# Elastic Constant Matrix: (Units=GPa)
#
#
# Indices 1 2 3 4 5 6 
#
# 1 137.7864 15.3452 87.5669 -27.3224 28.3188 -15.1087
# 2 15.3452 21.7960 25.7093 -10.4249 6.1812 -7.6913
# 3 87.5669 25.7093 125.0700 -29.2331 15.2724 -2.7929
# 4 -27.3224 -10.4249 -29.2331 27.0201 -12.8484 7.2577
# 5 28.3188 6.1812 15.2724 -12.8484 45.9723 -14.1190
# 6 -15.1087 -7.6913 -2.7929 7.2577 -14.1190 21.9556
#
#
#
# Elastic Compliance Matrix: (Units=1/GPa)
#
#
# Indices 1 2 3 4 5 6 
#
# 1 0.015962 0.007837 -0.011563 0.002516 -0.003529 0.009157
# 2 0.007837 0.076375 -0.018202 0.011525 0.002696 0.027757
# 3 -0.011563 -0.018202 0.021447 0.008511 0.000493 -0.014102
# 4 0.002516 0.011525 0.008511 0.059149 0.008353 -0.007329
# 5 -0.003529 0.002696 0.000493 0.008353 0.030467 0.015410
# 6 0.009157 0.027757 -0.014102 -0.007329 0.015410 0.072110
#
#
# Mechanical properties :
#
#
# Convention : Reuss Voigt Hill
#
# Bulk Modulus (GPa) = 14.30048 60.21058 37.25553
# Shear Modulus (GPa) = 14.59106 29.39166 21.99136
#
# Velocity S-wave (km/s) = 2.54050 3.60569 3.11891
# Velocity P-wave (km/s) = 3.86409 6.63084 5.42675
#
# Compressibility (1/GPa) = 0.06992770
#
# Stress axis : x y z
#
# Youngs Moduli (GPa) = 62.64968 13.09326 46.62665
#
# Poissons Ratio (x) = -0.10261 0.53914
# Poissons Ratio (y) = -0.49098 0.84870
# Poissons Ratio (z) = 0.72441 0.23833
#
# Static dielectric constant tensor:
#      x y z
#    x 1.933140 -0.041130 -0.039360 
#    y -0.041130 1.890830 0.022620 
#    z -0.039360 0.022620 1.919890 
# 
# From -- ./inp_files/552021.got.cif
#   From: 2010.05.17/outbox.cif.g08.bks.cpg/sg2_277_cif.got.tgz:552021.got - 2010.06.03 11:33:40.
