data_PCOD9099287
_publ_section_title
;
Structure prediction by ZEFSAII (Michael W. Deem and Ramdas Pophale) SiO2 
 PCOD9099287
Probable space group: P -1
;
_chemical_formula_sum "Si O2"
_cell_formula_units_Z 16
_cell_length_a 15.042271
_cell_length_b 7.451463
_cell_length_c 18.981643
_cell_angle_alpha 41.968603
_cell_angle_beta 27.820575
_cell_angle_gamma 54.647260
_cell_volume 642.409340
_symmetry_space_group_name_H-M "P -1"
_symmetry_group_IT_number 2
_symmetry_cell_setting 'triclinic'
loop_
_space_group_symop_operation_xyz
x,y,z
-x,-y,-z
loop_
_atom_site_type_symbol
_atom_site_label
_atom_site_fract_x
_atom_site_fract_y
_atom_site_fract_z
Si Si1 0.862853 0.336348 0.539186
Si Si2 0.998360 0.986702 0.257275
Si Si3 0.677443 0.306018 0.034453
Si Si4 0.006119 0.163217 0.346100
Si Si5 0.000755 0.052419 0.081492
Si Si6 0.608731 0.049947 0.301300
Si Si7 0.447806 0.117461 0.859309
Si Si8 0.647137 0.445066 0.295057
O O1 0.631291 0.232624 0.746761
O O2 0.944165 0.658239 0.403211
O O3 0.887775 0.275793 0.456323
O O4 0.978398 0.141658 0.553962
O O5 0.934220 0.142588 0.322378
O O6 0.908756 0.031552 0.231454
O O7 0.235111 0.094149 0.050149
O O8 0.569201 0.197128 0.214711
O O9 0.558717 0.177780 0.085882
O O10 0.775718 0.629389 0.866963
O O11 0.865235 0.165920 0.945208
O O12 0.824870 0.989555 0.167956
O O13 0.140344 0.362713 0.888644
O O14 0.630291 0.267316 0.286793
O O15 0.457753 0.764041 0.510669
O O16 0.462536 0.322688 0.721646
#
# Coordination Sequence:
#
# PCOD9099287 Si02
#       8
#     2   2   2   2   2   2   2   2
#     4  11  23  44  65  93 127 162 210 257 317 369
#     4  10  21  44  64  93 129 161 208 260 309 367
#     4  10  21  40  58  91 124 160 208 252 304 367
#     4  11  23  42  67  94 125 163 210 261 306 380
#     4  10  20  37  60  82 124 164 194 253 306 356
#     4  11  20  37  58  85 122 160 206 249 299 364
#     4  10  22  42  63  86 131 166 198 268 308 364
#     4   9  21  35  55  85 116 157 205 251 294 363
#
# _framework density 24.906237999999998
#
# number of rings (size 3 to 8) (size 9 to 14) (size 15 to 20)
#    0.000    2.000    2.500    3.375    0.000    3.000 
#   11.250    0.000    0.000    0.000    0.000    0.000 
#    0.000    0.000    0.000    0.000    0.000    0.000 
#
# Total GULP energy -89531.571159 kJ/mol
# GULP energy per Si atom -5595.723197 kJ/mol
# Density = 2.484955 g / cm^3
# Si number density = 24.906238 Si / 1000 Ang^3
#
#
#
# Elastic Constant Matrix: (Units=GPa)
#
#
# Indices 1 2 3 4 5 6 
#
# 1 42.1991 12.6961 16.5946 12.6868 5.5155 13.8584
# 2 12.6961 53.0265 27.9268 -16.3726 3.6166 17.5259
# 3 16.5946 27.9268 109.2812 -25.4427 -12.1111 -1.4833
# 4 12.6868 -16.3726 -25.4427 39.9966 0.5076 1.1392
# 5 5.5155 3.6166 -12.1111 0.5076 21.2441 9.4878
# 6 13.8584 17.5259 -1.4833 1.1392 9.4878 28.8312
#
#
#
# Elastic Compliance Matrix: (Units=1/GPa)
#
#
# Indices 1 2 3 4 5 6 
#
# 1 0.042571 -0.006182 -0.011513 -0.022856 -0.010194 -0.013040
# 2 -0.006182 0.032536 -0.004474 0.012929 0.001223 -0.017950
# 3 -0.011513 -0.004474 0.015972 0.011701 0.010234 0.005245
# 4 -0.022856 0.012929 0.011701 0.044900 0.009915 -0.001308
# 5 -0.010194 0.001223 0.010234 0.009915 0.062356 -0.016229
# 6 -0.013040 -0.017950 0.005245 -0.001308 -0.016229 0.057526
#
#
# Mechanical properties :
#
#
# Convention : Reuss Voigt Hill
#
# Bulk Modulus (GPa) = 21.39398 35.43798 28.41598
# Shear Modulus (GPa) = 15.83396 27.83368 21.83382
#
# Velocity S-wave (km/s) = 2.52413 3.34659 2.96402
# Velocity P-wave (km/s) = 4.13563 5.40299 4.81122
#
# Compressibility (1/GPa) = 0.04674211
#
# Stress axis : x y z
#
# Youngs Moduli (GPa) = 23.49037 30.73512 62.60993
#
# Poissons Ratio (x) = 0.18999 0.72082
# Poissons Ratio (y) = 0.14521 0.28011
# Poissons Ratio (z) = 0.27044 0.13750
#
# Static dielectric constant tensor:
#      x y z
#    x 1.955370 0.001930 0.013090 
#    y 0.001930 2.044020 0.067530 
#    z 0.013090 0.067530 1.989480 
# 
# From -- ./inp_files/599174.got.cif
#   From: 2010.05.17/outbox.cif.g08.bks.cpg/sg2_300_cif.got.tgz:599174.got - 2010.06.03 11:33:40.
