data_PCOD9099779
_publ_section_title
;
Structure prediction by ZEFSAII (Michael W. Deem and Ramdas Pophale) SiO2 
 PCOD9099779
Probable space group: P -1
;
_chemical_formula_sum "Si O2"
_cell_formula_units_Z 16
_cell_length_a 8.979615
_cell_length_b 8.593059
_cell_length_c 23.362680
_cell_angle_alpha 54.440036
_cell_angle_beta 135.153243
_cell_angle_gamma 90.106471
_cell_volume 722.547758
_symmetry_space_group_name_H-M "P -1"
_symmetry_group_IT_number 2
_symmetry_cell_setting 'triclinic'
loop_
_space_group_symop_operation_xyz
x,y,z
-x,-y,-z
loop_
_atom_site_type_symbol
_atom_site_label
_atom_site_fract_x
_atom_site_fract_y
_atom_site_fract_z
Si Si1 0.975527 0.310940 0.463953
Si Si2 0.451749 0.240056 0.462562
Si Si3 0.785440 0.873004 0.024119
Si Si4 0.210737 0.413496 0.809131
Si Si5 0.745611 0.244927 0.302433
Si Si6 0.104898 0.492034 0.093019
Si Si7 0.397528 0.913311 0.338835
Si Si8 0.378445 0.658687 0.285110
O O1 0.903877 0.251711 0.397133
O O2 0.653479 0.581633 0.343431
O O3 0.244805 0.285120 0.533777
O O4 0.119619 0.054119 0.598945
O O5 0.622812 0.145831 0.589188
O O6 0.507119 0.371787 0.404299
O O7 0.091256 0.478461 0.323371
O O8 0.500000 0.000000 0.500000
O O9 0.763704 0.705888 0.097344
O O10 0.839621 0.762235 0.999044
O O11 0.086153 0.797528 0.138510
O O12 0.490714 0.183019 0.893669
O O13 0.196320 0.652288 0.756641
O O14 0.391920 0.445798 0.175427
O O15 0.230328 0.224677 0.218396
O O16 0.000000 0.500000 0.000000
O O17 0.283014 0.841843 0.275124
#
# Coordination Sequence:
#
# PCOD9099779 Si02
#       8
#     2   2   2   2   2   2   2   2
#     4  10  20  37  61  92 125 157 204 260 315 365
#     4  11  22  40  69  93 123 165 208 252 313 375
#     4  10  23  42  64  89 126 168 212 252 314 379
#     4  10  21  39  67  91 121 162 212 255 305 374
#     4  10  20  37  63  89 122 161 211 255 312 377
#     4  11  25  43  62  90 125 170 214 258 312 377
#     4  11  23  40  61  93 129 155 211 265 304 370
#     4  11  22  38  65  94 126 164 203 259 316 364
#
# _framework density 22.143863
#
# number of rings (size 3 to 8) (size 9 to 14) (size 15 to 20)
#    0.000    1.500    2.500    3.000    3.500    1.500 
#    4.500    0.625    5.500    0.000    0.000    0.000 
#    0.000    0.000    0.000    0.000    0.000    0.000 
#
# Total GULP energy -89449.334288 kJ/mol
# GULP energy per Si atom -5590.583393 kJ/mol
# Density = 2.209346 g / cm^3
# Si number density = 22.143863 Si / 1000 Ang^3
#
#
#
# Elastic Constant Matrix: (Units=GPa)
#
#
# Indices 1 2 3 4 5 6 
#
# 1 49.0135 8.9680 27.2902 -9.0947 16.8078 -8.1720
# 2 8.9680 77.9283 4.6343 15.4605 6.0852 -17.3970
# 3 27.2902 4.6343 60.9149 0.9008 4.4074 -13.7244
# 4 -9.0947 15.4605 0.9008 23.0948 -2.6577 -2.8752
# 5 16.8078 6.0852 4.4074 -2.6577 29.6320 -11.7226
# 6 -8.1720 -17.3970 -13.7244 -2.8752 -11.7226 36.1768
#
#
#
# Elastic Compliance Matrix: (Units=1/GPa)
#
#
# Indices 1 2 3 4 5 6 
#
# 1 0.040958 -0.007107 -0.017987 0.018576 -0.019773 -0.005920
# 2 -0.007107 0.017747 0.003667 -0.013658 0.001696 0.007784
# 3 -0.017987 0.003667 0.025868 -0.008345 0.008676 0.009662
# 4 0.018576 -0.013658 -0.008345 0.059727 -0.001659 -0.001329
# 5 -0.019773 0.001696 0.008676 -0.001659 0.049301 0.015484
# 6 -0.005920 0.007784 0.009662 -0.001329 0.015484 0.038625
#
#
# Mechanical properties :
#
#
# Convention : Reuss Voigt Hill
#
# Bulk Modulus (GPa) = 23.96931 29.96021 26.96476
# Shear Modulus (GPa) = 17.30185 27.57832 22.44009
#
# Velocity S-wave (km/s) = 2.79828 3.53287 3.18681
# Velocity P-wave (km/s) = 4.61393 5.49552 5.07391
#
# Compressibility (1/GPa) = 0.04172001
#
# Stress axis : x y z
#
# Youngs Moduli (GPa) = 24.41520 56.34735 38.65773
#
# Poissons Ratio (x) = 0.40044 0.69532
# Poissons Ratio (y) = 0.17351 -0.14175
# Poissons Ratio (z) = 0.43915 -0.20661
#
# Static dielectric constant tensor:
#      x y z
#    x 1.851810 -0.013170 -0.022980 
#    y -0.013170 1.785850 -0.040440 
#    z -0.022980 -0.040440 1.841030 
# 
# From -- ./inp_files/306585.got.cif
#   From: 2010.05.17/outbox.cif.g08.bks.cpg/sg2_154_cif.got.tgz:306585.got - 2010.06.03 11:33:40.
