data_PCOD9099224
_publ_section_title
;
Structure prediction by ZEFSAII (Michael W. Deem and Ramdas Pophale) SiO2 
 PCOD9099224
Probable space group: P -1
;
_chemical_formula_sum "Si O2"
_cell_formula_units_Z 16
_cell_length_a 12.943887
_cell_length_b 15.177605
_cell_length_c 10.024507
_cell_angle_alpha 57.687728
_cell_angle_beta 36.348599
_cell_angle_gamma 79.856636
_cell_volume 849.784461
_symmetry_space_group_name_H-M "P -1"
_symmetry_group_IT_number 2
_symmetry_cell_setting 'triclinic'
loop_
_space_group_symop_operation_xyz
x,y,z
-x,-y,-z
loop_
_atom_site_type_symbol
_atom_site_label
_atom_site_fract_x
_atom_site_fract_y
_atom_site_fract_z
Si Si1 0.747504 0.708679 0.716035
Si Si2 0.395404 0.801380 0.802320
Si Si3 0.500364 0.460610 0.683552
Si Si4 0.941478 0.216145 0.030575
Si Si5 0.832714 0.963885 0.321195
Si Si6 0.041904 0.463970 0.843522
Si Si7 0.957059 0.396010 0.520769
Si Si8 0.587934 0.656221 0.646598
O O1 0.822691 0.849206 0.497998
O O2 0.581005 0.637123 0.829433
O O3 0.910101 0.667538 0.555240
O O4 0.664666 0.669843 0.983507
O O5 0.226080 0.812496 0.886540
O O6 0.604395 0.914875 0.543503
O O7 0.482490 0.735180 0.673072
O O8 0.270657 0.712345 0.126710
O O9 0.500000 0.500000 0.500000
O O10 0.719227 0.479210 0.463706
O O11 0.485133 0.548515 0.736450
O O12 0.892485 0.085909 0.241501
O O13 0.943974 0.320362 0.035228
O O14 0.171793 0.275865 0.688603
O O15 0.000000 0.000000 0.000000
O O16 0.990209 0.531710 0.729772
O O17 0.000000 0.500000 0.000000
O O18 0.000000 0.500000 0.500000
#
# Coordination Sequence:
#
# PCOD9099224 Si02
#       8
#     2   2   2   2   2   2   2   2
#     4  11  21  37  61  89 123 160 203 256 318 367
#     4  11  20  34  65  89 122 165 199 257 321 358
#     4  11  23  38  59  87 124 164 204 257 321 370
#     4  11  21  39  58  92 124 164 203 258 307 368
#     4  11  21  38  59  92 129 163 210 256 301 375
#     4  11  24  39  60  89 126 161 206 264 314 372
#     4  12  20  36  62  93 126 155 209 264 318 367
#     4  10  20  37  59  90 126 154 204 257 313 371
#
# _framework density 18.828303999999999
#
# number of rings (size 3 to 8) (size 9 to 14) (size 15 to 20)
#    0.000    1.000    5.000    4.500    1.750    0.000 
#    0.000    0.000    0.000    9.750    0.000    0.000 
#    0.000    0.000    0.000    0.000    0.000    0.000 
#
# Total GULP energy -89164.817962 kJ/mol
# GULP energy per Si atom -5572.801123 kJ/mol
# Density = 1.878545 g / cm^3
# Si number density = 18.828304 Si / 1000 Ang^3
#
#
#
# Elastic Constant Matrix: (Units=GPa)
#
#
# Indices 1 2 3 4 5 6 
#
# 1 81.7663 40.2646 44.0440 -5.7936 9.5826 -15.7018
# 2 40.2646 131.4269 52.1019 -19.0861 18.2483 -13.2403
# 3 44.0440 52.1019 111.9883 -14.1919 4.1615 2.1249
# 4 -5.7936 -19.0861 -14.1919 27.3087 -6.9313 -0.2674
# 5 9.5826 18.2483 4.1615 -6.9313 44.7265 7.8221
# 6 -15.7018 -13.2403 2.1249 -0.2674 7.8221 29.1240
#
#
#
# Elastic Compliance Matrix: (Units=1/GPa)
#
#
# Indices 1 2 3 4 5 6 
#
# 1 0.019662 -0.001463 -0.007319 -0.001885 -0.005304 0.011876
# 2 -0.001463 0.011593 -0.004191 0.004563 -0.004369 0.006003
# 3 -0.007319 -0.004191 0.014249 0.003843 0.003932 -0.007912
# 4 -0.001885 0.004563 0.003843 0.042625 0.004811 -0.000123
# 5 -0.005304 -0.004369 0.003932 0.004811 0.027855 -0.012570
# 6 0.011876 0.006003 -0.007912 -0.000123 -0.012570 0.047420
#
#
# Mechanical properties :
#
#
# Convention : Reuss Voigt Hill
#
# Bulk Modulus (GPa) = 51.13384 66.44473 58.78929
# Shear Modulus (GPa) = 25.52723 32.81656 29.17190
#
# Velocity S-wave (km/s) = 3.68610 4.17938 3.94047
# Velocity P-wave (km/s) = 6.73301 7.65872 7.21074
#
# Compressibility (1/GPa) = 0.01955652
#
# Stress axis : x y z
#
# Youngs Moduli (GPa) = 50.86061 86.26203 70.17956
#
# Poissons Ratio (x) = 0.12619 0.51366
# Poissons Ratio (y) = 0.07440 0.29414
# Poissons Ratio (z) = 0.37226 0.36155
#
# Static dielectric constant tensor:
#      x y z
#    x 1.702290 -0.018050 0.000060 
#    y -0.018050 1.701470 -0.031330 
#    z 0.000060 -0.031330 1.707650 
# 
# From -- ./inp_files/272050.got.cif
#   From: 2010.05.17/outbox.cif.g08.bks.cpg/sg2_137_cif.got.tgz:272050.got - 2010.06.03 11:33:40.
