data_PCOD9099215
_publ_section_title
;
Structure prediction by ZEFSAII (Michael W. Deem and Ramdas Pophale) SiO2 
 PCOD9099215
Probable space group: P -1
;
_chemical_formula_sum "Si O2"
_cell_formula_units_Z 16
_cell_length_a 18.677380
_cell_length_b 7.715267
_cell_length_c 5.646491
_cell_angle_alpha 115.570196
_cell_angle_beta 89.353443
_cell_angle_gamma 61.248321
_cell_volume 618.342100
_symmetry_space_group_name_H-M "P -1"
_symmetry_group_IT_number 2
_symmetry_cell_setting 'triclinic'
loop_
_space_group_symop_operation_xyz
x,y,z
-x,-y,-z
loop_
_atom_site_type_symbol
_atom_site_label
_atom_site_fract_x
_atom_site_fract_y
_atom_site_fract_z
Si Si1 0.497228 0.657566 0.343866
Si Si2 0.864635 0.350937 0.138810
Si Si3 0.191819 0.930899 0.282941
Si Si4 0.732352 0.475947 0.587752
Si Si5 0.446027 0.329270 0.153048
Si Si6 0.977122 0.632116 0.825846
Si Si7 0.188439 0.207533 0.849064
Si Si8 0.672341 0.207498 0.150665
O O1 0.425016 0.594020 0.314337
O O2 0.505150 0.767366 0.651931
O O3 0.575921 0.389602 0.194334
O O4 0.510670 0.754926 0.157584
O O5 0.807777 0.477240 0.450681
O O6 0.962165 0.270397 0.116020
O O7 0.822777 0.552824 0.062397
O O8 0.859616 0.138025 0.928115
O O9 0.225498 0.726615 0.348983
O O10 0.153811 0.147350 0.581729
O O11 0.273706 0.912121 0.154683
O O12 0.641371 0.667474 0.816986
O O13 0.700511 0.382157 0.323080
O O14 0.000000 0.500000 0.500000
O O15 0.000000 0.500000 0.000000
O O16 0.874685 0.773497 0.931834
O O17 0.283974 0.004844 0.793432
#
# Coordination Sequence:
#
# PCOD9099215 Si02
#       8
#     2   2   2   2   2   2   2   2
#     4   9  16  28  50  82 119 157 196 243 296 350
#     4  10  23  39  63  86 119 162 203 255 309 361
#     4  10  20  37  59  90 118 156 202 256 295 367
#     4   9  18  33  54  86 120 153 203 251 294 361
#     4   9  16  28  50  82 119 157 196 243 296 350
#     4  10  24  43  63  89 122 157 207 255 299 370
#     4  10  23  39  63  86 119 162 203 255 309 361
#     4   9  18  33  54  86 120 153 203 251 294 361
#
# _framework density 25.875643
#
# number of rings (size 3 to 8) (size 9 to 14) (size 15 to 20)
#    0.000    2.500    1.250    0.000    7.000    0.500 
#    0.000    5.625    0.000    0.750    0.000    1.750 
#    0.000    0.000    0.000    0.000    0.000    0.000 
#
# Total GULP energy -89073.649831 kJ/mol
# GULP energy per Si atom -5567.103114 kJ/mol
# Density = 2.581675 g / cm^3
# Si number density = 25.875643 Si / 1000 Ang^3
#
#
#
# Elastic Constant Matrix: (Units=GPa)
#
#
# Indices 1 2 3 4 5 6 
#
# 1 82.0275 18.0975 18.2361 -3.0394 -15.3970 -0.3135
# 2 18.0975 102.6202 17.9113 -5.3314 6.0124 2.1358
# 3 18.2361 17.9113 125.4129 -25.4002 -2.0734 10.9045
# 4 -3.0394 -5.3314 -25.4002 40.6571 2.2468 -4.7116
# 5 -15.3970 6.0124 -2.0734 2.2468 30.3830 1.7522
# 6 -0.3135 2.1358 10.9045 -4.7116 1.7522 35.5978
#
#
#
# Elastic Compliance Matrix: (Units=1/GPa)
#
#
# Indices 1 2 3 4 5 6 
#
# 1 0.014658 -0.002783 -0.001793 -0.000785 0.007894 0.000353
# 2 -0.002783 0.010667 -0.001022 0.000745 -0.003642 -0.000074
# 3 -0.001793 -0.001022 0.009688 0.005551 -0.000331 -0.002171
# 4 -0.000785 0.000745 0.005551 0.028483 -0.002396 0.002136
# 5 0.007894 -0.003642 -0.000331 -0.002396 0.037892 -0.001793
# 6 0.000353 -0.000074 -0.002171 0.002136 -0.001793 0.029135
#
#
# Mechanical properties :
#
#
# Convention : Reuss Voigt Hill
#
# Bulk Modulus (GPa) = 41.98492 46.50559 44.24526
# Shear Modulus (GPa) = 33.40972 38.38196 35.89584
#
# Velocity S-wave (km/s) = 3.59718 3.85557 3.72861
# Velocity P-wave (km/s) = 5.78911 6.15080 5.97269
#
# Compressibility (1/GPa) = 0.02381807
#
# Stress axis : x y z
#
# Youngs Moduli (GPa) = 68.22417 93.74416 103.22165
#
# Poissons Ratio (x) = 0.26085 0.18508
# Poissons Ratio (y) = 0.18984 0.10547
# Poissons Ratio (z) = 0.12233 0.09578
#
# Static dielectric constant tensor:
#      x y z
#    x 2.513950 -0.017100 -0.014150 
#    y -0.017100 2.045640 0.014870 
#    z -0.014150 0.014870 2.252610 
# 
# From -- ./inp_files/56942.got.cif
#   From: 2010.05.17/outbox.cif.g08.bks.cpg/sg2_29_cif.got.tgz:56942.got - 2010.06.03 11:33:40.
