data_PCOD9099926
_publ_section_title
;
Structure prediction by ZEFSAII (Michael W. Deem and Ramdas Pophale) SiO2 
 PCOD9099926
Probable space group: P -1
;
_chemical_formula_sum "Si O2"
_cell_formula_units_Z 16
_cell_length_a 9.351826
_cell_length_b 7.707513
_cell_length_c 11.875007
_cell_angle_alpha 74.201311
_cell_angle_beta 102.177625
_cell_angle_gamma 74.635411
_cell_volume 756.306734
_symmetry_space_group_name_H-M "P -1"
_symmetry_group_IT_number 2
_symmetry_cell_setting 'triclinic'
loop_
_space_group_symop_operation_xyz
x,y,z
-x,-y,-z
loop_
_atom_site_type_symbol
_atom_site_label
_atom_site_fract_x
_atom_site_fract_y
_atom_site_fract_z
Si Si1 0.155738 0.506559 0.370897
Si Si2 0.539618 0.365595 0.140646
Si Si3 0.834935 0.202543 0.340347
Si Si4 0.081693 0.231665 0.558958
Si Si5 0.967190 0.688212 0.811868
Si Si6 0.277658 0.634704 0.174247
Si Si7 0.355365 0.930226 0.975711
Si Si8 0.083197 0.268118 0.960918
O O1 0.179778 0.359908 0.505092
O O2 0.270567 0.601538 0.313625
O O3 0.998532 0.677175 0.353130
O O4 0.127839 0.375739 0.288185
O O5 0.672353 0.364843 0.252595
O O6 0.378996 0.431703 0.170350
O O7 0.500000 0.500000 0.000000
O O8 0.619055 0.164574 0.126389
O O9 0.945667 0.185128 0.253799
O O10 0.930410 0.254420 0.449004
O O11 0.824071 0.993533 0.394070
O O12 0.090886 0.480344 0.905752
O O13 0.880604 0.781833 0.893379
O O14 0.349246 0.781911 0.100716
O O15 0.096776 0.708827 0.093176
O O16 0.500000 0.000000 0.000000
O O17 0.198513 0.109154 0.931501
#
# Coordination Sequence:
#
# PCOD9099926 Si02
#       8
#     2   2   2   2   2   2   2   2
#     4   9  19  37  60  87 119 151 210 263 305 356
#     4  10  23  40  59  88 133 162 193 243 320 373
#     4  10  20  37  62  87 123 164 200 259 310 360
#     4   9  20  38  61  96 114 154 219 263 302 356
#     4   9  19  31  60  86 122 157 202 250 303 358
#     4  10  22  40  60  85 125 169 201 248 313 368
#     4  11  25  36  57  91 130 160 209 249 300 377
#     4  10  21  35  59  89 122 165 211 243 297 376
#
# _framework density 21.155436999999999
#
# number of rings (size 3 to 8) (size 9 to 14) (size 15 to 20)
#    0.000    2.250    0.000    1.875   14.000    0.000 
#    0.000    1.250    0.000    0.000    0.000    0.000 
#    0.000    0.000    0.000    0.000    0.000    0.000 
#
# Total GULP energy -89068.206819 kJ/mol
# GULP energy per Si atom -5566.762926 kJ/mol
# Density = 2.110729 g / cm^3
# Si number density = 21.155437 Si / 1000 Ang^3
#
#
#
# Elastic Constant Matrix: (Units=GPa)
#
#
# Indices 1 2 3 4 5 6 
#
# 1 90.4599 28.1193 37.9075 -3.7466 -17.4689 -7.9385
# 2 28.1193 85.9675 22.7654 10.6204 -8.8606 -19.5832
# 3 37.9075 22.7654 77.4295 -1.1255 -15.8135 -8.4060
# 4 -3.7466 10.6204 -1.1255 27.4809 -4.6917 -12.8456
# 5 -17.4689 -8.8606 -15.8135 -4.6917 47.0793 -4.5295
# 6 -7.9385 -19.5832 -8.4060 -12.8456 -4.5295 38.1877
#
#
#
# Elastic Compliance Matrix: (Units=1/GPa)
#
#
# Indices 1 2 3 4 5 6 
#
# 1 0.015590 -0.003272 -0.005491 0.005045 0.004071 0.002534
# 2 -0.003272 0.015059 -0.002054 -0.003583 0.001104 0.005516
# 3 -0.005491 -0.002054 0.017401 0.002881 0.004004 0.003080
# 4 0.005045 -0.003583 0.002881 0.047995 0.008585 0.017008
# 5 0.004071 0.001104 0.004004 0.008585 0.025955 0.008260
# 6 0.002534 0.005516 0.003080 0.017008 0.008260 0.036921
#
#
# Mechanical properties :
#
#
# Convention : Reuss Voigt Hill
#
# Bulk Modulus (GPa) = 37.85249 47.93791 42.89520
# Shear Modulus (GPa) = 26.40484 33.55388 29.97936
#
# Velocity S-wave (km/s) = 3.53673 3.98686 3.76852
# Velocity P-wave (km/s) = 5.88297 6.62589 6.26545
#
# Compressibility (1/GPa) = 0.02641834
#
# Stress axis : x y z
#
# Youngs Moduli (GPa) = 64.14352 66.40420 57.46820
#
# Poissons Ratio (x) = 0.21725 0.31554
# Poissons Ratio (y) = 0.20986 0.11802
# Poissons Ratio (z) = 0.35219 0.13637
#
# Static dielectric constant tensor:
#      x y z
#    x 1.799790 0.038090 0.015590 
#    y 0.038090 1.816230 -0.019030 
#    z 0.015590 -0.019030 1.912660 
# 
# From -- ./inp_files/378721.got.cif
#   From: 2010.05.17/outbox.cif.g08.bks.cpg/sg2_190_cif.got.tgz:378721.got - 2010.06.03 11:33:40.
