data_PCOD9099337
_publ_section_title
;
Structure prediction by ZEFSAII (Michael W. Deem and Ramdas Pophale) SiO2 
 PCOD9099337
Probable space group: P -1
;
_chemical_formula_sum "Si O2"
_cell_formula_units_Z 12
_cell_length_a 12.868926
_cell_length_b 12.092221
_cell_length_c 9.106473
_cell_angle_alpha 69.314228
_cell_angle_beta 55.280616
_cell_angle_gamma 115.242727
_cell_volume 629.551193
_symmetry_space_group_name_H-M "P -1"
_symmetry_group_IT_number 2
_symmetry_cell_setting 'triclinic'
loop_
_space_group_symop_operation_xyz
x,y,z
-x,-y,-z
loop_
_atom_site_type_symbol
_atom_site_label
_atom_site_fract_x
_atom_site_fract_y
_atom_site_fract_z
Si Si1 0.104370 0.385525 0.587815
Si Si2 0.707520 0.290107 0.512970
Si Si3 0.314902 0.501968 0.772597
Si Si4 0.789602 0.759053 0.270037
Si Si5 0.355590 0.883296 0.819755
Si Si6 0.114308 0.457301 0.216402
O O1 0.275646 0.614906 0.400506
O O2 0.203593 0.333640 0.563848
O O3 0.047562 0.365401 0.474717
O O4 0.881067 0.232057 0.934839
O O5 0.726473 0.402340 0.315681
O O6 0.911492 0.358418 0.337065
O O7 0.497243 0.051893 0.755029
O O8 0.572366 0.671796 0.489082
O O9 0.214007 0.322563 0.836784
O O10 0.217088 0.434452 0.044548
O O11 0.000000 0.000000 0.000000
O O12 0.500000 0.000000 0.500000
O O13 0.289749 0.696914 0.982761
#
# Coordination Sequence:
#
# PCOD9099337 Si02
#       6
#     2   2   2   2   2   2
#     4  10  24  39  56  87 125 148 187 243 293 330
#     4  10  20  37  60  85 120 152 187 234 281 348
#     4  10  21  37  59  85 111 153 197 234 285 333
#     4  10  22  40  61  80 109 156 201 240 271 345
#     4  11  21  34  62  89 114 155 194 224 283 356
#     4  11  23  37  57  92 123 147 183 244 295 338
#
# _framework density 19.061198999999998
#
# number of rings (size 3 to 8) (size 9 to 14) (size 15 to 20)
#    0.000    1.667    1.667    3.500    4.667    3.333 
#    0.000    0.833    0.000    0.000    0.000    0.000 
#    0.000    0.000    0.000    0.000    0.000    0.000 
#
# Total GULP energy -66955.987881 kJ/mol
# GULP energy per Si atom -5579.665657 kJ/mol
# Density = 1.901781 g / cm^3
# Si number density = 19.061199 Si / 1000 Ang^3
#
#
#
# Elastic Constant Matrix: (Units=GPa)
#
#
# Indices 1 2 3 4 5 6 
#
# 1 91.0238 56.4111 38.1547 3.0394 -5.1657 15.0345
# 2 56.4111 66.3521 36.7968 -17.2378 -20.3328 7.8910
# 3 38.1547 36.7968 56.8769 -3.9192 0.0247 17.5619
# 4 3.0394 -17.2378 -3.9192 37.7945 14.5780 -4.4531
# 5 -5.1657 -20.3328 0.0247 14.5780 11.8556 -11.4514
# 6 15.0345 7.8910 17.5619 -4.4531 -11.4514 12.6351
#
#
#
# Elastic Compliance Matrix: (Units=1/GPa)
#
#
# Indices 1 2 3 4 5 6 
#
# 1 0.023031 -0.010942 -0.013238 -0.015218 0.021923 0.012334
# 2 -0.010942 0.016754 0.010126 0.019847 -0.038750 -0.039643
# 3 -0.013238 0.010126 0.014466 -0.003021 0.031623 0.016916
# 4 -0.015218 0.019847 -0.003021 0.043807 -0.015767 0.011062
# 5 0.021923 -0.038750 0.031623 -0.015767 -0.023109 -0.072340
# 6 0.012334 -0.039643 0.016916 0.011062 -0.072340 0.004050
#
#
# Mechanical properties :
#
#
# Convention : Reuss Voigt Hill
#
# Bulk Modulus (GPa) = 38.24951 52.99755 45.62353
# Shear Modulus (GPa) = 43.16971 17.98304 30.57637
#
# Velocity S-wave (km/s) = 4.76415 3.07487 4.00949
# Velocity P-wave (km/s) = 7.09740 6.36166 6.73958
#
# Compressibility (1/GPa) = 0.02614413
#
# Stress axis : x y z
#
# Youngs Moduli (GPa) = 43.41923 59.68566 69.12808
#
# Poissons Ratio (x) = 0.65307 0.91509
# Poissons Ratio (y) = 0.47509 -0.69997
# Poissons Ratio (z) = 0.57477 -0.60436
#
# Static dielectric constant tensor:
#      x y z
#    x 1.675400 0.010750 0.008370 
#    y 0.010750 1.670720 0.011190 
#    z 0.008370 0.011190 1.651530 
# 
# From -- ./inp_files/59044.got.cif
#   From: 2010.05.17/outbox.cif.g08.bks.cpg/sg2_30_cif.got.tgz:59044.got - 2010.06.03 11:33:40.
