data_PCOD9099383
_publ_section_title
;
Structure prediction by ZEFSAII (Michael W. Deem and Ramdas Pophale) SiO2 
 PCOD9099383
Probable space group: P -1
;
_chemical_formula_sum "Si O2"
_cell_formula_units_Z 16
_cell_length_a 11.700106
_cell_length_b 8.573885
_cell_length_c 22.408506
_cell_angle_alpha 115.368333
_cell_angle_beta 153.168847
_cell_angle_gamma 53.256165
_cell_volume 777.752662
_symmetry_space_group_name_H-M "P -1"
_symmetry_group_IT_number 2
_symmetry_cell_setting 'triclinic'
loop_
_space_group_symop_operation_xyz
x,y,z
-x,-y,-z
loop_
_atom_site_type_symbol
_atom_site_label
_atom_site_fract_x
_atom_site_fract_y
_atom_site_fract_z
Si Si1 0.011780 0.860086 0.619559
Si Si2 0.581146 0.653102 0.034123
Si Si3 0.601131 0.430132 0.797907
Si Si4 0.414505 0.973418 0.305282
Si Si5 0.540902 0.001495 0.145735
Si Si6 0.947417 0.962521 0.735756
Si Si7 0.017521 0.319399 0.865366
Si Si8 0.901798 0.835804 0.926472
O O1 0.746032 0.925103 0.460503
O O2 0.286136 0.630896 0.697844
O O3 0.163545 0.992810 0.711963
O O4 0.880878 0.896149 0.631378
O O5 0.864724 0.586649 0.112781
O O6 0.598669 0.785956 0.117329
O O7 0.500000 0.500000 0.000000
O O8 0.294087 0.803715 0.885204
O O9 0.571022 0.235935 0.739342
O O10 0.695364 0.839642 0.986884
O O11 0.763306 0.451425 0.818061
O O12 0.224865 0.141638 0.194779
O O13 0.239462 0.044249 0.297567
O O14 0.371853 0.077860 0.141547
O O15 0.914863 0.182572 0.760075
O O16 0.175661 0.634289 0.051744
O O17 0.000000 0.000000 0.000000
#
# Coordination Sequence:
#
# PCOD9099383 Si02
#       8
#     2   2   2   2   2   2   2   2
#     4  12  21  36  62  91 122 159 209 244 296 372
#     4  11  20  35  62  93 120 154 205 261 303 350
#     4   9  21  37  62  91 119 162 206 252 295 355
#     4  10  22  39  60  88 125 165 199 247 307 359
#     4  10  20  37  60  87 121 162 198 247 311 356
#     4  10  20  38  60  85 119 164 201 246 301 365
#     4   9  17  39  59  85 124 153 202 251 303 362
#     4   9  19  39  59  84 125 157 200 255 302 350
#
# _framework density 20.572094
#
# number of rings (size 3 to 8) (size 9 to 14) (size 15 to 20)
#    0.000    2.000    2.500    3.750    0.000    5.500 
#    4.500    0.000    0.000    0.750    0.000    0.000 
#    0.000    0.000    0.000    0.000    0.000    0.000 
#
# Total GULP energy -89355.460461 kJ/mol
# GULP energy per Si atom -5584.716279 kJ/mol
# Density = 2.052527 g / cm^3
# Si number density = 20.572094 Si / 1000 Ang^3
#
#
#
# Elastic Constant Matrix: (Units=GPa)
#
#
# Indices 1 2 3 4 5 6 
#
# 1 124.8861 45.0456 29.1077 -8.6194 -0.8894 -7.4207
# 2 45.0456 91.9409 23.4372 0.8256 -5.8509 -12.8329
# 3 29.1077 23.4372 104.0156 -4.7992 -1.5101 -19.7071
# 4 -8.6194 0.8256 -4.7992 20.3586 -0.6405 3.7380
# 5 -0.8894 -5.8509 -1.5101 -0.6405 15.8510 -3.8838
# 6 -7.4207 -12.8329 -19.7071 3.7380 -3.8838 16.1483
#
#
#
# Elastic Compliance Matrix: (Units=1/GPa)
#
#
# Indices 1 2 3 4 5 6 
#
# 1 0.010541 -0.005306 -0.002295 0.004768 -0.002334 -0.003840
# 2 -0.005306 0.015939 0.000460 -0.005095 0.008879 0.014103
# 3 -0.002295 0.000460 0.013465 -0.000811 0.005519 0.017259
# 4 0.004768 -0.005095 -0.000811 0.054016 -0.003474 -0.016187
# 5 -0.002334 0.008879 0.005519 -0.003474 0.074312 0.031396
# 6 -0.003840 0.014103 0.017259 -0.016187 0.031396 0.103730
#
#
# Mechanical properties :
#
#
# Convention : Reuss Voigt Hill
#
# Bulk Modulus (GPa) = 38.97123 57.33596 48.15359
# Shear Modulus (GPa) = 16.95833 25.35504 21.15669
#
# Velocity S-wave (km/s) = 2.87424 3.51450 3.21037
# Velocity P-wave (km/s) = 5.47721 6.66335 6.09918
#
# Compressibility (1/GPa) = 0.02565995
#
# Stress axis : x y z
#
# Youngs Moduli (GPa) = 94.87116 62.74093 74.26505
#
# Poissons Ratio (x) = 0.33293 0.17046
# Poissons Ratio (y) = 0.50343 -0.03413
# Poissons Ratio (z) = 0.21776 -0.02883
#
# Static dielectric constant tensor:
#      x y z
#    x 1.642260 -0.033930 -0.024070 
#    y -0.033930 1.767230 0.025210 
#    z -0.024070 0.025210 1.697680 
# 
# From -- ./inp_files/593681.got.cif
#   From: 2010.05.17/outbox.cif.g08.bks.cpg/sg2_297_cif.got.tgz:593681.got - 2010.06.03 11:33:40.
