data_PCOD9099559
_publ_section_title
;
Structure prediction by ZEFSAII (Michael W. Deem and Ramdas Pophale) SiO2 
 PCOD9099559
Probable space group: P -1
;
_chemical_formula_sum "Si O2"
_cell_formula_units_Z 16
_cell_length_a 14.228509
_cell_length_b 6.428610
_cell_length_c 15.057601
_cell_angle_alpha 116.116198
_cell_angle_beta 136.911393
_cell_angle_gamma 84.653382
_cell_volume 784.127312
_symmetry_space_group_name_H-M "P -1"
_symmetry_group_IT_number 2
_symmetry_cell_setting 'triclinic'
loop_
_space_group_symop_operation_xyz
x,y,z
-x,-y,-z
loop_
_atom_site_type_symbol
_atom_site_label
_atom_site_fract_x
_atom_site_fract_y
_atom_site_fract_z
Si Si1 0.973633 0.857309 0.293094
Si Si2 0.223891 0.724765 0.525652
Si Si3 0.706703 0.741165 0.705368
Si Si4 0.539611 0.063349 0.742044
Si Si5 0.956271 0.839650 0.772238
Si Si6 0.228137 0.699015 0.915145
Si Si7 0.845849 0.272790 0.330378
Si Si8 0.472772 0.716179 0.400829
O O1 0.108131 0.857413 0.447810
O O2 0.855624 0.577545 0.156798
O O3 0.039871 0.959028 0.261341
O O4 0.892540 0.035499 0.305472
O O5 0.136458 0.437823 0.383010
O O6 0.252159 0.744733 0.654013
O O7 0.375183 0.862429 0.603882
O O8 0.873258 0.859441 0.807992
O O9 0.607619 0.667452 0.532412
O O10 0.669976 0.494164 0.693344
O O11 0.643434 0.926216 0.746694
O O12 0.534442 0.272728 0.707929
O O13 0.613467 0.179071 0.907374
O O14 0.122866 0.849565 0.897997
O O15 0.222932 0.687335 0.802540
O O16 0.000000 0.500000 0.500000
O O17 0.500000 0.000000 0.500000
#
# Coordination Sequence:
#
# PCOD9099559 Si02
#       8
#     2   2   2   2   2   2   2   2
#     4  10  20  38  63  86 116 148 198 247 289 339
#     4  11  21  35  63  90 114 151 199 244 287 348
#     4  10  20  37  61  82 119 159 200 245 278 338
#     4  11  24  39  55  89 127 157 191 238 297 350
#     4  10  20  37  61  91 110 156 208 239 285 338
#     4  10  24  39  56  87 127 153 191 243 294 353
#     4  11  20  40  65  90 111 148 200 244 290 347
#     4   9  18  34  55  82 114 151 194 240 287 333
#
# _framework density 20.404851000000001
#
# number of rings (size 3 to 8) (size 9 to 14) (size 15 to 20)
#    0.000    1.750    3.750    3.375    0.000    6.000 
#    0.000    1.875    0.000    0.000    0.000    0.000 
#    0.000    0.000    0.000    0.000    0.000    0.000 
#
# Total GULP energy -89316.871975 kJ/mol
# GULP energy per Si atom -5582.304498 kJ/mol
# Density = 2.035841 g / cm^3
# Si number density = 20.404851 Si / 1000 Ang^3
#
#
#
# Elastic Constant Matrix: (Units=GPa)
#
#
# Indices 1 2 3 4 5 6 
#
# 1 58.7110 13.6812 -6.1716 -3.2439 -2.5371 17.3026
# 2 13.6812 110.4043 20.2020 -6.4595 -8.0548 25.0509
# 3 -6.1716 20.2020 83.3466 -17.7528 -12.6018 11.5427
# 4 -3.2439 -6.4595 -17.7528 14.1110 7.1103 -5.4590
# 5 -2.5371 -8.0548 -12.6018 7.1103 16.8940 0.3548
# 6 17.3026 25.0509 11.5427 -5.4590 0.3548 25.8797
#
#
#
# Elastic Compliance Matrix: (Units=1/GPa)
#
#
# Indices 1 2 3 4 5 6 
#
# 1 0.023397 0.001036 0.005652 0.001646 0.007929 -0.018928
# 2 0.001036 0.012398 -0.000819 -0.003985 0.007412 -0.013270
# 3 0.005652 -0.000819 0.018499 0.017767 0.006939 -0.007585
# 4 0.001646 -0.003985 0.017767 0.119427 -0.039096 0.020560
# 5 0.007929 0.007412 0.006939 -0.039096 0.086073 -0.024997
# 6 -0.018928 -0.013270 -0.007585 0.020560 -0.024997 0.072203
#
#
# Mechanical properties :
#
#
# Convention : Reuss Voigt Hill
#
# Bulk Modulus (GPa) = 15.14397 34.20945 24.67671
# Shear Modulus (GPa) = 14.60841 26.36029 20.48435
#
# Velocity S-wave (km/s) = 2.67859 3.59815 3.17187
# Velocity P-wave (km/s) = 4.12363 5.83644 5.05313
#
# Compressibility (1/GPa) = 0.06603289
#
# Stress axis : x y z
#
# Youngs Moduli (GPa) = 42.74020 80.66012 54.05697
#
# Poissons Ratio (x) = -0.08356 -0.30554
# Poissons Ratio (y) = -0.04428 0.04425
# Poissons Ratio (z) = -0.24157 0.06603
#
# Static dielectric constant tensor:
#      x y z
#    x 1.758880 0.007790 -0.023980 
#    y 0.007790 1.730200 -0.015320 
#    z -0.023980 -0.015320 1.735630 
# 
# From -- ./inp_files/51469.got.cif
#   From: 2010.05.17/outbox.cif.g08.bks.cpg/sg2_26_cif.got.tgz:51469.got - 2010.06.03 11:33:40.
