data_PCOD9099235
_publ_section_title
;
Structure prediction by ZEFSAII (Michael W. Deem and Ramdas Pophale) SiO2 
 PCOD9099235
Probable space group: P -1
;
_chemical_formula_sum "Si O2"
_cell_formula_units_Z 16
_cell_length_a 15.409460
_cell_length_b 9.396567
_cell_length_c 9.707685
_cell_angle_alpha 105.604496
_cell_angle_beta 134.132687
_cell_angle_gamma 104.396183
_cell_volume 754.110968
_symmetry_space_group_name_H-M "P -1"
_symmetry_group_IT_number 2
_symmetry_cell_setting 'triclinic'
loop_
_space_group_symop_operation_xyz
x,y,z
-x,-y,-z
loop_
_atom_site_type_symbol
_atom_site_label
_atom_site_fract_x
_atom_site_fract_y
_atom_site_fract_z
Si Si1 0.143554 0.181147 0.781468
Si Si2 0.670448 0.570039 0.210471
Si Si3 0.155475 0.210491 0.267537
Si Si4 0.232945 0.661935 0.753544
Si Si5 0.196157 0.521911 0.990175
Si Si6 0.465071 0.318982 0.493354
Si Si7 0.741135 0.019041 0.996788
Si Si8 0.999808 0.626168 0.811259
O O1 0.257497 0.329485 0.829142
O O2 0.218174 0.108387 0.930394
O O3 0.103431 0.297777 0.851031
O O4 0.000000 0.000000 0.500000
O O5 0.790537 0.726998 0.497155
O O6 0.648558 0.377725 0.161752
O O7 0.500000 0.500000 0.000000
O O8 0.308749 0.247947 0.385072
O O9 0.109425 0.346092 0.215791
O O10 0.000000 0.000000 0.000000
O O11 0.277810 0.865676 0.881864
O O12 0.107289 0.542634 0.463034
O O13 0.183440 0.568139 0.828325
O O14 0.375663 0.616207 0.243067
O O15 0.113710 0.593287 0.997692
O O16 0.500000 0.500000 0.500000
O O17 0.412629 0.136730 0.298719
O O18 0.882830 0.178957 0.096753
#
# Coordination Sequence:
#
# PCOD9099235 Si02
#       8
#     2   2   2   2   2   2   2   2
#     4  11  20  34  64  91 117 155 208 260 299 360
#     4  10  22  40  63  89 124 164 208 254 314 369
#     4  11  22  41  63  91 125 167 209 253 312 380
#     4   9  19  36  62  93 120 157 208 261 301 360
#     4  10  20  37  59  91 126 162 205 250 313 368
#     4  12  25  40  62  89 132 167 201 255 316 376
#     4  11  20  36  61  92 123 155 209 248 308 357
#     4  10  20  39  64  94 123 158 212 263 302 363
#
# _framework density 21.217036
#
# number of rings (size 3 to 8) (size 9 to 14) (size 15 to 20)
#    0.000    1.500    2.500    6.000    0.000    2.000 
#    2.250    1.250    2.750    0.000    0.000    0.000 
#    0.000    0.000    0.000    0.000    0.000    0.000 
#
# Total GULP energy -89076.290483 kJ/mol
# GULP energy per Si atom -5567.268155 kJ/mol
# Density = 2.116874 g / cm^3
# Si number density = 21.217036 Si / 1000 Ang^3
#
#
#
# Elastic Constant Matrix: (Units=GPa)
#
#
# Indices 1 2 3 4 5 6 
#
# 1 56.5818 32.0430 32.1790 -6.9234 4.0569 -36.4602
# 2 32.0430 99.3389 25.7092 -4.6034 -2.8452 -33.2959
# 3 32.1790 25.7092 108.7744 4.8550 -5.9555 -34.9703
# 4 -6.9234 -4.6034 4.8550 33.2200 -18.6903 7.9926
# 5 4.0569 -2.8452 -5.9555 -18.6903 38.4423 -2.9903
# 6 -36.4602 -33.2959 -34.9703 7.9926 -2.9903 37.7580
#
#
#
# Elastic Compliance Matrix: (Units=1/GPa)
#
#
# Indices 1 2 3 4 5 6 
#
# 1 0.047137 0.000063 0.001191 -0.003183 -0.002666 0.047138
# 2 0.000063 0.014571 0.001291 -0.000368 0.002210 0.014358
# 3 0.001191 0.001291 0.014127 -0.005059 0.000984 0.016522
# 4 -0.003183 -0.000368 -0.005059 0.045464 0.020377 -0.016093
# 5 -0.002666 0.002210 0.000984 0.020377 0.036429 -0.001143
# 6 0.047138 0.014358 0.016522 -0.016093 -0.001143 0.103281
#
#
# Mechanical properties :
#
#
# Convention : Reuss Voigt Hill
#
# Bulk Modulus (GPa) = 12.35715 49.39527 30.87621
# Shear Modulus (GPa) = 17.67444 33.53498 25.60471
#
# Velocity S-wave (km/s) = 2.88936 3.97995 3.47767
# Velocity P-wave (km/s) = 4.11922 6.66719 5.54164
#
# Compressibility (1/GPa) = 0.08092478
#
# Stress axis : x y z
#
# Youngs Moduli (GPa) = 21.21474 68.62974 70.78619
#
# Poissons Ratio (x) = -0.00430 -0.08432
# Poissons Ratio (y) = -0.00133 -0.09138
# Poissons Ratio (z) = -0.02527 -0.08860
#
# Static dielectric constant tensor:
#      x y z
#    x 1.897980 0.032760 -0.130480 
#    y 0.032760 2.166700 -0.530550 
#    z -0.130480 -0.530550 2.465030 
# 
# From -- ./inp_files/461487.got.cif
#   From: 2010.05.17/outbox.cif.g08.bks.cpg/sg2_231_cif.got.tgz:461487.got - 2010.06.03 11:33:40.
