data_PCOD9099715
_publ_section_title
;
Structure prediction by ZEFSAII (Michael W. Deem and Ramdas Pophale) SiO2 
 PCOD9099715
Probable space group: P -1
;
_chemical_formula_sum "Si O2"
_cell_formula_units_Z 14
_cell_length_a 17.361424
_cell_length_b 19.322593
_cell_length_c 10.301684
_cell_angle_alpha 150.102264
_cell_angle_beta 32.997653
_cell_angle_gamma 157.878940
_cell_volume 636.902014
_symmetry_space_group_name_H-M "P -1"
_symmetry_group_IT_number 2
_symmetry_cell_setting 'triclinic'
loop_
_space_group_symop_operation_xyz
x,y,z
-x,-y,-z
loop_
_atom_site_type_symbol
_atom_site_label
_atom_site_fract_x
_atom_site_fract_y
_atom_site_fract_z
Si Si1 0.667219 0.983770 0.996780
Si Si2 0.407324 0.072806 0.465716
Si Si3 0.459422 0.804901 0.248225
Si Si4 0.338488 0.498633 0.278737
Si Si5 0.974802 0.865586 0.704403
Si Si6 0.149532 0.098817 0.571849
Si Si7 0.116051 0.371635 0.121885
O O1 0.546262 0.812947 0.003070
O O2 0.530530 0.018680 0.209669
O O3 0.704339 0.919274 0.712294
O O4 0.883462 0.187274 0.093691
O O5 0.422356 0.152268 0.718192
O O6 0.527131 0.265714 0.517770
O O7 0.165722 0.894253 0.486942
O O8 0.226980 0.584466 0.246708
O O9 0.500000 0.000000 0.500000
O O10 0.158446 0.401363 0.265691
O O11 0.232507 0.365489 0.341503
O O12 0.500000 0.500000 0.000000
O O13 0.013473 0.966446 0.676182
O O14 0.000000 0.000000 0.000000
O O15 0.235992 0.316127 0.820821
O O16 0.000000 0.000000 0.500000
#
# Coordination Sequence:
#
# PCOD9099715 Si02
#       7
#     2   2   2   2   2   2   2
#     4  10  22  40  58  89 135 165 206 251 313 376
#     4  10  22  37  61  94 119 163 207 259 305 370
#     4   9  20  35  60  93 124 161 208 251 308 364
#     4  11  21  36  63  91 118 157 215 259 304 365
#     4  12  22  40  65  89 124 159 211 260 309 363
#     4  10  23  40  62  91 126 170 204 256 310 369
#     4  10  20  37  61  89 126 166 208 257 309 356
#
# _framework density 21.981403
#
# number of rings (size 3 to 8) (size 9 to 14) (size 15 to 20)
#    0.000    1.714    2.857    0.857    2.000    8.571 
#    0.000    5.000    0.000    0.000    0.000    0.000 
#    0.000    0.000    0.000    0.000    0.000    0.000 
#
# Total GULP energy -78115.553151 kJ/mol
# GULP energy per Si atom -5579.682368 kJ/mol
# Density = 2.193137 g / cm^3
# Si number density = 21.981403 Si / 1000 Ang^3
#
#
#
# Elastic Constant Matrix: (Units=GPa)
#
#
# Indices 1 2 3 4 5 6 
#
# 1 104.7020 32.7845 37.2128 -8.7176 9.6330 -16.7130
# 2 32.7845 78.8375 21.6017 -8.4034 -10.9079 -22.7096
# 3 37.2128 21.6017 102.9597 -15.8697 -7.7033 -13.8959
# 4 -8.7176 -8.4034 -15.8697 23.8290 2.2240 -4.7000
# 5 9.6330 -10.9079 -7.7033 2.2240 39.8664 -9.2264
# 6 -16.7130 -22.7096 -13.8959 -4.7000 -9.2264 49.7468
#
#
#
# Elastic Compliance Matrix: (Units=1/GPa)
#
#
# Indices 1 2 3 4 5 6 
#
# 1 0.013086 -0.004957 -0.003919 0.000952 -0.005295 0.000147
# 2 -0.004957 0.019120 0.000672 0.006452 0.008378 0.009414
# 3 -0.003919 0.000672 0.013090 0.007954 0.004182 0.004174
# 4 0.000952 0.006452 0.007954 0.051780 0.002701 0.010880
# 5 -0.005295 0.008378 0.004182 0.002701 0.031466 0.009305
# 6 0.000147 0.009414 0.004174 0.010880 0.009305 0.028368
#
#
# Mechanical properties :
#
#
# Convention : Reuss Voigt Hill
#
# Bulk Modulus (GPa) = 34.61625 52.18856 43.40241
# Shear Modulus (GPa) = 27.33013 35.68180 31.50597
#
# Velocity S-wave (km/s) = 3.52991 4.03336 3.79000
# Velocity P-wave (km/s) = 5.69174 6.74421 6.24020
#
# Compressibility (1/GPa) = 0.02888817
#
# Stress axis : x y z
#
# Youngs Moduli (GPa) = 76.41924 52.30114 76.39245
#
# Poissons Ratio (x) = 0.25923 0.29940
# Poissons Ratio (y) = 0.37877 -0.05132
# Poissons Ratio (z) = 0.29950 -0.03513
#
# Static dielectric constant tensor:
#      x y z
#    x 1.957980 0.081820 -0.052950 
#    y 0.081820 1.882990 -0.051670 
#    z -0.052950 -0.051670 1.899770 
# 
# From -- ./inp_files/467157.got.cif
#   From: 2010.05.17/outbox.cif.g08.bks.cpg/sg2_234_cif.got.tgz:467157.got - 2010.06.03 11:33:40.
