data_PCOD9099640
_publ_section_title
;
Structure prediction by ZEFSAII (Michael W. Deem and Ramdas Pophale) SiO2 
 PCOD9099640
Probable space group: P -1
;
_chemical_formula_sum "Si O2"
_cell_formula_units_Z 16
_cell_length_a 8.867645
_cell_length_b 15.495542
_cell_length_c 7.844602
_cell_angle_alpha 124.177132
_cell_angle_beta 128.918517
_cell_angle_gamma 66.420574
_cell_volume 691.969335
_symmetry_space_group_name_H-M "P -1"
_symmetry_group_IT_number 2
_symmetry_cell_setting 'triclinic'
loop_
_space_group_symop_operation_xyz
x,y,z
-x,-y,-z
loop_
_atom_site_type_symbol
_atom_site_label
_atom_site_fract_x
_atom_site_fract_y
_atom_site_fract_z
Si Si1 0.042356 0.627592 0.577824
Si Si2 0.822732 0.872259 0.273301
Si Si3 0.660776 0.545868 0.288549
Si Si4 0.455878 0.752866 0.506416
Si Si5 0.753171 0.073937 0.257119
Si Si6 0.032485 0.751627 0.037687
Si Si7 0.560265 0.875996 0.402430
Si Si8 0.828057 0.159591 0.074540
O O1 0.223024 0.542348 0.611183
O O2 0.100132 0.737892 0.667158
O O3 0.832865 0.590069 0.342035
O O4 0.016310 0.656292 0.792639
O O5 0.740696 0.858577 0.386679
O O6 0.045569 0.899675 0.481611
O O7 0.852752 0.773834 0.059929
O O8 0.703904 0.969185 0.202689
O O9 0.566244 0.639448 0.442775
O O10 0.500000 0.500000 0.000000
O O11 0.401377 0.827066 0.711696
O O12 0.240734 0.737124 0.259659
O O13 0.571018 0.826365 0.541234
O O14 0.807720 0.067305 0.089885
O O15 0.047080 0.848496 0.019919
O O16 0.500000 0.000000 0.500000
O O17 0.388258 0.818170 0.125872
#
# Coordination Sequence:
#
# PCOD9099640 Si02
#       8
#     2   2   2   2   2   2   2   2
#     4   9  21  38  61  95 120 154 207 256 309 367
#     4  10  21  35  60  84 122 168 201 249 299 357
#     4  11  19  37  68  91 118 159 204 256 315 364
#     4  10  20  37  61  87 120 165 203 247 309 365
#     4  10  21  38  56  87 124 161 207 247 301 362
#     4   8  18  39  55  84 123 157 199 250 303 357
#     4  11  21  38  57  86 125 164 209 248 295 363
#     4   9  21  40  56  84 127 153 202 259 293 368
#
# _framework density 23.122413999999999
#
# number of rings (size 3 to 8) (size 9 to 14) (size 15 to 20)
#    0.750    1.500    2.500    0.000    3.500    2.000 
#    2.250    0.625    0.000    4.500    0.000    0.000 
#    0.000    0.000    0.000    0.000    0.000    0.000 
#
# Total GULP energy -89188.420730 kJ/mol
# GULP energy per Si atom -5574.276296 kJ/mol
# Density = 2.306979 g / cm^3
# Si number density = 23.122414 Si / 1000 Ang^3
#
#
#
# Elastic Constant Matrix: (Units=GPa)
#
#
# Indices 1 2 3 4 5 6 
#
# 1 97.9079 46.5795 27.7358 13.8508 -0.3008 -19.2120
# 2 46.5795 85.0579 11.0182 11.0416 -3.9756 -31.5415
# 3 27.7358 11.0182 59.5349 5.3145 20.0802 -13.2272
# 4 13.8508 11.0416 5.3145 23.6134 -3.7791 -5.8739
# 5 -0.3008 -3.9756 20.0802 -3.7791 44.2168 4.8501
# 6 -19.2120 -31.5415 -13.2272 -5.8739 4.8501 38.8053
#
#
#
# Elastic Compliance Matrix: (Units=1/GPa)
#
#
# Indices 1 2 3 4 5 6 
#
# 1 0.016230 -0.007971 -0.006875 -0.004301 0.002338 -0.001731
# 2 -0.007971 0.021261 0.003803 -0.002806 -0.001691 0.014418
# 3 -0.006875 0.003803 0.026093 -0.003270 -0.012898 0.009698
# 4 -0.004301 -0.002806 -0.003270 0.048023 0.005187 0.001096
# 5 0.002338 -0.001691 -0.012898 0.005187 0.029606 -0.007528
# 6 -0.001731 0.014418 0.009698 0.001096 -0.007528 0.041044
#
#
# Mechanical properties :
#
#
# Convention : Reuss Voigt Hill
#
# Bulk Modulus (GPa) = 24.09833 45.90753 35.00293
# Shear Modulus (GPa) = 22.91738 31.80490 27.36114
#
# Velocity S-wave (km/s) = 3.15164 3.71280 3.44367
# Velocity P-wave (km/s) = 4.86708 6.18685 5.56622
#
# Compressibility (1/GPa) = 0.04149665
#
# Stress axis : x y z
#
# Youngs Moduli (GPa) = 61.61579 47.03458 38.32492
#
# Poissons Ratio (x) = 0.37493 0.26348
# Poissons Ratio (y) = 0.49116 -0.14574
# Poissons Ratio (z) = 0.42360 -0.17886
#
# Static dielectric constant tensor:
#      x y z
#    x 1.896830 0.009990 0.015370 
#    y 0.009990 1.903470 -0.000310 
#    z 0.015370 -0.000310 1.961790 
# 
# From -- ./inp_files/213642.got.cif
#   From: 2010.05.17/outbox.cif.g08.bks.cpg/sg2_107_cif.got.tgz:213642.got - 2010.06.03 11:33:40.
