data_PCOD9099671
_publ_section_title
;
Structure prediction by ZEFSAII (Michael W. Deem and Ramdas Pophale) SiO2 
 PCOD9099671
Probable space group: P -1
;
_chemical_formula_sum "Si O2"
_cell_formula_units_Z 16
_cell_length_a 14.811161
_cell_length_b 15.872410
_cell_length_c 9.918434
_cell_angle_alpha 34.302638
_cell_angle_beta 45.301734
_cell_angle_gamma 39.662861
_cell_volume 823.851638
_symmetry_space_group_name_H-M "P -1"
_symmetry_group_IT_number 2
_symmetry_cell_setting 'triclinic'
loop_
_space_group_symop_operation_xyz
x,y,z
-x,-y,-z
loop_
_atom_site_type_symbol
_atom_site_label
_atom_site_fract_x
_atom_site_fract_y
_atom_site_fract_z
Si Si1 0.603194 0.880504 0.861364
Si Si2 0.690981 0.817940 0.148741
Si Si3 0.540889 0.354346 0.756545
Si Si4 0.561216 0.593681 0.913067
Si Si5 0.199844 0.981895 0.053643
Si Si6 0.146033 0.495686 0.409174
Si Si7 0.916240 0.136340 0.020773
Si Si8 0.318697 0.958550 0.663580
O O1 0.477928 0.070795 0.780094
O O2 0.682247 0.900834 0.620043
O O3 0.694999 0.805461 0.999711
O O4 0.529765 0.764988 0.051933
O O5 0.775626 0.642929 0.372876
O O6 0.756948 0.935099 0.980272
O O7 0.500000 0.500000 0.500000
O O8 0.711125 0.221584 0.763342
O O9 0.478431 0.438773 0.853598
O O10 0.727945 0.539635 0.785229
O O11 0.476169 0.798765 0.721674
O O12 0.500000 0.500000 0.000000
O O13 0.256185 0.019127 0.800313
O O14 0.027975 0.070630 0.112542
O O15 0.105475 0.685112 0.245038
O O16 0.000000 0.500000 0.500000
O O17 0.770935 0.125015 0.203290
O O18 0.000000 0.000000 0.000000
#
# Coordination Sequence:
#
# PCOD9099671 Si02
#       8
#     2   2   2   2   2   2   2   2
#     4  10  22  37  59  88 124 158 200 257 316 366
#     4  10  21  36  60  88 119 157 202 252 312 367
#     4  10  24  40  61  90 125 163 208 263 322 373
#     4  11  23  37  64  95 121 162 219 262 306 371
#     4   9  20  38  61  87 119 162 208 251 312 371
#     4  12  23  38  65  96 129 164 212 270 311 373
#     4  10  21  37  59  91 123 163 205 257 319 367
#     4  10  20  37  61  88 122 159 208 257 307 376
#
# _framework density 19.420973
#
# number of rings (size 3 to 8) (size 9 to 14) (size 15 to 20)
#    0.000    1.750    3.750    0.000    3.500    2.500 
#    0.000    1.875    0.000    4.500    0.000    0.000 
#    0.000    0.000    0.000    0.000    0.000    0.000 
#
# Total GULP energy -89222.234800 kJ/mol
# GULP energy per Si atom -5576.389675 kJ/mol
# Density = 1.937677 g / cm^3
# Si number density = 19.420973 Si / 1000 Ang^3
#
#
#
# Elastic Constant Matrix: (Units=GPa)
#
#
# Indices 1 2 3 4 5 6 
#
# 1 97.8203 24.3927 29.9558 -1.4077 11.3840 0.5333
# 2 24.3927 72.6694 26.0845 -12.8522 5.7151 -4.1064
# 3 29.9558 26.0845 112.1050 -18.6503 20.7312 -1.3753
# 4 -1.4077 -12.8522 -18.6503 22.6003 1.1406 7.0501
# 5 11.3840 5.7151 20.7312 1.1406 37.6925 -0.3247
# 6 0.5333 -4.1064 -1.3753 7.0501 -0.3247 32.4870
#
#
#
# Elastic Compliance Matrix: (Units=1/GPa)
#
#
# Indices 1 2 3 4 5 6 
#
# 1 0.012062 -0.003572 -0.002675 -0.003398 -0.001527 -0.000041
# 2 -0.003572 0.017029 -0.001468 0.008184 -0.000940 0.000364
# 3 -0.002675 -0.001468 0.012895 0.010572 -0.006398 -0.001954
# 4 -0.003398 0.008184 0.010572 0.061528 -0.007994 -0.011894
# 5 -0.001527 -0.000940 -0.006398 -0.007994 0.030910 0.001679
# 6 -0.000041 0.000364 -0.001954 -0.011894 0.001679 0.033343
#
#
# Mechanical properties :
#
#
# Convention : Reuss Voigt Hill
#
# Bulk Modulus (GPa) = 37.65699 49.27342 43.46521
# Shear Modulus (GPa) = 26.03520 32.03340 29.03430
#
# Velocity S-wave (km/s) = 3.66535 4.06572 3.87071
# Velocity P-wave (km/s) = 6.11106 6.88958 6.51197
#
# Compressibility (1/GPa) = 0.02655549
#
# Stress axis : x y z
#
# Youngs Moduli (GPa) = 82.90635 58.72465 77.55123
#
# Poissons Ratio (x) = 0.20974 0.20747
# Poissons Ratio (y) = 0.29610 0.11384
# Poissons Ratio (z) = 0.22180 0.08621
#
# Static dielectric constant tensor:
#      x y z
#    x 1.821190 -0.075180 -0.000250 
#    y -0.075180 1.744380 -0.006420 
#    z -0.000250 -0.006420 1.682430 
# 
# From -- ./inp_files/312308.got.cif
#   From: 2010.05.17/outbox.cif.g08.bks.cpg/sg2_157_cif.got.tgz:312308.got - 2010.06.03 11:33:40.
