data_PCOD9099996
_publ_section_title
;
Structure prediction by ZEFSAII (Michael W. Deem and Ramdas Pophale) SiO2 
 PCOD9099996
Probable space group: P -1
;
_chemical_formula_sum "Si O2"
_cell_formula_units_Z 14
_cell_length_a 14.305323
_cell_length_b 8.411887
_cell_length_c 8.478035
_cell_angle_alpha 54.641659
_cell_angle_beta 126.352116
_cell_angle_gamma 90.784867
_cell_volume 579.796003
_symmetry_space_group_name_H-M "P -1"
_symmetry_group_IT_number 2
_symmetry_cell_setting 'triclinic'
loop_
_space_group_symop_operation_xyz
x,y,z
-x,-y,-z
loop_
_atom_site_type_symbol
_atom_site_label
_atom_site_fract_x
_atom_site_fract_y
_atom_site_fract_z
Si Si1 0.182962 0.278913 0.162819
Si Si2 0.274312 0.578928 0.886632
Si Si3 0.738990 0.092230 0.779635
Si Si4 0.994965 0.742093 0.399806
Si Si5 0.120031 0.368277 0.396642
Si Si6 0.577273 0.269753 0.812144
Si Si7 0.352330 0.418498 0.730639
O O1 0.196253 0.276125 0.363264
O O2 0.267539 0.042043 0.299242
O O3 0.234101 0.431534 0.042011
O O4 0.020439 0.398636 0.907394
O O5 0.377550 0.433559 0.933289
O O6 0.136652 0.727858 0.566663
O O7 0.325725 0.701450 0.983871
O O8 0.654627 0.096038 0.847488
O O9 0.694318 0.340392 0.536043
O O10 0.893169 0.943218 0.073560
O O11 0.929824 0.786539 0.482867
O O12 0.000000 0.500000 0.500000
O O13 0.225434 0.384979 0.604570
O O14 0.500000 0.500000 0.500000
O O15 0.473954 0.249995 0.836710
#
# Coordination Sequence:
#
# PCOD9099996 Si02
#       7
#     2   2   2   2   2   2   2
#     4  10  20  37  62  90 118 165 202 254 305 365
#     4  11  21  41  67  87 127 165 203 253 319 359
#     4  11  22  39  62  93 129 158 211 252 304 369
#     4  11  20  41  65  94 123 156 200 264 311 362
#     4  10  20  38  63  88 125 159 200 251 317 357
#     4  10  24  42  59  89 128 168 206 254 300 364
#     4  11  22  40  62  90 128 166 203 253 304 366
#
# _framework density 24.146424
#
# number of rings (size 3 to 8) (size 9 to 14) (size 15 to 20)
#    0.000    1.429    4.286    2.143    0.000    4.000 
#    0.000    9.286    0.000    0.000    0.000    0.000 
#    0.000    0.000    0.000    0.000    0.000    0.000 
#
# Total GULP energy -78200.754436 kJ/mol
# GULP energy per Si atom -5585.768174 kJ/mol
# Density = 2.409147 g / cm^3
# Si number density = 24.146424 Si / 1000 Ang^3
#
#
#
# Elastic Constant Matrix: (Units=GPa)
#
#
# Indices 1 2 3 4 5 6 
#
# 1 142.9030 50.0020 6.4909 5.6124 10.5144 -41.2044
# 2 50.0020 104.4411 33.8239 4.4449 4.8644 -38.9710
# 3 6.4909 33.8239 47.0780 0.6339 -0.1466 -3.2870
# 4 5.6124 4.4449 0.6339 24.8659 -0.3397 -13.4205
# 5 10.5144 4.8644 -0.1466 -0.3397 37.5146 12.1547
# 6 -41.2044 -38.9710 -3.2870 -13.4205 12.1547 46.5886
#
#
#
# Elastic Compliance Matrix: (Units=1/GPa)
#
#
# Indices 1 2 3 4 5 6 
#
# 1 0.011134 -0.000273 -0.000533 0.004299 -0.007159 0.012687
# 2 -0.000273 0.023800 -0.015543 0.008991 -0.010754 0.023966
# 3 -0.000533 -0.015543 0.031553 -0.005763 0.007010 -0.014736
# 4 0.004299 0.008991 -0.005763 0.053433 -0.011397 0.029282
# 5 -0.007159 -0.010754 0.007010 -0.011397 0.039161 -0.028332
# 6 0.012687 0.023966 -0.014736 0.029282 -0.028332 0.067520
#
#
# Mechanical properties :
#
#
# Convention : Reuss Voigt Hill
#
# Bulk Modulus (GPa) = 29.59693 52.78397 41.19045
# Shear Modulus (GPa) = 18.48008 35.40085 26.94046
#
# Velocity S-wave (km/s) = 2.76947 3.83311 3.34385
# Velocity P-wave (km/s) = 4.74452 6.44187 5.65722
#
# Compressibility (1/GPa) = 0.03378729
#
# Stress axis : x y z
#
# Youngs Moduli (GPa) = 89.81894 42.01640 31.69314
#
# Poissons Ratio (x) = 0.01148 0.01689
# Poissons Ratio (y) = 0.02455 0.49261
# Poissons Ratio (z) = 0.04788 0.65307
#
# Static dielectric constant tensor:
#      x y z
#    x 1.970210 -0.066000 0.012530 
#    y -0.066000 1.986910 -0.030550 
#    z 0.012530 -0.030550 1.970830 
# 
# From -- ./inp_files/175554.got.cif
#   From: 2010.05.17/outbox.cif.g08.bks.cpg/sg2_88_cif.got.tgz:175554.got - 2010.06.03 11:33:40.
