data_PCOD9099419
_publ_section_title
;
Structure prediction by ZEFSAII (Michael W. Deem and Ramdas Pophale) SiO2 
 PCOD9099419
Probable space group: P -1
;
_chemical_formula_sum "Si O2"
_cell_formula_units_Z 14
_cell_length_a 9.517077
_cell_length_b 28.063812
_cell_length_c 14.811379
_cell_angle_alpha 163.179046
_cell_angle_beta 129.360349
_cell_angle_gamma 39.744126
_cell_volume 611.135508
_symmetry_space_group_name_H-M "P -1"
_symmetry_group_IT_number 2
_symmetry_cell_setting 'triclinic'
loop_
_space_group_symop_operation_xyz
x,y,z
-x,-y,-z
loop_
_atom_site_type_symbol
_atom_site_label
_atom_site_fract_x
_atom_site_fract_y
_atom_site_fract_z
Si Si1 0.236540 0.755868 0.397788
Si Si2 0.191513 0.968196 0.589227
Si Si3 0.491924 0.959798 0.192461
Si Si4 0.616991 0.462381 0.764429
Si Si5 0.581819 0.368365 0.388735
Si Si6 0.030846 0.275114 0.459353
Si Si7 0.774257 0.786501 0.276012
O O1 0.153142 0.954063 0.653662
O O2 0.332273 0.717391 0.470314
O O3 0.989532 0.790455 0.360903
O O4 0.500000 0.500000 0.000000
O O5 0.230192 0.132785 0.877621
O O6 0.467770 0.700000 0.189079
O O7 0.000000 0.000000 0.500000
O O8 0.333860 0.157528 0.565197
O O9 0.335911 0.072292 0.237890
O O10 0.487892 0.775982 0.892658
O O11 0.476438 0.514607 0.706079
O O12 0.898151 0.336347 0.614892
O O13 0.500000 0.500000 0.500000
O O14 0.891218 0.215130 0.242806
O O15 0.915723 0.523348 0.827533
O O16 0.500000 0.000000 0.500000
#
# Coordination Sequence:
#
# PCOD9099419 Si02
#       7
#     2   2   2   2   2   2   2
#     4  10  21  37  59  86 124 166 200 249 312 373
#     4  11  23  39  61  93 124 161 206 256 309 369
#     4  12  21  38  63  90 120 165 207 253 310 373
#     4   9  20  41  58  85 127 157 199 255 309 364
#     4  10  22  38  60  94 125 154 204 266 316 359
#     4  10  20  37  60  88 125 149 202 257 309 357
#     4  12  21  34  63  94 119 158 209 266 310 359
#
# _framework density 22.908175
#
# number of rings (size 3 to 8) (size 9 to 14) (size 15 to 20)
#    0.857    0.571    2.857    4.286    0.000    0.000 
#    0.000    1.429    0.000    3.429    0.000    0.000 
#    0.000    0.000    0.000    0.000    0.000    0.000 
#
# Total GULP energy -77974.024625 kJ/mol
# GULP energy per Si atom -5569.573188 kJ/mol
# Density = 2.285603 g / cm^3
# Si number density = 22.908175 Si / 1000 Ang^3
#
#
#
# Elastic Constant Matrix: (Units=GPa)
#
#
# Indices 1 2 3 4 5 6 
#
# 1 126.6927 61.4548 29.0648 -0.8299 38.0535 0.1846
# 2 61.4548 138.7943 6.4170 15.6176 28.0752 13.5978
# 3 29.0648 6.4170 47.1583 0.7781 29.7966 13.5709
# 4 -0.8299 15.6176 0.7781 24.4416 -2.4272 2.9734
# 5 38.0535 28.0752 29.7966 -2.4272 43.8419 -3.6001
# 6 0.1846 13.5978 13.5709 2.9734 -3.6001 44.7160
#
#
#
# Elastic Compliance Matrix: (Units=1/GPa)
#
#
# Indices 1 2 3 4 5 6 
#
# 1 0.012923 -0.005525 -0.006276 0.003502 -0.002968 0.003060
# 2 -0.005525 0.013926 0.013317 -0.009878 -0.014439 -0.008759
# 3 -0.006276 0.013317 0.060339 -0.012218 -0.046843 -0.025295
# 4 0.003502 -0.009878 -0.012218 0.048625 0.014663 0.004645
# 5 -0.002968 -0.014439 -0.046843 0.014663 0.069187 0.023215
# 6 0.003060 -0.008759 -0.025295 0.004645 0.023215 0.034252
#
#
# Mechanical properties :
#
#
# Convention : Reuss Voigt Hill
#
# Bulk Modulus (GPa) = 11.08382 56.27981 33.68182
# Shear Modulus (GPa) = 18.77635 36.98048 27.87841
#
# Velocity S-wave (km/s) = 2.86603 4.02218 3.49229
# Velocity P-wave (km/s) = 3.97506 6.79643 5.56743
#
# Compressibility (1/GPa) = 0.09022157
#
# Stress axis : x y z
#
# Youngs Moduli (GPa) = 77.38146 71.80752 16.57292
#
# Poissons Ratio (x) = 0.39675 0.10401
# Poissons Ratio (y) = 0.42755 -0.22071
# Poissons Ratio (z) = 0.48562 -0.95629
#
# Static dielectric constant tensor:
#      x y z
#    x 1.895350 0.019020 0.018190 
#    y 0.019020 1.983270 0.011350 
#    z 0.018190 0.011350 1.939800 
# 
# From -- ./inp_files/509025.got.cif
#   From: 2010.05.17/outbox.cif.g08.bks.cpg/sg2_255_cif.got.tgz:509025.got - 2010.06.03 11:33:40.
