data_PCOD9099704
_publ_section_title
;
Structure prediction by ZEFSAII (Michael W. Deem and Ramdas Pophale) SiO2 
 PCOD9099704
Probable space group: P -1
;
_chemical_formula_sum "Si O2"
_cell_formula_units_Z 16
_cell_length_a 17.688247
_cell_length_b 9.340883
_cell_length_c 9.675608
_cell_angle_alpha 95.933635
_cell_angle_beta 29.464657
_cell_angle_gamma 95.018173
_cell_volume 782.126627
_symmetry_space_group_name_H-M "P -1"
_symmetry_group_IT_number 2
_symmetry_cell_setting 'triclinic'
loop_
_space_group_symop_operation_xyz
x,y,z
-x,-y,-z
loop_
_atom_site_type_symbol
_atom_site_label
_atom_site_fract_x
_atom_site_fract_y
_atom_site_fract_z
Si Si1 0.409288 0.830032 0.849953
Si Si2 0.781629 0.299261 0.089961
Si Si3 0.617142 0.559642 0.431708
Si Si4 0.361138 0.937564 0.529999
Si Si5 0.933665 0.890965 0.981087
Si Si6 0.740134 0.175367 0.615306
Si Si7 0.341120 0.514698 0.330794
Si Si8 0.934159 0.650967 0.179176
O O1 0.262493 0.768874 0.993751
O O2 0.551194 0.719185 0.582273
O O3 0.476543 0.982937 0.709280
O O4 0.362774 0.836219 0.085447
O O5 0.767533 0.474260 0.124969
O O6 0.658572 0.212187 0.373096
O O7 0.942059 0.274552 0.910980
O O8 0.500000 0.500000 0.500000
O O9 0.616640 0.489956 0.576541
O O10 0.325266 0.913775 0.421042
O O11 0.222045 0.038250 0.819456
O O12 0.081072 0.864590 0.646860
O O13 0.898530 0.748584 0.112423
O O14 0.000000 0.000000 0.000000
O O15 0.737013 0.338659 0.580514
O O16 0.219781 0.386156 0.496463
O O17 0.500000 0.500000 0.000000
O O18 0.000000 0.500000 0.000000
#
# Coordination Sequence:
#
# PCOD9099704 Si02
#       8
#     2   2   2   2   2   2   2   2
#     4  11  24  37  63  91 127 156 192 258 308 342
#     4  11  22  41  61  91 122 157 207 243 297 363
#     4  10  20  37  61  89 122 155 194 246 296 355
#     4  11  21  40  65  87 117 166 205 242 289 368
#     4  10  20  37  62  90 115 153 211 242 286 357
#     4  11  21  39  60  94 122 152 205 254 293 354
#     4  12  22  37  63  93 120 149 202 253 303 348
#     4  12  20  38  67  86 112 164 203 248 288 357
#
# _framework density 20.457045999999998
#
# number of rings (size 3 to 8) (size 9 to 14) (size 15 to 20)
#    0.000    1.000    7.500    1.500    0.000    0.000 
#    0.000    1.250    8.250    0.000    0.000    0.000 
#    0.000    0.000    0.000    0.000    0.000    0.000 
#
# Total GULP energy -89076.375406 kJ/mol
# GULP energy per Si atom -5567.273463 kJ/mol
# Density = 2.041048 g / cm^3
# Si number density = 20.457046 Si / 1000 Ang^3
#
#
#
# Elastic Constant Matrix: (Units=GPa)
#
#
# Indices 1 2 3 4 5 6 
#
# 1 73.1803 -1.3824 9.4395 1.4197 -0.7187 9.2054
# 2 -1.3824 80.0438 18.6200 -8.1534 -4.9557 5.3522
# 3 9.4395 18.6200 60.8734 -11.1398 -5.5531 23.4150
# 4 1.4197 -8.1534 -11.1398 28.3187 0.1763 -2.6252
# 5 -0.7187 -4.9557 -5.5531 0.1763 25.8934 0.8911
# 6 9.2054 5.3522 23.4150 -2.6252 0.8911 23.2167
#
#
#
# Elastic Compliance Matrix: (Units=1/GPa)
#
#
# Indices 1 2 3 4 5 6 
#
# 1 0.014469 0.000643 -0.000464 -0.001244 0.000626 -0.005582
# 2 0.000643 0.013737 -0.004029 0.002406 0.001738 0.000846
# 3 -0.000464 -0.004029 0.031383 0.008398 0.006917 -0.029854
# 4 -0.001244 0.002406 0.008398 0.038968 0.002106 -0.004206
# 5 0.000626 0.001738 0.006917 0.002106 0.040747 -0.008950
# 6 -0.005582 0.000846 -0.029854 -0.004206 -0.008950 0.075068
#
#
# Mechanical properties :
#
#
# Convention : Reuss Voigt Hill
#
# Bulk Modulus (GPa) = 19.27103 29.71688 24.49395
# Shear Modulus (GPa) = 20.88830 27.98045 24.43437
#
# Velocity S-wave (km/s) = 3.19890 3.70234 3.45979
# Velocity P-wave (km/s) = 4.80465 5.73014 5.28768
#
# Compressibility (1/GPa) = 0.05189136
#
# Stress axis : x y z
#
# Youngs Moduli (GPa) = 69.11171 72.79374 31.86435
#
# Poissons Ratio (x) = -0.04681 0.01478
# Poissons Ratio (y) = -0.04444 0.12837
# Poissons Ratio (z) = 0.03205 0.29325
#
# Static dielectric constant tensor:
#      x y z
#    x 1.759810 0.005530 -0.076740 
#    y 0.005530 1.784580 -0.065880 
#    z -0.076740 -0.065880 1.697060 
# 
# From -- ./inp_files/279484.got.cif
#   From: 2010.05.17/outbox.cif.g08.bks.cpg/sg2_140_cif.got.tgz:279484.got - 2010.06.03 11:33:40.
