data_PCOD9099207
_publ_section_title
;
Structure prediction by ZEFSAII (Michael W. Deem and Ramdas Pophale) SiO2 
 PCOD9099207
Probable space group: P -1
;
_chemical_formula_sum "Si O2"
_cell_formula_units_Z 16
_cell_length_a 11.635621
_cell_length_b 6.260381
_cell_length_c 22.083489
_cell_angle_alpha 54.519677
_cell_angle_beta 145.621327
_cell_angle_gamma 133.411854
_cell_volume 659.499064
_symmetry_space_group_name_H-M "P -1"
_symmetry_group_IT_number 2
_symmetry_cell_setting 'triclinic'
loop_
_space_group_symop_operation_xyz
x,y,z
-x,-y,-z
loop_
_atom_site_type_symbol
_atom_site_label
_atom_site_fract_x
_atom_site_fract_y
_atom_site_fract_z
Si Si1 0.075895 0.668469 0.809019
Si Si2 0.359462 0.774250 0.140579
Si Si3 0.329058 0.369666 0.292410
Si Si4 0.607434 0.695076 0.147333
Si Si5 0.158143 0.178218 0.982631
Si Si6 0.195036 0.720212 0.711037
Si Si7 0.746350 0.717254 0.502731
Si Si8 0.469230 0.900612 0.432637
O O1 0.148924 0.700092 0.766100
O O2 0.848002 0.696247 0.719574
O O3 0.271125 0.965337 0.876163
O O4 0.045035 0.351651 0.869392
O O5 0.239364 0.505789 0.178026
O O6 0.486444 0.681986 0.160438
O O7 0.219130 0.927835 0.023754
O O8 0.549392 0.021245 0.225443
O O9 0.574313 0.587871 0.392535
O O10 0.349273 0.086939 0.323315
O O11 0.405679 0.456209 0.058449
O O12 0.796928 0.577111 0.256733
O O13 0.000000 0.000000 0.000000
O O14 0.005752 0.795689 0.586656
O O15 0.681159 0.939084 0.476118
O O16 0.682662 0.444267 0.566865
O O17 0.500000 0.000000 0.500000
#
# Coordination Sequence:
#
# PCOD9099207 Si02
#       8
#     2   2   2   2   2   2   2   2
#     4  11  22  40  67  94 123 166 214 256 308 376
#     4  10  24  43  60  92 130 164 207 262 312 379
#     4  11  22  38  62  93 126 162 215 260 307 366
#     4  10  24  43  64  91 128 168 208 254 316 376
#     4  11  23  44  66  94 129 160 204 264 320 372
#     4  10  22  41  63  90 129 167 208 256 311 372
#     4  10  20  37  59  89 124 167 208 259 309 360
#     4   9  18  32  54  85 119 153 205 259 300 357
#
# _framework density 24.260838
#
# number of rings (size 3 to 8) (size 9 to 14) (size 15 to 20)
#    0.000    1.750    1.250    3.375    0.000   11.500 
#    4.500    1.250    0.000    0.000    0.000    0.000 
#    0.000    0.000    0.000    0.000    0.000    0.000 
#
# Total GULP energy -89311.723702 kJ/mol
# GULP energy per Si atom -5581.982731 kJ/mol
# Density = 2.420562 g / cm^3
# Si number density = 24.260838 Si / 1000 Ang^3
#
#
#
# Elastic Constant Matrix: (Units=GPa)
#
#
# Indices 1 2 3 4 5 6 
#
# 1 46.7047 25.0816 20.6451 -25.8029 21.3787 -15.5398
# 2 25.0816 80.7403 54.4768 -27.1232 -0.2026 -6.8120
# 3 20.6451 54.4768 105.3480 -19.8424 22.6018 -15.3526
# 4 -25.8029 -27.1232 -19.8424 52.5126 -5.6165 7.9157
# 5 21.3787 -0.2026 22.6018 -5.6165 34.4012 -12.4942
# 6 -15.5398 -6.8120 -15.3526 7.9157 -12.4942 34.7532
#
#
#
# Elastic Compliance Matrix: (Units=1/GPa)
#
#
# Indices 1 2 3 4 5 6 
#
# 1 0.054257 -0.017642 0.010337 0.016366 -0.034599 0.009203
# 2 -0.017642 0.029813 -0.016306 0.003211 0.021568 -0.002226
# 3 0.010337 -0.016306 0.020765 0.001994 -0.018578 0.003466
# 4 0.016366 0.003211 0.001994 0.028794 -0.006828 -0.000185
# 5 -0.034599 0.021568 -0.018578 -0.006828 0.063593 0.004967
# 6 0.009203 -0.002226 0.003466 -0.000185 0.004967 0.035812
#
#
# Mechanical properties :
#
#
# Convention : Reuss Voigt Hill
#
# Bulk Modulus (GPa) = 17.35725 48.13333 32.74529
# Shear Modulus (GPa) = 16.69669 33.17269 24.93469
#
# Velocity S-wave (km/s) = 2.62623 3.70176 3.20937
# Velocity P-wave (km/s) = 4.04550 6.17687 5.22110
#
# Compressibility (1/GPa) = 0.05761281
#
# Stress axis : x y z
#
# Youngs Moduli (GPa) = 18.43078 33.54272 48.15725
#
# Poissons Ratio (x) = 0.59174 -0.49778
# Poissons Ratio (y) = 0.32515 0.78526
# Poissons Ratio (z) = -0.19051 0.54695
#
# Static dielectric constant tensor:
#      x y z
#    x 1.916890 0.009810 0.001320 
#    y 0.009810 2.006900 0.004240 
#    z 0.001320 0.004240 2.027820 
# 
# From -- ./inp_files/313582.got.cif
#   From: 2010.05.17/outbox.cif.g08.bks.cpg/sg2_157_cif.got.tgz:313582.got - 2010.06.03 11:33:40.
