data_PCOD9099569
_publ_section_title
;
Structure prediction by ZEFSAII (Michael W. Deem and Ramdas Pophale) SiO2 
 PCOD9099569
Probable space group: P -1
;
_chemical_formula_sum "Si O2"
_cell_formula_units_Z 16
_cell_length_a 20.274066
_cell_length_b 14.980987
_cell_length_c 11.814225
_cell_angle_alpha 27.298647
_cell_angle_beta 30.691117
_cell_angle_gamma 39.815921
_cell_volume 839.855821
_symmetry_space_group_name_H-M "P -1"
_symmetry_group_IT_number 2
_symmetry_cell_setting 'triclinic'
loop_
_space_group_symop_operation_xyz
x,y,z
-x,-y,-z
loop_
_atom_site_type_symbol
_atom_site_label
_atom_site_fract_x
_atom_site_fract_y
_atom_site_fract_z
Si Si1 0.107565 0.469977 0.279041
Si Si2 0.316055 0.644425 0.186874
Si Si3 0.369857 0.876595 0.321055
Si Si4 0.116838 0.892772 0.792894
Si Si5 0.916030 0.177627 0.812751
Si Si6 0.603993 0.498522 0.142972
Si Si7 0.607577 0.162057 0.923977
Si Si8 0.531104 0.732739 0.599374
O O1 0.000000 0.500000 0.500000
O O2 0.047029 0.302649 0.483422
O O3 0.115449 0.681401 0.974449
O O4 0.249083 0.430611 0.164125
O O5 0.196295 0.710986 0.212308
O O6 0.345119 0.412775 0.406976
O O7 0.305491 0.737339 0.221984
O O8 0.446290 0.730721 0.840723
O O9 0.250876 0.974612 0.456166
O O10 0.398953 0.662129 0.571948
O O11 0.333042 0.862235 0.260289
O O12 0.500000 0.000000 0.000000
O O13 0.127629 0.868333 0.941953
O O14 0.975187 0.987108 0.880382
O O15 0.556358 0.377053 0.241399
O O16 0.512199 0.685094 0.084803
O O17 0.564034 0.949371 0.269368
#
# Coordination Sequence:
#
# PCOD9099569 Si02
#       8
#     2   2   2   2   2   2   2   2
#     4   9  18  31  53  84 112 143 177 232 288 331
#     4  10  22  37  56  84 119 152 196 235 285 348
#     4  11  21  37  60  85 121 152 187 244 292 334
#     4   9  21  37  57  89 112 146 193 239 287 341
#     4  10  20  37  61  84 116 147 190 238 290 340
#     4  10  21  36  58  89 117 145 195 242 289 342
#     4  11  23  36  58  84 116 157 193 231 294 347
#     4  10  20  38  56  84 117 153 190 244 287 338
#
# _framework density 19.050888
#
# number of rings (size 3 to 8) (size 9 to 14) (size 15 to 20)
#    0.000    2.000    1.250    3.000    1.750    3.000 
#    0.000    0.625    0.000    3.750    0.000    0.000 
#    0.000    0.000    0.000    0.000    0.000    0.000 
#
# Total GULP energy -89175.237389 kJ/mol
# GULP energy per Si atom -5573.452337 kJ/mol
# Density = 1.900753 g / cm^3
# Si number density = 19.050888 Si / 1000 Ang^3
#
#
#
# Elastic Constant Matrix: (Units=GPa)
#
#
# Indices 1 2 3 4 5 6 
#
# 1 68.6487 32.9085 17.0882 2.6495 8.5985 -11.0310
# 2 32.9085 97.0932 31.4100 0.7825 4.5490 -16.9368
# 3 17.0882 31.4100 76.0569 7.0153 7.2921 -8.1681
# 4 2.6495 0.7825 7.0153 25.9818 -5.1966 5.2547
# 5 8.5985 4.5490 7.2921 -5.1966 26.7897 3.2054
# 6 -11.0310 -16.9368 -8.1681 5.2547 3.2054 34.8932
#
#
#
# Elastic Compliance Matrix: (Units=1/GPa)
#
#
# Indices 1 2 3 4 5 6 
#
# 1 0.018805 -0.005039 -0.000723 -0.003721 -0.006239 0.004463
# 2 -0.005039 0.014125 -0.004281 0.000384 -0.000045 0.004207
# 3 -0.000723 -0.004281 0.016397 -0.005798 -0.004971 0.002862
# 4 -0.003721 0.000384 -0.005798 0.045039 0.012675 -0.010294
# 5 -0.006239 -0.000045 -0.004971 0.012675 0.044242 -0.009131
# 6 0.004463 0.004207 0.002862 -0.010294 -0.009131 0.035171
#
#
# Mechanical properties :
#
#
# Convention : Reuss Voigt Hill
#
# Bulk Modulus (GPa) = 34.19803 44.95693 39.57748
# Shear Modulus (GPa) = 24.55660 28.22573 26.39117
#
# Velocity S-wave (km/s) = 3.59416 3.85333 3.72600
# Velocity P-wave (km/s) = 5.93412 6.59144 6.27140
#
# Compressibility (1/GPa) = 0.02924145
#
# Stress axis : x y z
#
# Youngs Moduli (GPa) = 53.17826 70.79698 60.98648
#
# Poissons Ratio (x) = 0.35673 0.04411
# Poissons Ratio (y) = 0.26795 0.26105
# Poissons Ratio (z) = 0.03847 0.30305
#
# Static dielectric constant tensor:
#      x y z
#    x 1.699310 0.000860 -0.022830 
#    y 0.000860 1.699610 -0.028190 
#    z -0.022830 -0.028190 1.742950 
# 
# From -- ./inp_files/431405.got.cif
#   From: 2010.05.17/outbox.cif.g08.bks.cpg/sg2_216_cif.got.tgz:431405.got - 2010.06.03 11:33:40.
