data_PCOD9099349
_publ_section_title
;
Structure prediction by ZEFSAII (Michael W. Deem and Ramdas Pophale) SiO2 
 PCOD9099349
Probable space group: P -1
;
_chemical_formula_sum "Si O2"
_cell_formula_units_Z 16
_cell_length_a 7.717179
_cell_length_b 17.203588
_cell_length_c 7.833512
_cell_angle_alpha 75.211692
_cell_angle_beta 122.506038
_cell_angle_gamma 127.116678
_cell_volume 695.687950
_symmetry_space_group_name_H-M "P -1"
_symmetry_group_IT_number 2
_symmetry_cell_setting 'triclinic'
loop_
_space_group_symop_operation_xyz
x,y,z
-x,-y,-z
loop_
_atom_site_type_symbol
_atom_site_label
_atom_site_fract_x
_atom_site_fract_y
_atom_site_fract_z
Si Si1 0.469717 0.448406 0.830436
Si Si2 0.531692 0.699425 0.881794
Si Si3 0.713293 0.881096 0.067632
Si Si4 0.953599 0.931593 0.671779
Si Si5 0.196565 0.826838 0.711117
Si Si6 0.504757 0.755951 0.376942
Si Si7 0.275144 0.353112 0.305948
Si Si8 0.886560 0.297118 0.550568
O O1 0.625124 0.534716 0.727318
O O2 0.178375 0.383553 0.658325
O O3 0.500000 0.500000 0.000000
O O4 0.546260 0.374684 0.959597
O O5 0.672608 0.676884 0.831139
O O6 0.288462 0.684072 0.670883
O O7 0.729559 0.809267 0.991526
O O8 0.603700 0.817338 0.221306
O O9 0.942882 0.991412 0.163853
O O10 0.484967 0.880928 0.871295
O O11 0.107790 0.887401 0.723011
O O12 0.669198 0.838509 0.565062
O O13 0.000000 0.000000 0.500000
O O14 0.146794 0.798919 0.499137
O O15 0.014326 0.718723 0.758110
O O16 0.577650 0.677691 0.474576
O O17 0.225454 0.714011 0.312861
#
# Coordination Sequence:
#
# PCOD9099349 Si02
#       8
#     2   2   2   2   2   2   2   2
#     4  10  22  37  63  84 114 154 198 236 290 342
#     4   9  21  39  58  87 115 155 192 239 288 337
#     4  10  20  37  60  86 116 150 192 238 285 345
#     4   9  19  37  59  84 114 152 189 234 287 342
#     4  10  21  38  58  87 116 151 191 238 286 342
#     4   9  20  37  59  83 116 154 187 237 291 334
#     4   9  20  39  56  82 116 150 194 234 290 335
#     4  10  22  40  59  84 123 151 191 242 286 339
#
# _framework density 22.998813999999999
#
# number of rings (size 3 to 8) (size 9 to 14) (size 15 to 20)
#    0.000    2.500    0.000    0.375    8.750    5.000 
#    0.000   15.000    0.000    0.000    0.000    0.000 
#    0.000    0.000    0.000    0.000    0.000    0.000 
#
# Total GULP energy -89252.099554 kJ/mol
# GULP energy per Si atom -5578.256222 kJ/mol
# Density = 2.294647 g / cm^3
# Si number density = 22.998814 Si / 1000 Ang^3
#
#
#
# Elastic Constant Matrix: (Units=GPa)
#
#
# Indices 1 2 3 4 5 6 
#
# 1 47.2276 -8.2188 -1.7618 -1.7063 -7.4594 -6.3831
# 2 -8.2188 92.7146 22.4780 -2.7664 4.8277 -5.2357
# 3 -1.7618 22.4780 75.8127 17.4348 -5.9022 -0.7445
# 4 -1.7063 -2.7664 17.4348 31.8460 3.0912 -8.8985
# 5 -7.4594 4.8277 -5.9022 3.0912 28.3118 4.4768
# 6 -6.3831 -5.2357 -0.7445 -8.8985 4.4768 27.6947
#
#
#
# Elastic Compliance Matrix: (Units=1/GPa)
#
#
# Indices 1 2 3 4 5 6 
#
# 1 0.023175 0.002365 -0.000445 0.002954 0.004335 0.006025
# 2 0.002365 0.013068 -0.005546 0.006279 -0.004330 0.005584
# 3 -0.000445 -0.005546 0.018260 -0.012830 0.006970 -0.005909
# 4 0.002954 0.006279 -0.012830 0.045128 -0.010702 0.017753
# 5 0.004335 -0.004330 0.006970 -0.010702 0.041366 -0.009757
# 6 0.006025 0.005584 -0.005909 0.017753 -0.009757 0.045675
#
#
# Mechanical properties :
#
#
# Convention : Reuss Voigt Hill
#
# Bulk Modulus (GPa) = 21.16403 26.74996 23.95699
# Shear Modulus (GPa) = 23.84664 31.12100 27.48382
#
# Velocity S-wave (km/s) = 3.22353 3.68252 3.46064
# Velocity P-wave (km/s) = 4.80386 5.45321 5.13880
#
# Compressibility (1/GPa) = 0.04724999
#
# Stress axis : x y z
#
# Youngs Moduli (GPa) = 43.15058 76.52222 54.76601
#
# Poissons Ratio (x) = -0.18097 0.02439
# Poissons Ratio (y) = -0.10205 0.30372
# Poissons Ratio (z) = 0.01921 0.42438
#
# Static dielectric constant tensor:
#      x y z
#    x 1.779720 -0.006660 -0.050010 
#    y -0.006660 1.868860 -0.030720 
#    z -0.050010 -0.030720 1.935660 
# 
# From -- ./inp_files/200159.got.cif
#   From: 2010.05.17/outbox.cif.g08.bks.cpg/sg2_101_cif.got.tgz:200159.got - 2010.06.03 11:33:40.
