data_PCOD9099085
_publ_section_title
;
Structure prediction by ZEFSAII (Michael W. Deem and Ramdas Pophale) SiO2 
 PCOD9099085
Probable space group: P -1
;
_chemical_formula_sum "Si O2"
_cell_formula_units_Z 10
_cell_length_a 13.403943
_cell_length_b 5.137560
_cell_length_c 7.779709
_cell_angle_alpha 57.302811
_cell_angle_beta 114.773052
_cell_angle_gamma 88.575444
_cell_volume 386.597648
_symmetry_space_group_name_H-M "P -1"
_symmetry_group_IT_number 2
_symmetry_cell_setting 'triclinic'
loop_
_space_group_symop_operation_xyz
x,y,z
-x,-y,-z
loop_
_atom_site_type_symbol
_atom_site_label
_atom_site_fract_x
_atom_site_fract_y
_atom_site_fract_z
Si Si1 0.838843 0.195711 0.906444
Si Si2 0.244379 0.413070 0.841165
Si Si3 0.038543 0.814042 0.366073
Si Si4 0.379191 0.373766 0.594865
Si Si5 0.472660 0.307258 0.206198
O O1 0.907714 0.219788 0.773213
O O2 0.718301 0.467759 0.673570
O O3 0.808369 0.861991 0.033375
O O4 0.931119 0.153990 0.145242
O O5 0.147723 0.758352 0.592758
O O6 0.317272 0.303741 0.751835
O O7 0.333593 0.425413 0.050524
O O8 0.000000 0.500000 0.500000
O O9 0.452030 0.607041 0.620766
O O10 0.468120 0.058488 0.685294
O O11 0.500000 0.500000 0.000000
#
# Coordination Sequence:
#
# PCOD9099085 Si02
#       5
#     2   2   2   2   2
#     4   9  17  31  55  86 115 149 194 238 285 340
#     4   9  17  31  54  81 115 153 191 236 283 337
#     4   8  15  30  54  83 115 151 191 238 289 340
#     4  10  21  37  58  85 118 154 190 233 284 337
#     4  10  20  37  59  84 118 156 190 231 285 339
#
# _framework density 25.866682999999998
#
# number of rings (size 3 to 8) (size 9 to 14) (size 15 to 20)
#    0.000    2.800    0.000    2.400    0.000    1.600 
#    0.000    4.000    0.000   32.400    0.000  176.400 
#    0.000    0.000    0.000    0.000    0.000    0.000 
#
# Total GULP energy -55765.405653 kJ/mol
# GULP energy per Si atom -5576.540565 kJ/mol
# Density = 2.580781 g / cm^3
# Si number density = 25.866683 Si / 1000 Ang^3
#
#
#
# Elastic Constant Matrix: (Units=GPa)
#
#
# Indices 1 2 3 4 5 6 
#
# 1 101.9414 43.1678 108.3269 26.2052 -23.1548 27.6814
# 2 43.1678 128.0071 43.2942 -32.3242 19.8783 -8.1775
# 3 108.3269 43.2942 228.5409 -12.3280 27.2651 -24.0789
# 4 26.2052 -32.3242 -12.3280 61.4077 -15.9176 -31.6920
# 5 -23.1548 19.8783 27.2651 -15.9176 107.8817 3.7620
# 6 27.6814 -8.1775 -24.0789 -31.6920 3.7620 14.5389
#
#
#
# Elastic Compliance Matrix: (Units=1/GPa)
#
#
# Indices 1 2 3 4 5 6 
#
# 1 0.002321 0.002000 0.000495 0.008235 0.000686 0.015299
# 2 0.002000 0.007584 -0.003092 -0.000805 -0.000082 -0.006398
# 3 0.000495 -0.003092 0.003754 -0.005141 -0.000771 -0.007471
# 4 0.008235 -0.000805 -0.005141 0.006627 0.004590 -0.011388
# 5 0.000686 -0.000082 -0.000771 0.004590 0.010138 0.004753
# 6 0.015299 -0.006398 -0.007471 -0.011388 0.004753 -0.002371
#
#
# Mechanical properties :
#
#
# Convention : Reuss Voigt Hill
#
# Bulk Modulus (GPa) = 80.22339 94.22967 87.22653
# Shear Modulus (GPa) = 149.68657 54.34569 102.01613
#
# Velocity S-wave (km/s) = 7.61539 4.58863 6.28688
# Velocity P-wave (km/s) = 10.41187 8.03630 9.30024
#
# Compressibility (1/GPa) = 0.01246519
#
# Stress axis : x y z
#
# Youngs Moduli (GPa) = 430.81137 131.85213 266.36359
#
# Poissons Ratio (x) = -0.26371 -0.13188
# Poissons Ratio (y) = -0.86164 0.82371
# Poissons Ratio (z) = -0.21330 0.40774
#
# Static dielectric constant tensor:
#      x y z
#    x 2.114430 0.037060 0.101280 
#    y 0.037060 1.972670 0.129030 
#    z 0.101280 0.129030 2.467690 
# 
# From -- ./inp_files/24429.got.cif
#   From: 2010.05.17/outbox.cif.g08.bks.cpg/sg2_13_cif.got.tgz:24429.got - 2010.06.03 11:33:40.
