data_PCOD9099015
_publ_section_title
;
Structure prediction by ZEFSAII (Michael W. Deem and Ramdas Pophale) SiO2 
 PCOD9099015
Probable space group: P -1
;
_chemical_formula_sum "Si O2"
_cell_formula_units_Z 16
_cell_length_a 9.414100
_cell_length_b 12.094222
_cell_length_c 11.891590
_cell_angle_alpha 38.827131
_cell_angle_beta 115.160398
_cell_angle_gamma 129.155891
_cell_volume 652.011158
_symmetry_space_group_name_H-M "P -1"
_symmetry_group_IT_number 2
_symmetry_cell_setting 'triclinic'
loop_
_space_group_symop_operation_xyz
x,y,z
-x,-y,-z
loop_
_atom_site_type_symbol
_atom_site_label
_atom_site_fract_x
_atom_site_fract_y
_atom_site_fract_z
Si Si1 0.382181 0.823104 0.698092
Si Si2 0.090246 0.129902 0.268797
Si Si3 0.519707 0.409779 0.225770
Si Si4 0.031635 0.297230 0.319751
Si Si5 0.697054 0.804393 0.107636
Si Si6 0.601566 0.379557 0.677939
Si Si7 0.346254 0.796214 0.389678
Si Si8 0.056299 0.892110 0.231002
O O1 0.405859 0.630177 0.832756
O O2 0.165661 0.733862 0.693910
O O3 0.500000 0.000000 0.500000
O O4 0.488120 0.961303 0.732925
O O5 0.303188 0.248294 0.280805
O O6 0.029080 0.267734 0.206409
O O7 0.083788 0.075238 0.178590
O O8 0.978864 0.902068 0.467312
O O9 0.581239 0.636711 0.106005
O O10 0.600779 0.333303 0.410436
O O11 0.219599 0.483986 0.289499
O O12 0.560842 0.798424 0.158684
O O13 0.839569 0.015656 0.925182
O O14 0.838865 0.749944 0.256093
O O15 0.500000 0.500000 0.500000
O O16 0.659772 0.286382 0.670803
O O17 0.162258 0.779088 0.392123
#
# Coordination Sequence:
#
# PCOD9099015 Si02
#       8
#     2   2   2   2   2   2   2   2
#     4  10  20  37  58  94 129 155 201 264 315 365
#     4  11  20  39  65  92 129 166 210 263 324 369
#     4  11  20  41  65  96 126 159 217 269 301 379
#     4  11  22  35  62 100 128 159 209 271 316 367
#     4  11  26  45  62  93 134 169 216 260 317 391
#     4  12  24  40  64  98 131 165 215 268 318 374
#     4  11  22  40  66  97 123 168 210 264 323 368
#     4  11  26  44  65  91 129 179 209 257 329 384
#
# _framework density 24.539456999999999
#
# number of rings (size 3 to 8) (size 9 to 14) (size 15 to 20)
#    0.000    1.000    6.250    1.500    5.250    1.500 
#    0.000    0.000    0.000    1.500    0.000    0.000 
#    0.000    0.000    0.000    0.000    0.000    0.000 
#
# Total GULP energy -89375.801270 kJ/mol
# GULP energy per Si atom -5585.987579 kJ/mol
# Density = 2.448360 g / cm^3
# Si number density = 24.539457 Si / 1000 Ang^3
#
#
#
# Elastic Constant Matrix: (Units=GPa)
#
#
# Indices 1 2 3 4 5 6 
#
# 1 142.2276 60.5580 19.4130 12.0918 -27.4238 3.5130
# 2 60.5580 140.8556 6.7328 13.7121 -11.3385 4.1442
# 3 19.4130 6.7328 39.5997 9.3141 -12.1697 2.5709
# 4 12.0918 13.7121 9.3141 25.8317 -5.9595 -9.0827
# 5 -27.4238 -11.3385 -12.1697 -5.9595 29.3769 -1.3267
# 6 3.5130 4.1442 2.5709 -9.0827 -1.3267 49.5953
#
#
#
# Elastic Compliance Matrix: (Units=1/GPa)
#
#
# Indices 1 2 3 4 5 6 
#
# 1 0.010339 -0.003705 -0.002073 -0.000531 0.007245 -0.000219
# 2 -0.003705 0.009038 0.001207 -0.004037 -0.000348 -0.001304
# 3 -0.002073 0.001207 0.031508 -0.009970 0.009418 -0.003161
# 4 -0.000531 -0.004037 -0.009970 0.049201 0.004249 0.010016
# 5 0.007245 -0.000348 0.009418 0.004249 0.045479 0.001022
# 6 -0.000219 -0.001304 -0.003161 0.010016 0.001022 0.022313
#
#
# Mechanical properties :
#
#
# Convention : Reuss Voigt Hill
#
# Bulk Modulus (GPa) = 23.95561 55.12117 39.53839
# Shear Modulus (GPa) = 26.18709 36.69272 31.43991
#
# Velocity S-wave (km/s) = 3.27026 3.87105 3.58327
# Velocity P-wave (km/s) = 4.90334 6.51851 5.76774
#
# Compressibility (1/GPa) = 0.04174388
#
# Stress axis : x y z
#
# Youngs Moduli (GPa) = 96.72309 110.64578 31.73767
#
# Poissons Ratio (x) = 0.40989 0.06579
# Poissons Ratio (y) = 0.35831 -0.03830
# Poissons Ratio (z) = 0.20049 -0.13353
#
# Static dielectric constant tensor:
#      x y z
#    x 2.014530 -0.059790 0.097850 
#    y -0.059790 1.980000 0.031260 
#    z 0.097850 0.031260 2.162430 
# 
# From -- ./inp_files/392374.got.cif
#   From: 2010.05.17/outbox.cif.g08.bks.cpg/sg2_197_cif.got.tgz:392374.got - 2010.06.03 11:33:40.
