data_PCOD9099170
_publ_section_title
;
Structure prediction by ZEFSAII (Michael W. Deem and Ramdas Pophale) SiO2 
 PCOD9099170
Probable space group: P -1
;
_chemical_formula_sum "Si O2"
_cell_formula_units_Z 16
_cell_length_a 18.662788
_cell_length_b 11.903798
_cell_length_c 15.327609
_cell_angle_alpha 109.267263
_cell_angle_beta 160.965988
_cell_angle_gamma 58.124264
_cell_volume 746.503782
_symmetry_space_group_name_H-M "P -1"
_symmetry_group_IT_number 2
_symmetry_cell_setting 'triclinic'
loop_
_space_group_symop_operation_xyz
x,y,z
-x,-y,-z
loop_
_atom_site_type_symbol
_atom_site_label
_atom_site_fract_x
_atom_site_fract_y
_atom_site_fract_z
Si Si1 0.149513 0.780763 0.887094
Si Si2 0.656760 0.485973 0.087673
Si Si3 0.762918 0.981433 0.983426
Si Si4 0.438793 0.028435 0.070062
Si Si5 0.362888 0.241362 0.899112
Si Si6 0.168171 0.513540 0.126761
Si Si7 0.237076 0.740681 0.328893
Si Si8 0.890747 0.825267 0.787447
O O1 0.349321 0.605579 0.022059
O O2 0.098934 0.780591 0.932325
O O3 0.797193 0.904870 0.478302
O O4 0.277635 0.861239 0.030229
O O5 0.533100 0.662269 0.962524
O O6 0.019423 0.364396 0.495807
O O7 0.500000 0.500000 0.000000
O O8 0.753521 0.938391 0.059524
O O9 0.469578 0.030212 0.611640
O O10 0.078531 0.835630 0.259170
O O11 0.424559 0.928111 0.956585
O O12 0.345495 0.188028 0.960112
O O13 0.430928 0.337599 0.335872
O O14 0.963190 0.661373 0.857874
O O15 0.000000 0.500000 0.000000
O O16 0.293579 0.577023 0.345807
O O17 0.999545 0.856545 0.005847
#
# Coordination Sequence:
#
# PCOD9099170 Si02
#       8
#     2   2   2   2   2   2   2   2
#     4  10  22  37  56  84 124 146 193 246 287 349
#     4  10  20  37  59  88 113 153 193 234 293 350
#     4  11  21  36  61  87 117 154 199 244 294 346
#     4   9  20  39  58  86 115 155 192 241 293 341
#     4   9  19  39  62  80 118 153 192 238 286 353
#     4   9  20  39  58  78 116 156 192 245 295 343
#     4   9  21  38  56  86 113 150 206 238 284 353
#     4   9  21  38  57  83 111 160 196 241 293 344
#
# _framework density 21.433247000000001
#
# number of rings (size 3 to 8) (size 9 to 14) (size 15 to 20)
#    0.750    1.750    0.000    1.125    1.750    4.500 
#    6.750    3.750    0.000    0.000    0.000    0.000 
#    0.000    0.000    0.000    0.000    0.000    0.000 
#
# Total GULP energy -89236.679639 kJ/mol
# GULP energy per Si atom -5577.292477 kJ/mol
# Density = 2.138446 g / cm^3
# Si number density = 21.433247 Si / 1000 Ang^3
#
#
#
# Elastic Constant Matrix: (Units=GPa)
#
#
# Indices 1 2 3 4 5 6 
#
# 1 169.5665 54.2649 15.2248 -5.3492 21.8559 21.6773
# 2 54.2649 87.5962 2.9266 -4.7874 12.1935 17.3628
# 3 15.2248 2.9266 22.3385 -8.6497 11.3446 -1.4543
# 4 -5.3492 -4.7874 -8.6497 14.0295 0.3839 4.9021
# 5 21.8559 12.1935 11.3446 0.3839 26.4720 -5.4230
# 6 21.6773 17.3628 -1.4543 4.9021 -5.4230 36.3890
#
#
#
# Elastic Compliance Matrix: (Units=1/GPa)
#
#
# Indices 1 2 3 4 5 6 
#
# 1 0.008581 -0.003291 -0.001500 0.003104 -0.005977 -0.004911
# 2 -0.003291 0.017741 0.012080 0.016139 -0.012940 -0.010124
# 3 -0.001500 0.012080 0.095559 0.070102 -0.049970 -0.017942
# 4 0.003104 0.016139 0.070102 0.133695 -0.048531 -0.031991
# 5 -0.005977 -0.012940 -0.049970 -0.048531 0.076035 0.025607
# 6 -0.004911 -0.010124 -0.017942 -0.031991 0.025607 0.042646
#
#
# Mechanical properties :
#
#
# Convention : Reuss Voigt Hill
#
# Bulk Modulus (GPa) = 7.32815 47.14821 27.23818
# Shear Modulus (GPa) = 12.34063 29.18378 20.76220
#
# Velocity S-wave (km/s) = 2.40212 3.69401 3.11576
# Velocity P-wave (km/s) = 3.33468 6.34348 5.06753
#
# Compressibility (1/GPa) = 0.13646015
#
# Stress axis : x y z
#
# Youngs Moduli (GPa) = 116.53217 56.36601 10.46475
#
# Poissons Ratio (x) = 0.18550 0.01570
# Poissons Ratio (y) = 0.38350 -0.12642
# Poissons Ratio (z) = 0.17478 -0.68091
#
# Static dielectric constant tensor:
#      x y z
#    x 1.855890 0.034490 0.070920 
#    y 0.034490 1.807870 0.028980 
#    z 0.070920 0.028980 1.877890 
# 
# From -- ./inp_files/538271.got.cif
#   From: 2010.05.17/outbox.cif.g08.bks.cpg/sg2_270_cif.got.tgz:538271.got - 2010.06.03 11:33:40.
