data_PCOD9099316
_publ_section_title
;
Structure prediction by ZEFSAII (Michael W. Deem and Ramdas Pophale) SiO2 
 PCOD9099316
Probable space group: P -1
;
_chemical_formula_sum "Si O2"
_cell_formula_units_Z 16
_cell_length_a 9.155456
_cell_length_b 13.977122
_cell_length_c 10.677211
_cell_angle_alpha 139.790479
_cell_angle_beta 57.812914
_cell_angle_gamma 106.083951
_cell_volume 725.158142
_symmetry_space_group_name_H-M "P -1"
_symmetry_group_IT_number 2
_symmetry_cell_setting 'triclinic'
loop_
_space_group_symop_operation_xyz
x,y,z
-x,-y,-z
loop_
_atom_site_type_symbol
_atom_site_label
_atom_site_fract_x
_atom_site_fract_y
_atom_site_fract_z
Si Si1 0.766739 0.627075 0.605672
Si Si2 0.023991 0.523779 0.867406
Si Si3 0.897258 0.306073 0.366029
Si Si4 0.573038 0.199797 0.435757
Si Si5 0.636763 0.607804 0.060552
Si Si6 0.340195 0.083646 0.742344
Si Si7 0.430994 0.848412 0.896541
Si Si8 0.042918 0.846108 0.081510
O O1 0.819470 0.577998 0.388651
O O2 0.810617 0.475129 0.519892
O O3 0.566954 0.727482 0.799222
O O4 0.917719 0.709977 0.664874
O O5 0.043539 0.695155 0.009239
O O6 0.000000 0.500000 0.000000
O O7 0.838214 0.510716 0.877254
O O8 0.746004 0.253160 0.457652
O O9 0.939155 0.201391 0.119892
O O10 0.414395 0.295208 0.689423
O O11 0.556998 0.228534 0.324194
O O12 0.620725 0.017343 0.251823
O O13 0.648500 0.739771 0.085078
O O14 0.500000 0.500000 0.000000
O O15 0.160996 0.061701 0.733757
O O16 0.500000 0.000000 0.500000
O O17 0.224432 0.893838 0.078096
O O18 0.500000 0.000000 0.000000
#
# Coordination Sequence:
#
# PCOD9099316 Si02
#       8
#     2   2   2   2   2   2   2   2
#     4  10  21  38  57  93 124 151 214 260 308 366
#     4  10  20  37  60  84 121 161 195 256 313 368
#     4   9  20  36  64  88 118 161 202 271 307 357
#     4  10  21  38  61  88 124 163 203 255 320 364
#     4  10  20  38  62  92 116 155 213 255 306 361
#     4   9  20  38  63  87 126 162 205 257 305 374
#     4  11  25  39  58  91 128 171 205 254 316 376
#     4   9  21  39  59  88 118 164 210 249 315 367
#
# _framework density 22.064152
#
# number of rings (size 3 to 8) (size 9 to 14) (size 15 to 20)
#    0.000    2.250    0.000    1.500    3.500    7.500 
#    2.250    0.000    0.000    3.000    0.000    0.000 
#    0.000    0.000    0.000    0.000    0.000    0.000 
#
# Total GULP energy -89240.528917 kJ/mol
# GULP energy per Si atom -5577.533057 kJ/mol
# Density = 2.201393 g / cm^3
# Si number density = 22.064152 Si / 1000 Ang^3
#
#
#
# Elastic Constant Matrix: (Units=GPa)
#
#
# Indices 1 2 3 4 5 6 
#
# 1 102.5896 40.6582 30.6104 10.4262 -32.8232 13.8436
# 2 40.6582 64.5513 7.4288 -12.6541 -12.7864 16.7470
# 3 30.6104 7.4288 70.8454 -5.3535 -27.4851 4.6031
# 4 10.4262 -12.6541 -5.3535 18.3990 2.6904 3.1695
# 5 -32.8232 -12.7864 -27.4851 2.6904 43.3890 -10.3128
# 6 13.8436 16.7470 4.6031 3.1695 -10.3128 37.3000
#
#
#
# Elastic Compliance Matrix: (Units=1/GPa)
#
#
# Indices 1 2 3 4 5 6 
#
# 1 0.029432 -0.024743 -0.008117 -0.039616 0.014311 0.008510
# 2 -0.024743 0.042898 0.007868 0.050076 -0.008385 -0.017622
# 3 -0.008117 0.007868 0.021276 0.015383 0.008181 -0.002191
# 4 -0.039616 0.050076 0.015383 0.122890 -0.019127 -0.025409
# 5 0.014311 -0.008385 0.008181 -0.019127 0.040191 0.010181
# 6 0.008510 -0.017622 -0.002191 -0.025409 0.010181 0.036807
#
#
# Mechanical properties :
#
#
# Convention : Reuss Voigt Hill
#
# Bulk Modulus (GPa) = 22.92365 43.93123 33.42744
# Shear Modulus (GPa) = 13.96576 30.43685 22.20130
#
# Velocity S-wave (km/s) = 2.51860 3.71815 3.17553
# Velocity P-wave (km/s) = 4.34395 6.19571 5.35055
#
# Compressibility (1/GPa) = 0.04362306
#
# Stress axis : x y z
#
# Youngs Moduli (GPa) = 33.97641 23.31113 47.00127
#
# Poissons Ratio (x) = 0.57679 0.38150
# Poissons Ratio (y) = 0.84068 -0.36982
# Poissons Ratio (z) = 0.27578 -0.18342
#
# Static dielectric constant tensor:
#      x y z
#    x 1.865510 0.000800 -0.027800 
#    y 0.000800 1.859500 -0.015710 
#    z -0.027800 -0.015710 2.004580 
# 
# From -- ./inp_files/399742.got.cif
#   From: 2010.05.17/outbox.cif.g08.bks.cpg/sg2_200_cif.got.tgz:399742.got - 2010.06.03 11:33:40.
