data_PCOD9099006
_publ_section_title
;
Structure prediction by ZEFSAII (Michael W. Deem and Ramdas Pophale) SiO2 
 PCOD9099006
Probable space group: P -1
;
_chemical_formula_sum "Si O2"
_cell_formula_units_Z 16
_cell_length_a 9.021431
_cell_length_b 13.041321
_cell_length_c 11.708319
_cell_angle_alpha 132.765217
_cell_angle_beta 112.212495
_cell_angle_gamma 103.297594
_cell_volume 653.496661
_symmetry_space_group_name_H-M "P -1"
_symmetry_group_IT_number 2
_symmetry_cell_setting 'triclinic'
loop_
_space_group_symop_operation_xyz
x,y,z
-x,-y,-z
loop_
_atom_site_type_symbol
_atom_site_label
_atom_site_fract_x
_atom_site_fract_y
_atom_site_fract_z
Si Si1 0.137815 0.892418 0.563563
Si Si2 0.602689 0.188945 0.282960
Si Si3 0.789724 0.447625 0.076669
Si Si4 0.142177 0.443179 0.227851
Si Si5 0.411978 0.415746 0.539127
Si Si6 0.600311 0.907110 0.442717
Si Si7 0.185286 0.015555 0.191930
Si Si8 0.503215 0.760368 0.945681
O O1 0.284271 0.865043 0.652606
O O2 0.894330 0.664602 0.301832
O O3 0.227457 0.980114 0.529321
O O4 0.230082 0.076561 0.810107
O O5 0.790521 0.428754 0.542265
O O6 0.369751 0.081303 0.200530
O O7 0.549973 0.165304 0.115824
O O8 0.652157 0.305659 0.039764
O O9 0.988681 0.456222 0.121565
O O10 0.606335 0.324043 0.829178
O O11 0.385562 0.556013 0.330259
O O12 0.020036 0.221933 0.052606
O O13 0.500000 0.500000 0.500000
O O14 0.179742 0.179461 0.294780
O O15 0.421011 0.561309 0.722829
O O16 0.724577 0.946590 0.624576
O O17 0.500000 0.000000 0.500000
#
# Coordination Sequence:
#
# PCOD9099006 Si02
#       8
#     2   2   2   2   2   2   2   2
#     4  10  22  36  61  93 124 163 204 253 313 364
#     4  10  20  37  58  92 128 159 200 259 307 363
#     4  10  23  40  64  98 125 159 208 257 314 364
#     4  10  21  37  62  94 121 159 212 244 307 372
#     4  11  24  44  58  89 130 169 207 252 301 373
#     4  11  20  38  65  95 128 156 204 267 314 355
#     4  11  21  38  64  92 125 162 204 261 311 358
#     4  11  22  42  60  87 134 165 204 252 312 370
#
# _framework density 24.483675000000002
#
# number of rings (size 3 to 8) (size 9 to 14) (size 15 to 20)
#    0.000    1.500    5.000    1.125    0.000    7.000 
#    0.000    2.500    0.000    4.500    0.000    0.000 
#    0.000    0.000    0.000    0.000    0.000    0.000 
#
# Total GULP energy -89344.047595 kJ/mol
# GULP energy per Si atom -5584.002975 kJ/mol
# Density = 2.442795 g / cm^3
# Si number density = 24.483675 Si / 1000 Ang^3
#
#
#
# Elastic Constant Matrix: (Units=GPa)
#
#
# Indices 1 2 3 4 5 6 
#
# 1 18.0256 -5.0678 -23.2207 -6.1582 1.8351 -0.0957
# 2 -5.0678 131.8906 41.1411 -15.5431 5.5729 10.0814
# 3 -23.2207 41.1411 143.2476 23.5862 9.5851 7.0044
# 4 -6.1582 -15.5431 23.5862 49.9619 -6.8482 -1.6295
# 5 1.8351 5.5729 9.5851 -6.8482 30.4462 6.3304
# 6 -0.0957 10.0814 7.0044 -1.6295 6.3304 17.6471
#
#
#
# Elastic Compliance Matrix: (Units=1/GPa)
#
#
# Indices 1 2 3 4 5 6 
#
# 1 0.072339 -0.000311 0.012030 0.002090 -0.007333 -0.001381
# 2 -0.000311 0.009417 -0.003383 0.004523 0.001222 -0.004059
# 3 0.012030 -0.003383 0.011183 -0.005522 -0.004598 -0.001301
# 4 0.002090 0.004523 -0.005522 0.025169 0.006528 -0.000399
# 5 -0.007333 0.001222 -0.004598 0.006528 0.038499 -0.012120
# 6 -0.001381 -0.004059 -0.001301 -0.000399 -0.012120 0.063806
#
#
# Mechanical properties :
#
#
# Convention : Reuss Voigt Hill
#
# Bulk Modulus (GPa) = 9.12324 35.42988 22.27656
# Shear Modulus (GPa) = 20.80918 38.29846 29.55382
#
# Velocity S-wave (km/s) = 2.91850 3.95934 3.47808
# Velocity P-wave (km/s) = 3.88474 5.95014 5.02471
#
# Compressibility (1/GPa) = 0.10961016
#
# Stress axis : x y z
#
# Youngs Moduli (GPa) = 13.82379 106.18925 89.42108
#
# Poissons Ratio (x) = 0.03303 -1.07570
# Poissons Ratio (y) = 0.00430 0.30252
# Poissons Ratio (z) = -0.16630 0.35925
#
# Static dielectric constant tensor:
#      x y z
#    x 2.012780 -0.059000 -0.038790 
#    y -0.059000 1.917230 0.074940 
#    z -0.038790 0.074940 2.048770 
# 
# From -- ./inp_files/431836.got.cif
#   From: 2010.05.17/outbox.cif.g08.bks.cpg/sg2_216_cif.got.tgz:431836.got - 2010.06.03 11:33:40.
