data_PCOD9099192
_publ_section_title
;
Structure prediction by ZEFSAII (Michael W. Deem and Ramdas Pophale) SiO2 
 PCOD9099192
Probable space group: P -1
;
_chemical_formula_sum "Si O2"
_cell_formula_units_Z 16
_cell_length_a 21.136491
_cell_length_b 5.354282
_cell_length_c 8.273459
_cell_angle_alpha 119.789953
_cell_angle_beta 54.120106
_cell_angle_gamma 123.326545
_cell_volume 612.390072
_symmetry_space_group_name_H-M "P -1"
_symmetry_group_IT_number 2
_symmetry_cell_setting 'triclinic'
loop_
_space_group_symop_operation_xyz
x,y,z
-x,-y,-z
loop_
_atom_site_type_symbol
_atom_site_label
_atom_site_fract_x
_atom_site_fract_y
_atom_site_fract_z
Si Si1 0.254625 0.868918 0.845228
Si Si2 0.876181 0.224143 0.524145
Si Si3 0.386024 0.431591 0.966414
Si Si4 0.758576 0.496958 0.936888
Si Si5 0.652163 0.362536 0.589735
Si Si6 0.061240 0.197863 0.835946
Si Si7 0.960844 0.309756 0.758923
Si Si8 0.447398 0.331878 0.367885
O O1 0.350238 0.097878 0.826926
O O2 0.267428 0.711238 0.611592
O O3 0.213466 0.130565 0.981365
O O4 0.227514 0.627278 0.952366
O O5 0.806723 0.374797 0.692119
O O6 0.898310 0.181850 0.663924
O O7 0.957144 0.450324 0.378714
O O8 0.861611 0.906667 0.350250
O O9 0.484671 0.591056 0.854312
O O10 0.339769 0.620610 0.995111
O O11 0.342837 0.403010 0.196331
O O12 0.617623 0.508014 0.538869
O O13 0.592002 0.030541 0.646638
O O14 0.002598 0.114803 0.737405
O O15 0.076913 0.536280 0.991800
O O16 0.000000 0.000000 0.000000
O O17 0.500000 0.500000 0.500000
#
# Coordination Sequence:
#
# PCOD9099192 Si02
#       8
#     2   2   2   2   2   2   2   2
#     4  10  23  44  58  86 127 160 204 255 297 368
#     4  10  20  37  59  89 114 164 199 246 315 356
#     4  10  25  40  63  92 126 157 212 248 307 373
#     4  10  24  43  62  85 129 166 202 255 303 372
#     4  12  24  40  67  91 120 165 202 260 308 359
#     4   9  18  34  56  89 119 147 189 254 302 352
#     4   9  19  36  61  88 121 147 204 257 297 367
#     4  12  23  39  67  94 124 156 206 258 316 355
#
# _framework density 26.127140000000001
#
# number of rings (size 3 to 8) (size 9 to 14) (size 15 to 20)
#    0.750    1.000    1.250    3.000    5.250    0.000 
#    2.250    2.500    0.000    0.000    0.000    0.000 
#    0.000    0.000    0.000    0.000    0.000    0.000 
#
# Total GULP energy -89389.395965 kJ/mol
# GULP energy per Si atom -5586.837248 kJ/mol
# Density = 2.606767 g / cm^3
# Si number density = 26.127140 Si / 1000 Ang^3
#
#
#
# Elastic Constant Matrix: (Units=GPa)
#
#
# Indices 1 2 3 4 5 6 
#
# 1 52.7477 20.1909 10.2561 2.8353 -1.0470 -25.3658
# 2 20.1909 112.7784 19.6379 2.0379 -1.3891 -14.1559
# 3 10.2561 19.6379 182.9345 15.5073 -22.2165 -14.1074
# 4 2.8353 2.0379 15.5073 36.7727 -18.1069 4.3117
# 5 -1.0470 -1.3891 -22.2165 -18.1069 43.7696 0.4441
# 6 -25.3658 -14.1559 -14.1074 4.3117 0.4441 43.5458
#
#
#
# Elastic Compliance Matrix: (Units=1/GPa)
#
#
# Indices 1 2 3 4 5 6 
#
# 1 0.027881 -0.002976 0.000197 -0.004608 -0.001394 0.015808
# 2 -0.002976 0.009688 -0.000795 -0.000251 -0.000283 0.001186
# 3 0.000197 -0.000795 0.006120 -0.001600 0.002404 0.001973
# 4 -0.004608 -0.000251 -0.001600 0.035959 0.014017 -0.006987
# 5 -0.001394 -0.000283 0.002404 0.014017 0.029842 -0.001817
# 6 0.015808 0.001186 0.001973 -0.006987 -0.001817 0.033908
#
#
# Mechanical properties :
#
#
# Convention : Reuss Voigt Hill
#
# Bulk Modulus (GPa) = 27.36598 49.84783 38.60690
# Shear Modulus (GPa) = 30.72662 44.70933 37.71797
#
# Velocity S-wave (km/s) = 3.43307 4.14118 3.80364
# Velocity P-wave (km/s) = 5.11972 6.47967 5.83942
#
# Compressibility (1/GPa) = 0.03654173
#
# Stress axis : x y z
#
# Youngs Moduli (GPa) = 35.86722 103.22035 163.38619
#
# Poissons Ratio (x) = 0.30713 -0.03212
# Poissons Ratio (y) = 0.10672 0.12986
# Poissons Ratio (z) = -0.00705 0.08204
#
# Static dielectric constant tensor:
#      x y z
#    x 2.141640 0.075690 -0.045740 
#    y 0.075690 2.058360 0.008250 
#    z -0.045740 0.008250 2.099980 
# 
# From -- ./inp_files/355929.got.cif
#   From: 2010.05.17/outbox.cif.g08.bks.cpg/sg2_178_cif.got.tgz:355929.got - 2010.06.03 11:33:40.
