data_PCOD9099179
_publ_section_title
;
Structure prediction by ZEFSAII (Michael W. Deem and Ramdas Pophale) SiO2 
 PCOD9099179
Probable space group: P -1
;
_chemical_formula_sum "Si O2"
_cell_formula_units_Z 16
_cell_length_a 11.998425
_cell_length_b 8.202909
_cell_length_c 7.558152
_cell_angle_alpha 53.547781
_cell_angle_beta 103.912321
_cell_angle_gamma 95.449302
_cell_volume 579.702216
_symmetry_space_group_name_H-M "P -1"
_symmetry_group_IT_number 2
_symmetry_cell_setting 'triclinic'
loop_
_space_group_symop_operation_xyz
x,y,z
-x,-y,-z
loop_
_atom_site_type_symbol
_atom_site_label
_atom_site_fract_x
_atom_site_fract_y
_atom_site_fract_z
Si Si1 0.454262 0.255167 0.966406
Si Si2 0.334986 0.906631 0.251730
Si Si3 0.352437 0.457257 0.156743
Si Si4 0.170199 0.089341 0.789749
Si Si5 0.964239 0.833867 0.821574
Si Si6 0.716219 0.947309 0.492179
Si Si7 0.884484 0.440632 0.189282
Si Si8 0.755327 0.501423 0.454128
O O1 0.571169 0.355204 0.898723
O O2 0.358219 0.364757 0.734573
O O3 0.413005 0.343609 0.084634
O O4 0.445264 0.012493 0.144002
O O5 0.291331 0.685096 0.336798
O O6 0.348358 0.919310 0.463651
O O7 0.234713 0.053128 0.025473
O O8 0.342571 0.267913 0.406811
O O9 0.222718 0.524059 0.009463
O O10 0.251653 0.982605 0.736461
O O11 0.162325 0.323202 0.571831
O O12 0.047471 0.998898 0.814646
O O13 0.031581 0.734595 0.742966
O O14 0.840174 0.910706 0.657014
O O15 0.949837 0.649127 0.071777
O O16 0.825307 0.405005 0.375686
#
# Coordination Sequence:
#
# PCOD9099179 Si02
#       8
#     2   2   2   2   2   2   2   2
#     4   8  16  35  61  88 120 152 192 247 297 349
#     4  10  22  40  61  89 121 155 199 245 293 354
#     4   8  15  33  61  89 117 154 196 242 298 352
#     4  11  23  39  61  87 121 160 198 245 296 348
#     4  10  20  37  59  88 122 157 200 246 293 350
#     4  10  21  39  61  84 120 161 195 244 300 348
#     4   9  19  35  60  90 120 156 201 246 292 355
#     4  10  21  38  59  87 121 157 198 245 296 352
#
# _framework density 27.600377999999999
#
# number of rings (size 3 to 8) (size 9 to 14) (size 15 to 20)
#    0.000    2.500    0.000    3.375    0.000    5.000 
#    0.000   18.125    0.000    4.500    0.000    0.000 
#    0.000    0.000    0.000    0.000    0.000    0.000 
#
# Total GULP energy -89567.163995 kJ/mol
# GULP energy per Si atom -5597.947750 kJ/mol
# Density = 2.753756 g / cm^3
# Si number density = 27.600378 Si / 1000 Ang^3
#
#
#
# Elastic Constant Matrix: (Units=GPa)
#
#
# Indices 1 2 3 4 5 6 
#
# 1 114.0685 49.0855 51.0115 -6.1390 -31.7332 23.8150
# 2 49.0855 118.1623 60.0853 -31.4979 -32.0522 37.4611
# 3 51.0115 60.0853 86.3773 -13.5978 -36.7514 1.6356
# 4 -6.1390 -31.4979 -13.5978 63.3843 5.1529 -34.6552
# 5 -31.7332 -32.0522 -36.7514 5.1529 52.9069 -13.3713
# 6 23.8150 37.4611 1.6356 -34.6552 -13.3713 58.3375
#
#
#
# Elastic Compliance Matrix: (Units=1/GPa)
#
#
# Indices 1 2 3 4 5 6 
#
# 1 0.014473 0.000088 -0.008896 -0.005256 0.000884 -0.008635
# 2 0.000088 0.018630 -0.013081 0.000101 -0.000724 -0.011738
# 3 -0.008896 -0.013081 0.032846 0.009419 0.013651 0.019835
# 4 -0.005256 0.000101 0.009419 0.027521 0.005692 0.019470
# 5 0.000884 -0.000724 0.013651 0.005692 0.030470 0.010087
# 6 -0.008635 -0.011738 0.019835 0.019470 0.010087 0.041526
#
#
# Mechanical properties :
#
#
# Convention : Reuss Voigt Hill
#
# Bulk Modulus (GPa) = 45.10622 70.99697 58.05159
# Shear Modulus (GPa) = 23.08028 45.48746 34.28387
#
# Velocity S-wave (km/s) = 2.89490 4.06405 3.52824
# Velocity P-wave (km/s) = 5.24900 6.91383 6.13812
#
# Compressibility (1/GPa) = 0.02216989
#
# Stress axis : x y z
#
# Youngs Moduli (GPa) = 69.09355 53.67666 30.44552
#
# Poissons Ratio (x) = -0.00470 0.27085
# Poissons Ratio (y) = -0.00606 0.39825
# Poissons Ratio (z) = 0.61467 0.70214
#
# Static dielectric constant tensor:
#      x y z
#    x 2.117570 -0.011190 -0.030160 
#    y -0.011190 2.263940 -0.010690 
#    z -0.030160 -0.010690 2.089980 
# 
# From -- ./inp_files/242175.got.cif
#   From: 2010.05.17/outbox.cif.g08.bks.cpg/sg2_122_cif.got.tgz:242175.got - 2010.06.03 11:33:40.
