data_PCOD9099281
_publ_section_title
;
Structure prediction by ZEFSAII (Michael W. Deem and Ramdas Pophale) SiO2 
 PCOD9099281
Probable space group: P -1
;
_chemical_formula_sum "Si O2"
_cell_formula_units_Z 12
_cell_length_a 8.842512
_cell_length_b 9.006417
_cell_length_c 9.472252
_cell_angle_alpha 93.349527
_cell_angle_beta 115.620611
_cell_angle_gamma 116.768082
_cell_volume 576.488212
_symmetry_space_group_name_H-M "P -1"
_symmetry_group_IT_number 2
_symmetry_cell_setting 'triclinic'
loop_
_space_group_symop_operation_xyz
x,y,z
-x,-y,-z
loop_
_atom_site_type_symbol
_atom_site_label
_atom_site_fract_x
_atom_site_fract_y
_atom_site_fract_z
Si Si1 0.571894 0.401378 0.165742
Si Si2 0.057714 0.166904 0.129371
Si Si3 0.255913 0.497507 0.040378
Si Si4 0.337472 0.042992 0.886792
Si Si5 0.432295 0.844580 0.278108
Si Si6 0.551704 0.807877 0.631779
O O1 0.465389 0.508922 0.152318
O O2 0.598259 0.330261 0.320347
O O3 0.751002 0.497699 0.132584
O O4 0.405937 0.223934 0.006606
O O5 0.103106 0.325965 0.054103
O O6 0.259861 0.212439 0.290676
O O7 0.878171 0.105824 0.160540
O O8 0.000000 0.000000 0.000000
O O9 0.276948 0.670789 0.122074
O O10 0.371160 0.073050 0.735131
O O11 0.500000 0.000000 0.000000
O O12 0.463063 0.789382 0.440968
O O13 0.383562 0.995953 0.281776
#
# Coordination Sequence:
#
# PCOD9099281 Si02
#       6
#     2   2   2   2   2   2
#     4   9  17  34  57  81 111 144 188 225 285 325
#     4  11  20  36  59  85 117 143 192 235 281 329
#     4   9  19  33  58  87 110 146 188 236 273 336
#     4  11  19  36  61  81 109 151 190 230 281 337
#     4  10  21  36  60  84 115 151 193 218 287 342
#     4  10  20  37  60  82 116 156 181 233 279 337
#
# _framework density 20.81569
#
# number of rings (size 3 to 8) (size 9 to 14) (size 15 to 20)
#    0.000    2.000    5.000    0.000    0.000    3.333 
#    0.000    7.500    3.667    2.000    0.000    0.000 
#    0.000    0.000    0.000    0.000    0.000    0.000 
#
# Total GULP energy -66965.807509 kJ/mol
# GULP energy per Si atom -5580.483959 kJ/mol
# Density = 2.076831 g / cm^3
# Si number density = 20.815690 Si / 1000 Ang^3
#
#
#
# Elastic Constant Matrix: (Units=GPa)
#
#
# Indices 1 2 3 4 5 6 
#
# 1 97.0623 52.9108 34.1928 -17.9175 -9.7854 11.0357
# 2 52.9108 119.9964 29.1005 -37.5360 -13.4266 23.3468
# 3 34.1928 29.1005 67.0301 -43.3436 -19.8323 7.3675
# 4 -17.9175 -37.5360 -43.3436 44.1481 5.4705 -13.6642
# 5 -9.7854 -13.4266 -19.8323 5.4705 24.9311 -9.1912
# 6 11.0357 23.3468 7.3675 -13.6642 -9.1912 37.3192
#
#
#
# Elastic Compliance Matrix: (Units=1/GPa)
#
#
# Indices 1 2 3 4 5 6 
#
# 1 0.021686 -0.013039 -0.033829 -0.035954 -0.021205 -0.009964
# 2 -0.013039 0.021305 0.031217 0.042276 0.024037 0.005764
# 3 -0.033829 0.031217 0.143139 0.154404 0.099462 0.043246
# 4 -0.035954 0.042276 0.154404 0.198656 0.107389 0.052887
# 5 -0.021205 0.024037 0.099462 0.107389 0.114732 0.039174
# 6 -0.009964 0.005764 0.043246 0.052887 0.039174 0.046611
#
#
# Mechanical properties :
#
#
# Convention : Reuss Voigt Hill
#
# Bulk Modulus (GPa) = 6.45874 57.38856 31.92365
# Shear Modulus (GPa) = 7.94863 32.47197 20.21030
#
# Velocity S-wave (km/s) = 1.95624 3.95394 3.11933
# Velocity P-wave (km/s) = 2.86567 6.96237 5.32384
#
# Compressibility (1/GPa) = 0.15482894
#
# Stress axis : x y z
#
# Youngs Moduli (GPa) = 46.11345 46.93774 6.98621
#
# Poissons Ratio (x) = 0.61201 0.23634
# Poissons Ratio (y) = 0.60126 -0.21809
# Poissons Ratio (z) = 1.55997 -1.46527
#
# Static dielectric constant tensor:
#      x y z
#    x 1.798620 0.002390 -0.027590 
#    y 0.002390 1.795290 -0.021990 
#    z -0.027590 -0.021990 1.745940 
# 
# From -- ./inp_files/149857.got.cif
#   From: 2010.05.17/outbox.cif.g08.bks.cpg/sg2_75_cif.got.tgz:149857.got - 2010.06.03 11:33:40.
