data_PCOD9099573
_publ_section_title
;
Structure prediction by ZEFSAII (Michael W. Deem and Ramdas Pophale) SiO2 
 PCOD9099573
Probable space group: P -1
;
_chemical_formula_sum "Si O2"
_cell_formula_units_Z 16
_cell_length_a 11.135176
_cell_length_b 9.735443
_cell_length_c 12.694583
_cell_angle_alpha 132.599587
_cell_angle_beta 63.248303
_cell_angle_gamma 81.428334
_cell_volume 654.507658
_symmetry_space_group_name_H-M "P -1"
_symmetry_group_IT_number 2
_symmetry_cell_setting 'triclinic'
loop_
_space_group_symop_operation_xyz
x,y,z
-x,-y,-z
loop_
_atom_site_type_symbol
_atom_site_label
_atom_site_fract_x
_atom_site_fract_y
_atom_site_fract_z
Si Si1 0.476590 0.645925 0.688568
Si Si2 0.170065 0.071693 0.563550
Si Si3 0.443085 0.502420 0.183619
Si Si4 0.659418 0.990827 0.310618
Si Si5 0.227168 0.428686 0.687474
Si Si6 0.420721 0.103432 0.968902
Si Si7 0.223052 0.534177 0.981425
Si Si8 0.877849 0.861380 0.950848
O O1 0.500000 0.500000 0.500000
O O2 0.582128 0.497806 0.678231
O O3 0.513797 0.829110 0.738432
O O4 0.252943 0.866873 0.918289
O O5 0.267269 0.030973 0.615067
O O6 0.197089 0.237628 0.575376
O O7 0.278542 0.780094 0.340419
O O8 0.954548 0.252155 0.766812
O O9 0.455588 0.282030 0.018234
O O10 0.630231 0.440457 0.064289
O O11 0.677444 0.750529 0.165622
O O12 0.444738 0.253434 0.528337
O O13 0.791429 0.952025 0.149807
O O14 0.155369 0.545329 0.895195
O O15 0.097017 0.659846 0.774022
O O16 0.202563 0.257116 0.125171
O O17 0.500000 0.000000 0.000000
#
# Coordination Sequence:
#
# PCOD9099573 Si02
#       8
#     2   2   2   2   2   2   2   2
#     4   9  20  37  66  87 109 155 200 247 293 336
#     4  11  19  33  58  88 126 156 193 237 295 353
#     4  11  20  39  60  86 121 162 196 230 300 362
#     4  11  18  34  57  91 120 156 193 245 294 344
#     4  11  19  33  57  93 123 154 191 251 292 344
#     4   8  20  40  63  79 119 165 193 236 299 352
#     4  11  20  31  58  91 122 156 197 239 294 352
#     4  10  20  37  61  84 122 146 200 247 293 333
#
# _framework density 24.445857
#
# number of rings (size 3 to 8) (size 9 to 14) (size 15 to 20)
#    0.750    1.000    5.000    2.250    0.000    0.000 
#    0.000    4.375    0.000    3.000    0.000    0.000 
#    0.000    0.000    0.000    0.000    0.000    0.000 
#
# Total GULP energy -89294.841802 kJ/mol
# GULP energy per Si atom -5580.927613 kJ/mol
# Density = 2.439022 g / cm^3
# Si number density = 24.445857 Si / 1000 Ang^3
#
#
#
# Elastic Constant Matrix: (Units=GPa)
#
#
# Indices 1 2 3 4 5 6 
#
# 1 90.4990 15.5628 42.1785 21.0653 3.5392 11.5463
# 2 15.5628 66.1541 22.0431 18.8692 8.3392 25.9732
# 3 42.1785 22.0431 96.3197 24.5827 -22.9855 9.8451
# 4 21.0653 18.8692 24.5827 34.0122 -0.5866 8.4203
# 5 3.5392 8.3392 -22.9855 -0.5866 49.2917 9.5663
# 6 11.5463 25.9732 9.8451 8.4203 9.5663 54.2658
#
#
#
# Elastic Compliance Matrix: (Units=1/GPa)
#
#
# Indices 1 2 3 4 5 6 
#
# 1 0.015438 0.000953 -0.006555 -0.005175 -0.004192 -0.001010
# 2 0.000953 0.022150 -0.003435 -0.008439 -0.003931 -0.008179
# 3 -0.006555 -0.003435 0.018150 -0.006765 0.009609 -0.000898
# 4 -0.005175 -0.008439 -0.006765 0.042169 -0.000848 -0.000026
# 5 -0.004192 -0.003931 0.009609 -0.000848 0.026402 -0.003493
# 6 -0.001010 -0.008179 -0.000898 -0.000026 -0.003493 0.023340
#
#
# Mechanical properties :
#
#
# Convention : Reuss Voigt Hill
#
# Bulk Modulus (GPa) = 26.54927 45.83796 36.19361
# Shear Modulus (GPa) = 28.04602 39.05983 33.55293
#
# Velocity S-wave (km/s) = 3.39081 4.00160 3.70880
# Velocity P-wave (km/s) = 5.11998 6.33576 5.76004
#
# Compressibility (1/GPa) = 0.03766582
#
# Stress axis : x y z
#
# Youngs Moduli (GPa) = 64.77366 45.14619 55.09635
#
# Poissons Ratio (x) = -0.04304 0.36116
# Poissons Ratio (y) = -0.06175 0.18924
# Poissons Ratio (z) = 0.42459 0.15507
#
# Static dielectric constant tensor:
#      x y z
#    x 1.990820 0.020440 0.031650 
#    y 0.020440 2.044260 0.040250 
#    z 0.031650 0.040250 1.986830 
# 
# From -- ./inp_files/568880.got.cif
#   From: 2010.05.17/outbox.cif.g08.bks.cpg/sg2_285_cif.got.tgz:568880.got - 2010.06.03 11:33:40.
