data_PCOD9099427
_publ_section_title
;
Structure prediction by ZEFSAII (Michael W. Deem and Ramdas Pophale) SiO2 
 PCOD9099427
Probable space group: P -1
;
_chemical_formula_sum "Si O2"
_cell_formula_units_Z 15
_cell_length_a 7.736721
_cell_length_b 12.339672
_cell_length_c 8.717793
_cell_angle_alpha 59.246745
_cell_angle_beta 52.406795
_cell_angle_gamma 65.238945
_cell_volume 559.702014
_symmetry_space_group_name_H-M "P -1"
_symmetry_group_IT_number 2
_symmetry_cell_setting 'triclinic'
loop_
_space_group_symop_operation_xyz
x,y,z
-x,-y,-z
loop_
_atom_site_type_symbol
_atom_site_label
_atom_site_fract_x
_atom_site_fract_y
_atom_site_fract_z
Si Si1 0.370671 0.870325 0.989916
Si Si2 0.232705 0.537027 0.904406
Si Si3 0.500000 0.500000 0.500000
Si Si4 0.251307 0.978145 0.669196
Si Si5 0.326604 0.161154 0.896259
Si Si6 0.218073 0.800502 0.557674
Si Si7 0.945892 0.590851 0.283136
Si Si8 0.012226 0.749090 0.404221
O O1 0.289669 0.875350 0.856999
O O2 0.287000 0.017601 0.982904
O O3 0.614742 0.842968 0.950901
O O4 0.251147 0.764201 0.204894
O O5 0.420061 0.461565 0.748152
O O6 0.267109 0.678340 0.728686
O O7 0.000000 0.500000 0.000000
O O8 0.181721 0.536709 0.114836
O O9 0.750840 0.508618 0.418020
O O10 0.154546 0.922608 0.610404
O O11 0.500000 0.000000 0.500000
O O12 0.127459 0.117523 0.672902
O O13 0.551863 0.182177 0.666025
O O14 0.141501 0.274676 0.859268
O O15 0.038842 0.764994 0.559982
O O16 0.937879 0.635052 0.433050
#
# Coordination Sequence:
#
# PCOD9099427 Si02
#       8
#     2   2   1   2   2   2   2   2
#     4  10  21  36  56  90 133 173 217 256 308 386
#     4  10  23  41  71  97 119 168 219 278 337 387
#     4  10  22  44  72  94 126 158 222 282 332 388
#     4  12  22  36  58  95 129 176 219 255 316 385
#     4  10  20  37  60  88 130 179 212 265 313 379
#     4  11  22  40  62  92 136 173 217 271 325 382
#     4  11  21  42  70  96 126 177 218 266 337 380
#     4  11  24  38  60  95 136 176 213 267 318 392
#
# _framework density 26.799976000000001
#
# number of rings (size 3 to 8) (size 9 to 14) (size 15 to 20)
#    0.000    1.333    4.000    1.600    1.867    1.067 
#    0.000    2.667    2.933    2.400    0.000    0.000 
#    0.000    0.000    0.000    0.000    0.000    0.000 
#
# Total GULP energy -83531.969198 kJ/mol
# GULP energy per Si atom -5568.797947 kJ/mol
# Density = 2.673898 g / cm^3
# Si number density = 26.799976 Si / 1000 Ang^3
#
#
#
# Elastic Constant Matrix: (Units=GPa)
#
#
# Indices 1 2 3 4 5 6 
#
# 1 103.1211 37.3938 41.3153 21.8840 19.9709 22.7080
# 2 37.3938 110.0357 41.0425 0.6070 0.3415 17.2872
# 3 41.3153 41.0425 148.8935 15.2676 -8.2298 4.3670
# 4 21.8840 0.6070 15.2676 33.1540 13.9401 4.9587
# 5 19.9709 0.3415 -8.2298 13.9401 44.7276 5.0352
# 6 22.7080 17.2872 4.3670 4.9587 5.0352 46.3191
#
#
#
# Elastic Compliance Matrix: (Units=1/GPa)
#
#
# Indices 1 2 3 4 5 6 
#
# 1 0.015337 -0.003339 -0.002858 -0.005941 -0.004953 -0.004829
# 2 -0.003339 0.011597 -0.002539 0.003520 0.000159 -0.002846
# 3 -0.002858 -0.002539 0.008799 -0.004027 0.003999 0.001516
# 4 -0.005941 0.003520 -0.004027 0.040514 -0.010606 -0.001206
# 5 -0.004953 0.000159 0.003999 -0.010606 0.028607 0.000018
# 6 -0.004829 -0.002846 0.001516 -0.001206 0.000018 0.025003
#
#
# Mechanical properties :
#
#
# Convention : Reuss Voigt Hill
#
# Bulk Modulus (GPa) = 54.76462 66.83926 60.80194
# Shear Modulus (GPa) = 32.59140 40.99337 36.79239
#
# Velocity S-wave (km/s) = 3.49104 3.91526 3.70922
# Velocity P-wave (km/s) = 6.06043 6.74042 6.40945
#
# Compressibility (1/GPa) = 0.01825996
#
# Stress axis : x y z
#
# Youngs Moduli (GPa) = 65.20364 86.23033 113.65419
#
# Poissons Ratio (x) = 0.28793 0.32484
# Poissons Ratio (y) = 0.21772 0.28855
# Poissons Ratio (z) = 0.18636 0.21892
#
# Static dielectric constant tensor:
#      x y z
#    x 2.052410 0.163700 0.313510 
#    y 0.163700 2.080130 -0.181970 
#    z 0.313510 -0.181970 1.564540 
# 
# From -- ./inp_files/177222.got.cif
#   From: 2010.05.17/outbox.cif.g08.bks.cpg/sg2_89_cif.got.tgz:177222.got - 2010.06.03 11:33:40.
