data_PCOD9099565
_publ_section_title
;
Structure prediction by ZEFSAII (Michael W. Deem and Ramdas Pophale) SiO2 
 PCOD9099565
Probable space group: P -1
;
_chemical_formula_sum "Si O2"
_cell_formula_units_Z 14
_cell_length_a 9.360440
_cell_length_b 7.699988
_cell_length_c 8.520294
_cell_angle_alpha 88.659365
_cell_angle_beta 108.087580
_cell_angle_gamma 86.490047
_cell_volume 582.078254
_symmetry_space_group_name_H-M "P -1"
_symmetry_group_IT_number 2
_symmetry_cell_setting 'triclinic'
loop_
_space_group_symop_operation_xyz
x,y,z
-x,-y,-z
loop_
_atom_site_type_symbol
_atom_site_label
_atom_site_fract_x
_atom_site_fract_y
_atom_site_fract_z
Si Si1 0.006992 0.718018 0.839495
Si Si2 0.615828 0.982171 0.687554
Si Si3 0.289658 0.368298 0.395290
Si Si4 0.855022 0.083091 0.357868
Si Si5 0.621003 0.798229 0.250315
Si Si6 0.135494 0.334139 0.891278
Si Si7 0.176761 0.739264 0.364549
O O1 0.638628 0.772606 0.701361
O O2 0.885757 0.678069 0.664070
O O3 0.103927 0.865952 0.803946
O O4 0.911351 0.756508 0.962173
O O5 0.500000 0.000000 0.500000
O O6 0.541154 0.094852 0.802625
O O7 0.762139 0.083576 0.686671
O O8 0.362075 0.331606 0.591408
O O9 0.277954 0.570531 0.342276
O O10 0.889518 0.458800 0.092648
O O11 0.804516 0.250959 0.441710
O O12 0.729177 0.950506 0.322930
O O13 0.000000 0.000000 0.500000
O O14 0.701885 0.713566 0.126905
O O15 0.997206 0.286228 0.732486
#
# Coordination Sequence:
#
# PCOD9099565 Si02
#       7
#     2   2   2   2   2   2   2
#     4  10  21  38  59  86 117 148 197 242 286 339
#     4  10  21  38  55  85 123 148 190 242 279 351
#     4  10  20  37  61  83 117 154 190 239 286 341
#     4  12  19  34  59  89 117 146 191 245 286 344
#     4  11  21  36  56  87 120 146 192 240 287 340
#     4  10  22  38  60  86 113 153 196 240 285 346
#     4  11  20  37  64  85 114 155 193 233 297 335
#
# _framework density 24.051750999999999
#
# number of rings (size 3 to 8) (size 9 to 14) (size 15 to 20)
#    0.000    1.429    5.714    0.857    0.000    5.143 
#    2.571    0.714    0.000    2.571    0.000    0.000 
#    0.000    0.000    0.000    0.000    0.000    0.000 
#
# Total GULP energy -78162.740752 kJ/mol
# GULP energy per Si atom -5583.052911 kJ/mol
# Density = 2.399701 g / cm^3
# Si number density = 24.051751 Si / 1000 Ang^3
#
#
#
# Elastic Constant Matrix: (Units=GPa)
#
#
# Indices 1 2 3 4 5 6 
#
# 1 72.2162 10.7410 7.5117 3.7460 -30.1770 -24.5845
# 2 10.7410 94.5378 15.6605 -2.1678 -10.2140 -31.1080
# 3 7.5117 15.6605 64.4669 -0.2559 -26.0216 -15.3762
# 4 3.7460 -2.1678 -0.2559 21.4891 -2.3310 -12.7135
# 5 -30.1770 -10.2140 -26.0216 -2.3310 32.8491 13.9220
# 6 -24.5845 -31.1080 -15.3762 -12.7135 13.9220 46.9840
#
#
#
# Elastic Compliance Matrix: (Units=1/GPa)
#
#
# Indices 1 2 3 4 5 6 
#
# 1 0.030471 0.002795 0.012620 0.006971 0.033465 0.013895
# 2 0.002795 0.015060 0.000197 0.009136 0.002440 0.013247
# 3 0.012620 0.000197 0.028669 0.006684 0.031155 0.008693
# 4 0.006971 0.009136 0.006684 0.062907 0.007722 0.026618
# 5 0.033465 0.002440 0.031155 0.007722 0.084466 0.006383
# 6 0.013895 0.013247 0.008693 0.026618 0.006383 0.045482
#
#
# Mechanical properties :
#
#
# Convention : Reuss Voigt Hill
#
# Bulk Modulus (GPa) = 9.48545 33.22746 21.35645
# Shear Modulus (GPa) = 18.45210 33.41830 25.93520
#
# Velocity S-wave (km/s) = 2.77281 3.73155 3.28732
# Velocity P-wave (km/s) = 3.76877 5.69306 4.82776
#
# Compressibility (1/GPa) = 0.10542463
#
# Stress axis : x y z
#
# Youngs Moduli (GPa) = 32.81756 66.40198 34.88088
#
# Poissons Ratio (x) = -0.18561 -0.44020
# Poissons Ratio (y) = -0.09173 -0.00687
# Poissons Ratio (z) = -0.41416 -0.01307
#
# Static dielectric constant tensor:
#      x y z
#    x 1.972510 -0.113590 -0.006790 
#    y -0.113590 1.974930 0.047050 
#    z -0.006790 0.047050 1.972830 
# 
# From -- ./inp_files/149382.got.cif
#   From: 2010.05.17/outbox.cif.g08.bks.cpg/sg2_75_cif.got.tgz:149382.got - 2010.06.03 11:33:40.
