data_PCOD9099752
_publ_section_title
;
Structure prediction by ZEFSAII (Michael W. Deem and Ramdas Pophale) SiO2 
 PCOD9099752
Probable space group: P -1
;
_chemical_formula_sum "Si O2"
_cell_formula_units_Z 12
_cell_length_a 10.526423
_cell_length_b 20.753962
_cell_length_c 5.291081
_cell_angle_alpha 63.927362
_cell_angle_beta 55.827032
_cell_angle_gamma 32.476133
_cell_volume 511.969459
_symmetry_space_group_name_H-M "P -1"
_symmetry_group_IT_number 2
_symmetry_cell_setting 'triclinic'
loop_
_space_group_symop_operation_xyz
x,y,z
-x,-y,-z
loop_
_atom_site_type_symbol
_atom_site_label
_atom_site_fract_x
_atom_site_fract_y
_atom_site_fract_z
Si Si1 0.568886 0.594907 0.731132
Si Si2 0.771374 0.842197 0.784987
Si Si3 0.408397 0.882122 0.889799
Si Si4 0.296569 0.374774 0.957818
Si Si5 0.268792 0.600342 0.383736
Si Si6 0.301835 0.967731 0.360707
O O1 0.535668 0.652184 0.411312
O O2 0.757486 0.460499 0.654777
O O3 0.667328 0.604696 0.839749
O O4 0.333530 0.639566 0.045539
O O5 0.565711 0.898594 0.698821
O O6 0.031236 0.708875 0.636343
O O7 0.807275 0.911963 0.683801
O O8 0.613244 0.863696 0.151320
O O9 0.264700 0.933027 0.701797
O O10 0.607988 0.742594 0.936762
O O11 0.226846 0.958134 0.202497
O O12 0.000000 0.500000 0.000000
O O13 0.500000 0.500000 0.500000
#
# Coordination Sequence:
#
# PCOD9099752 Si02
#       6
#     2   2   2   2   2   2
#     4  11  25  42  57  93 125 163 210 241 313 370
#     4   9  21  36  65  93 120 157 204 259 308 350
#     4  10  20  37  61  91 123 152 196 261 309 361
#     4  12  24  40  63  89 128 165 203 255 310 369
#     4  11  23  43  64  90 130 165 206 254 302 377
#     4   9  20  38  60  97 117 152 209 255 312 346
#
# _framework density 23.438896
#
# number of rings (size 3 to 8) (size 9 to 14) (size 15 to 20)
#    1.000    0.667    1.667    3.000    0.000    5.333 
#    0.000    0.000    0.000    6.000    0.000    0.000 
#    0.000    0.000    0.000    0.000    0.000    0.000 
#
# Total GULP energy -66939.736104 kJ/mol
# GULP energy per Si atom -5578.311342 kJ/mol
# Density = 2.338555 g / cm^3
# Si number density = 23.438896 Si / 1000 Ang^3
#
#
#
# Elastic Constant Matrix: (Units=GPa)
#
#
# Indices 1 2 3 4 5 6 
#
# 1 81.2198 67.5174 38.4676 2.6654 27.7244 30.2762
# 2 67.5174 80.3346 46.1577 21.4902 2.7356 37.8109
# 3 38.4676 46.1577 149.3391 4.4967 29.1042 5.5205
# 4 2.6654 21.4902 4.4967 32.0621 8.3694 -3.1754
# 5 27.7244 2.7356 29.1042 8.3694 42.6488 10.6865
# 6 30.2762 37.8109 5.5205 -3.1754 10.6865 35.2526
#
#
#
# Elastic Compliance Matrix: (Units=1/GPa)
#
#
# Indices 1 2 3 4 5 6 
#
# 1 0.003862 0.027293 -0.010687 -0.025562 0.017718 -0.038590
# 2 0.027293 -0.038502 0.009792 0.034684 -0.036399 0.030481
# 3 -0.010687 0.009792 0.005848 -0.008271 0.005086 -0.004527
# 4 -0.025562 0.034684 -0.008271 0.002638 0.024843 -0.021246
# 5 0.017718 -0.036399 0.005086 0.024843 -0.000446 0.025400
# 6 -0.038590 0.030481 -0.004527 -0.021246 0.025400 0.019912
#
#
# Mechanical properties :
#
#
# Convention : Reuss Voigt Hill
#
# Bulk Modulus (GPa) = 41.66081 68.35322 55.00701
# Shear Modulus (GPa) = -97.11659 32.57609 -32.27025
#
# Velocity S-wave (km/s) = -6.44390 3.73209 -3.71453
# Velocity P-wave (km/s) = 6.12800 6.91353 2.26324
#
# Compressibility (1/GPa) = 0.02400337
#
# Stress axis : x y z
#
# Youngs Moduli (GPa) = 258.94598 -25.97270 171.01294
#
# Poissons Ratio (x) = 0.70886 1.82762
# Poissons Ratio (y) = -7.06730 -1.67464
# Poissons Ratio (z) = 2.76737 0.25434
#
# Static dielectric constant tensor:
#      x y z
#    x 1.938490 -0.016720 -0.002020 
#    y -0.016720 1.838820 -0.002890 
#    z -0.002020 -0.002890 1.943570 
# 
# From -- ./inp_files/83018.got.cif
#   From: 2010.05.17/outbox.cif.g08.bks.cpg/sg2_42_cif.got.tgz:83018.got - 2010.06.03 11:33:40.
