data_PCOD9099729
_publ_section_title
;
Structure prediction by ZEFSAII (Michael W. Deem and Ramdas Pophale) SiO2 
 PCOD9099729
Probable space group: P -1
;
_chemical_formula_sum "Si O2"
_cell_formula_units_Z 16
_cell_length_a 5.245395
_cell_length_b 12.680172
_cell_length_c 15.570580
_cell_angle_alpha 58.389520
_cell_angle_beta 116.214109
_cell_angle_gamma 121.756658
_cell_volume 730.003486
_symmetry_space_group_name_H-M "P -1"
_symmetry_group_IT_number 2
_symmetry_cell_setting 'triclinic'
loop_
_space_group_symop_operation_xyz
x,y,z
-x,-y,-z
loop_
_atom_site_type_symbol
_atom_site_label
_atom_site_fract_x
_atom_site_fract_y
_atom_site_fract_z
Si Si1 0.344261 0.586820 0.745466
Si Si2 0.351478 0.944955 0.591351
Si Si3 0.103189 0.973595 0.119121
Si Si4 0.763085 0.812142 0.801146
Si Si5 0.098477 0.322676 0.731611
Si Si6 0.696562 0.970940 0.278723
Si Si7 0.397494 0.306883 0.614946
Si Si8 0.788155 0.685161 0.607569
O O1 0.581724 0.653328 0.831242
O O2 0.248852 0.429033 0.783909
O O3 0.530221 0.651703 0.657148
O O4 0.028670 0.613481 0.692564
O O5 0.524306 0.858148 0.695669
O O6 0.415011 0.053201 0.629576
O O7 0.998464 0.845160 0.571842
O O8 0.500000 0.000000 0.500000
O O9 0.142304 0.097969 0.136577
O O10 0.435713 0.963476 0.175982
O O11 0.896616 0.822300 0.182647
O O12 0.000000 0.000000 0.000000
O O13 0.066072 0.876883 0.760698
O O14 0.290614 0.372183 0.650911
O O15 0.749539 0.316646 0.669989
O O16 0.814964 0.852683 0.334731
O O17 0.334288 0.349022 0.493347
#
# Coordination Sequence:
#
# PCOD9099729 Si02
#       8
#     2   2   2   2   2   2   2   2
#     4  11  24  40  61  88 130 169 208 246 306 367
#     4  10  21  31  56  90 129 166 209 254 299 357
#     4  10  23  43  67  92 117 153 207 267 327 376
#     4  10  20  39  59  90 119 162 203 257 310 367
#     4  11  24  43  61  89 125 166 203 263 312 365
#     4  10  20  37  61  90 122 160 206 263 310 360
#     4  11  23  37  61  89 127 166 218 253 296 358
#     4  11  23  36  58  91 125 178 212 248 292 364
#
# _framework density 21.917702999999999
#
# number of rings (size 3 to 8) (size 9 to 14) (size 15 to 20)
#    0.000    1.500    2.500    2.250    7.000    4.500 
#    0.000    0.625    0.000    0.750    0.000    0.000 
#    0.000    0.000    0.000    0.000    0.000    0.000 
#
# Total GULP energy -89222.749260 kJ/mol
# GULP energy per Si atom -5576.421829 kJ/mol
# Density = 2.186782 g / cm^3
# Si number density = 21.917703 Si / 1000 Ang^3
#
#
#
# Elastic Constant Matrix: (Units=GPa)
#
#
# Indices 1 2 3 4 5 6 
#
# 1 82.5075 5.1027 24.1614 6.4636 -3.0293 -5.0455
# 2 5.1027 139.1597 34.1235 24.5722 -6.1280 -5.9762
# 3 24.1614 34.1235 101.0257 27.8222 -5.0305 2.5076
# 4 6.4636 24.5722 27.8222 25.2613 -1.9542 -4.7053
# 5 -3.0293 -6.1280 -5.0305 -1.9542 13.4589 2.4422
# 6 -5.0455 -5.9762 2.5076 -4.7053 2.4422 29.5298
#
#
#
# Elastic Compliance Matrix: (Units=1/GPa)
#
#
# Indices 1 2 3 4 5 6 
#
# 1 0.013281 0.000437 -0.003486 0.000621 0.001499 0.002629
# 2 0.000437 0.008841 -0.000947 -0.007364 0.002600 0.000556
# 3 -0.003486 -0.000947 0.015825 -0.016296 0.003240 -0.004996
# 4 0.000621 -0.007364 -0.016296 0.066410 -0.001606 0.010714
# 5 0.001499 0.002600 0.003240 -0.001606 0.077923 -0.006193
# 6 0.002629 0.000556 -0.004996 0.010714 -0.006193 0.037069
#
#
# Mechanical properties :
#
#
# Convention : Reuss Voigt Hill
#
# Bulk Modulus (GPa) = 33.38293 49.94089 41.66191
# Shear Modulus (GPa) = 21.06809 30.93702 26.00256
#
# Velocity S-wave (km/s) = 3.10374 3.76108 3.44811
# Velocity P-wave (km/s) = 5.30174 6.45725 5.90781
#
# Compressibility (1/GPa) = 0.02995543
#
# Stress axis : x y z
#
# Youngs Moduli (GPa) = 75.29608 113.11203 63.19019
#
# Poissons Ratio (x) = -0.04942 0.22025
# Poissons Ratio (y) = -0.03290 0.05985
# Poissons Ratio (z) = 0.26245 0.10712
#
# Static dielectric constant tensor:
#      x y z
#    x 2.071790 -0.099420 0.094240 
#    y -0.099420 2.093890 -0.053950 
#    z 0.094240 -0.053950 1.775210 
# 
# From -- ./inp_files/71277.got.cif
#   From: 2010.05.17/outbox.cif.g08.bks.cpg/sg2_36_cif.got.tgz:71277.got - 2010.06.03 11:33:40.
