data_PCOD9099363
_publ_section_title
;
Structure prediction by ZEFSAII (Michael W. Deem and Ramdas Pophale) SiO2 
 PCOD9099363
Probable space group: P -1
;
_chemical_formula_sum "Si O2"
_cell_formula_units_Z 16
_cell_length_a 7.454597
_cell_length_b 8.955211
_cell_length_c 15.553356
_cell_angle_alpha 117.458392
_cell_angle_beta 52.120543
_cell_angle_gamma 129.654112
_cell_volume 626.856909
_symmetry_space_group_name_H-M "P -1"
_symmetry_group_IT_number 2
_symmetry_cell_setting 'triclinic'
loop_
_space_group_symop_operation_xyz
x,y,z
-x,-y,-z
loop_
_atom_site_type_symbol
_atom_site_label
_atom_site_fract_x
_atom_site_fract_y
_atom_site_fract_z
Si Si1 0.401127 0.209289 0.406133
Si Si2 0.300510 0.562395 0.159701
Si Si3 0.645728 0.075354 0.179858
Si Si4 0.877838 0.670361 0.015947
Si Si5 0.962150 0.833520 0.765769
Si Si6 0.282956 0.776370 0.524826
Si Si7 0.253729 0.877404 0.103009
Si Si8 0.075871 0.736356 0.401623
O O1 0.592530 0.287564 0.453379
O O2 0.203470 0.289465 0.496146
O O3 0.556306 0.231654 0.277065
O O4 0.238770 0.970718 0.397707
O O5 0.401824 0.896878 0.155037
O O6 0.617506 0.686028 0.108966
O O7 0.113721 0.622181 0.281931
O O8 0.225988 0.511113 0.067626
O O9 0.769461 0.058674 0.228373
O O10 0.888325 0.160160 0.064675
O O11 0.023990 0.692748 0.069514
O O12 0.769113 0.644922 0.828692
O O13 0.034214 0.773450 0.639820
O O14 0.867929 0.983261 0.814189
O O15 0.199015 0.681819 0.431566
O O16 0.500000 0.000000 0.500000
O O17 0.500000 0.000000 0.000000
#
# Coordination Sequence:
#
# PCOD9099363 Si02
#       8
#     2   2   2   2   2   2   2   2
#     4   9  19  37  61  96 114 154 209 251 305 359
#     4  10  22  40  60  90 130 168 199 244 324 368
#     4   9  19  38  64  92 120 155 210 258 301 352
#     4   9  21  40  59  87 125 162 205 254 293 368
#     4  10  21  39  64  90 124 164 199 253 313 368
#     4   9  19  35  61  90 120 151 206 255 297 361
#     4  10  21  38  64  90 115 159 214 258 293 349
#     4  10  20  37  60  86 128 158 195 258 300 369
#
# _framework density 25.524165
#
# number of rings (size 3 to 8) (size 9 to 14) (size 15 to 20)
#    0.000    2.500    0.000    0.750    5.250    5.000 
#    4.500   11.875    0.000    0.000    0.000    0.000 
#    0.000    0.000    0.000    0.000    0.000    0.000 
#
# Total GULP energy -89349.380976 kJ/mol
# GULP energy per Si atom -5584.336311 kJ/mol
# Density = 2.546607 g / cm^3
# Si number density = 25.524165 Si / 1000 Ang^3
#
#
#
# Elastic Constant Matrix: (Units=GPa)
#
#
# Indices 1 2 3 4 5 6 
#
# 1 143.1630 30.5911 53.6024 13.5489 4.1866 38.2151
# 2 30.5911 78.2338 46.0741 18.0996 -15.0499 11.1918
# 3 53.6024 46.0741 119.4098 13.8578 1.4213 20.2549
# 4 13.5489 18.0996 13.8578 44.0542 1.3260 5.0308
# 5 4.1866 -15.0499 1.4213 1.3260 39.8274 -2.8709
# 6 38.2151 11.1918 20.2549 5.0308 -2.8709 28.6537
#
#
#
# Elastic Compliance Matrix: (Units=1/GPa)
#
#
# Indices 1 2 3 4 5 6 
#
# 1 0.012096 -0.001818 -0.002249 -0.000579 -0.002870 -0.014019
# 2 -0.001818 0.020208 -0.006559 -0.006053 0.008340 0.001066
# 3 -0.002249 -0.006559 0.012570 -0.000067 -0.002948 -0.003607
# 4 -0.000579 -0.006053 -0.000067 0.025669 -0.003197 -0.001644
# 5 -0.002870 0.008340 -0.002948 -0.003197 0.029216 0.006142
# 6 -0.014019 0.001066 -0.003607 -0.001644 0.006142 0.056634
#
#
# Mechanical properties :
#
#
# Convention : Reuss Voigt Hill
#
# Bulk Modulus (GPa) = 42.33381 66.81577 54.57479
# Shear Modulus (GPa) = 26.95146 36.54299 31.74723
#
# Velocity S-wave (km/s) = 3.25302 3.78789 3.53060
# Velocity P-wave (km/s) = 5.54358 6.73536 6.16832
#
# Compressibility (1/GPa) = 0.02362178
#
# Stress axis : x y z
#
# Youngs Moduli (GPa) = 82.66887 49.48576 79.55667
#
# Poissons Ratio (x) = 0.08996 0.17895
# Poissons Ratio (y) = 0.15029 0.52179
# Poissons Ratio (z) = 0.18595 0.32457
#
# Static dielectric constant tensor:
#      x y z
#    x 2.042880 -0.054920 -0.046530 
#    y -0.054920 2.151720 0.106530 
#    z -0.046530 0.106530 1.962330 
# 
# From -- ./inp_files/500788.got.cif
#   From: 2010.05.17/outbox.cif.g08.bks.cpg/sg2_251_cif.got.tgz:500788.got - 2010.06.03 11:33:40.
