data_PCOD9099942
_publ_section_title
;
Structure prediction by ZEFSAII (Michael W. Deem and Ramdas Pophale) SiO2 
 PCOD9099942
Probable space group: P -1
;
_chemical_formula_sum "Si O2"
_cell_formula_units_Z 16
_cell_length_a 14.550149
_cell_length_b 8.530183
_cell_length_c 8.668012
_cell_angle_alpha 50.652805
_cell_angle_beta 108.950645
_cell_angle_gamma 76.182273
_cell_volume 624.690947
_symmetry_space_group_name_H-M "P -1"
_symmetry_group_IT_number 2
_symmetry_cell_setting 'triclinic'
loop_
_space_group_symop_operation_xyz
x,y,z
-x,-y,-z
loop_
_atom_site_type_symbol
_atom_site_label
_atom_site_fract_x
_atom_site_fract_y
_atom_site_fract_z
Si Si1 0.022461 0.476763 0.341884
Si Si2 0.241125 0.707960 0.102265
Si Si3 0.142967 0.972870 0.192734
Si Si4 0.702142 0.795357 0.389194
Si Si5 0.334120 0.995630 0.459598
Si Si6 0.504140 0.514294 0.677814
Si Si7 0.823745 0.440394 0.104555
Si Si8 0.699396 0.538324 0.287828
O O1 0.163553 0.277623 0.501004
O O2 0.000000 0.500000 0.500000
O O3 0.938526 0.410819 0.258809
O O4 0.978997 0.744248 0.069881
O O5 0.290353 0.444005 0.384701
O O6 0.352992 0.666897 0.098171
O O7 0.196181 0.912533 0.084953
O O8 0.145730 0.760831 0.885959
O O9 0.228856 0.968503 0.370174
O O10 0.168166 0.707897 0.415418
O O11 0.628970 0.021717 0.331832
O O12 0.668104 0.791552 0.195276
O O13 0.446819 0.794814 0.537685
O O14 0.261862 0.288285 0.195324
O O15 0.500000 0.500000 0.500000
O O16 0.414599 0.459177 0.732937
O O17 0.732938 0.488673 0.160092
#
# Coordination Sequence:
#
# PCOD9099942 Si02
#       8
#     2   2   2   2   2   2   2   2
#     4  11  22  41  64  86 122 162 199 252 303 347
#     4  10  21  39  65  88 123 157 200 251 292 363
#     4   9  20  39  62  86 116 164 197 243 301 354
#     4  10  20  37  62  88 116 158 200 247 290 359
#     4   9  20  37  64  88 119 157 199 246 297 358
#     4  11  19  40  67  85 118 168 199 236 305 358
#     4  10  22  39  59  93 127 148 203 257 294 350
#     4  10  20  39  61  90 124 154 202 250 291 366
#
# _framework density 25.612663999999999
#
# number of rings (size 3 to 8) (size 9 to 14) (size 15 to 20)
#    0.000    2.000    5.000    0.000    0.000    9.000 
#    4.500    2.500    2.750    0.000    0.000    0.000 
#    0.000    0.000    0.000    0.000    0.000    0.000 
#
# Total GULP energy -89315.849413 kJ/mol
# GULP energy per Si atom -5582.240588 kJ/mol
# Density = 2.555437 g / cm^3
# Si number density = 25.612664 Si / 1000 Ang^3
#
#
#
# Elastic Constant Matrix: (Units=GPa)
#
#
# Indices 1 2 3 4 5 6 
#
# 1 100.6312 8.0326 6.3193 12.2345 2.2598 -9.9202
# 2 8.0326 122.5796 6.1852 12.2725 -6.4487 7.9515
# 3 6.3193 6.1852 50.6894 3.9802 4.2138 13.4308
# 4 12.2345 12.2725 3.9802 33.4669 -4.5690 10.4758
# 5 2.2598 -6.4487 4.2138 -4.5690 20.3567 4.2752
# 6 -9.9202 7.9515 13.4308 10.4758 4.2752 24.5486
#
#
#
# Elastic Compliance Matrix: (Units=1/GPa)
#
#
# Indices 1 2 3 4 5 6 
#
# 1 0.012478 -0.000851 -0.003451 -0.008184 -0.005215 0.011607
# 2 -0.000851 0.008739 -0.000339 -0.001506 0.003205 -0.002905
# 3 -0.003451 -0.000339 0.024187 0.003383 -0.000643 -0.015849
# 4 -0.008184 -0.001506 0.003383 0.043058 0.014776 -0.025618
# 5 -0.005215 0.003205 -0.000643 0.014776 0.058207 -0.019236
# 6 0.011607 -0.002905 -0.015849 -0.025618 -0.019236 0.069321
#
#
# Mechanical properties :
#
#
# Convention : Reuss Voigt Hill
#
# Bulk Modulus (GPa) = 27.68432 34.99716 31.34074
# Shear Modulus (GPa) = 21.06920 32.56531 26.81726
#
# Velocity S-wave (km/s) = 2.87123 3.56961 3.23930
# Velocity P-wave (km/s) = 4.67164 5.53924 5.12384
#
# Compressibility (1/GPa) = 0.03612154
#
# Stress axis : x y z
#
# Youngs Moduli (GPa) = 80.13886 114.43378 41.34470
#
# Poissons Ratio (x) = 0.09744 0.14268
# Poissons Ratio (y) = 0.06824 0.01400
# Poissons Ratio (z) = 0.27656 0.03875
#
# Static dielectric constant tensor:
#      x y z
#    x 2.058940 0.074710 -0.062720 
#    y 0.074710 2.113420 -0.025440 
#    z -0.062720 -0.025440 2.128230 
# 
# From -- ./inp_files/177369.got.cif
#   From: 2010.05.17/outbox.cif.g08.bks.cpg/sg2_89_cif.got.tgz:177369.got - 2010.06.03 11:33:40.
