data_PCOD9099076
_publ_section_title
;
Structure prediction by ZEFSAII (Michael W. Deem and Ramdas Pophale) SiO2 
 PCOD9099076
Probable space group: P -1
;
_chemical_formula_sum "Si O2"
_cell_formula_units_Z 16
_cell_length_a 7.731368
_cell_length_b 12.346500
_cell_length_c 8.448019
_cell_angle_alpha 103.465894
_cell_angle_beta 55.063617
_cell_angle_gamma 109.002201
_cell_volume 623.938109
_symmetry_space_group_name_H-M "P -1"
_symmetry_group_IT_number 2
_symmetry_cell_setting 'triclinic'
loop_
_space_group_symop_operation_xyz
x,y,z
-x,-y,-z
loop_
_atom_site_type_symbol
_atom_site_label
_atom_site_fract_x
_atom_site_fract_y
_atom_site_fract_z
Si Si1 0.254646 0.789622 0.564714
Si Si2 0.812128 0.592732 0.229588
Si Si3 0.317123 0.233401 0.479299
Si Si4 0.158879 0.380956 0.127248
Si Si5 0.522924 0.117678 0.117474
Si Si6 0.480795 0.764164 0.150352
Si Si7 0.683554 0.534626 0.598882
Si Si8 0.228796 0.987543 0.816131
O O1 0.473445 0.770806 0.526856
O O2 0.272345 0.738227 0.363446
O O3 0.240755 0.923718 0.621354
O O4 0.040871 0.714600 0.732377
O O5 0.854515 0.728673 0.301772
O O6 0.835002 0.527778 0.362685
O O7 0.549531 0.550912 0.330349
O O8 0.895182 0.578082 0.005444
O O9 0.356152 0.339227 0.371793
O O10 0.307330 0.126806 0.331050
O O11 0.234166 0.466179 0.265797
O O12 0.358012 0.319596 0.968607
O O13 0.581123 0.215140 0.989428
O O14 0.707520 0.109307 0.140982
O O15 0.500000 0.000000 0.000000
O O16 0.612424 0.888501 0.195352
O O17 0.000000 0.000000 0.000000
#
# Coordination Sequence:
#
# PCOD9099076 Si02
#       8
#     2   2   2   2   2   2   2   2
#     4  11  23  36  56  91 117 157 203 239 299 365
#     4   9  19  38  65  86 118 159 199 251 304 348
#     4   9  17  37  59  81 120 157 194 244 300 355
#     4  12  21  37  63  89 120 155 202 248 300 355
#     4   9  19  33  59  85 115 154 199 239 295 357
#     4  11  19  39  58  80 122 156 191 249 294 347
#     4   9  19  38  65  87 116 161 204 242 307 360
#     4  10  20  37  59  84 116 155 200 244 293 354
#
# _framework density 25.643568999999999
#
# number of rings (size 3 to 8) (size 9 to 14) (size 15 to 20)
#    0.750    1.250    3.750    0.750    0.000    0.000 
#    4.500    1.875    0.000    0.000    0.000    0.000 
#    0.000    0.000    0.000    0.000    0.000    0.000 
#
# Total GULP energy -89176.287423 kJ/mol
# GULP energy per Si atom -5573.517964 kJ/mol
# Density = 2.558520 g / cm^3
# Si number density = 25.643569 Si / 1000 Ang^3
#
#
#
# Elastic Constant Matrix: (Units=GPa)
#
#
# Indices 1 2 3 4 5 6 
#
# 1 69.5417 20.7726 36.5326 -0.7047 16.6764 -16.5782
# 2 20.7726 62.8487 33.8737 15.6453 4.8337 -0.6088
# 3 36.5326 33.8737 202.5505 12.6228 27.0446 -4.4610
# 4 -0.7047 15.6453 12.6228 39.7347 2.9446 9.0236
# 5 16.6764 4.8337 27.0446 2.9446 34.9286 -2.9719
# 6 -16.5782 -0.6088 -4.4610 9.0236 -2.9719 39.0463
#
#
#
# Elastic Compliance Matrix: (Units=1/GPa)
#
#
# Indices 1 2 3 4 5 6 
#
# 1 0.020516 -0.005718 -0.001747 0.002021 -0.007192 0.007408
# 2 -0.005718 0.020745 -0.002270 -0.007614 0.002221 -0.000435
# 3 -0.001747 -0.002270 0.006153 -0.000791 -0.003563 -0.000162
# 4 0.002021 -0.007614 -0.000791 0.030103 -0.002389 -0.006490
# 5 -0.007192 0.002221 -0.003563 -0.002389 0.034697 -0.000233
# 6 0.007408 -0.000435 -0.000162 -0.006490 -0.000233 0.030212
#
#
# Mechanical properties :
#
#
# Convention : Reuss Voigt Hill
#
# Bulk Modulus (GPa) = 35.78317 57.47762 46.63040
# Shear Modulus (GPa) = 29.20387 38.99272 34.09829
#
# Velocity S-wave (km/s) = 3.37833 3.90367 3.65046
# Velocity P-wave (km/s) = 5.40387 6.54071 5.99928
#
# Compressibility (1/GPa) = 0.02794610
#
# Stress axis : x y z
#
# Youngs Moduli (GPa) = 48.74131 48.20487 162.51835
#
# Poissons Ratio (x) = 0.27563 0.28387
# Poissons Ratio (y) = 0.27869 0.36886
# Poissons Ratio (z) = 0.08514 0.10941
#
# Static dielectric constant tensor:
#      x y z
#    x 2.248600 0.245460 0.215080 
#    y 0.245460 2.326060 0.121520 
#    z 0.215080 0.121520 2.260810 
# 
# From -- ./inp_files/207562.got.cif
#   From: 2010.05.17/outbox.cif.g08.bks.cpg/sg2_104_cif.got.tgz:207562.got - 2010.06.03 11:33:40.
