data_PCOD9099946
_publ_section_title
;
Structure prediction by ZEFSAII (Michael W. Deem and Ramdas Pophale) SiO2 
 PCOD9099946
Probable space group: P -1
;
_chemical_formula_sum "Si O2"
_cell_formula_units_Z 16
_cell_length_a 8.199063
_cell_length_b 15.117479
_cell_length_c 11.051959
_cell_angle_alpha 37.844303
_cell_angle_beta 90.714857
_cell_angle_gamma 69.935045
_cell_volume 687.375504
_symmetry_space_group_name_H-M "P -1"
_symmetry_group_IT_number 2
_symmetry_cell_setting 'triclinic'
loop_
_space_group_symop_operation_xyz
x,y,z
-x,-y,-z
loop_
_atom_site_type_symbol
_atom_site_label
_atom_site_fract_x
_atom_site_fract_y
_atom_site_fract_z
Si Si1 0.455055 0.855407 0.420198
Si Si2 0.862181 0.708338 0.474147
Si Si3 0.187138 0.946254 0.861193
Si Si4 0.859643 0.146299 0.440933
Si Si5 0.853044 0.475676 0.099616
Si Si6 0.622887 0.273734 0.667708
Si Si7 0.764013 0.514778 0.408435
Si Si8 0.572772 0.795475 0.902284
O O1 0.684761 0.713841 0.535125
O O2 0.352876 0.811408 0.569558
O O3 0.352246 0.864869 0.280516
O O4 0.433227 0.029271 0.281287
O O5 0.033918 0.617470 0.674023
O O6 0.994265 0.611883 0.459739
O O7 0.777587 0.911612 0.238930
O O8 0.236494 0.819195 0.112122
O O9 0.355929 0.840898 0.875341
O O10 0.985622 0.055462 0.665281
O O11 0.824746 0.330391 0.204419
O O12 0.000000 0.000000 0.500000
O O13 0.669853 0.670407 0.923498
O O14 0.000000 0.500000 0.000000
O O15 0.686024 0.397955 0.483521
O O16 0.389234 0.393739 0.578084
O O17 0.697445 0.679920 0.144690
#
# Coordination Sequence:
#
# PCOD9099946 Si02
#       8
#     2   2   2   2   2   2   2   2
#     4  11  22  37  60  90 120 152 201 245 282 348
#     4   9  20  36  56  85 120 157 192 237 297 353
#     4   9  20  38  61  84 116 160 196 236 296 352
#     4  11  24  42  63  88 115 149 202 253 290 345
#     4  10  20  40  63  82 116 157 193 241 305 355
#     4  10  20  37  62  88 118 159 201 241 285 346
#     4   9  19  37  56  83 122 162 192 231 295 348
#     4   9  19  37  58  85 120 156 192 236 295 354
#
# _framework density 23.276944
#
# number of rings (size 3 to 8) (size 9 to 14) (size 15 to 20)
#    0.000    2.250    0.000    3.000    0.000    8.000 
#    0.000   21.250    0.000    2.250    0.000    0.000 
#    0.000    0.000    0.000    0.000    0.000    0.000 
#
# Total GULP energy -89115.487180 kJ/mol
# GULP energy per Si atom -5569.717949 kJ/mol
# Density = 2.322396 g / cm^3
# Si number density = 23.276944 Si / 1000 Ang^3
#
#
#
# Elastic Constant Matrix: (Units=GPa)
#
#
# Indices 1 2 3 4 5 6 
#
# 1 99.6076 68.9572 35.2206 -6.3162 -11.1207 -45.3952
# 2 68.9572 137.0519 23.7818 -24.8021 -3.4343 -31.2024
# 3 35.2206 23.7818 59.2846 -7.1151 -8.7568 -7.2882
# 4 -6.3162 -24.8021 -7.1151 31.3331 -2.9884 4.1115
# 5 -11.1207 -3.4343 -8.7568 -2.9884 33.9813 2.0069
# 6 -45.3952 -31.2024 -7.2882 4.1115 2.0069 50.9278
#
#
#
# Elastic Compliance Matrix: (Units=1/GPa)
#
#
# Indices 1 2 3 4 5 6 
#
# 1 0.029466 -0.009518 -0.011499 -0.006332 0.004030 0.019140
# 2 -0.009518 0.013277 0.001199 0.008917 -0.000628 -0.000873
# 3 -0.011499 0.001199 0.023496 0.005156 0.003262 -0.006698
# 4 -0.006332 0.008917 0.005156 0.039597 0.003805 -0.002790
# 5 0.004030 -0.000628 0.003262 0.003805 0.031734 0.002117
# 6 0.019140 -0.000873 -0.006698 -0.002790 0.002117 0.035345
#
#
# Mechanical properties :
#
#
# Convention : Reuss Voigt Hill
#
# Bulk Modulus (GPa) = 37.59135 61.31814 49.45475
# Shear Modulus (GPa) = 22.58185 34.44742 28.51463
#
# Velocity S-wave (km/s) = 3.11808 3.85111 3.50382
# Velocity P-wave (km/s) = 5.39888 6.79521 6.13689
#
# Compressibility (1/GPa) = 0.02660187
#
# Stress axis : x y z
#
# Youngs Moduli (GPa) = 33.93781 75.32093 42.56103
#
# Poissons Ratio (x) = 0.71687 0.48941
# Poissons Ratio (y) = 0.32300 -0.05101
# Poissons Ratio (z) = 0.39025 -0.09028
#
# Static dielectric constant tensor:
#      x y z
#    x 1.963390 0.013220 0.048990 
#    y 0.013220 1.999880 -0.005160 
#    z 0.048990 -0.005160 1.853740 
# 
# From -- ./inp_files/396936.got.cif
#   From: 2010.05.17/outbox.cif.g08.bks.cpg/sg2_199_cif.got.tgz:396936.got - 2010.06.03 11:33:40.
