data_PCOD9099635
_publ_section_title
;
Structure prediction by ZEFSAII (Michael W. Deem and Ramdas Pophale) SiO2 
 PCOD9099635
Probable space group: P -1
;
_chemical_formula_sum "Si O2"
_cell_formula_units_Z 16
_cell_length_a 13.141363
_cell_length_b 12.132965
_cell_length_c 8.224800
_cell_angle_alpha 115.809283
_cell_angle_beta 100.805427
_cell_angle_gamma 130.856412
_cell_volume 643.222989
_symmetry_space_group_name_H-M "P -1"
_symmetry_group_IT_number 2
_symmetry_cell_setting 'triclinic'
loop_
_space_group_symop_operation_xyz
x,y,z
-x,-y,-z
loop_
_atom_site_type_symbol
_atom_site_label
_atom_site_fract_x
_atom_site_fract_y
_atom_site_fract_z
Si Si1 0.239281 0.811292 0.644164
Si Si2 0.893728 0.045975 0.396478
Si Si3 0.293918 0.284911 0.155492
Si Si4 0.552682 0.665933 0.234127
Si Si5 0.528881 0.956762 0.648037
Si Si6 0.116054 0.638335 0.864190
Si Si7 0.402048 0.598856 0.566498
Si Si8 0.278497 0.534891 0.851808
O O1 0.183123 0.895994 0.646775
O O2 0.446761 0.973063 0.766794
O O3 0.182380 0.732483 0.761699
O O4 0.105908 0.590437 0.353734
O O5 0.111718 0.271278 0.641620
O O6 0.771085 0.900057 0.426953
O O7 0.841128 0.897421 0.142737
O O8 0.462233 0.531195 0.284653
O O9 0.243618 0.340043 0.307153
O O10 0.399993 0.272797 0.252957
O O11 0.500000 0.500000 0.000000
O O12 0.438223 0.661659 0.110740
O O13 0.429548 0.733756 0.530354
O O14 0.500000 0.000000 0.500000
O O15 0.751360 0.148253 0.849451
O O16 0.181653 0.566919 0.883430
O O17 0.346308 0.599256 0.726581
#
# Coordination Sequence:
#
# PCOD9099635 Si02
#       8
#     2   2   2   2   2   2   2   2
#     4  10  21  40  67  95 121 156 214 264 306 373
#     4  10  21  37  66  92 120 162 203 254 309 360
#     4  10  23  41  63  87 131 165 204 253 305 367
#     4  10  20  37  61  87 119 157 202 260 292 357
#     4  12  26  40  67  92 128 169 203 256 326 371
#     4  10  22  39  65  95 120 159 212 261 309 373
#     4  11  23  42  60  92 125 168 208 248 306 378
#     4  11  21  38  65  92 122 158 210 256 305 368
#
# _framework density 24.874732000000002
#
# number of rings (size 3 to 8) (size 9 to 14) (size 15 to 20)
#    0.000    1.500    3.750    1.875    3.500    3.000 
#    0.000    0.000    0.000    0.000    0.000    0.000 
#    0.000    0.000    0.000    0.000    0.000    0.000 
#
# Total GULP energy -89336.190318 kJ/mol
# GULP energy per Si atom -5583.511895 kJ/mol
# Density = 2.481812 g / cm^3
# Si number density = 24.874732 Si / 1000 Ang^3
#
#
#
# Elastic Constant Matrix: (Units=GPa)
#
#
# Indices 1 2 3 4 5 6 
#
# 1 61.3968 15.6290 6.9118 0.7714 -5.8276 -27.5193
# 2 15.6290 117.6641 16.8352 0.3268 15.2108 -12.6585
# 3 6.9118 16.8352 82.6813 21.5544 11.9290 10.9428
# 4 0.7714 0.3268 21.5544 30.7108 -1.3026 1.7257
# 5 -5.8276 15.2108 11.9290 -1.3026 30.4810 -1.4684
# 6 -27.5193 -12.6585 10.9428 1.7257 -1.4684 32.5269
#
#
#
# Elastic Compliance Matrix: (Units=1/GPa)
#
#
# Indices 1 2 3 4 5 6 
#
# 1 0.032393 -0.001271 -0.009436 0.004632 0.012182 0.030390
# 2 -0.001271 0.009827 -0.001956 0.000944 -0.004188 0.003168
# 3 -0.009436 -0.001956 0.020297 -0.013555 -0.010088 -0.015309
# 4 0.004632 0.000944 -0.013555 0.041890 0.007846 0.006978
# 5 0.012182 -0.004188 -0.010088 0.007846 0.042163 0.013558
# 6 0.030390 0.003168 -0.015309 0.006978 0.013558 0.063081
#
#
# Mechanical properties :
#
#
# Convention : Reuss Voigt Hill
#
# Bulk Modulus (GPa) = 26.88816 37.83269 32.36042
# Shear Modulus (GPa) = 20.21231 33.56815 26.89023
#
# Velocity S-wave (km/s) = 2.85364 3.67752 3.29146
# Velocity P-wave (km/s) = 4.65732 5.76841 5.24238
#
# Compressibility (1/GPa) = 0.03719110
#
# Stress axis : x y z
#
# Youngs Moduli (GPa) = 30.87095 101.75972 49.26788
#
# Poissons Ratio (x) = 0.12931 0.46491
# Poissons Ratio (y) = 0.03923 0.09636
# Poissons Ratio (z) = 0.29131 0.19903
#
# Static dielectric constant tensor:
#      x y z
#    x 2.012930 -0.037040 -0.070210 
#    y -0.037040 1.881810 0.105830 
#    z -0.070210 0.105830 2.012610 
# 
# From -- ./inp_files/308145.got.cif
#   From: 2010.05.17/outbox.cif.g08.bks.cpg/sg2_155_cif.got.tgz:308145.got - 2010.06.03 11:33:40.
