data_PCOD9099891
_publ_section_title
;
Structure prediction by ZEFSAII (Michael W. Deem and Ramdas Pophale) SiO2 
 PCOD9099891
Probable space group: P -1
;
_chemical_formula_sum "Si O2"
_cell_formula_units_Z 14
_cell_length_a 8.894247
_cell_length_b 9.133250
_cell_length_c 11.859107
_cell_angle_alpha 133.518242
_cell_angle_beta 115.033989
_cell_angle_gamma 80.748853
_cell_volume 620.321690
_symmetry_space_group_name_H-M "P -1"
_symmetry_group_IT_number 2
_symmetry_cell_setting 'triclinic'
loop_
_space_group_symop_operation_xyz
x,y,z
-x,-y,-z
loop_
_atom_site_type_symbol
_atom_site_label
_atom_site_fract_x
_atom_site_fract_y
_atom_site_fract_z
Si Si1 0.162767 0.030731 0.491208
Si Si2 0.730982 0.900720 0.817722
Si Si3 0.140764 0.434635 0.588854
Si Si4 0.469406 0.897927 0.312293
Si Si5 0.223759 0.599622 0.193401
Si Si6 0.503672 0.573838 0.670970
Si Si7 0.006294 0.671940 0.861176
O O1 0.142833 0.193561 0.473944
O O2 0.337462 0.116095 0.661031
O O3 0.167470 0.806456 0.325500
O O4 0.000000 0.000000 0.500000
O O5 0.599622 0.812577 0.828110
O O6 0.851227 0.730788 0.769038
O O7 0.609694 0.942033 0.700715
O O8 0.858369 0.116770 0.983388
O O9 0.322983 0.540539 0.654853
O O10 0.091857 0.508083 0.735798
O O11 0.000000 0.500000 0.500000
O O12 0.330736 0.682739 0.158328
O O13 0.500000 0.000000 0.500000
O O14 0.376934 0.551067 0.291549
O O15 0.070118 0.414030 0.086340
O O16 0.500000 0.500000 0.500000
#
# Coordination Sequence:
#
# PCOD9099891 Si02
#       7
#     2   2   2   2   2   2   2
#     4  11  22  37  59  94 123 153 202 266 309 355
#     4  10  23  42  65  88 127 168 208 249 310 372
#     4  12  25  37  63  94 122 160 212 258 312 361
#     4  10  21  36  64  91 118 161 205 253 303 368
#     4  10  20  37  62  85 124 157 204 251 308 367
#     4  11  22  39  63  92 119 163 206 256 307 372
#     4  10  23  43  61  91 127 168 205 255 306 374
#
# _framework density 22.568936000000001
#
# number of rings (size 3 to 8) (size 9 to 14) (size 15 to 20)
#    0.000    1.429    2.857    3.429    8.000    1.143 
#    0.000    0.714    0.000    0.000    0.000    0.000 
#    0.000    0.000    0.000    0.000    0.000    0.000 
#
# Total GULP energy -78041.233123 kJ/mol
# GULP energy per Si atom -5574.373795 kJ/mol
# Density = 2.251757 g / cm^3
# Si number density = 22.568936 Si / 1000 Ang^3
#
#
#
# Elastic Constant Matrix: (Units=GPa)
#
#
# Indices 1 2 3 4 5 6 
#
# 1 150.1916 46.5187 31.9000 9.5948 52.0140 5.4807
# 2 46.5187 179.1423 28.6011 10.6675 24.0084 1.3674
# 3 31.9000 28.6011 46.5685 17.0713 35.8701 4.0117
# 4 9.5948 10.6675 17.0713 38.0664 12.2823 14.1480
# 5 52.0140 24.0084 35.8701 12.2823 40.9966 11.3244
# 6 5.4807 1.3674 4.0117 14.1480 11.3244 40.1782
#
#
#
# Elastic Compliance Matrix: (Units=1/GPa)
#
#
# Indices 1 2 3 4 5 6 
#
# 1 0.016041 -0.002161 0.019604 -0.002945 -0.037434 0.007516
# 2 -0.002161 0.006499 -0.005429 0.000120 0.003786 -0.000494
# 3 0.019604 -0.005429 0.107315 -0.024580 -0.116000 0.028146
# 4 -0.002945 0.000120 -0.024580 0.037963 0.018113 -0.015621
# 5 -0.037434 0.003786 -0.116000 0.018113 0.176679 -0.039616
# 6 0.007516 -0.000494 0.028146 -0.015621 -0.039616 0.037737
#
#
# Mechanical properties :
#
#
# Convention : Reuss Voigt Hill
#
# Bulk Modulus (GPa) = 6.49837 65.54911 36.02374
# Shear Modulus (GPa) = 12.20996 41.77374 26.99185
#
# Velocity S-wave (km/s) = 2.32848 4.30692 3.46204
# Velocity P-wave (km/s) = 3.18036 7.33756 5.65484
#
# Compressibility (1/GPa) = 0.15388466
#
# Stress axis : x y z
#
# Youngs Moduli (GPa) = 62.33916 153.86356 9.31833
#
# Poissons Ratio (x) = 0.33245 -0.18268
# Poissons Ratio (y) = 0.13469 0.05059
# Poissons Ratio (z) = -1.22211 0.83537
#
# Static dielectric constant tensor:
#      x y z
#    x 1.945270 -0.010100 0.059650 
#    y -0.010100 1.888060 -0.014580 
#    z 0.059650 -0.014580 1.929370 
# 
# From -- ./inp_files/206298.got.cif
#   From: 2010.05.17/outbox.cif.g08.bks.cpg/sg2_104_cif.got.tgz:206298.got - 2010.06.03 11:33:40.
