data_PCOD9099849
_publ_section_title
;
Structure prediction by ZEFSAII (Michael W. Deem and Ramdas Pophale) SiO2 
 PCOD9099849
Probable space group: P -1
;
_chemical_formula_sum "Si O2"
_cell_formula_units_Z 16
_cell_length_a 11.247287
_cell_length_b 6.976274
_cell_length_c 10.292085
_cell_angle_alpha 65.024018
_cell_angle_beta 115.276590
_cell_angle_gamma 111.751136
_cell_volume 643.869841
_symmetry_space_group_name_H-M "P -1"
_symmetry_group_IT_number 2
_symmetry_cell_setting 'triclinic'
loop_
_space_group_symop_operation_xyz
x,y,z
-x,-y,-z
loop_
_atom_site_type_symbol
_atom_site_label
_atom_site_fract_x
_atom_site_fract_y
_atom_site_fract_z
Si Si1 0.021264 0.760708 0.095892
Si Si2 0.128998 0.673877 0.892100
Si Si3 0.054273 0.281435 0.585921
Si Si4 0.605635 0.793977 0.585393
Si Si5 0.473623 0.313753 0.699686
Si Si6 0.125027 0.182498 0.383669
Si Si7 0.280297 0.116426 0.885839
Si Si8 0.694951 0.093342 0.772281
O O1 0.885974 0.570381 0.091383
O O2 0.153268 0.794047 0.240289
O O3 0.092505 0.693266 0.019557
O O4 0.000000 0.000000 0.000000
O O5 0.004792 0.736084 0.743337
O O6 0.254741 0.875063 0.876577
O O7 0.153627 0.287755 0.508059
O O8 0.145468 0.207567 0.763750
O O9 0.000000 0.500000 0.500000
O O10 0.927598 0.077984 0.559710
O O11 0.494051 0.572884 0.619458
O O12 0.605664 0.823002 0.420493
O O13 0.756412 0.752127 0.682614
O O14 0.609680 0.979525 0.640913
O O15 0.406557 0.251009 0.825669
O O16 0.618873 0.258835 0.758641
O O17 0.300252 0.080418 0.059139
#
# Coordination Sequence:
#
# PCOD9099849 Si02
#       8
#     2   2   2   2   2   2   2   2
#     4  10  20  37  61  98 134 166 213 267 333 403
#     4   9  20  36  63  93 129 172 208 265 338 396
#     4  10  22  41  65  97 131 172 216 271 338 405
#     4  11  24  43  69  95 134 174 231 283 327 397
#     4  11  24  46  67  94 133 185 227 277 336 393
#     4  10  20  39  63  94 128 167 217 271 330 395
#     4  10  22  45  68  97 139 176 227 280 337 405
#     4  11  24  41  69  99 132 175 226 280 333 400
#
# _framework density 24.849741999999999
#
# number of rings (size 3 to 8) (size 9 to 14) (size 15 to 20)
#    0.000    1.750    1.250    2.250    0.000    7.500 
#    2.250    5.000    0.000    0.000    0.000    0.000 
#    0.000    0.000    0.000    0.000    0.000    0.000 
#
# Total GULP energy -89249.967388 kJ/mol
# GULP energy per Si atom -5578.122962 kJ/mol
# Density = 2.479318 g / cm^3
# Si number density = 24.849742 Si / 1000 Ang^3
#
#
#
# Elastic Constant Matrix: (Units=GPa)
#
#
# Indices 1 2 3 4 5 6 
#
# 1 48.6000 21.7251 -14.7497 -6.5685 -8.0568 -6.7688
# 2 21.7251 149.2942 14.7097 -9.4744 -5.1015 -15.9810
# 3 -14.7497 14.7097 81.6283 9.5577 -1.0465 -4.8070
# 4 -6.5685 -9.4744 9.5577 38.9333 -3.0385 -1.0170
# 5 -8.0568 -5.1015 -1.0465 -3.0385 37.3743 -4.6214
# 6 -6.7688 -15.9810 -4.8070 -1.0170 -4.6214 34.3336
#
#
#
# Elastic Compliance Matrix: (Units=1/GPa)
#
#
# Indices 1 2 3 4 5 6 
#
# 1 0.025803 -0.003332 0.005313 0.002852 0.006130 0.005189
# 2 -0.003332 0.007849 -0.002070 0.001995 0.000813 0.002875
# 3 0.005313 -0.002070 0.014066 -0.002904 0.001285 0.002140
# 4 0.002852 0.001995 -0.002904 0.027687 0.003348 0.002355
# 5 0.006130 0.000813 0.001285 0.003348 0.029214 0.005798
# 6 0.005189 0.002875 0.002140 0.002355 0.005798 0.032637
#
#
# Mechanical properties :
#
#
# Convention : Reuss Voigt Hill
#
# Bulk Modulus (GPa) = 21.03539 35.87696 28.45618
# Shear Modulus (GPa) = 32.61962 39.31740 35.96851
#
# Velocity S-wave (km/s) = 3.62702 3.98201 3.80865
# Velocity P-wave (km/s) = 5.10135 5.96748 5.55133
#
# Compressibility (1/GPa) = 0.04753894
#
# Stress axis : x y z
#
# Youngs Moduli (GPa) = 38.75579 127.40107 71.09148
#
# Poissons Ratio (x) = 0.42454 -0.37772
# Poissons Ratio (y) = 0.12915 0.14719
# Poissons Ratio (z) = -0.20591 0.26377
#
# Static dielectric constant tensor:
#      x y z
#    x 2.052110 0.053050 0.043660 
#    y 0.053050 2.051460 0.032720 
#    z 0.043660 0.032720 2.169050 
# 
# From -- ./inp_files/410123.got.cif
#   From: 2010.05.17/outbox.cif.g08.bks.cpg/sg2_206_cif.got.tgz:410123.got - 2010.06.03 11:33:40.
