data_PCOD9099339
_publ_section_title
;
Structure prediction by ZEFSAII (Michael W. Deem and Ramdas Pophale) SiO2 
 PCOD9099339
Probable space group: P -1
;
_chemical_formula_sum "Si O2"
_cell_formula_units_Z 16
_cell_length_a 9.437367
_cell_length_b 14.935123
_cell_length_c 9.367245
_cell_angle_alpha 41.599258
_cell_angle_beta 75.832449
_cell_angle_gamma 93.703429
_cell_volume 784.506895
_symmetry_space_group_name_H-M "P -1"
_symmetry_group_IT_number 2
_symmetry_cell_setting 'triclinic'
loop_
_space_group_symop_operation_xyz
x,y,z
-x,-y,-z
loop_
_atom_site_type_symbol
_atom_site_label
_atom_site_fract_x
_atom_site_fract_y
_atom_site_fract_z
Si Si1 0.338548 0.480987 0.486723
Si Si2 0.508198 0.855343 0.602869
Si Si3 0.168082 0.661442 0.913315
Si Si4 0.865140 0.643004 0.848879
Si Si5 0.162457 0.107075 0.644548
Si Si6 0.526872 0.575290 0.058430
Si Si7 0.938514 0.813919 0.126570
Si Si8 0.147879 0.653348 0.267010
O O1 0.500000 0.500000 0.500000
O O2 0.385475 0.482251 0.306727
O O3 0.193413 0.330521 0.735765
O O4 0.286285 0.618679 0.350741
O O5 0.336966 0.765472 0.682641
O O6 0.664720 0.894855 0.421956
O O7 0.500000 0.000000 0.500000
O O8 0.525933 0.736671 0.850979
O O9 0.020958 0.690115 0.850519
O O10 0.139107 0.494657 0.080708
O O11 0.179380 0.683704 0.054450
O O12 0.858721 0.770835 0.596549
O O13 0.701670 0.589317 0.043335
O O14 0.141114 0.141253 0.773354
O O15 0.022882 0.949482 0.840173
O O16 0.500000 0.500000 0.000000
O O17 0.082608 0.771083 0.200231
O O18 0.000000 0.500000 0.500000
#
# Coordination Sequence:
#
# PCOD9099339 Si02
#       8
#     2   2   2   2   2   2   2   2
#     4  11  23  38  63  96 123 160 210 268 314 375
#     4  11  22  39  64  93 122 163 208 260 318 379
#     4  11  21  39  62  95 123 160 211 262 316 369
#     4  10  22  36  63  95 122 159 209 265 309 372
#     4  10  22  42  62  89 121 168 211 252 314 384
#     4  11  20  40  65  92 127 167 211 257 316 386
#     4  10  22  41  64  84 125 168 206 251 317 386
#     4  10  20  37  60  85 123 163 201 249 313 380
#
# _framework density 20.394978999999999
#
# number of rings (size 3 to 8) (size 9 to 14) (size 15 to 20)
#    0.000    1.500    2.500    3.750    3.500    0.000 
#    2.250    1.875    0.000    3.000    0.000    0.000 
#    0.000    0.000    0.000    0.000    0.000    0.000 
#
# Total GULP energy -89306.995481 kJ/mol
# GULP energy per Si atom -5581.687218 kJ/mol
# Density = 2.034856 g / cm^3
# Si number density = 20.394979 Si / 1000 Ang^3
#
#
#
# Elastic Constant Matrix: (Units=GPa)
#
#
# Indices 1 2 3 4 5 6 
#
# 1 176.3769 38.0033 36.6262 -9.5697 -3.5892 -13.4985
# 2 38.0033 69.1974 29.0983 -12.5714 1.5476 -19.6546
# 3 36.6262 29.0983 84.4916 -19.8268 -22.7854 -4.9285
# 4 -9.5697 -12.5714 -19.8268 28.3992 -6.8626 -1.9447
# 5 -3.5892 1.5476 -22.7854 -6.8626 34.9222 0.1160
# 6 -13.4985 -19.6546 -4.9285 -1.9447 0.1160 34.3679
#
#
#
# Elastic Compliance Matrix: (Units=1/GPa)
#
#
# Indices 1 2 3 4 5 6 
#
# 1 0.006724 -0.002571 -0.002389 -0.000702 -0.000895 0.000791
# 2 -0.002571 0.022570 -0.006111 0.004570 -0.004391 0.011295
# 3 -0.002389 -0.006111 0.024630 0.018456 0.019722 0.000076
# 4 -0.000702 0.004570 0.018456 0.055929 0.022731 0.008073
# 5 -0.000895 -0.004391 0.019722 0.022731 0.046068 0.001096
# 6 0.000791 0.011295 0.000076 0.008073 0.001096 0.036331
#
#
# Mechanical properties :
#
#
# Convention : Reuss Voigt Hill
#
# Bulk Modulus (GPa) = 31.46588 59.72461 45.59524
# Shear Modulus (GPa) = 22.22335 34.62707 28.42521
#
# Velocity S-wave (km/s) = 3.30456 4.12494 3.73733
# Velocity P-wave (km/s) = 5.47923 7.21348 6.40532
#
# Compressibility (1/GPa) = 0.03178046
#
# Stress axis : x y z
#
# Youngs Moduli (GPa) = 148.72027 44.30675 40.60161
#
# Poissons Ratio (x) = 0.11391 0.09701
# Poissons Ratio (y) = 0.38236 0.24813
# Poissons Ratio (z) = 0.35533 0.27077
#
# Static dielectric constant tensor:
#      x y z
#    x 1.773000 -0.019600 -0.014650 
#    y -0.019600 1.750660 -0.004090 
#    z -0.014650 -0.004090 1.758500 
# 
# From -- ./inp_files/205184.got.cif
#   From: 2010.05.17/outbox.cif.g08.bks.cpg/sg2_103_cif.got.tgz:205184.got - 2010.06.03 11:33:40.
