data_PCOD9099330
_publ_section_title
;
Structure prediction by ZEFSAII (Michael W. Deem and Ramdas Pophale) SiO2 
 PCOD9099330
Probable space group: P -1
;
_chemical_formula_sum "Si O2"
_cell_formula_units_Z 16
_cell_length_a 11.196441
_cell_length_b 12.214620
_cell_length_c 7.410160
_cell_angle_alpha 123.462529
_cell_angle_beta 120.373978
_cell_angle_gamma 52.633191
_cell_volume 649.196331
_symmetry_space_group_name_H-M "P -1"
_symmetry_group_IT_number 2
_symmetry_cell_setting 'triclinic'
loop_
_space_group_symop_operation_xyz
x,y,z
-x,-y,-z
loop_
_atom_site_type_symbol
_atom_site_label
_atom_site_fract_x
_atom_site_fract_y
_atom_site_fract_z
Si Si1 0.082970 0.616451 0.882497
Si Si2 0.205789 0.416643 0.344698
Si Si3 0.970955 0.253160 0.641186
Si Si4 0.440972 0.981391 0.136420
Si Si5 0.524961 0.220856 0.536449
Si Si6 0.274569 0.835860 0.726992
Si Si7 0.743461 0.713086 0.135350
Si Si8 0.357620 0.651915 0.961851
O O1 0.053243 0.706998 0.128828
O O2 0.190682 0.657742 0.877703
O O3 0.183349 0.443290 0.852088
O O4 0.918576 0.628690 0.701037
O O5 0.119896 0.586931 0.378659
O O6 0.364873 0.371449 0.528712
O O7 0.250917 0.328496 0.109231
O O8 0.893621 0.151362 0.430886
O O9 0.149592 0.204218 0.686139
O O10 0.570890 0.822807 0.156710
O O11 0.456111 0.103345 0.378617
O O12 0.283933 0.969928 0.963094
O O13 0.500000 0.000000 0.000000
O O14 0.629449 0.193501 0.411591
O O15 0.626263 0.229149 0.785589
O O16 0.361157 0.695231 0.797141
O O17 0.500000 0.500000 0.000000
#
# Coordination Sequence:
#
# PCOD9099330 Si02
#       8
#     2   2   2   2   2   2   2   2
#     4   9  19  36  58  89 122 151 195 243 301 354
#     4   9  17  33  62  86 118 157 192 244 296 353
#     4   9  18  33  60  87 117 154 189 250 301 338
#     4  10  20  37  60  85 117 160 206 241 282 356
#     4  11  23  41  62  87 119 161 199 243 301 340
#     4  11  22  39  59  88 121 154 199 248 286 358
#     4   9  16  33  59  91 113 155 205 233 290 360
#     4  12  25  37  61  94 122 153 195 248 305 357
#
# _framework density 24.645855999999998
#
# number of rings (size 3 to 8) (size 9 to 14) (size 15 to 20)
#    0.000    2.000    3.750    3.000    1.750    1.500 
#    0.000   10.625    0.000    1.500    0.000    0.000 
#    0.000    0.000    0.000    0.000    0.000    0.000 
#
# Total GULP energy -89531.709689 kJ/mol
# GULP energy per Si atom -5595.731856 kJ/mol
# Density = 2.458976 g / cm^3
# Si number density = 24.645856 Si / 1000 Ang^3
#
#
#
# Elastic Constant Matrix: (Units=GPa)
#
#
# Indices 1 2 3 4 5 6 
#
# 1 122.8834 2.8839 58.7991 -0.1570 25.2707 7.6696
# 2 2.8839 40.3753 1.5661 -3.5163 -1.7690 3.2754
# 3 58.7991 1.5661 142.2114 3.9815 21.8265 7.6207
# 4 -0.1570 -3.5163 3.9815 28.2126 4.2887 4.7119
# 5 25.2707 -1.7690 21.8265 4.2887 48.6918 -2.7056
# 6 7.6696 3.2754 7.6207 4.7119 -2.7056 19.3384
#
#
#
# Elastic Compliance Matrix: (Units=1/GPa)
#
#
# Indices 1 2 3 4 5 6 
#
# 1 0.011109 -0.000359 -0.003741 0.001888 -0.004488 -0.003959
# 2 -0.000359 0.025573 -0.000051 0.003961 0.000508 -0.005063
# 3 -0.003741 -0.000051 0.009052 -0.000598 -0.002189 -0.002235
# 4 0.001888 0.003961 -0.000598 0.038608 -0.004593 -0.011234
# 5 -0.004488 0.000508 -0.002189 -0.004593 0.024667 0.007127
# 6 -0.003959 -0.005063 -0.002235 -0.011234 0.007127 0.058753
#
#
# Mechanical properties :
#
#
# Convention : Reuss Voigt Hill
#
# Bulk Modulus (GPa) = 26.71551 47.99647 37.35599
# Shear Modulus (GPa) = 26.51950 35.39664 30.95807
#
# Velocity S-wave (km/s) = 3.28384 3.79385 3.54802
# Velocity P-wave (km/s) = 5.02408 6.22156 5.65461
#
# Compressibility (1/GPa) = 0.03743145
#
# Stress axis : x y z
#
# Youngs Moduli (GPa) = 90.01990 39.10347 110.47716
#
# Poissons Ratio (x) = 0.01405 0.41330
# Poissons Ratio (y) = 0.03235 0.00559
# Poissons Ratio (z) = 0.33677 0.00198
#
# Static dielectric constant tensor:
#      x y z
#    x 1.934450 0.056110 0.011040 
#    y 0.056110 1.992800 0.013080 
#    z 0.011040 0.013080 1.977900 
# 
# From -- ./inp_files/274484.got.cif
#   From: 2010.05.17/outbox.cif.g08.bks.cpg/sg2_138_cif.got.tgz:274484.got - 2010.06.03 11:33:40.
