data_PCOD9099732
_publ_section_title
;
Structure prediction by ZEFSAII (Michael W. Deem and Ramdas Pophale) SiO2 
 PCOD9099732
Probable space group: P -1
;
_chemical_formula_sum "Si O2"
_cell_formula_units_Z 16
_cell_length_a 14.487148
_cell_length_b 9.455148
_cell_length_c 8.492559
_cell_angle_alpha 56.172745
_cell_angle_beta 38.901362
_cell_angle_gamma 56.045101
_cell_volume 589.096643
_symmetry_space_group_name_H-M "P -1"
_symmetry_group_IT_number 2
_symmetry_cell_setting 'triclinic'
loop_
_space_group_symop_operation_xyz
x,y,z
-x,-y,-z
loop_
_atom_site_type_symbol
_atom_site_label
_atom_site_fract_x
_atom_site_fract_y
_atom_site_fract_z
Si Si1 0.330425 0.985592 0.189620
Si Si2 0.831245 0.207719 0.716123
Si Si3 0.105206 0.310142 0.132695
Si Si4 0.586657 0.416996 0.144349
Si Si5 0.980909 0.621079 0.293541
Si Si6 0.616631 0.721524 0.740749
Si Si7 0.911625 0.903176 0.005623
Si Si8 0.354584 0.911189 0.544533
O O1 0.232981 0.172606 0.142798
O O2 0.276828 0.934183 0.463555
O O3 0.287030 0.855561 0.199291
O O4 0.500000 0.000000 0.000000
O O5 0.937726 0.297536 0.417205
O O6 0.945607 0.038116 0.747258
O O7 0.740201 0.333646 0.892854
O O8 0.118559 0.254834 0.967570
O O9 0.096954 0.502088 0.088926
O O10 0.452127 0.375504 0.244338
O O11 0.581734 0.295412 0.378170
O O12 0.581510 0.623250 0.008723
O O13 0.796821 0.681852 0.501878
O O14 0.000000 0.500000 0.500000
O O15 0.007221 0.811677 0.085724
O O16 0.553740 0.932792 0.673881
O O17 0.755240 0.017917 0.209520
#
# Coordination Sequence:
#
# PCOD9099732 Si02
#       8
#     2   2   2   2   2   2   2   2
#     4  11  23  39  64  91 125 161 201 262 322 367
#     4  10  21  41  63  90 122 167 207 253 312 375
#     4  11  21  41  61  89 124 164 206 256 309 383
#     4  10  20  38  65  91 119 165 213 251 310 378
#     4  11  22  38  58  91 125 159 203 263 317 362
#     4  10  20  37  61  90 123 160 205 260 305 369
#     4   9  20  37  61  87 115 165 207 245 307 380
#     4  10  21  39  62  94 120 161 209 262 312 374
#
# _framework density 27.160229999999999
#
# number of rings (size 3 to 8) (size 9 to 14) (size 15 to 20)
#    0.000    1.750    1.250    4.500    0.000    4.000 
#    4.500    3.750    0.000    3.750    0.000    0.000 
#    0.000    0.000    0.000    0.000    0.000    0.000 
#
# Total GULP energy -89256.382041 kJ/mol
# GULP energy per Si atom -5578.523878 kJ/mol
# Density = 2.709841 g / cm^3
# Si number density = 27.160230 Si / 1000 Ang^3
#
#
#
# Elastic Constant Matrix: (Units=GPa)
#
#
# Indices 1 2 3 4 5 6 
#
# 1 111.9946 20.8219 32.3864 -7.3639 6.2182 -20.3579
# 2 20.8219 118.3003 24.6804 -38.7772 4.0800 -23.0249
# 3 32.3864 24.6804 87.0156 -25.6596 -1.2826 -10.3271
# 4 -7.3639 -38.7772 -25.6596 55.5246 -7.6662 7.0276
# 5 6.2182 4.0800 -1.2826 -7.6662 52.9597 -2.8488
# 6 -20.3579 -23.0249 -10.3271 7.0276 -2.8488 52.2256
#
#
#
# Elastic Compliance Matrix: (Units=1/GPa)
#
#
# Indices 1 2 3 4 5 6 
#
# 1 0.010764 -0.000957 -0.003854 -0.001607 -0.001346 0.003155
# 2 -0.000957 0.011915 -0.000311 0.007636 0.000498 0.003818
# 3 -0.003854 -0.000311 0.014988 0.006374 0.001793 0.000564
# 4 -0.001607 0.007636 0.006374 0.026496 0.003624 0.000633
# 5 -0.001346 0.000498 0.001793 0.003624 0.019604 0.000631
# 6 0.003155 0.003818 0.000564 0.000633 0.000631 0.022122
#
#
# Mechanical properties :
#
#
# Convention : Reuss Voigt Hill
#
# Bulk Modulus (GPa) = 36.46572 52.56533 44.51552
# Shear Modulus (GPa) = 39.91251 48.10342 44.00797
#
# Velocity S-wave (km/s) = 3.83759 4.21301 4.02967
# Velocity P-wave (km/s) = 5.75252 6.56214 6.17062
#
# Compressibility (1/GPa) = 0.02742301
#
# Stress axis : x y z
#
# Youngs Moduli (GPa) = 92.90242 83.92485 66.72043
#
# Poissons Ratio (x) = 0.08030 0.25715
# Poissons Ratio (y) = 0.08889 0.02076
# Poissons Ratio (z) = 0.35806 0.02612
#
# Static dielectric constant tensor:
#      x y z
#    x 2.232070 0.047020 0.028480 
#    y 0.047020 2.212810 -0.055240 
#    z 0.028480 -0.055240 2.233310 
# 
# From -- ./inp_files/306416.got.cif
#   From: 2010.05.17/outbox.cif.g08.bks.cpg/sg2_154_cif.got.tgz:306416.got - 2010.06.03 11:33:40.
