data_PCOD9099791
_publ_section_title
;
Structure prediction by ZEFSAII (Michael W. Deem and Ramdas Pophale) SiO2 
 PCOD9099791
Probable space group: P -1
;
_chemical_formula_sum "Si O2"
_cell_formula_units_Z 16
_cell_length_a 12.658051
_cell_length_b 11.875689
_cell_length_c 7.946680
_cell_angle_alpha 88.940777
_cell_angle_beta 62.134968
_cell_angle_gamma 132.810514
_cell_volume 662.569221
_symmetry_space_group_name_H-M "P -1"
_symmetry_group_IT_number 2
_symmetry_cell_setting 'triclinic'
loop_
_space_group_symop_operation_xyz
x,y,z
-x,-y,-z
loop_
_atom_site_type_symbol
_atom_site_label
_atom_site_fract_x
_atom_site_fract_y
_atom_site_fract_z
Si Si1 0.815794 0.986780 0.316236
Si Si2 0.194466 0.342212 0.157763
Si Si3 0.596032 0.643826 0.713611
Si Si4 0.560107 0.975338 0.679228
Si Si5 0.059881 0.471411 0.225664
Si Si6 0.480782 0.319802 0.683715
Si Si7 0.237950 0.616903 0.737326
Si Si8 0.570091 0.202331 0.876721
O O1 0.724822 0.828293 0.516598
O O2 0.720950 0.037082 0.440364
O O3 0.727316 0.876569 0.211171
O O4 0.042042 0.166574 0.158038
O O5 0.276370 0.314803 0.232868
O O6 0.073001 0.360878 0.312192
O O7 0.389123 0.536583 0.929493
O O8 0.525573 0.483016 0.666133
O O9 0.369611 0.807015 0.722392
O O10 0.548341 0.094408 0.748536
O O11 0.566151 0.917406 0.858337
O O12 0.222905 0.659335 0.196165
O O13 0.880410 0.418847 0.328645
O O14 0.108950 0.480371 0.991959
O O15 0.623970 0.376800 0.435233
O O16 0.532839 0.294174 0.816944
#
# Coordination Sequence:
#
# PCOD9099791 Si02
#       8
#     2   2   2   2   2   2   2   2
#     4  11  25  42  68  97 126 171 219 263 321 381
#     4  11  24  41  71  94 122 178 216 265 316 385
#     4  11  24  46  65  92 134 166 218 273 315 368
#     4   9  21  39  61  90 132 166 205 267 317 382
#     4  10  20  40  60  94 128 168 215 255 323 385
#     4  11  23  39  66  94 127 172 209 268 323 382
#     4   9  21  37  63  91 131 168 204 265 324 380
#     4  10  20  37  61  92 129 173 205 256 329 373
#
# _framework density 24.148420999999999
#
# number of rings (size 3 to 8) (size 9 to 14) (size 15 to 20)
#    0.000    1.750    1.250    3.000    5.250    3.000 
#    0.000    0.000    0.000    0.000    0.000    0.000 
#    0.000    0.000    0.000    0.000    0.000    0.000 
#
# Total GULP energy -89381.367308 kJ/mol
# GULP energy per Si atom -5586.335457 kJ/mol
# Density = 2.409346 g / cm^3
# Si number density = 24.148421 Si / 1000 Ang^3
#
#
#
# Elastic Constant Matrix: (Units=GPa)
#
#
# Indices 1 2 3 4 5 6 
#
# 1 109.9469 17.6888 4.7096 -3.4352 0.9560 16.7476
# 2 17.6888 132.0505 19.5395 11.1811 -26.8397 17.6878
# 3 4.7096 19.5395 44.0240 -0.3759 8.6230 6.8204
# 4 -3.4352 11.1811 -0.3759 39.3232 -1.7925 -7.4997
# 5 0.9560 -26.8397 8.6230 -1.7925 29.7245 -3.8639
# 6 16.7476 17.6878 6.8204 -7.4997 -3.8639 53.0418
#
#
#
# Elastic Compliance Matrix: (Units=1/GPa)
#
#
# Indices 1 2 3 4 5 6 
#
# 1 0.009768 -0.001501 0.000460 0.000673 -0.002114 -0.002702
# 2 -0.001501 0.011972 -0.007294 -0.003447 0.012486 -0.002158
# 3 0.000460 -0.007294 0.029293 0.001233 -0.015339 -0.002423
# 4 0.000673 -0.003447 0.001233 0.027291 -0.001255 0.004546
# 5 -0.002114 0.012486 -0.015339 -0.001255 0.049607 0.001912
# 6 -0.002702 -0.002158 -0.002423 0.004546 0.001912 0.021519
#
#
# Mechanical properties :
#
#
# Convention : Reuss Voigt Hill
#
# Bulk Modulus (GPa) = 29.10132 41.09968 35.10050
# Shear Modulus (GPa) = 28.15707 40.69013 34.42360
#
# Velocity S-wave (km/s) = 3.41838 4.10933 3.77968
# Velocity P-wave (km/s) = 5.25905 6.29063 5.79783
#
# Compressibility (1/GPa) = 0.03436270
#
# Stress axis : x y z
#
# Youngs Moduli (GPa) = 102.37463 83.52838 34.13752
#
# Poissons Ratio (x) = 0.12539 -0.01569
# Poissons Ratio (y) = 0.15368 0.24899
# Poissons Ratio (z) = -0.04705 0.60923
#
# Static dielectric constant tensor:
#      x y z
#    x 1.936060 -0.008890 0.036420 
#    y -0.008890 1.944320 -0.027940 
#    z 0.036420 -0.027940 2.029320 
# 
# From -- ./inp_files/262526.got.cif
#   From: 2010.05.17/outbox.cif.g08.bks.cpg/sg2_132_cif.got.tgz:262526.got - 2010.06.03 11:33:40.
