data_PCOD9099566
_publ_section_title
;
Structure prediction by ZEFSAII (Michael W. Deem and Ramdas Pophale) SiO2 
 PCOD9099566
Probable space group: P -1
;
_chemical_formula_sum "Si O2"
_cell_formula_units_Z 14
_cell_length_a 7.979049
_cell_length_b 17.971164
_cell_length_c 6.095402
_cell_angle_alpha 95.201892
_cell_angle_beta 86.420468
_cell_angle_gamma 135.051780
_cell_volume 614.933508
_symmetry_space_group_name_H-M "P -1"
_symmetry_group_IT_number 2
_symmetry_cell_setting 'triclinic'
loop_
_space_group_symop_operation_xyz
x,y,z
-x,-y,-z
loop_
_atom_site_type_symbol
_atom_site_label
_atom_site_fract_x
_atom_site_fract_y
_atom_site_fract_z
Si Si1 0.325706 0.464077 0.198170
Si Si2 0.882901 0.402118 0.328161
Si Si3 0.512399 0.770380 0.954751
Si Si4 0.653845 0.929535 0.605660
Si Si5 0.779249 0.239511 0.643487
Si Si6 0.138506 0.141764 0.683945
Si Si7 0.266051 0.328275 0.522382
O O1 0.248902 0.364116 0.301245
O O2 0.484770 0.565404 0.373683
O O3 0.089551 0.436075 0.162033
O O4 0.500000 0.500000 0.000000
O O5 0.811580 0.315013 0.481553
O O6 0.000000 0.500000 0.500000
O O7 0.650394 0.342046 0.185631
O O8 0.340693 0.761013 0.135435
O O9 0.726761 0.802077 0.083691
O O10 0.604576 0.861685 0.801798
O O11 0.407160 0.874416 0.494776
O O12 0.774804 0.913031 0.410777
O O13 0.854248 0.051903 0.687165
O O14 0.039891 0.287868 0.669568
O O15 0.236624 0.231037 0.522196
#
# Coordination Sequence:
#
# PCOD9099566 Si02
#       7
#     2   2   2   2   2   2   2
#     4  10  22  41  61  83 122 163 201 249 296 355
#     4  10  22  38  61  88 118 157 206 250 299 354
#     4  10  20  37  61  83 120 154 200 246 297 356
#     4   9  20  38  61  86 121 151 201 251 295 349
#     4   9  20  39  57  85 119 158 190 251 297 354
#     4  10  21  38  59  90 118 156 196 251 303 352
#     4  10  22  39  58  85 123 154 200 241 301 358
#
# _framework density 22.766690000000001
#
# number of rings (size 3 to 8) (size 9 to 14) (size 15 to 20)
#    0.000    2.286    0.000    1.286    6.000    2.286 
#    5.143    0.714    0.000    0.000    0.000    0.000 
#    0.000    0.000    0.000    0.000    0.000    0.000 
#
# Total GULP energy -78175.062091 kJ/mol
# GULP energy per Si atom -5583.933006 kJ/mol
# Density = 2.271487 g / cm^3
# Si number density = 22.766690 Si / 1000 Ang^3
#
#
#
# Elastic Constant Matrix: (Units=GPa)
#
#
# Indices 1 2 3 4 5 6 
#
# 1 52.6105 36.7537 10.5096 14.0881 9.6111 23.4602
# 2 36.7537 137.8411 41.7996 15.2112 22.9495 25.4664
# 3 10.5096 41.7996 64.7962 9.5591 -6.3051 16.9514
# 4 14.0881 15.2112 9.5591 33.6297 14.2410 4.6454
# 5 9.6111 22.9495 -6.3051 14.2410 28.0469 2.9302
# 6 23.4602 25.4664 16.9514 4.6454 2.9302 31.2470
#
#
#
# Elastic Compliance Matrix: (Units=1/GPa)
#
#
# Indices 1 2 3 4 5 6 
#
# 1 0.035019 -0.006155 0.006376 -0.011685 0.002833 -0.023263
# 2 -0.006155 0.013736 -0.009771 0.005106 -0.013843 -0.000734
# 3 0.006376 -0.009771 0.027588 -0.012839 0.019757 -0.011735
# 4 -0.011685 0.005106 -0.012839 0.046610 -0.027482 0.007224
# 5 0.002833 -0.013843 0.019757 -0.027482 0.064777 -0.003552
# 6 -0.023263 -0.000734 -0.011735 0.007224 -0.003552 0.055692
#
#
# Mechanical properties :
#
#
# Convention : Reuss Voigt Hill
#
# Bulk Modulus (GPa) = 17.46934 48.15263 32.81098
# Shear Modulus (GPa) = 17.75552 29.66371 23.70962
#
# Velocity S-wave (km/s) = 2.79568 3.61355 3.23060
# Velocity P-wave (km/s) = 4.25570 6.21343 5.32530
#
# Compressibility (1/GPa) = 0.05724315
#
# Stress axis : x y z
#
# Youngs Moduli (GPa) = 28.55606 72.80338 36.24721
#
# Poissons Ratio (x) = 0.44812 -0.23112
# Poissons Ratio (y) = 0.17577 0.35416
# Poissons Ratio (z) = -0.18208 0.71134
#
# Static dielectric constant tensor:
#      x y z
#    x 1.860270 0.019840 -0.015880 
#    y 0.019840 1.888990 0.060400 
#    z -0.015880 0.060400 1.860290 
# 
# From -- ./inp_files/35530.got.cif
#   From: 2010.05.17/outbox.cif.g08.bks.cpg/sg2_18_cif.got.tgz:35530.got - 2010.06.03 11:33:40.
