data_PCOD9099689
_publ_section_title
;
Structure prediction by ZEFSAII (Michael W. Deem and Ramdas Pophale) SiO2 
 PCOD9099689
Probable space group: P -1
;
_chemical_formula_sum "Si O2"
_cell_formula_units_Z 14
_cell_length_a 9.419792
_cell_length_b 12.413284
_cell_length_c 9.848451
_cell_angle_alpha 65.896567
_cell_angle_beta 117.942007
_cell_angle_gamma 139.344484
_cell_volume 659.998170
_symmetry_space_group_name_H-M "P -1"
_symmetry_group_IT_number 2
_symmetry_cell_setting 'triclinic'
loop_
_space_group_symop_operation_xyz
x,y,z
-x,-y,-z
loop_
_atom_site_type_symbol
_atom_site_label
_atom_site_fract_x
_atom_site_fract_y
_atom_site_fract_z
Si Si1 0.420476 0.425341 0.352849
Si Si2 0.253507 0.838142 0.529019
Si Si3 0.929419 0.088060 0.357679
Si Si4 0.564656 0.681170 0.056043
Si Si5 0.647582 0.968966 0.029894
Si Si6 0.518386 0.280262 0.275934
Si Si7 0.091322 0.898788 0.195069
O O1 0.500000 0.500000 0.500000
O O2 0.483271 0.555337 0.203274
O O3 0.516581 0.350522 0.378996
O O4 0.153471 0.271269 0.319103
O O5 0.197044 0.892754 0.602050
O O6 0.287302 0.718536 0.640871
O O7 0.086990 0.789389 0.357537
O O8 0.500000 0.000000 0.500000
O O9 0.785353 0.993235 0.207800
O O10 0.000000 0.000000 0.500000
O O11 0.500557 0.783104 0.009010
O O12 0.839024 0.816596 0.106035
O O13 0.467739 0.618393 0.893053
O O14 0.500000 0.000000 0.000000
O O15 0.805161 0.083494 0.913247
O O16 0.273686 0.087933 0.240977
#
# Coordination Sequence:
#
# PCOD9099689 Si02
#       7
#     2   2   2   2   2   2   2
#     4  12  25  39  60  92 124 162 206 256 306 357
#     4  10  20  37  61  89 117 154 200 249 299 356
#     4  12  23  41  66  92 123 161 204 254 305 363
#     4  11  22  40  61  88 123 161 203 247 301 369
#     4  11  22  39  65  96 122 155 204 258 305 356
#     4  10  21  40  62  86 120 162 204 249 301 363
#     4  10  20  38  64  89 116 159 205 245 298 366
#
# _framework density 21.212178999999999
#
# number of rings (size 3 to 8) (size 9 to 14) (size 15 to 20)
#    0.000    1.143    0.000   10.714    0.000    1.143 
#    0.000    7.143    0.000    0.000    0.000    0.000 
#    0.000    0.000    0.000    0.000    0.000    0.000 
#
# Total GULP energy -78257.901350 kJ/mol
# GULP energy per Si atom -5589.850096 kJ/mol
# Density = 2.116390 g / cm^3
# Si number density = 21.212179 Si / 1000 Ang^3
#
#
#
# Elastic Constant Matrix: (Units=GPa)
#
#
# Indices 1 2 3 4 5 6 
#
# 1 132.4816 34.1841 38.3319 0.2282 -22.8939 -32.4777
# 2 34.1841 35.6550 24.3149 -13.4046 -12.5868 -6.3061
# 3 38.3319 24.3149 152.2562 5.5270 -8.8411 -22.2147
# 4 0.2282 -13.4046 5.5270 34.2906 -1.8974 -11.4006
# 5 -22.8939 -12.5868 -8.8411 -1.8974 44.3513 2.4963
# 6 -32.4777 -6.3061 -22.2147 -11.4006 2.4963 25.8356
#
#
#
# Elastic Compliance Matrix: (Units=1/GPa)
#
#
# Indices 1 2 3 4 5 6 
#
# 1 0.014701 -0.008950 0.000409 0.002310 0.004258 0.017256
# 2 -0.008950 0.055350 -0.005794 0.025749 0.010606 0.007614
# 3 0.000409 -0.005794 0.008233 -0.001810 -0.000173 0.005398
# 4 0.002310 0.025749 -0.001810 0.049506 0.008645 0.028643
# 5 0.004258 0.010606 -0.000173 0.008645 0.027587 0.008942
# 6 0.017256 0.007614 0.005398 0.028643 0.008942 0.078675
#
#
# Mechanical properties :
#
#
# Convention : Reuss Voigt Hill
#
# Bulk Modulus (GPa) = 20.15528 57.11718 38.63623
# Shear Modulus (GPa) = 17.90445 35.79962 26.85204
#
# Velocity S-wave (km/s) = 2.90843 4.11261 3.56178
# Velocity P-wave (km/s) = 4.56081 7.03821 5.93032
#
# Compressibility (1/GPa) = 0.04961480
#
# Stress axis : x y z
#
# Youngs Moduli (GPa) = 68.02049 18.06690 121.45802
#
# Poissons Ratio (x) = 0.16171 -0.04971
# Poissons Ratio (y) = 0.60881 0.70369
# Poissons Ratio (z) = -0.02784 0.10467
#
# Static dielectric constant tensor:
#      x y z
#    x 1.790740 -0.023990 0.024150 
#    y -0.023990 1.760160 -0.056850 
#    z 0.024150 -0.056850 1.756280 
# 
# From -- ./inp_files/176767.got.cif
#   From: 2010.05.17/outbox.cif.g08.bks.cpg/sg2_89_cif.got.tgz:176767.got - 2010.06.03 11:33:40.
