data_PCOD9099086
_publ_section_title
;
Structure prediction by ZEFSAII (Michael W. Deem and Ramdas Pophale) SiO2 
 PCOD9099086
Probable space group: P -1
;
_chemical_formula_sum "Si O2"
_cell_formula_units_Z 16
_cell_length_a 11.769452
_cell_length_b 7.183134
_cell_length_c 7.965559
_cell_angle_alpha 119.015259
_cell_angle_beta 77.811140
_cell_angle_gamma 87.726974
_cell_volume 567.617941
_symmetry_space_group_name_H-M "P -1"
_symmetry_group_IT_number 2
_symmetry_cell_setting 'triclinic'
loop_
_space_group_symop_operation_xyz
x,y,z
-x,-y,-z
loop_
_atom_site_type_symbol
_atom_site_label
_atom_site_fract_x
_atom_site_fract_y
_atom_site_fract_z
Si Si1 0.711512 0.630036 0.026575
Si Si2 0.434401 0.223138 0.187585
Si Si3 0.032324 0.360716 0.093042
Si Si4 0.232892 0.229386 0.489501
Si Si5 0.789149 0.299366 0.134439
Si Si6 0.254114 0.868706 0.595836
Si Si7 0.990994 0.217982 0.486652
Si Si8 0.508595 0.384534 0.759904
O O1 0.747141 0.387521 0.996987
O O2 0.602290 0.737280 0.227137
O O3 0.661132 0.659034 0.866241
O O4 0.831218 0.725340 0.012084
O O5 0.360616 0.172455 0.345553
O O6 0.515385 0.406682 0.262357
O O7 0.500000 0.000000 0.000000
O O8 0.022776 0.548075 0.317689
O O9 0.930620 0.213528 0.054147
O O10 0.000000 0.500000 0.000000
O O11 0.221474 0.471453 0.665760
O O12 0.128510 0.195860 0.376466
O O13 0.221695 0.082426 0.588200
O O14 0.727212 0.153822 0.217984
O O15 0.131638 0.772157 0.568093
O O16 0.372421 0.750738 0.410473
O O17 0.000000 0.000000 0.500000
O O18 0.500000 0.500000 0.000000
#
# Coordination Sequence:
#
# PCOD9099086 Si02
#       8
#     2   2   2   2   2   2   2   2
#     4  10  22  40  63  86 124 169 206 246 323 369
#     4  11  22  39  59  90 120 159 208 263 303 369
#     4   9  19  36  62  90 124 166 209 253 314 377
#     4  10  21  38  61  91 125 154 209 260 305 371
#     4  10  22  40  63  92 126 163 202 257 310 379
#     4  11  21  38  62  92 124 159 208 258 310 367
#     4   9  19  33  60  92 121 159 205 261 310 363
#     4  10  20  37  59  84 118 158 205 253 302 369
#
# _framework density 28.187971999999998
#
# number of rings (size 3 to 8) (size 9 to 14) (size 15 to 20)
#    0.000    2.000    1.250    3.000    1.750    2.500 
#    2.250    1.250    0.000    5.250    0.000    0.000 
#    0.000    0.000    0.000    0.000    0.000    0.000 
#
# Total GULP energy -89245.626533 kJ/mol
# GULP energy per Si atom -5577.851658 kJ/mol
# Density = 2.812381 g / cm^3
# Si number density = 28.187972 Si / 1000 Ang^3
#
#
#
# Elastic Constant Matrix: (Units=GPa)
#
#
# Indices 1 2 3 4 5 6 
#
# 1 100.4299 9.4427 21.8982 -11.3520 -9.8143 -17.4911
# 2 9.4427 153.1708 36.3808 -15.5410 -3.2048 -22.4733
# 3 21.8982 36.3808 87.0250 -32.5241 -19.2762 0.3647
# 4 -11.3520 -15.5410 -32.5241 49.6981 -1.1137 -5.3322
# 5 -9.8143 -3.2048 -19.2762 -1.1137 46.3277 -7.5596
# 6 -17.4911 -22.4733 0.3647 -5.3322 -7.5596 41.3233
#
#
#
# Elastic Compliance Matrix: (Units=1/GPa)
#
#
# Indices 1 2 3 4 5 6 
#
# 1 0.011979 0.000973 -0.001810 0.002620 0.002975 0.006498
# 2 0.000973 0.008082 -0.003094 0.001275 0.000334 0.005060
# 3 -0.001810 -0.003094 0.019202 0.011386 0.007708 0.000261
# 4 0.002620 0.001275 0.011386 0.029463 0.007202 0.006821
# 5 0.002975 0.000334 0.007708 0.007202 0.026795 0.007204
# 6 0.006498 0.005060 0.000261 0.006821 0.007204 0.031897
#
#
# Mechanical properties :
#
#
# Convention : Reuss Voigt Hill
#
# Bulk Modulus (GPa) = 31.84761 52.89659 42.37210
# Shear Modulus (GPa) = 34.30578 45.66340 39.98459
#
# Velocity S-wave (km/s) = 3.49239 4.02924 3.77038
# Velocity P-wave (km/s) = 5.25216 6.36025 5.83258
#
# Compressibility (1/GPa) = 0.03139953
#
# Stress axis : x y z
#
# Youngs Moduli (GPa) = 83.48002 123.72480 52.07908
#
# Poissons Ratio (x) = -0.12037 0.09427
# Poissons Ratio (y) = -0.08121 0.16115
# Poissons Ratio (z) = 0.15112 0.38285
#
# Static dielectric constant tensor:
#      x y z
#    x 2.539030 0.103160 0.013840 
#    y 0.103160 2.179880 0.081110 
#    z 0.013840 0.081110 2.181810 
# 
# From -- ./inp_files/244494.got.cif
#   From: 2010.05.17/outbox.cif.g08.bks.cpg/sg2_123_cif.got.tgz:244494.got - 2010.06.03 11:33:40.
