data_PCOD9099562
_publ_section_title
;
Structure prediction by ZEFSAII (Michael W. Deem and Ramdas Pophale) SiO2 
 PCOD9099562
Probable space group: P -1
;
_chemical_formula_sum "Si O2"
_cell_formula_units_Z 16
_cell_length_a 7.711082
_cell_length_b 5.852059
_cell_length_c 20.845165
_cell_angle_alpha 73.707552
_cell_angle_beta 46.760991
_cell_angle_gamma 59.832516
_cell_volume 589.416029
_symmetry_space_group_name_H-M "P -1"
_symmetry_group_IT_number 2
_symmetry_cell_setting 'triclinic'
loop_
_space_group_symop_operation_xyz
x,y,z
-x,-y,-z
loop_
_atom_site_type_symbol
_atom_site_label
_atom_site_fract_x
_atom_site_fract_y
_atom_site_fract_z
Si Si1 0.807766 0.609700 0.600412
Si Si2 0.691875 0.894671 0.896529
Si Si3 0.021960 0.630246 0.071648
Si Si4 0.546682 0.584740 0.122699
Si Si5 0.679294 0.003842 0.391779
Si Si6 0.718717 0.126350 0.647518
Si Si7 0.579026 0.088329 0.169626
Si Si8 0.333336 0.492011 0.604791
O O1 0.521667 0.818846 0.627882
O O2 0.824779 0.321345 0.638468
O O3 0.000000 0.500000 0.500000
O O4 0.884101 0.820850 0.603173
O O5 0.924819 0.613596 0.876514
O O6 0.717403 0.158367 0.849289
O O7 0.560630 0.848317 0.869217
O O8 0.500000 0.000000 0.000000
O O9 0.775233 0.654353 0.088451
O O10 0.899131 0.928499 0.104616
O O11 0.291245 0.558639 0.971408
O O12 0.505638 0.376505 0.193252
O O13 0.814372 0.200096 0.358804
O O14 0.500000 0.000000 0.500000
O O15 0.808202 0.696813 0.360077
O O16 0.527659 0.080908 0.749441
O O17 0.547809 0.313691 0.617799
O O18 0.500000 0.500000 0.500000
#
# Coordination Sequence:
#
# PCOD9099562 Si02
#       8
#     2   2   2   2   2   2   2   2
#     4  10  20  37  61  83 111 154 200 250 314 393
#     4   9  20  37  59  88 125 168 216 268 312 382
#     4   9  19  36  58  87 123 161 222 258 312 391
#     4   9  19  35  59  90 120 169 210 264 319 380
#     4   8  14  26  49  75  98 127 170 229 274 336
#     4  10  22  35  61  87 121 158 201 263 330 379
#     4  11  22  35  62  87 130 169 209 270 331 384
#     4   8  14  28  49  74 102 135 181 230 284 354
#
# _framework density 27.145512
#
# number of rings (size 3 to 8) (size 9 to 14) (size 15 to 20)
#    0.000    2.750    0.000    1.500    3.500    3.000 
#    0.000    0.000   22.000    0.000    0.000    0.000 
#    0.000    0.000    0.000    0.000    0.000    0.000 
#
# Total GULP energy -89204.904080 kJ/mol
# GULP energy per Si atom -5575.306505 kJ/mol
# Density = 2.708373 g / cm^3
# Si number density = 27.145512 Si / 1000 Ang^3
#
#
#
# Elastic Constant Matrix: (Units=GPa)
#
#
# Indices 1 2 3 4 5 6 
#
# 1 97.1166 24.8994 12.6449 -7.4667 5.8148 20.4475
# 2 24.8994 247.2141 31.2238 -28.6293 -9.5746 37.5302
# 3 12.6449 31.2238 60.3737 -9.0635 6.0219 8.9542
# 4 -7.4667 -28.6293 -9.0635 54.8642 11.3787 1.0486
# 5 5.8148 -9.5746 6.0219 11.3787 22.5454 -11.2384
# 6 20.4475 37.5302 8.9542 1.0486 -11.2384 50.4474
#
#
#
# Elastic Compliance Matrix: (Units=1/GPa)
#
#
# Indices 1 2 3 4 5 6 
#
# 1 0.012592 -0.000112 -0.000172 0.003521 -0.008493 -0.006955
# 2 -0.000112 0.005086 -0.001651 0.002525 -0.000437 -0.003595
# 3 -0.000172 -0.001651 0.019932 0.004721 -0.010719 -0.004726
# 4 0.003521 0.002525 0.004721 0.024671 -0.017852 -0.008634
# 5 -0.008493 -0.000437 -0.010719 -0.017852 0.068896 0.021390
# 6 -0.006955 -0.003595 -0.004726 -0.008634 0.021390 0.031100
#
#
# Mechanical properties :
#
#
# Convention : Reuss Voigt Hill
#
# Bulk Modulus (GPa) = 29.63812 60.24894 44.94353
# Shear Modulus (GPa) = 28.18589 47.96715 38.07652
#
# Velocity S-wave (km/s) = 3.22580 4.20818 3.74930
# Velocity P-wave (km/s) = 4.98160 6.77161 5.94437
#
# Compressibility (1/GPa) = 0.03374033
#
# Stress axis : x y z
#
# Youngs Moduli (GPa) = 79.41785 196.60876 50.16969
#
# Poissons Ratio (x) = 0.02197 0.00863
# Poissons Ratio (y) = 0.00887 0.08284
# Poissons Ratio (z) = 0.01367 0.32462
#
# Static dielectric constant tensor:
#      x y z
#    x 2.357890 0.165950 0.007110 
#    y 0.165950 2.309470 0.069500 
#    z 0.007110 0.069500 2.204980 
# 
# From -- ./inp_files/112452.got.cif
#   From: 2010.05.17/outbox.cif.g08.bks.cpg/sg2_57_cif.got.tgz:112452.got - 2010.06.03 11:33:40.
