data_PCOD9099535
_publ_section_title
;
Structure prediction by ZEFSAII (Michael W. Deem and Ramdas Pophale) SiO2 
 PCOD9099535
Probable space group: P -1
;
_chemical_formula_sum "Si O2"
_cell_formula_units_Z 16
_cell_length_a 5.098928
_cell_length_b 16.039246
_cell_length_c 11.566595
_cell_angle_alpha 135.330636
_cell_angle_beta 100.020623
_cell_angle_gamma 67.541417
_cell_volume 607.593862
_symmetry_space_group_name_H-M "P -1"
_symmetry_group_IT_number 2
_symmetry_cell_setting 'triclinic'
loop_
_space_group_symop_operation_xyz
x,y,z
-x,-y,-z
loop_
_atom_site_type_symbol
_atom_site_label
_atom_site_fract_x
_atom_site_fract_y
_atom_site_fract_z
Si Si1 0.186374 0.505185 0.703790
Si Si2 0.517127 0.881277 0.019725
Si Si3 0.180098 0.904143 0.577969
Si Si4 0.723578 0.671071 0.663586
Si Si5 0.174800 0.766333 0.029915
Si Si6 0.918439 0.842394 0.701236
Si Si7 0.299412 0.287890 0.654503
Si Si8 0.836315 0.868398 0.323724
O O1 0.366654 0.400911 0.518673
O O2 0.287600 0.619516 0.855573
O O3 0.163821 0.434176 0.749999
O O4 0.885939 0.571920 0.678293
O O5 0.321265 0.029426 0.137677
O O6 0.482864 0.790924 0.824425
O O7 0.391220 0.831672 0.071575
O O8 0.860675 0.837061 0.015145
O O9 0.367065 0.765446 0.406430
O O10 0.135655 0.892704 0.698311
O O11 0.898772 0.939585 0.511941
O O12 0.311884 0.008027 0.649646
O O13 0.946750 0.729444 0.681931
O O14 0.094171 0.787098 0.178478
O O15 0.815133 0.783747 0.523462
O O16 0.270342 0.233987 0.724247
#
# Coordination Sequence:
#
# PCOD9099535 Si02
#       8
#     2   2   2   2   2   2   2   2
#     4   9  21  44  61  92 124 172 219 261 311 387
#     4  11  23  42  65  99 131 167 213 269 322 379
#     4  10  20  37  60  97 125 160 213 263 324 384
#     4   9  20  43  67  88 127 171 211 267 321 378
#     4  11  24  42  66  95 133 172 212 265 316 381
#     4  10  20  38  63  96 128 162 213 266 324 380
#     4  10  21  38  62  93 126 171 213 261 316 386
#     4  10  21  36  63  90 129 166 207 263 330 371
#
# _framework density 26.333378
#
# number of rings (size 3 to 8) (size 9 to 14) (size 15 to 20)
#    0.000    2.000    1.250    1.500    1.750    1.000 
#   24.750    3.750    0.000    0.000    0.000    0.000 
#    0.000    0.000    0.000    0.000    0.000    0.000 
#
# Total GULP energy -89281.866267 kJ/mol
# GULP energy per Si atom -5580.116642 kJ/mol
# Density = 2.627344 g / cm^3
# Si number density = 26.333378 Si / 1000 Ang^3
#
#
#
# Elastic Constant Matrix: (Units=GPa)
#
#
# Indices 1 2 3 4 5 6 
#
# 1 59.3207 30.7226 14.0373 -0.8596 -7.0476 21.4493
# 2 30.7226 192.3418 29.5386 13.5457 -13.6960 13.7246
# 3 14.0373 29.5386 115.4069 5.5944 -1.3396 12.6445
# 4 -0.8596 13.5457 5.5944 47.8597 14.3569 8.2648
# 5 -7.0476 -13.6960 -1.3396 14.3569 32.9260 -7.0087
# 6 21.4493 13.7246 12.6445 8.2648 -7.0087 22.1886
#
#
#
# Elastic Compliance Matrix: (Units=1/GPa)
#
#
# Indices 1 2 3 4 5 6 
#
# 1 0.029415 -0.003502 0.000276 0.008577 -0.005569 -0.031380
# 2 -0.003502 0.006266 -0.001265 -0.003289 0.003805 0.002658
# 3 0.000276 -0.001265 0.009525 0.000711 -0.001599 -0.005682
# 4 0.008577 -0.003289 0.000711 0.031625 -0.018460 -0.024272
# 5 -0.005569 0.003805 -0.001599 -0.018460 0.044007 0.024717
# 6 -0.031380 0.002658 -0.005682 -0.024272 0.024717 0.093845
#
#
# Mechanical properties :
#
#
# Convention : Reuss Voigt Hill
#
# Bulk Modulus (GPa) = 27.60690 57.29628 42.45159
# Shear Modulus (GPa) = 21.20981 40.11292 30.66137
#
# Velocity S-wave (km/s) = 2.84110 3.90715 3.41596
# Velocity P-wave (km/s) = 4.61181 6.49305 5.63154
#
# Compressibility (1/GPa) = 0.03622283
#
# Stress axis : x y z
#
# Youngs Moduli (GPa) = 33.99614 159.59862 104.98920
#
# Poissons Ratio (x) = 0.55896 -0.02901
# Poissons Ratio (y) = 0.11907 0.13285
# Poissons Ratio (z) = -0.00939 0.20195
#
# Static dielectric constant tensor:
#      x y z
#    x 2.237700 -0.013110 -0.004470 
#    y -0.013110 2.058510 0.010050 
#    z -0.004470 0.010050 2.103900 
# 
# From -- ./inp_files/78127.got.cif
#   From: 2010.05.17/outbox.cif.g08.bks.cpg/sg2_40_cif.got.tgz:78127.got - 2010.06.03 11:33:40.
