data_PCOD9099420
_publ_section_title
;
Structure prediction by ZEFSAII (Michael W. Deem and Ramdas Pophale) SiO2 
 PCOD9099420
Probable space group: P -1
;
_chemical_formula_sum "Si O2"
_cell_formula_units_Z 16
_cell_length_a 9.310661
_cell_length_b 12.257107
_cell_length_c 8.514869
_cell_angle_alpha 82.028441
_cell_angle_beta 49.396036
_cell_angle_gamma 80.471965
_cell_volume 726.964887
_symmetry_space_group_name_H-M "P -1"
_symmetry_group_IT_number 2
_symmetry_cell_setting 'triclinic'
loop_
_space_group_symop_operation_xyz
x,y,z
-x,-y,-z
loop_
_atom_site_type_symbol
_atom_site_label
_atom_site_fract_x
_atom_site_fract_y
_atom_site_fract_z
Si Si1 0.533732 0.305590 0.536422
Si Si2 0.290712 0.462725 0.159958
Si Si3 0.152999 0.250792 0.431695
Si Si4 0.338933 0.484545 0.457856
Si Si5 0.008557 0.389849 0.817689
Si Si6 0.298677 0.048691 0.555397
Si Si7 0.831489 0.815056 0.094342
Si Si8 0.090812 0.848375 0.630559
O O1 0.466361 0.366155 0.407891
O O2 0.544558 0.413452 0.614668
O O3 0.375828 0.230120 0.728650
O O4 0.739614 0.239842 0.409074
O O5 0.249747 0.334758 0.228838
O O6 0.229171 0.505394 0.369438
O O7 0.177528 0.529923 0.092114
O O8 0.500000 0.500000 0.000000
O O9 0.302955 0.155297 0.418014
O O10 0.062782 0.320465 0.631412
O O11 0.988020 0.194142 0.468742
O O12 0.175689 0.469682 0.703886
O O13 0.025027 0.294121 0.951314
O O14 0.169170 0.094087 0.786033
O O15 0.500000 0.000000 0.500000
O O16 0.194093 0.960126 0.548291
O O17 0.904560 0.859975 0.871819
#
# Coordination Sequence:
#
# PCOD9099420 Si02
#       8
#     2   2   2   2   2   2   2   2
#     4  10  20  37  60  88 125 163 200 258 309 365
#     4  11  22  33  59  90 127 160 207 246 309 373
#     4  10  23  42  62  92 123 165 209 253 316 369
#     4   9  19  36  55  83 124 168 202 241 313 371
#     4   9  19  40  59  82 128 169 198 247 313 378
#     4  11  23  45  68  87 123 170 211 259 320 369
#     4  10  23  39  63  94 122 159 215 257 307 379
#     4  12  23  39  70  90 125 162 215 262 311 355
#
# _framework density 22.009315000000001
#
# number of rings (size 3 to 8) (size 9 to 14) (size 15 to 20)
#    0.000    1.750    1.250    4.500    3.500    0.000 
#    0.000    3.125    0.000    0.000    0.000    0.000 
#    0.000    0.000    0.000    0.000    0.000    0.000 
#
# Total GULP energy -89185.213413 kJ/mol
# GULP energy per Si atom -5574.075838 kJ/mol
# Density = 2.195922 g / cm^3
# Si number density = 22.009315 Si / 1000 Ang^3
#
#
#
# Elastic Constant Matrix: (Units=GPa)
#
#
# Indices 1 2 3 4 5 6 
#
# 1 101.2392 38.5728 9.5447 -5.4746 -24.5874 6.1876
# 2 38.5728 106.2408 19.9113 -11.4804 -20.3734 7.4022
# 3 9.5447 19.9113 48.6563 -9.3059 -12.3538 1.4108
# 4 -5.4746 -11.4804 -9.3059 16.5935 4.1729 -6.5353
# 5 -24.5874 -20.3734 -12.3538 4.1729 23.7403 3.0152
# 6 6.1876 7.4022 1.4108 -6.5353 3.0152 54.2694
#
#
#
# Elastic Compliance Matrix: (Units=1/GPa)
#
#
# Indices 1 2 3 4 5 6 
#
# 1 0.014164 -0.002782 0.001768 -0.000494 0.013555 -0.002094
# 2 -0.002782 0.012574 -0.002129 0.004600 0.006137 -0.001130
# 3 0.001768 -0.002129 0.026114 0.010845 0.011678 0.000067
# 4 -0.000494 0.004600 0.010845 0.073892 -0.004966 0.008321
# 5 0.013555 0.006137 0.011678 -0.004966 0.069283 -0.007133
# 6 -0.002094 -0.001130 0.000067 0.008321 -0.007133 0.020216
#
#
# Mechanical properties :
#
#
# Convention : Reuss Voigt Hill
#
# Bulk Modulus (GPa) = 21.47527 43.57710 32.52619
# Shear Modulus (GPa) = 21.00378 31.46114 26.23246
#
# Velocity S-wave (km/s) = 3.09255 3.78490 3.45611
# Velocity P-wave (km/s) = 4.74661 6.24044 5.54407
#
# Compressibility (1/GPa) = 0.04656519
#
# Stress axis : x y z
#
# Youngs Moduli (GPa) = 70.60087 79.52765 38.29334
#
# Poissons Ratio (x) = 0.22125 -0.06769
# Poissons Ratio (y) = 0.19641 0.08154
# Poissons Ratio (z) = -0.12481 0.16935
#
# Static dielectric constant tensor:
#      x y z
#    x 1.877540 -0.000740 0.022490 
#    y -0.000740 1.865400 -0.006860 
#    z 0.022490 -0.006860 1.854850 
# 
# From -- ./inp_files/186375.got.cif
#   From: 2010.05.17/outbox.cif.g08.bks.cpg/sg2_94_cif.got.tgz:186375.got - 2010.06.03 11:33:40.
