data_PCOD9099684
_publ_section_title
;
Structure prediction by ZEFSAII (Michael W. Deem and Ramdas Pophale) SiO2 
 PCOD9099684
Probable space group: P -1
;
_chemical_formula_sum "Si O2"
_cell_formula_units_Z 14
_cell_length_a 16.024339
_cell_length_b 7.965770
_cell_length_c 9.652434
_cell_angle_alpha 133.904242
_cell_angle_beta 38.192626
_cell_angle_gamma 110.336194
_cell_volume 492.008935
_symmetry_space_group_name_H-M "P -1"
_symmetry_group_IT_number 2
_symmetry_cell_setting 'triclinic'
loop_
_space_group_symop_operation_xyz
x,y,z
-x,-y,-z
loop_
_atom_site_type_symbol
_atom_site_label
_atom_site_fract_x
_atom_site_fract_y
_atom_site_fract_z
Si Si1 0.390833 0.024633 0.313870
Si Si2 0.124086 0.065303 0.221317
Si Si3 0.928528 0.807637 0.244380
Si Si4 0.177142 0.155898 0.889049
Si Si5 0.632511 0.448555 0.455273
Si Si6 0.613070 0.681233 0.171011
Si Si7 0.274133 0.378500 0.317680
O O1 0.251499 0.059327 0.418288
O O2 0.331768 0.952671 0.493393
O O3 0.385576 0.309156 0.474092
O O4 0.563086 0.836255 0.961524
O O5 0.284146 0.815063 0.889739
O O6 0.123398 0.134600 0.098689
O O7 0.143511 0.287315 0.409788
O O8 0.000080 0.958622 0.326481
O O9 0.933815 0.823919 0.078245
O O10 0.000000 0.500000 0.000000
O O11 0.238377 0.371433 0.961933
O O12 0.483791 0.452901 0.717876
O O13 0.747252 0.417356 0.416339
O O14 0.679444 0.580084 0.874247
O O15 0.500000 0.000000 0.500000
#
# Coordination Sequence:
#
# PCOD9099684 Si02
#       7
#     2   2   2   2   2   2   2
#     4  10  21  37  56  92 123 151 201 242 294 354
#     4  11  20  40  65  86 118 160 197 245 297 349
#     4  10  20  37  61  89 115 160 201 238 299 355
#     4   9  19  34  62  86 116 151 201 240 291 351
#     4  12  22  35  64  87 127 155 191 246 304 345
#     4  11  18  38  60  91 116 154 200 245 292 352
#     4  11  23  39  60  93 121 152 201 245 295 354
#
# _framework density 28.454768999999999
#
# number of rings (size 3 to 8) (size 9 to 14) (size 15 to 20)
#    0.857    0.571    5.714    1.286    0.000    3.429 
#    0.000    0.714    3.143    2.571    0.000    0.000 
#    0.000    0.000    0.000    0.000    0.000    0.000 
#
# Total GULP energy -78194.779691 kJ/mol
# GULP energy per Si atom -5585.341407 kJ/mol
# Density = 2.839000 g / cm^3
# Si number density = 28.454769 Si / 1000 Ang^3
#
#
#
# Elastic Constant Matrix: (Units=GPa)
#
#
# Indices 1 2 3 4 5 6 
#
# 1 174.9064 52.6791 26.8279 -4.7675 12.6126 46.4725
# 2 52.6791 160.7519 19.7983 -15.9165 -0.6937 48.4279
# 3 26.8279 19.7983 71.2091 5.5038 15.1770 13.3254
# 4 -4.7675 -15.9165 5.5038 36.9887 12.8525 0.4153
# 5 12.6126 -0.6937 15.1770 12.8525 47.9301 -8.9477
# 6 46.4725 48.4279 13.3254 0.4153 -8.9477 64.4783
#
#
#
# Elastic Compliance Matrix: (Units=1/GPa)
#
#
# Indices 1 2 3 4 5 6 
#
# 1 0.007811 -0.000583 -0.001242 0.002130 -0.003250 -0.005399
# 2 -0.000583 0.008893 -0.001041 0.004604 -0.001803 -0.006324
# 3 -0.001242 -0.001041 0.016412 -0.001290 -0.004987 -0.002398
# 4 0.002130 0.004604 -0.001290 0.033078 -0.010140 -0.006347
# 5 -0.003250 -0.001803 -0.004987 -0.010140 0.027601 0.008623
# 6 -0.005399 -0.006324 -0.002398 -0.006347 0.008623 0.025884
#
#
# Mechanical properties :
#
#
# Convention : Reuss Voigt Hill
#
# Bulk Modulus (GPa) = 36.51844 67.27535 51.89689
# Shear Modulus (GPa) = 37.16421 50.38357 43.77389
#
# Velocity S-wave (km/s) = 3.61789 4.21248 3.92646
# Velocity P-wave (km/s) = 5.50581 6.88144 6.23170
#
# Compressibility (1/GPa) = 0.02738343
#
# Stress axis : x y z
#
# Youngs Moduli (GPa) = 128.03271 112.44384 60.93127
#
# Poissons Ratio (x) = 0.06555 0.07569
# Poissons Ratio (y) = 0.07464 0.06343
# Poissons Ratio (z) = 0.15904 0.11706
#
# Static dielectric constant tensor:
#      x y z
#    x 2.311220 -0.044130 0.058180 
#    y -0.044130 2.200330 -0.025190 
#    z 0.058180 -0.025190 2.284380 
# 
# From -- ./inp_files/460849.got.cif
#   From: 2010.05.17/outbox.cif.g08.bks.cpg/sg2_231_cif.got.tgz:460849.got - 2010.06.03 11:33:40.
