data_PCOD9099032
_publ_section_title
;
Structure prediction by ZEFSAII (Michael W. Deem and Ramdas Pophale) SiO2 
 PCOD9099032
Probable space group: P -1
;
_chemical_formula_sum "Si O2"
_cell_formula_units_Z 16
_cell_length_a 11.962794
_cell_length_b 21.183358
_cell_length_c 7.054013
_cell_angle_alpha 102.951426
_cell_angle_beta 78.964064
_cell_angle_gamma 156.352270
_cell_volume 698.336025
_symmetry_space_group_name_H-M "P -1"
_symmetry_group_IT_number 2
_symmetry_cell_setting 'triclinic'
loop_
_space_group_symop_operation_xyz
x,y,z
-x,-y,-z
loop_
_atom_site_type_symbol
_atom_site_label
_atom_site_fract_x
_atom_site_fract_y
_atom_site_fract_z
Si Si1 0.040626 0.893815 0.647796
Si Si2 0.200079 0.836535 0.588148
Si Si3 0.728802 0.850510 0.756271
Si Si4 0.176797 0.874780 0.025764
Si Si5 0.981831 0.658833 0.212584
Si Si6 0.770037 0.815408 0.338114
Si Si7 0.530399 0.169460 0.964206
Si Si8 0.572982 0.611902 0.997954
O O1 0.010532 0.801539 0.589156
O O2 0.335570 0.060287 0.765820
O O3 0.810024 0.820138 0.773251
O O4 0.994285 0.891784 0.444390
O O5 0.045175 0.697848 0.441235
O O6 0.238859 0.860316 0.816172
O O7 0.500000 0.000000 0.500000
O O8 0.637668 0.792855 0.527302
O O9 0.526775 0.789876 0.902392
O O10 0.034867 0.043327 0.772783
O O11 0.905147 0.775124 0.986385
O O12 0.107281 0.790367 0.163117
O O13 0.406820 0.050791 0.068425
O O14 0.159346 0.691562 0.093750
O O15 0.660096 0.491411 0.149732
O O16 0.556495 0.656963 0.199995
O O17 0.500000 0.500000 0.000000
#
# Coordination Sequence:
#
# PCOD9099032 Si02
#       8
#     2   2   2   2   2   2   2   2
#     4   9  18  31  53  83 110 137 189 246 268 338
#     4  11  21  34  56  92 114 147 188 240 297 326
#     4   9  19  32  58  85 104 148 198 240 269 335
#     4  10  21  36  58  83 116 158 191 232 278 356
#     4  11  23  36  57  86 124 149 183 245 294 341
#     4   9  18  34  55  86 103 146 201 232 276 327
#     4  11  19  34  55  88 110 147 191 240 294 321
#     4  10  20  37  59  81 119 156 187 229 293 349
#
# _framework density 22.911607
#
# number of rings (size 3 to 8) (size 9 to 14) (size 15 to 20)
#    0.750    1.250    3.750    2.250    0.000    0.500 
#    0.000    1.875    0.000    0.750    0.000    0.000 
#    0.000    0.000    0.000    0.000    0.000    0.000 
#
# Total GULP energy -89158.319693 kJ/mol
# GULP energy per Si atom -5572.394981 kJ/mol
# Density = 2.285946 g / cm^3
# Si number density = 22.911607 Si / 1000 Ang^3
#
#
#
# Elastic Constant Matrix: (Units=GPa)
#
#
# Indices 1 2 3 4 5 6 
#
# 1 101.9261 21.6783 1.7028 -5.4210 -21.1006 21.5936
# 2 21.6783 47.2326 3.4369 12.4553 -7.1341 12.3722
# 3 1.7028 3.4369 91.5417 7.5357 -35.1893 2.2961
# 4 -5.4210 12.4553 7.5357 27.6993 2.0106 -1.8719
# 5 -21.1006 -7.1341 -35.1893 2.0106 40.5688 -7.0518
# 6 21.5936 12.3722 2.2961 -1.8719 -7.0518 35.5748
#
#
#
# Elastic Compliance Matrix: (Units=1/GPa)
#
#
# Indices 1 2 3 4 5 6 
#
# 1 0.013592 -0.004812 0.002674 0.003208 0.007498 -0.005094
# 2 -0.004812 0.030004 0.001960 -0.015771 0.003918 -0.007694
# 3 0.002674 0.001960 0.018192 -0.006619 0.017791 -0.000301
# 4 0.003208 -0.015771 -0.006619 0.046548 -0.008325 0.004764
# 5 0.007498 0.003918 0.017791 -0.008325 0.045341 0.001487
# 6 -0.005094 -0.007694 -0.000301 0.004764 0.001487 0.034442
#
#
# Mechanical properties :
#
#
# Convention : Reuss Voigt Hill
#
# Bulk Modulus (GPa) = 16.27804 32.70405 24.49105
# Shear Modulus (GPa) = 23.92893 35.02742 29.47817
#
# Velocity S-wave (km/s) = 3.23523 3.91424 3.59082
# Velocity P-wave (km/s) = 4.59083 5.89350 5.28247
#
# Compressibility (1/GPa) = 0.06143244
#
# Stress axis : x y z
#
# Youngs Moduli (GPa) = 73.57357 33.32943 54.96908
#
# Poissons Ratio (x) = 0.16037 -0.14698
# Poissons Ratio (y) = 0.35402 -0.10777
# Poissons Ratio (z) = -0.19672 -0.06534
#
# Static dielectric constant tensor:
#      x y z
#    x 1.889090 -0.027610 0.038010 
#    y -0.027610 1.887380 -0.094270 
#    z 0.038010 -0.094270 2.070500 
# 
# From -- ./inp_files/283824.got.cif
#   From: 2010.05.17/outbox.cif.g08.bks.cpg/sg2_142_cif.got.tgz:283824.got - 2010.06.03 11:33:40.
