data_PCOD9099176
_publ_section_title
;
Structure prediction by ZEFSAII (Michael W. Deem and Ramdas Pophale) SiO2 
 PCOD9099176
Probable space group: P -1
;
_chemical_formula_sum "Si O2"
_cell_formula_units_Z 14
_cell_length_a 10.193651
_cell_length_b 8.506555
_cell_length_c 10.693359
_cell_angle_alpha 119.091491
_cell_angle_beta 87.672963
_cell_angle_gamma 122.331900
_cell_volume 653.719943
_symmetry_space_group_name_H-M "P -1"
_symmetry_group_IT_number 2
_symmetry_cell_setting 'triclinic'
loop_
_space_group_symop_operation_xyz
x,y,z
-x,-y,-z
loop_
_atom_site_type_symbol
_atom_site_label
_atom_site_fract_x
_atom_site_fract_y
_atom_site_fract_z
Si Si1 0.877207 0.266479 0.839678
Si Si2 0.900135 0.590373 0.797223
Si Si3 0.476077 0.010167 0.299947
Si Si4 0.742028 0.035330 0.155702
Si Si5 0.432736 0.654377 0.368437
Si Si6 0.853527 0.749754 0.123509
Si Si7 0.468551 0.577818 0.897230
O O1 0.878676 0.362759 0.742391
O O2 0.688304 0.115773 0.824383
O O3 0.034069 0.851520 0.201502
O O4 0.000000 0.500000 0.000000
O O5 0.762051 0.523338 0.676158
O O6 0.849515 0.675024 0.951058
O O7 0.088889 0.772738 0.837169
O O8 0.643466 0.109137 0.259890
O O9 0.458664 0.823419 0.321480
O O10 0.486631 0.196293 0.455376
O O11 0.799876 0.913142 0.192567
O O12 0.603668 0.840816 0.995265
O O13 0.504388 0.530373 0.261901
O O14 0.720924 0.529481 0.122055
O O15 0.500000 0.500000 0.000000
#
# Coordination Sequence:
#
# PCOD9099176 Si02
#       7
#     2   2   2   2   2   2   2
#     4   9  19  36  54  75 111 140 174 213 267 313
#     4  10  19  32  54  83 107 136 171 226 264 305
#     4  10  20  34  54  78 103 148 178 211 257 325
#     4  11  19  31  58  84 103 129 189 220 258 298
#     4  10  18  33  54  76 109 139 181 212 259 313
#     4  10  18  33  55  80 105 135 175 225 254 307
#     4  10  16  31  54  79 103 137 180 220 249 312
#
# _framework density 21.415897999999999
#
# number of rings (size 3 to 8) (size 9 to 14) (size 15 to 20)
#    0.000    2.000    5.714    2.143    0.000    0.571 
#    0.000    7.143    0.000    0.857    0.000    0.000 
#    0.000    0.000    0.000    0.000    0.000    0.000 
#
# Total GULP energy -77997.282502 kJ/mol
# GULP energy per Si atom -5571.234464 kJ/mol
# Density = 2.136715 g / cm^3
# Si number density = 21.415898 Si / 1000 Ang^3
#
#
#
# Elastic Constant Matrix: (Units=GPa)
#
#
# Indices 1 2 3 4 5 6 
#
# 1 101.1028 15.5031 26.6413 -4.4345 -1.3431 37.2354
# 2 15.5031 70.4524 8.0315 8.6951 -1.3532 38.0143
# 3 26.6413 8.0315 78.4816 3.8510 -18.5284 16.8076
# 4 -4.4345 8.6951 3.8510 7.1195 3.9373 3.2103
# 5 -1.3431 -1.3532 -18.5284 3.9373 25.5276 0.7763
# 6 37.2354 38.0143 16.8076 3.2103 0.7763 39.0847
#
#
#
# Elastic Compliance Matrix: (Units=1/GPa)
#
#
# Indices 1 2 3 4 5 6 
#
# 1 0.020514 0.008574 -0.003488 0.018396 -0.002989 -0.027834
# 2 0.008574 0.046023 0.010517 -0.042404 0.018717 -0.054343
# 3 -0.003488 0.010517 0.022923 -0.033392 0.022602 -0.014470
# 4 0.018396 -0.042404 -0.033392 0.248900 -0.064481 0.018913
# 5 -0.002989 0.018717 0.022602 -0.064481 0.067001 -0.021111
# 6 -0.027834 -0.054343 -0.014470 0.018913 -0.021111 0.110045
#
#
# Mechanical properties :
#
#
# Convention : Reuss Voigt Hill
#
# Bulk Modulus (GPa) = 8.28737 38.93208 23.60972
# Shear Modulus (GPa) = 9.53432 27.67042 18.60237
#
# Velocity S-wave (km/s) = 2.11226 3.59841 2.95044
# Velocity P-wave (km/s) = 3.13480 5.95678 4.75974
#
# Compressibility (1/GPa) = 0.12066556
#
# Stress axis : x y z
#
# Youngs Moduli (GPa) = 48.74817 21.72824 43.62409
#
# Poissons Ratio (x) = -0.18630 0.15218
# Poissons Ratio (y) = -0.41798 -0.45880
# Poissons Ratio (z) = 0.17006 -0.22852
#
# Static dielectric constant tensor:
#      x y z
#    x 1.855470 -0.022940 0.033760 
#    y -0.022940 1.878240 0.010970 
#    z 0.033760 0.010970 1.782940 
# 
# From -- ./inp_files/422234.got.cif
#   From: 2010.05.17/outbox.cif.g08.bks.cpg/sg2_212_cif.got.tgz:422234.got - 2010.06.03 11:33:40.
