data_PCOD9099895
_publ_section_title
;
Structure prediction by ZEFSAII (Michael W. Deem and Ramdas Pophale) SiO2 
 PCOD9099895
Probable space group: P -1
;
_chemical_formula_sum "Si O2"
_cell_formula_units_Z 16
_cell_length_a 8.528702
_cell_length_b 21.796955
_cell_length_c 5.334338
_cell_angle_alpha 51.414443
_cell_angle_beta 79.027293
_cell_angle_gamma 61.906261
_cell_volume 676.097272
_symmetry_space_group_name_H-M "P -1"
_symmetry_group_IT_number 2
_symmetry_cell_setting 'triclinic'
loop_
_space_group_symop_operation_xyz
x,y,z
-x,-y,-z
loop_
_atom_site_type_symbol
_atom_site_label
_atom_site_fract_x
_atom_site_fract_y
_atom_site_fract_z
Si Si1 0.021606 0.704957 0.421581
Si Si2 0.321799 0.704535 0.047565
Si Si3 0.916975 0.461239 0.916014
Si Si4 0.666570 0.776638 0.110265
Si Si5 0.702348 0.186131 0.716104
Si Si6 0.298772 0.387158 0.736747
Si Si7 0.289161 0.058514 0.459786
Si Si8 0.915299 0.907564 0.062740
O O1 0.828448 0.710596 0.402673
O O2 0.964656 0.802597 0.301074
O O3 0.148260 0.688200 0.181426
O O4 0.120604 0.618559 0.779846
O O5 0.317621 0.746989 0.218096
O O6 0.520989 0.623771 0.149180
O O7 0.286642 0.772726 0.658465
O O8 0.740064 0.542348 0.652509
O O9 0.093554 0.418735 0.798368
O O10 0.000000 0.500000 0.000000
O O11 0.477148 0.825705 0.185543
O O12 0.642900 0.715279 0.070395
O O13 0.732106 0.842689 0.807392
O O14 0.889012 0.099925 0.930697
O O15 0.217144 0.050111 0.773121
O O16 0.500000 0.000000 0.500000
O O17 0.175966 0.050240 0.280681
#
# Coordination Sequence:
#
# PCOD9099895 Si02
#       8
#     2   2   2   2   2   2   2   2
#     4  10  20  37  62  86 114 160 198 245 295 351
#     4  10  22  37  59  86 121 151 203 246 294 347
#     4  11  21  36  57  83 120 151 207 247 297 344
#     4  10  20  38  65  85 116 157 202 237 299 355
#     4  10  20  38  61  91 114 155 198 245 287 354
#     4  10  22  37  58  83 116 162 196 253 293 353
#     4  11  23  40  63  94 123 155 195 243 291 353
#     4  10  21  40  63  86 125 157 195 241 293 351
#
# _framework density 23.665234000000002
#
# number of rings (size 3 to 8) (size 9 to 14) (size 15 to 20)
#    0.000    1.750    1.250    4.125    1.750    4.500 
#    0.000    1.875    0.000    0.000    0.000    0.000 
#    0.000    0.000    0.000    0.000    0.000    0.000 
#
# Total GULP energy -89202.346501 kJ/mol
# GULP energy per Si atom -5575.146656 kJ/mol
# Density = 2.361137 g / cm^3
# Si number density = 23.665234 Si / 1000 Ang^3
#
#
#
# Elastic Constant Matrix: (Units=GPa)
#
#
# Indices 1 2 3 4 5 6 
#
# 1 89.4131 15.2716 15.1817 5.8096 10.4764 -36.8119
# 2 15.2716 53.9399 14.9829 7.5670 -3.7582 -12.8378
# 3 15.1817 14.9829 60.1857 10.5270 8.4947 9.7176
# 4 5.8096 7.5670 10.5270 35.8959 -9.0498 -4.1965
# 5 10.4764 -3.7582 8.4947 -9.0498 34.3152 -5.9239
# 6 -36.8119 -12.8378 9.7176 -4.1965 -5.9239 37.0964
#
#
#
# Elastic Compliance Matrix: (Units=1/GPa)
#
#
# Indices 1 2 3 4 5 6 
#
# 1 0.024325 0.003198 -0.012380 0.002867 0.001767 0.029095
# 2 0.003198 0.024773 -0.010798 0.001167 0.007462 0.015899
# 3 -0.012380 -0.010798 0.030537 -0.011037 -0.012582 -0.027280
# 4 0.002867 0.001167 -0.011037 0.035192 0.013382 0.012258
# 5 0.001767 0.007462 -0.012582 0.013382 0.038709 0.015327
# 6 0.029095 0.015899 -0.027280 0.012258 0.015327 0.072311
#
#
# Mechanical properties :
#
#
# Convention : Reuss Voigt Hill
#
# Bulk Modulus (GPa) = 25.20556 32.71232 28.95894
# Shear Modulus (GPa) = 17.91894 32.00167 24.96031
#
# Velocity S-wave (km/s) = 2.75468 3.68131 3.25118
# Velocity P-wave (km/s) = 4.55979 5.64998 5.13391
#
# Compressibility (1/GPa) = 0.03967379
#
# Stress axis : x y z
#
# Youngs Moduli (GPa) = 41.10956 40.36589 32.74698
#
# Poissons Ratio (x) = -0.12907 0.40542
# Poissons Ratio (y) = -0.13145 0.35360
# Poissons Ratio (z) = 0.50896 0.43587
#
# Static dielectric constant tensor:
#      x y z
#    x 1.994380 0.115660 0.060580 
#    y 0.115660 1.877460 0.027850 
#    z 0.060580 0.027850 1.977730 
# 
# From -- ./inp_files/47985.got.cif
#   From: 2010.05.17/outbox.cif.g08.bks.cpg/sg2_24_cif.got.tgz:47985.got - 2010.06.03 11:33:40.
