data_PCOD9099448
_publ_section_title
;
Structure prediction by ZEFSAII (Michael W. Deem and Ramdas Pophale) SiO2 
 PCOD9099448
Probable space group: P -1
;
_chemical_formula_sum "Si O2"
_cell_formula_units_Z 14
_cell_length_a 15.826290
_cell_length_b 19.047596
_cell_length_c 7.374741
_cell_angle_alpha 133.062854
_cell_angle_beta 137.452582
_cell_angle_gamma 22.172873
_cell_volume 567.341965
_symmetry_space_group_name_H-M "P -1"
_symmetry_group_IT_number 2
_symmetry_cell_setting 'triclinic'
loop_
_space_group_symop_operation_xyz
x,y,z
-x,-y,-z
loop_
_atom_site_type_symbol
_atom_site_label
_atom_site_fract_x
_atom_site_fract_y
_atom_site_fract_z
Si Si1 0.879905 0.208364 0.764401
Si Si2 0.597439 0.086150 0.014010
Si Si3 0.754724 0.819775 0.985112
Si Si4 0.279451 0.524418 0.752981
Si Si5 0.962257 0.549951 0.319597
Si Si6 0.125428 0.737756 0.556041
Si Si7 0.719841 0.136775 0.630195
O O1 0.790367 0.175446 0.673325
O O2 0.802281 0.264885 0.528727
O O3 0.778429 0.370855 0.984491
O O4 0.173290 0.015646 0.899701
O O5 0.605341 0.131597 0.305843
O O6 0.322660 0.274396 0.852984
O O7 0.681887 0.918559 0.854694
O O8 0.872053 0.638426 0.851256
O O9 0.959983 0.755837 0.271154
O O10 0.500000 0.000000 0.000000
O O11 0.065590 0.587105 0.504836
O O12 0.526983 0.301728 0.759550
O O13 0.297426 0.580838 0.703015
O O14 0.000000 0.500000 0.500000
O O15 0.953296 0.930339 0.716110
#
# Coordination Sequence:
#
# PCOD9099448 Si02
#       7
#     2   2   2   2   2   2   2
#     4  10  23  45  67  96 134 173 221 270 322 388
#     4  10  22  41  66  92 128 175 215 265 328 385
#     4  10  20  37  60  89 127 166 213 264 316 385
#     4  12  25  40  66  99 132 171 218 271 330 386
#     4  12  25  41  64  98 135 171 216 269 329 394
#     4  10  22  41  63  93 129 171 217 263 323 388
#     4  10  22  44  69  95 130 171 222 273 321 389
#
# _framework density 24.676476999999998
#
# number of rings (size 3 to 8) (size 9 to 14) (size 15 to 20)
#    0.000    1.714    0.000    7.286    0.000    7.429 
#    0.000    7.143    0.000    0.857    0.000    0.000 
#    0.000    0.000    0.000    0.000    0.000    0.000 
#
# Total GULP energy -78306.183464 kJ/mol
# GULP energy per Si atom -5593.298819 kJ/mol
# Density = 2.462031 g / cm^3
# Si number density = 24.676477 Si / 1000 Ang^3
#
#
#
# Elastic Constant Matrix: (Units=GPa)
#
#
# Indices 1 2 3 4 5 6 
#
# 1 83.7324 28.1549 15.7983 -3.5666 9.5054 -3.5374
# 2 28.1549 163.6969 49.3834 9.1104 -4.4349 -8.2516
# 3 15.7983 49.3834 78.5622 21.3841 6.9390 1.6910
# 4 -3.5666 9.1104 21.3841 47.7386 -1.0710 -0.3212
# 5 9.5054 -4.4349 6.9390 -1.0710 26.5315 1.3600
# 6 -3.5374 -8.2516 1.6910 -0.3212 1.3600 43.3116
#
#
#
# Elastic Compliance Matrix: (Units=1/GPa)
#
#
# Indices 1 2 3 4 5 6 
#
# 1 0.013601 -0.002052 -0.001595 0.002022 -0.004766 0.000947
# 2 -0.002052 0.008176 -0.005261 0.000730 0.003431 0.001493
# 3 -0.001595 -0.005261 0.018991 -0.007757 -0.005498 -0.001759
# 4 0.002022 0.000730 -0.007757 0.024492 0.002379 0.000714
# 5 -0.004766 0.003431 -0.005498 0.002379 0.041547 -0.000808
# 6 0.000947 0.001493 -0.001759 0.000714 -0.000808 0.023550
#
#
# Mechanical properties :
#
#
# Convention : Reuss Voigt Hill
#
# Bulk Modulus (GPa) = 43.56690 56.96271 50.26481
# Shear Modulus (GPa) = 32.08746 39.02666 35.55706
#
# Velocity S-wave (km/s) = 3.60991 3.98116 3.80008
# Velocity P-wave (km/s) = 5.92190 6.65333 6.29824
#
# Compressibility (1/GPa) = 0.02295321
#
# Stress axis : x y z
#
# Youngs Moduli (GPa) = 73.52502 122.30260 52.65563
#
# Poissons Ratio (x) = 0.25097 0.08398
# Poissons Ratio (y) = 0.15087 0.27701
# Poissons Ratio (z) = 0.11726 0.64341
#
# Static dielectric constant tensor:
#      x y z
#    x 1.647790 0.442290 -0.171110 
#    y 0.442290 1.422940 0.224370 
#    z -0.171110 0.224370 1.913140 
# 
# From -- ./inp_files/337979.got.cif
#   From: 2010.05.17/outbox.cif.g08.bks.cpg/sg2_169_cif.got.tgz:337979.got - 2010.06.03 11:33:40.
