data_PCOD9099788
_publ_section_title
;
Structure prediction by ZEFSAII (Michael W. Deem and Ramdas Pophale) SiO2 
 PCOD9099788
Probable space group: P -1
;
_chemical_formula_sum "Si O2"
_cell_formula_units_Z 14
_cell_length_a 11.378972
_cell_length_b 9.132449
_cell_length_c 8.081505
_cell_angle_alpha 66.341116
_cell_angle_beta 53.902951
_cell_angle_gamma 47.820666
_cell_volume 502.841063
_symmetry_space_group_name_H-M "P -1"
_symmetry_group_IT_number 2
_symmetry_cell_setting 'triclinic'
loop_
_space_group_symop_operation_xyz
x,y,z
-x,-y,-z
loop_
_atom_site_type_symbol
_atom_site_label
_atom_site_fract_x
_atom_site_fract_y
_atom_site_fract_z
Si Si1 0.503273 0.843510 0.951676
Si Si2 0.928787 0.522687 0.256518
Si Si3 0.591289 0.433944 0.734306
Si Si4 0.895071 0.890749 0.847567
Si Si5 0.169225 0.531057 0.276336
Si Si6 0.194401 0.896663 0.528876
Si Si7 0.515972 0.816644 0.491714
O O1 0.511121 0.666429 0.118952
O O2 0.305053 0.974037 0.974714
O O3 0.686219 0.706666 0.759959
O O4 0.500000 0.000000 0.000000
O O5 0.922251 0.440367 0.482610
O O6 0.719782 0.678352 0.315733
O O7 0.031886 0.336807 0.131049
O O8 0.038794 0.608040 0.191496
O O9 0.715190 0.384974 0.815405
O O10 0.711511 0.323643 0.522547
O O11 0.497768 0.663114 0.680515
O O12 0.042810 0.925898 0.763681
O O13 0.869654 0.969525 0.642684
O O14 0.347529 0.906682 0.471854
O O15 0.500000 0.000000 0.500000
#
# Coordination Sequence:
#
# PCOD9099788 Si02
#       7
#     2   2   2   2   2   2   2
#     4  11  22  37  61  95 126 160 201 260 317 358
#     4  10  21  36  65  95 117 158 213 257 300 365
#     4  10  22  37  59  90 123 166 203 254 302 366
#     4  10  20  37  65  96 115 157 213 257 303 366
#     4  10  20  37  61  92 128 153 206 257 305 359
#     4  10  21  38  62  92 124 154 208 259 309 363
#     4  11  24  37  61  95 128 164 202 256 314 356
#
# _framework density 27.841799000000002
#
# number of rings (size 3 to 8) (size 9 to 14) (size 15 to 20)
#    0.000    1.714    4.286    0.857    6.000    0.000 
#    0.000    0.000    0.000   15.429    0.000    0.000 
#    0.000    0.000    0.000    0.000    0.000    0.000 
#
# Total GULP energy -78268.563800 kJ/mol
# GULP energy per Si atom -5590.611700 kJ/mol
# Density = 2.777843 g / cm^3
# Si number density = 27.841799 Si / 1000 Ang^3
#
#
#
# Elastic Constant Matrix: (Units=GPa)
#
#
# Indices 1 2 3 4 5 6 
#
# 1 162.3470 24.8535 18.4735 1.2636 -39.1598 26.4921
# 2 24.8535 171.1177 47.1419 1.9130 -17.2799 31.5459
# 3 18.4735 47.1419 93.9965 11.3350 -19.5048 1.5780
# 4 1.2636 1.9130 11.3350 71.2365 -1.8839 -1.6830
# 5 -39.1598 -17.2799 -19.5048 -1.8839 32.1544 5.0469
# 6 26.4921 31.5459 1.5780 -1.6830 5.0469 47.7020
#
#
#
# Elastic Compliance Matrix: (Units=1/GPa)
#
#
# Indices 1 2 3 4 5 6 
#
# 1 0.011258 0.001510 0.000572 -0.000113 0.016274 -0.008996
# 2 0.001510 0.008320 -0.003263 0.000251 0.005413 -0.006797
# 3 0.000572 -0.003263 0.013871 -0.001927 0.007157 0.000556
# 4 -0.000113 0.000251 -0.001927 0.014341 -0.000412 0.000510
# 5 0.016274 0.005413 0.007157 -0.000412 0.061182 -0.019342
# 6 -0.008996 -0.006797 0.000556 0.000510 -0.019342 0.032500
#
#
# Mechanical properties :
#
#
# Convention : Reuss Voigt Hill
#
# Bulk Modulus (GPa) = 32.16703 67.59988 49.88346
# Shear Modulus (GPa) = 32.42633 52.68473 42.55553
#
# Velocity S-wave (km/s) = 3.41642 4.35476 3.91381
# Velocity P-wave (km/s) = 5.20972 7.04400 6.19513
#
# Compressibility (1/GPa) = 0.03108773
#
# Stress axis : x y z
#
# Youngs Moduli (GPa) = 88.82803 120.18825 72.09413
#
# Poissons Ratio (x) = -0.18154 -0.04121
# Poissons Ratio (y) = -0.13417 0.23522
# Poissons Ratio (z) = -0.05078 0.39213
#
# Static dielectric constant tensor:
#      x y z
#    x 2.306580 -0.083300 0.007800 
#    y -0.083300 2.125980 -0.034220 
#    z 0.007800 -0.034220 2.415400 
# 
# From -- ./inp_files/419276.got.cif
#   From: 2010.05.17/outbox.cif.g08.bks.cpg/sg2_210_cif.got.tgz:419276.got - 2010.06.03 11:33:40.
