data_PCOD9099969
_publ_section_title
;
Structure prediction by ZEFSAII (Michael W. Deem and Ramdas Pophale) SiO2 
 PCOD9099969
Probable space group: P -1
;
_chemical_formula_sum "Si O2"
_cell_formula_units_Z 16
_cell_length_a 9.379125
_cell_length_b 11.553414
_cell_length_c 10.635329
_cell_angle_alpha 135.305630
_cell_angle_beta 65.727890
_cell_angle_gamma 94.487982
_cell_volume 696.539680
_symmetry_space_group_name_H-M "P -1"
_symmetry_group_IT_number 2
_symmetry_cell_setting 'triclinic'
loop_
_space_group_symop_operation_xyz
x,y,z
-x,-y,-z
loop_
_atom_site_type_symbol
_atom_site_label
_atom_site_fract_x
_atom_site_fract_y
_atom_site_fract_z
Si Si1 0.382748 0.190030 0.647884
Si Si2 0.769117 0.740472 0.616725
Si Si3 0.283651 0.528681 0.251054
Si Si4 0.439467 0.857145 0.709899
Si Si5 0.852944 0.920338 0.499806
Si Si6 0.416946 0.716234 0.145401
Si Si7 0.792127 0.348698 0.345281
Si Si8 0.843081 0.782234 0.908783
O O1 0.456415 0.226708 0.517418
O O2 0.201117 0.177909 0.674736
O O3 0.431969 0.298198 0.822560
O O4 0.500000 0.000000 0.500000
O O5 0.580489 0.863925 0.759328
O O6 0.874807 0.792606 0.511212
O O7 0.770257 0.542332 0.455094
O O8 0.829082 0.768928 0.753544
O O9 0.292698 0.650169 0.224130
O O10 0.221498 0.634043 0.483637
O O11 0.181114 0.395621 0.171008
O O12 0.477977 0.402549 0.096051
O O13 0.345028 0.734558 0.705963
O O14 0.303223 0.042238 0.864817
O O15 0.686699 0.089881 0.708844
O O16 0.000000 0.000000 0.500000
O O17 0.971413 0.224536 0.137916
#
# Coordination Sequence:
#
# PCOD9099969 Si02
#       8
#     2   2   2   2   2   2   2   2
#     4   9  18  35  58  87 115 154 203 243 285 352
#     4  10  22  39  59  86 124 159 197 246 302 359
#     4  10  20  37  62  89 116 155 207 246 290 353
#     4  11  21  39  60  91 121 157 204 244 300 362
#     4  10  22  35  61  89 122 156 197 246 309 352
#     4  10  20  37  64  86 114 163 205 242 292 358
#     4  11  23  39  63  90 122 158 200 254 300 351
#     4  11  23  37  62  90 123 156 202 246 303 356
#
# _framework density 22.970693000000001
#
# number of rings (size 3 to 8) (size 9 to 14) (size 15 to 20)
#    0.000    1.750    1.250    4.875    3.500    1.000 
#    0.000    1.250    0.000    4.500    0.000    0.000 
#    0.000    0.000    0.000    0.000    0.000    0.000 
#
# Total GULP energy -89300.404500 kJ/mol
# GULP energy per Si atom -5581.275281 kJ/mol
# Density = 2.291841 g / cm^3
# Si number density = 22.970693 Si / 1000 Ang^3
#
#
#
# Elastic Constant Matrix: (Units=GPa)
#
#
# Indices 1 2 3 4 5 6 
#
# 1 111.3294 35.9626 15.0298 -21.3961 -18.5013 28.4755
# 2 35.9626 117.3536 -3.2283 -6.0176 -3.0907 22.5956
# 3 15.0298 -3.2283 46.9561 6.3896 -15.7161 -0.4617
# 4 -21.3961 -6.0176 6.3896 24.9519 7.8263 -2.7732
# 5 -18.5013 -3.0907 -15.7161 7.8263 27.2442 -2.3791
# 6 28.4755 22.5956 -0.4617 -2.7732 -2.3791 35.4489
#
#
#
# Elastic Compliance Matrix: (Units=1/GPa)
#
#
# Indices 1 2 3 4 5 6 
#
# 1 0.016179 -0.002408 -0.006438 0.013054 0.002345 -0.010367
# 2 -0.002408 0.010154 0.001567 -0.000583 0.000191 -0.004550
# 3 -0.006438 0.001567 0.033243 -0.019760 0.021049 0.004472
# 4 0.013054 -0.000583 -0.019760 0.062012 -0.021019 -0.006931
# 5 0.002345 0.000191 0.021049 -0.021019 0.056537 0.000418
# 6 -0.010367 -0.004550 0.004472 -0.006931 0.000418 0.038982
#
#
# Mechanical properties :
#
#
# Convention : Reuss Voigt Hill
#
# Bulk Modulus (GPa) = 22.21269 41.24084 31.72677
# Shear Modulus (GPa) = 20.27004 32.72069 26.49536
#
# Velocity S-wave (km/s) = 2.97380 3.77829 3.39992
# Velocity P-wave (km/s) = 4.63490 6.08495 5.40874
#
# Compressibility (1/GPa) = 0.04501930
#
# Stress axis : x y z
#
# Youngs Moduli (GPa) = 61.80670 98.48811 30.08175
#
# Poissons Ratio (x) = 0.23716 0.19365
# Poissons Ratio (y) = 0.14883 -0.04715
# Poissons Ratio (z) = 0.39788 -0.15436
#
# Static dielectric constant tensor:
#      x y z
#    x 1.913340 0.030000 0.031660 
#    y 0.030000 1.869390 -0.012210 
#    z 0.031660 -0.012210 1.922100 
# 
# From -- ./inp_files/392998.got.cif
#   From: 2010.05.17/outbox.cif.g08.bks.cpg/sg2_197_cif.got.tgz:392998.got - 2010.06.03 11:33:40.
