data_PCOD9099359
_publ_section_title
;
Structure prediction by ZEFSAII (Michael W. Deem and Ramdas Pophale) SiO2 
 PCOD9099359
Probable space group: P -1
;
_chemical_formula_sum "Si O2"
_cell_formula_units_Z 16
_cell_length_a 13.249570
_cell_length_b 5.357425
_cell_length_c 15.324199
_cell_angle_alpha 76.033447
_cell_angle_beta 137.137817
_cell_angle_gamma 88.584676
_cell_volume 683.755229
_symmetry_space_group_name_H-M "P -1"
_symmetry_group_IT_number 2
_symmetry_cell_setting 'triclinic'
loop_
_space_group_symop_operation_xyz
x,y,z
-x,-y,-z
loop_
_atom_site_type_symbol
_atom_site_label
_atom_site_fract_x
_atom_site_fract_y
_atom_site_fract_z
Si Si1 0.257785 0.350722 0.990494
Si Si2 0.545056 0.184450 0.083755
Si Si3 0.606710 0.519483 0.765865
Si Si4 0.978729 0.207419 0.761544
Si Si5 0.589450 0.883064 0.368591
Si Si6 0.911877 0.630219 0.520811
Si Si7 0.329502 0.466538 0.385251
Si Si8 0.128876 0.815681 0.747576
O O1 0.214126 0.511657 0.858215
O O2 0.113000 0.232893 0.911549
O O3 0.434875 0.166844 0.096688
O O4 0.280794 0.514776 0.076249
O O5 0.733025 0.085348 0.211661
O O6 0.500000 0.500000 0.000000
O O7 0.500000 0.000000 0.000000
O O8 0.540138 0.269623 0.723435
O O9 0.685815 0.584928 0.722221
O O10 0.469658 0.796318 0.678249
O O11 0.946237 0.407244 0.639235
O O12 0.813730 0.276812 0.698781
O O13 0.050462 0.931596 0.779472
O O14 0.727296 0.770362 0.395382
O O15 0.664513 0.764174 0.520727
O O16 0.000000 0.500000 0.500000
O O17 0.995896 0.839538 0.592257
O O18 0.500000 0.500000 0.500000
#
# Coordination Sequence:
#
# PCOD9099359 Si02
#       8
#     2   2   2   2   2   2   2   2
#     4  10  23  39  61  94 128 165 216 259 321 383
#     4  10  20  37  60  86 123 171 207 244 308 383
#     4  11  24  42  67  96 126 172 214 277 314 382
#     4  10  21  42  65  91 129 169 212 268 326 383
#     4  10  24  43  66  94 131 168 218 265 325 382
#     4  10  24  40  61  96 129 169 218 266 321 381
#     4   9  21  43  68  92 126 169 220 266 330 380
#     4  10  22  39  64  89 130 173 207 265 319 384
#
# _framework density 23.400185
#
# number of rings (size 3 to 8) (size 9 to 14) (size 15 to 20)
#    0.000    2.000    1.250    0.375    8.750    2.000 
#    6.750    0.625    0.000    0.000    0.000    0.000 
#    0.000    0.000    0.000    0.000    0.000    0.000 
#
# Total GULP energy -89164.312237 kJ/mol
# GULP energy per Si atom -5572.769515 kJ/mol
# Density = 2.334692 g / cm^3
# Si number density = 23.400185 Si / 1000 Ang^3
#
#
#
# Elastic Constant Matrix: (Units=GPa)
#
#
# Indices 1 2 3 4 5 6 
#
# 1 125.3085 16.0186 37.5764 9.4868 16.0086 -32.6292
# 2 16.0186 67.9092 14.3991 8.7352 7.1595 -4.4806
# 3 37.5764 14.3991 65.4180 18.2468 9.9148 -6.7170
# 4 9.4868 8.7352 18.2468 44.1369 -1.6946 -0.4712
# 5 16.0086 7.1595 9.9148 -1.6946 54.2537 -4.7299
# 6 -32.6292 -4.4806 -6.7170 -0.4712 -4.7299 31.4799
#
#
#
# Elastic Compliance Matrix: (Units=1/GPa)
#
#
# Indices 1 2 3 4 5 6 
#
# 1 0.013220 -0.000881 -0.005857 -0.000181 -0.001667 0.012074
# 2 -0.000881 0.015849 -0.002102 -0.002127 -0.001458 0.000643
# 3 -0.005857 -0.002102 0.021240 -0.007219 -0.002301 -0.002291
# 4 -0.000181 -0.002127 -0.007219 0.026178 0.002359 -0.001285
# 5 -0.001667 -0.001458 -0.002301 0.002359 0.019660 0.000563
# 6 0.012074 0.000643 -0.002291 -0.001285 0.000563 0.043949
#
#
# Mechanical properties :
#
#
# Convention : Reuss Voigt Hill
#
# Bulk Modulus (GPa) = 30.64703 43.84708 37.24705
# Shear Modulus (GPa) = 29.64687 38.68354 34.16520
#
# Velocity S-wave (km/s) = 3.56329 4.07028 3.82519
# Velocity P-wave (km/s) = 5.48222 6.39282 5.95495
#
# Compressibility (1/GPa) = 0.03262959
#
# Stress axis : x y z
#
# Youngs Moduli (GPa) = 75.64335 63.09612 47.08050
#
# Poissons Ratio (x) = 0.05558 0.27574
# Poissons Ratio (y) = 0.06663 0.09897
# Poissons Ratio (z) = 0.44302 0.13264
#
# Static dielectric constant tensor:
#      x y z
#    x 1.963600 0.026610 0.009230 
#    y 0.026610 1.982250 -0.082380 
#    z 0.009230 -0.082380 1.974250 
# 
# From -- ./inp_files/113222.got.cif
#   From: 2010.05.17/outbox.cif.g08.bks.cpg/sg2_57_cif.got.tgz:113222.got - 2010.06.03 11:33:40.
