data_PCOD9099487
_publ_section_title
;
Structure prediction by ZEFSAII (Michael W. Deem and Ramdas Pophale) SiO2 
 PCOD9099487
Probable space group: P -1
;
_chemical_formula_sum "Si O2"
_cell_formula_units_Z 16
_cell_length_a 11.698927
_cell_length_b 14.254187
_cell_length_c 20.506656
_cell_angle_alpha 33.739120
_cell_angle_beta 28.706201
_cell_angle_gamma 30.920306
_cell_volume 799.449286
_symmetry_space_group_name_H-M "P -1"
_symmetry_group_IT_number 2
_symmetry_cell_setting 'triclinic'
loop_
_space_group_symop_operation_xyz
x,y,z
-x,-y,-z
loop_
_atom_site_type_symbol
_atom_site_label
_atom_site_fract_x
_atom_site_fract_y
_atom_site_fract_z
Si Si1 0.332722 0.523789 0.970194
Si Si2 0.537063 0.595034 0.491531
Si Si3 0.256243 0.818292 0.944891
Si Si4 0.672341 0.967223 0.641867
Si Si5 0.898902 0.357297 0.554849
Si Si6 0.437002 0.335366 0.343678
Si Si7 0.979700 0.703119 0.764008
Si Si8 0.955515 0.026863 0.338919
O O1 0.195801 0.704013 0.984387
O O2 0.458404 0.581594 0.814115
O O3 0.572224 0.344381 0.993022
O O4 0.128330 0.448723 0.092011
O O5 0.500000 0.500000 0.500000
O O6 0.481384 0.811972 0.383872
O O7 0.816305 0.471247 0.461620
O O8 0.302822 0.606090 0.650616
O O9 0.457888 0.895308 0.772895
O O10 0.000000 0.000000 0.000000
O O11 0.847844 0.968769 0.491783
O O12 0.857766 0.830356 0.685921
O O13 0.720457 0.503130 0.615991
O O14 0.212472 0.284807 0.456654
O O15 0.857313 0.171794 0.675989
O O16 0.693795 0.159429 0.350145
O O17 0.906789 0.848220 0.777210
#
# Coordination Sequence:
#
# PCOD9099487 Si02
#       8
#     2   2   2   2   2   2   2   2
#     4  10  24  42  60  88 127 165 201 250 311 369
#     4  11  21  35  64  94 122 159 203 262 305 357
#     4  10  23  39  63  89 121 162 208 254 303 367
#     4  10  20  37  60  91 124 155 205 261 303 357
#     4  11  23  39  64  93 120 160 216 255 304 364
#     4  11  24  41  62  92 124 166 205 257 306 371
#     4  10  21  40  59  89 127 162 202 252 312 369
#     4  11  21  41  61  90 124 160 205 255 312 360
#
# _framework density 20.013776
#
# number of rings (size 3 to 8) (size 9 to 14) (size 15 to 20)
#    0.000    1.500    2.500    4.125    3.500    2.500 
#    0.000    0.625    0.000    0.000    0.000    0.000 
#    0.000    0.000    0.000    0.000    0.000    0.000 
#
# Total GULP energy -89398.463685 kJ/mol
# GULP energy per Si atom -5587.403980 kJ/mol
# Density = 1.996822 g / cm^3
# Si number density = 20.013776 Si / 1000 Ang^3
#
#
#
# Elastic Constant Matrix: (Units=GPa)
#
#
# Indices 1 2 3 4 5 6 
#
# 1 93.2067 23.7784 23.9675 -12.7771 -16.6214 13.7109
# 2 23.7784 82.7145 11.4307 -21.4584 -8.4128 16.6848
# 3 23.9675 11.4307 67.4111 -14.2746 -10.2661 10.3289
# 4 -12.7771 -21.4584 -14.2746 16.9375 5.7308 -11.3361
# 5 -16.6214 -8.4128 -10.2661 5.7308 32.8059 -6.2055
# 6 13.7109 16.6848 10.3289 -11.3361 -6.2055 30.5303
#
#
#
# Elastic Compliance Matrix: (Units=1/GPa)
#
#
# Indices 1 2 3 4 5 6 
#
# 1 0.013428 -0.002001 -0.002960 0.002048 0.004582 -0.002244
# 2 -0.002001 0.018683 0.002770 0.023393 0.000272 -0.001507
# 3 -0.002960 0.002770 0.019324 0.016757 0.002325 -0.000027
# 4 0.002048 0.023393 0.016757 0.122776 -0.004377 0.025325
# 5 0.004582 0.000272 0.002325 -0.004377 0.034832 0.002461
# 6 -0.002244 -0.001507 -0.000027 0.025325 0.002461 0.044498
#
#
# Mechanical properties :
#
#
# Convention : Reuss Voigt Hill
#
# Bulk Modulus (GPa) = 21.25316 40.18730 30.72023
# Shear Modulus (GPa) = 18.27435 28.33178 23.30307
#
# Velocity S-wave (km/s) = 3.02501 3.76655 3.41596
# Velocity P-wave (km/s) = 4.77946 6.24814 5.56249
#
# Compressibility (1/GPa) = 0.04705182
#
# Stress axis : x y z
#
# Youngs Moduli (GPa) = 74.46898 53.52476 51.75008
#
# Poissons Ratio (x) = 0.10712 0.15317
# Poissons Ratio (y) = 0.14904 -0.14333
# Poissons Ratio (z) = 0.22041 -0.14824
#
# Static dielectric constant tensor:
#      x y z
#    x 1.734920 0.016590 -0.019080 
#    y 0.016590 1.720240 0.002670 
#    z -0.019080 0.002670 1.679980 
# 
# From -- ./inp_files/427598.got.cif
#   From: 2010.05.17/outbox.cif.g08.bks.cpg/sg2_214_cif.got.tgz:427598.got - 2010.06.03 11:33:40.
