data_PCOD9099137
_publ_section_title
;
Structure prediction by ZEFSAII (Michael W. Deem and Ramdas Pophale) SiO2 
 PCOD9099137
Probable space group: P -1
;
_chemical_formula_sum "Si O2"
_cell_formula_units_Z 16
_cell_length_a 7.132269
_cell_length_b 6.734595
_cell_length_c 16.532790
_cell_angle_alpha 64.085236
_cell_angle_beta 94.470502
_cell_angle_gamma 117.421648
_cell_volume 626.402842
_symmetry_space_group_name_H-M "P -1"
_symmetry_group_IT_number 2
_symmetry_cell_setting 'triclinic'
loop_
_space_group_symop_operation_xyz
x,y,z
-x,-y,-z
loop_
_atom_site_type_symbol
_atom_site_label
_atom_site_fract_x
_atom_site_fract_y
_atom_site_fract_z
Si Si1 0.163716 0.279678 0.485680
Si Si2 0.163790 0.811290 0.889268
Si Si3 0.102865 0.757458 0.369882
Si Si4 0.416687 0.264760 0.361421
Si Si5 0.275064 0.935870 0.046179
Si Si6 0.829934 0.709639 0.230472
Si Si7 0.258619 0.472120 0.181336
Si Si8 0.683646 0.570628 0.080901
O O1 0.101673 0.273783 0.578387
O O2 0.380213 0.310615 0.445622
O O3 0.117479 0.501944 0.413663
O O4 0.000000 0.000000 0.500000
O O5 0.123943 0.813549 0.983622
O O6 0.299610 0.665730 0.908920
O O7 0.949963 0.676411 0.853617
O O8 0.264909 0.094713 0.808387
O O9 0.045705 0.818069 0.269336
O O10 0.313496 0.974174 0.382433
O O11 0.657770 0.442331 0.308913
O O12 0.270334 0.349852 0.287589
O O13 0.281022 0.199161 0.016717
O O14 0.267815 0.739918 0.146060
O O15 0.500000 0.000000 0.000000
O O16 0.852698 0.678184 0.141685
O O17 0.460148 0.494876 0.132524
#
# Coordination Sequence:
#
# PCOD9099137 Si02
#       8
#     2   2   2   2   2   2   2   2
#     4   9  21  39  62  89 118 153 195 238 294 366
#     4  11  21  39  61  85 120 165 203 245 309 354
#     4  10  20  40  62  85 120 155 191 243 297 355
#     4  10  21  39  58  88 119 152 198 246 300 351
#     4   9  20  39  55  84 125 155 205 258 290 361
#     4  10  22  38  59  90 122 151 205 251 285 364
#     4  10  20  37  59  86 120 155 203 255 293 355
#     4   9  22  38  57  88 121 160 205 251 302 353
#
# _framework density 25.542667000000002
#
# number of rings (size 3 to 8) (size 9 to 14) (size 15 to 20)
#    0.000    2.250    1.250    1.125    1.750    5.000 
#    0.000   13.125    0.000    0.000    0.000    0.000 
#    0.000    0.000    0.000    0.000    0.000    0.000 
#
# Total GULP energy -89428.606844 kJ/mol
# GULP energy per Si atom -5589.287928 kJ/mol
# Density = 2.548453 g / cm^3
# Si number density = 25.542667 Si / 1000 Ang^3
#
#
#
# Elastic Constant Matrix: (Units=GPa)
#
#
# Indices 1 2 3 4 5 6 
#
# 1 88.9152 39.3477 -2.4136 -6.0955 10.7152 -21.9204
# 2 39.3477 139.2862 39.1358 -15.7173 4.0004 -32.6982
# 3 -2.4136 39.1358 61.9800 -12.2767 2.1629 -21.6399
# 4 -6.0955 -15.7173 -12.2767 52.7174 1.0499 8.5723
# 5 10.7152 4.0004 2.1629 1.0499 24.6053 4.6945
# 6 -21.9204 -32.6982 -21.6399 8.5723 4.6945 41.6812
#
#
#
# Elastic Compliance Matrix: (Units=1/GPa)
#
#
# Indices 1 2 3 4 5 6 
#
# 1 0.017030 -0.004048 0.007403 0.000969 -0.009452 0.010490
# 2 -0.004048 0.010773 -0.005652 0.000907 -0.000145 0.003218
# 3 0.007403 -0.005652 0.025313 0.003133 -0.007098 0.012757
# 4 0.000969 0.000907 0.003133 0.020299 -0.001490 -0.001159
# 5 -0.009452 -0.000145 -0.007098 -0.001490 0.048118 -0.013882
# 6 0.010490 0.003218 0.012757 -0.001159 -0.013882 0.040458
#
#
# Mechanical properties :
#
#
# Convention : Reuss Voigt Hill
#
# Bulk Modulus (GPa) = 20.60813 49.14679 34.87746
# Shear Modulus (GPa) = 27.35850 38.07487 32.71669
#
# Velocity S-wave (km/s) = 3.27630 3.86507 3.58280
# Velocity P-wave (km/s) = 4.73264 6.26108 5.54973
#
# Compressibility (1/GPa) = 0.04852454
#
# Stress axis : x y z
#
# Youngs Moduli (GPa) = 58.71827 92.82596 39.50473
#
# Poissons Ratio (x) = 0.37574 -0.29247
# Poissons Ratio (y) = 0.23768 0.22327
# Poissons Ratio (z) = -0.43471 0.52462
#
# Static dielectric constant tensor:
#      x y z
#    x 2.051390 0.081950 -0.056790 
#    y 0.081950 2.057670 -0.013750 
#    z -0.056790 -0.013750 2.015470 
# 
# From -- ./inp_files/51943.got.cif
#   From: 2010.05.17/outbox.cif.g08.bks.cpg/sg2_26_cif.got.tgz:51943.got - 2010.06.03 11:33:40.
