data_PCOD9099021
_publ_section_title
;
Structure prediction by ZEFSAII (Michael W. Deem and Ramdas Pophale) SiO2 
 PCOD9099021
Probable space group: P -1
;
_chemical_formula_sum "Si O2"
_cell_formula_units_Z 14
_cell_length_a 13.160184
_cell_length_b 13.129652
_cell_length_c 14.991931
_cell_angle_alpha 130.758079
_cell_angle_beta 19.128783
_cell_angle_gamma 131.842684
_cell_volume 629.669103
_symmetry_space_group_name_H-M "P -1"
_symmetry_group_IT_number 2
_symmetry_cell_setting 'triclinic'
loop_
_space_group_symop_operation_xyz
x,y,z
-x,-y,-z
loop_
_atom_site_type_symbol
_atom_site_label
_atom_site_fract_x
_atom_site_fract_y
_atom_site_fract_z
Si Si1 0.411773 0.628450 0.597704
Si Si2 0.314103 0.781780 0.279587
Si Si3 0.686753 0.635962 0.179621
Si Si4 0.945102 0.932590 0.126678
Si Si5 0.335822 0.072742 0.451012
Si Si6 0.762270 0.508100 0.864839
Si Si7 0.957694 0.221112 0.302003
O O1 0.500000 0.500000 0.500000
O O2 0.615096 0.776266 0.545824
O O3 0.042231 0.629356 0.913810
O O4 0.482899 0.616408 0.426703
O O5 0.134299 0.638252 0.305161
O O6 0.241537 0.773018 0.440463
O O7 0.243050 0.928694 0.392987
O O8 0.686302 0.783421 0.960865
O O9 0.621080 0.534517 0.092656
O O10 0.723817 0.791197 0.199339
O O11 0.891395 0.932055 0.278282
O O12 0.131928 0.923627 0.758064
O O13 0.311399 0.930500 0.806806
O O14 0.014327 0.643699 0.703651
O O15 0.500000 0.500000 0.000000
#
# Coordination Sequence:
#
# PCOD9099021 Si02
#       7
#     2   2   2   2   2   2   2
#     4  10  20  37  59  79  99 126 168 223 273 308
#     4   9  17  30  47  69 100 138 172 201 241 293
#     4  10  21  34  53  80 106 134 168 210 259 306
#     4   8  15  29  46  70 100 128 166 209 247 292
#     4   8  15  29  50  72  95 126 163 209 260 299
#     4  10  21  34  51  75 110 146 175 201 238 299
#     4   9  17  29  47  69  98 138 175 204 238 287
#
# _framework density 22.233899999999998
#
# number of rings (size 3 to 8) (size 9 to 14) (size 15 to 20)
#    0.000    2.857    0.000    0.857    0.000    5.143 
#    0.000    0.000    0.000   19.714    0.000    0.000 
#    0.000    0.000    0.000    0.000    0.000    0.000 
#
# Total GULP energy -78192.793412 kJ/mol
# GULP energy per Si atom -5585.199529 kJ/mol
# Density = 2.218329 g / cm^3
# Si number density = 22.233900 Si / 1000 Ang^3
#
#
#
# Elastic Constant Matrix: (Units=GPa)
#
#
# Indices 1 2 3 4 5 6 
#
# 1 28.1559 41.3147 4.7011 4.9557 -1.1065 -9.7375
# 2 41.3147 202.5280 11.8592 37.9410 5.8981 -24.0369
# 3 4.7011 11.8592 75.5762 -2.1552 -0.0680 -4.8178
# 4 4.9557 37.9410 -2.1552 43.9660 2.7017 1.7406
# 5 -1.1065 5.8981 -0.0680 2.7017 17.7918 8.1221
# 6 -9.7375 -24.0369 -4.8178 1.7406 8.1221 26.3427
#
#
#
# Elastic Compliance Matrix: (Units=1/GPa)
#
#
# Indices 1 2 3 4 5 6 
#
# 1 0.053703 -0.010237 -0.001061 0.002226 0.002035 0.009542
# 2 -0.010237 0.009326 -0.000589 -0.006836 -0.005826 0.006866
# 3 -0.001061 -0.000589 0.013534 0.001272 -0.000791 0.001705
# 4 0.002226 -0.006836 0.001272 0.028662 0.001498 -0.007538
# 5 0.002035 -0.005826 -0.000791 0.001498 0.070094 -0.026419
# 6 0.009542 0.006866 0.001705 -0.007538 -0.026419 0.056709
#
#
# Mechanical properties :
#
#
# Convention : Reuss Voigt Hill
#
# Bulk Modulus (GPa) = 18.94309 46.89002 32.91655
# Shear Modulus (GPa) = 18.28843 34.17911 26.23377
#
# Velocity S-wave (km/s) = 2.87112 3.92503 3.43869
# Velocity P-wave (km/s) = 4.41922 6.45573 5.53199
#
# Compressibility (1/GPa) = 0.05278970
#
# Stress axis : x y z
#
# Youngs Moduli (GPa) = 18.62101 107.23161 73.88589
#
# Poissons Ratio (x) = 1.09772 0.07836
# Poissons Ratio (y) = 0.19062 0.04353
# Poissons Ratio (z) = 0.01975 0.06317
#
# Static dielectric constant tensor:
#      x y z
#    x 1.742020 0.020280 -0.032640 
#    y 0.020280 1.972910 -0.003580 
#    z -0.032640 -0.003580 1.849690 
# 
# From -- ./inp_files/64704.got.cif
#   From: 2010.05.17/outbox.cif.g08.bks.cpg/sg2_33_cif.got.tgz:64704.got - 2010.06.03 11:33:40.
