data_PCOD9099138
_publ_section_title
;
Structure prediction by ZEFSAII (Michael W. Deem and Ramdas Pophale) SiO2 
 PCOD9099138
Probable space group: P -1
;
_chemical_formula_sum "Si O2"
_cell_formula_units_Z 16
_cell_length_a 15.453391
_cell_length_b 11.615235
_cell_length_c 14.315134
_cell_angle_alpha 51.984192
_cell_angle_beta 153.956422
_cell_angle_gamma 139.546837
_cell_volume 710.942543
_symmetry_space_group_name_H-M "P -1"
_symmetry_group_IT_number 2
_symmetry_cell_setting 'triclinic'
loop_
_space_group_symop_operation_xyz
x,y,z
-x,-y,-z
loop_
_atom_site_type_symbol
_atom_site_label
_atom_site_fract_x
_atom_site_fract_y
_atom_site_fract_z
Si Si1 0.652220 0.486278 0.074816
Si Si2 0.727913 0.230199 0.848669
Si Si3 0.882429 0.310028 0.674669
Si Si4 0.612633 0.729166 0.793122
Si Si5 0.054087 0.456268 0.222011
Si Si6 0.898413 0.113101 0.323807
Si Si7 0.431129 0.890799 0.841015
Si Si8 0.965242 0.113799 0.006340
O O1 0.569355 0.543622 0.875022
O O2 0.500000 0.500000 0.000000
O O3 0.603688 0.292545 0.128529
O O4 0.949916 0.635349 0.281008
O O5 0.725010 0.357704 0.706094
O O6 0.921438 0.198860 0.008788
O O7 0.492537 0.028978 0.746755
O O8 0.838666 0.349860 0.989792
O O9 0.629499 0.281793 0.429452
O O10 0.028867 0.483629 0.800758
O O11 0.852986 0.152336 0.787926
O O12 0.807855 0.896408 0.968107
O O13 0.756934 0.791127 0.803764
O O14 0.095839 0.311801 0.370561
O O15 0.791400 0.142269 0.298073
O O16 0.000000 0.000000 0.500000
O O17 0.671726 0.001271 0.086799
#
# Coordination Sequence:
#
# PCOD9099138 Si02
#       8
#     2   2   2   2   2   2   2   2
#     4  11  23  37  58  88 121 162 204 249 306 364
#     4   9  18  36  61  84 121 160 196 253 302 354
#     4  10  20  37  59  86 120 157 204 254 300 364
#     4  10  21  36  60  85 116 163 201 252 302 364
#     4   9  18  36  59  87 118 156 199 249 304 356
#     4  10  21  38  61  85 115 159 202 248 300 363
#     4  10  21  38  59  85 120 160 197 247 302 356
#     4   9  19  38  58  85 118 157 206 244 307 363
#
# _framework density 22.505336
#
# number of rings (size 3 to 8) (size 9 to 14) (size 15 to 20)
#    0.000    2.250    1.250    1.125    1.750    0.500 
#    0.000    7.500    0.000    0.000    0.000    0.000 
#    0.000    0.000    0.000    0.000    0.000    0.000 
#
# Total GULP energy -89248.718531 kJ/mol
# GULP energy per Si atom -5578.044908 kJ/mol
# Density = 2.245411 g / cm^3
# Si number density = 22.505336 Si / 1000 Ang^3
#
#
#
# Elastic Constant Matrix: (Units=GPa)
#
#
# Indices 1 2 3 4 5 6 
#
# 1 104.7765 49.6436 31.1038 4.4971 29.8097 4.4481
# 2 49.6436 170.5108 34.8268 -40.9200 11.6435 17.8410
# 3 31.1038 34.8268 83.6017 -14.5694 31.5299 9.4022
# 4 4.4971 -40.9200 -14.5694 31.7747 -2.4204 -0.2470
# 5 29.8097 11.6435 31.5299 -2.4204 22.8089 -0.7992
# 6 4.4481 17.8410 9.4022 -0.2470 -0.7992 42.2717
#
#
#
# Elastic Compliance Matrix: (Units=1/GPa)
#
#
# Indices 1 2 3 4 5 6 
#
# 1 0.022404 -0.008741 0.005911 -0.014354 -0.034538 -0.000720
# 2 -0.008741 0.012750 -0.002366 0.017297 0.009894 -0.003647
# 3 0.005911 -0.002366 0.031443 0.006701 -0.049535 -0.007514
# 4 -0.014354 0.017297 0.006701 0.059310 0.006721 -0.006807
# 5 -0.034538 0.009894 -0.049535 0.006721 0.153588 0.013419
# 6 -0.000720 -0.003647 -0.007514 -0.006807 0.013419 0.027157
#
#
# Mechanical properties :
#
#
# Convention : Reuss Voigt Hill
#
# Bulk Modulus (GPa) = 17.79210 65.55970 41.67590
# Shear Modulus (GPa) = 14.89078 35.59206 25.24142
#
# Velocity S-wave (km/s) = 2.57506 3.98111 3.35263
# Velocity P-wave (km/s) = 4.09440 7.09411 5.79182
#
# Compressibility (1/GPa) = 0.05620471
#
# Stress axis : x y z
#
# Youngs Moduli (GPa) = 44.63524 78.43158 31.80408
#
# Poissons Ratio (x) = 0.68558 -0.18801
# Poissons Ratio (y) = 0.39016 0.07526
# Poissons Ratio (z) = -0.26386 0.18559
#
# Static dielectric constant tensor:
#      x y z
#    x 1.861960 0.027500 -0.024280 
#    y 0.027500 1.888140 0.012690 
#    z -0.024280 0.012690 1.822690 
# 
# From -- ./inp_files/532438.got.cif
#   From: 2010.05.17/outbox.cif.g08.bks.cpg/sg2_267_cif.got.tgz:532438.got - 2010.06.03 11:33:40.
