data_PCOD9099934
_publ_section_title
;
Structure prediction by ZEFSAII (Michael W. Deem and Ramdas Pophale) SiO2 
 PCOD9099934
Probable space group: P -1
;
_chemical_formula_sum "Si O2"
_cell_formula_units_Z 14
_cell_length_a 8.357740
_cell_length_b 8.679027
_cell_length_c 14.529851
_cell_angle_alpha 51.509875
_cell_angle_beta 75.164354
_cell_angle_gamma 45.198720
_cell_volume 552.833687
_symmetry_space_group_name_H-M "P -1"
_symmetry_group_IT_number 2
_symmetry_cell_setting 'triclinic'
loop_
_space_group_symop_operation_xyz
x,y,z
-x,-y,-z
loop_
_atom_site_type_symbol
_atom_site_label
_atom_site_fract_x
_atom_site_fract_y
_atom_site_fract_z
Si Si1 0.216621 0.170572 0.565573
Si Si2 0.454626 0.324960 0.189807
Si Si3 0.151664 0.806755 0.421851
Si Si4 0.702724 0.682590 0.126552
Si Si5 0.038211 0.293501 0.361398
Si Si6 0.834960 0.328083 0.067385
Si Si7 0.333849 0.681128 0.247066
O O1 0.000000 0.500000 0.500000
O O2 0.109363 0.039011 0.633118
O O3 0.237486 0.185538 0.447185
O O4 0.414392 0.989318 0.682582
O O5 0.643330 0.321017 0.121965
O O6 0.351896 0.495964 0.237392
O O7 0.256414 0.486619 0.080047
O O8 0.154986 0.655704 0.563623
O O9 0.321092 0.628315 0.375870
O O10 0.143895 0.034218 0.375605
O O11 0.894355 0.574006 0.217588
O O12 0.835873 0.480867 0.093785
O O13 0.553101 0.634578 0.211816
O O14 0.500000 0.000000 0.000000
O O15 0.092517 0.008926 0.140189
#
# Coordination Sequence:
#
# PCOD9099934 Si02
#       7
#     2   2   2   2   2   2   2
#     4  10  20  37  62  87 126 163 190 255 316 351
#     4  10  21  36  62  89 121 161 204 240 311 371
#     4   9  18  37  65  84 120 156 210 247 291 361
#     4  11  24  38  61  90 122 161 204 250 321 358
#     4   9  19  40  61  87 124 161 204 250 304 363
#     4  10  20  39  60  87 123 162 201 254 296 363
#     4  11  20  39  64  92 116 161 214 254 294 371
#
# _framework density 25.324069999999999
#
# number of rings (size 3 to 8) (size 9 to 14) (size 15 to 20)
#    0.857    1.143    2.857    1.286    2.000    1.143 
#    0.000    0.714    0.000    0.000    0.000    0.000 
#    0.000    0.000    0.000    0.000    0.000    0.000 
#
# Total GULP energy -78163.125286 kJ/mol
# GULP energy per Si atom -5583.080378 kJ/mol
# Density = 2.526643 g / cm^3
# Si number density = 25.324070 Si / 1000 Ang^3
#
#
#
# Elastic Constant Matrix: (Units=GPa)
#
#
# Indices 1 2 3 4 5 6 
#
# 1 51.7362 9.7279 32.7885 14.4111 1.6842 -13.0377
# 2 9.7279 125.6731 68.2935 7.7348 7.5836 3.3359
# 3 32.7885 68.2935 226.7727 -1.2837 24.5307 6.9035
# 4 14.4111 7.7348 -1.2837 53.7850 -4.3971 -8.3775
# 5 1.6842 7.5836 24.5307 -4.3971 28.8276 12.2037
# 6 -13.0377 3.3359 6.9035 -8.3775 12.2037 25.2050
#
#
#
# Elastic Compliance Matrix: (Units=1/GPa)
#
#
# Indices 1 2 3 4 5 6 
#
# 1 0.027671 0.000276 -0.003952 -0.005478 -0.006155 0.016518
# 2 0.000276 0.009655 -0.002937 -0.001670 0.000080 -0.000924
# 3 -0.003952 -0.002937 0.006306 0.001141 -0.003669 -0.001227
# 4 -0.005478 -0.001670 0.001141 0.020968 0.001604 0.003268
# 5 -0.006155 0.000080 -0.003669 0.001604 0.049175 -0.025465
# 6 0.016518 -0.000924 -0.001227 0.003268 -0.025465 0.062093
#
#
# Mechanical properties :
#
#
# Convention : Reuss Voigt Hill
#
# Bulk Modulus (GPa) = 32.88997 69.53354 51.21175
# Shear Modulus (GPa) = 25.09672 41.12165 33.10919
#
# Velocity S-wave (km/s) = 3.15147 4.03403 3.61975
# Velocity P-wave (km/s) = 5.12427 7.01534 6.14301
#
# Compressibility (1/GPa) = 0.03040441
#
# Stress axis : x y z
#
# Youngs Moduli (GPa) = 36.13955 103.57861 158.56785
#
# Poissons Ratio (x) = -0.02857 0.62666
# Poissons Ratio (y) = -0.00997 0.46577
# Poissons Ratio (z) = 0.14282 0.30425
#
# Static dielectric constant tensor:
#      x y z
#    x 2.033220 -0.021720 0.003890 
#    y -0.021720 1.975320 -0.004680 
#    z 0.003890 -0.004680 2.048470 
# 
# From -- ./inp_files/494479.got.cif
#   From: 2010.05.17/outbox.cif.g08.bks.cpg/sg2_248_cif.got.tgz:494479.got - 2010.06.03 11:33:40.
