data_PCOD9099754
_publ_section_title
;
Structure prediction by ZEFSAII (Michael W. Deem and Ramdas Pophale) SiO2 
 PCOD9099754
Probable space group: P -1
;
_chemical_formula_sum "Si O2"
_cell_formula_units_Z 16
_cell_length_a 12.500258
_cell_length_b 15.967050
_cell_length_c 22.899494
_cell_angle_alpha 159.722222
_cell_angle_beta 27.290451
_cell_angle_gamma 140.369876
_cell_volume 665.892919
_symmetry_space_group_name_H-M "P -1"
_symmetry_group_IT_number 2
_symmetry_cell_setting 'triclinic'
loop_
_space_group_symop_operation_xyz
x,y,z
-x,-y,-z
loop_
_atom_site_type_symbol
_atom_site_label
_atom_site_fract_x
_atom_site_fract_y
_atom_site_fract_z
Si Si1 0.177069 0.085597 0.111673
Si Si2 0.917995 0.872177 0.012913
Si Si3 0.604253 0.892747 0.623237
Si Si4 0.890043 0.816068 0.654960
Si Si5 0.585751 0.204020 0.952803
Si Si6 0.234541 0.075748 0.646627
Si Si7 0.982953 0.617143 0.162821
Si Si8 0.356287 0.468477 0.482149
O O1 0.944971 0.041184 0.164989
O O2 0.410828 0.808580 0.801743
O O3 0.283511 0.293795 0.169305
O O4 0.154784 0.125001 0.216776
O O5 0.140732 0.580208 0.710094
O O6 0.000000 0.000000 0.000000
O O7 0.637294 0.885591 0.148330
O O8 0.856682 0.765208 0.379499
O O9 0.489297 0.669263 0.538144
O O10 0.644428 0.018226 0.745640
O O11 0.803505 0.584114 0.527355
O O12 0.711836 0.051506 0.851897
O O13 0.160700 0.824861 0.514467
O O14 0.737903 0.386429 0.986628
O O15 0.199128 0.215033 0.691634
O O16 0.500000 0.000000 0.500000
O O17 0.023293 0.312898 0.941952
#
# Coordination Sequence:
#
# PCOD9099754 Si02
#       8
#     2   2   2   2   2   2   2   2
#     4  11  20  38  63  90 125 162 207 260 306 372
#     4  10  21  36  56  89 127 161 199 255 312 368
#     4  11  22  39  62  91 126 163 206 250 316 379
#     4  10  23  37  63  95 120 160 212 256 315 371
#     4  10  20  38  62  90 125 159 209 254 308 371
#     4  10  23  45  62  91 127 165 212 261 308 378
#     4  10  23  42  67  87 124 175 208 255 317 366
#     4  10  20  37  61  91 123 162 201 259 318 356
#
# _framework density 24.027888000000001
#
# number of rings (size 3 to 8) (size 9 to 14) (size 15 to 20)
#    0.000    1.750    2.500    3.000    3.500    3.000 
#    0.000    2.500    0.000    6.000    0.000    0.000 
#    0.000    0.000    0.000    0.000    0.000    0.000 
#
# Total GULP energy -89290.229346 kJ/mol
# GULP energy per Si atom -5580.639334 kJ/mol
# Density = 2.397320 g / cm^3
# Si number density = 24.027888 Si / 1000 Ang^3
#
#
#
# Elastic Constant Matrix: (Units=GPa)
#
#
# Indices 1 2 3 4 5 6 
#
# 1 153.4368 21.0762 31.1467 5.2539 30.5808 17.0374
# 2 21.0762 75.9589 9.9831 15.0657 2.6756 11.7090
# 3 31.1467 9.9831 58.4597 2.5195 2.5361 -8.8548
# 4 5.2539 15.0657 2.5195 30.2105 1.7096 10.2836
# 5 30.5808 2.6756 2.5361 1.7096 47.2728 -3.9131
# 6 17.0374 11.7090 -8.8548 10.2836 -3.9131 29.8246
#
#
#
# Elastic Compliance Matrix: (Units=1/GPa)
#
#
# Indices 1 2 3 4 5 6 
#
# 1 0.010364 -0.000850 -0.006619 0.002800 -0.007186 -0.009461
# 2 -0.000850 0.015608 -0.002615 -0.005889 -0.000347 -0.004434
# 3 -0.006619 -0.002615 0.023166 -0.004429 0.004490 0.013802
# 4 0.002800 -0.005889 -0.004429 0.041389 -0.004012 -0.015400
# 5 -0.007186 -0.000347 0.004490 -0.004012 0.026591 0.010447
# 6 -0.009461 -0.004434 0.013802 -0.015400 0.010447 0.051453
#
#
# Mechanical properties :
#
#
# Convention : Reuss Voigt Hill
#
# Bulk Modulus (GPa) = 34.51834 45.80750 40.16292
# Shear Modulus (GPa) = 25.20205 36.50487 30.85346
#
# Velocity S-wave (km/s) = 3.24213 3.90201 3.58728
# Velocity P-wave (km/s) = 5.33033 6.27747 5.82319
#
# Compressibility (1/GPa) = 0.02897011
#
# Stress axis : x y z
#
# Youngs Moduli (GPa) = 96.48329 64.06866 43.16759
#
# Poissons Ratio (x) = 0.05445 0.28572
# Poissons Ratio (y) = 0.08200 0.11290
# Poissons Ratio (z) = 0.63861 0.16756
#
# Static dielectric constant tensor:
#      x y z
#    x 1.978190 -0.015400 -0.088810 
#    y -0.015400 1.977340 0.077300 
#    z -0.088810 0.077300 2.041370 
# 
# From -- ./inp_files/610786.got.cif
#   From: 2010.05.17/outbox.cif.g08.bks.cpg/sg2_306_cif.got.tgz:610786.got - 2010.06.03 11:33:40.
