data_PCOD9099547
_publ_section_title
;
Structure prediction by ZEFSAII (Michael W. Deem and Ramdas Pophale) SiO2 
 PCOD9099547
Probable space group: P -1
;
_chemical_formula_sum "Si O2"
_cell_formula_units_Z 12
_cell_length_a 9.214911
_cell_length_b 9.061981
_cell_length_c 7.798832
_cell_angle_alpha 99.052826
_cell_angle_beta 88.313860
_cell_angle_gamma 59.872284
_cell_volume 551.752653
_symmetry_space_group_name_H-M "P -1"
_symmetry_group_IT_number 2
_symmetry_cell_setting 'triclinic'
loop_
_space_group_symop_operation_xyz
x,y,z
-x,-y,-z
loop_
_atom_site_type_symbol
_atom_site_label
_atom_site_fract_x
_atom_site_fract_y
_atom_site_fract_z
Si Si1 0.262432 0.151970 0.888384
Si Si2 0.817631 0.059004 0.595450
Si Si3 0.122645 0.500529 0.844448
Si Si4 0.513923 0.140270 0.406227
Si Si5 0.819482 0.729391 0.692858
Si Si6 0.078807 0.823634 0.074663
O O1 0.274721 0.303373 0.815136
O O2 0.087004 0.167448 0.836011
O O3 0.407130 0.963651 0.792741
O O4 0.243414 0.190520 0.097976
O O5 0.656962 0.164088 0.495900
O O6 0.802184 0.169774 0.785005
O O7 0.829473 0.879509 0.618811
O O8 0.000000 0.000000 0.500000
O O9 0.003412 0.563370 0.693977
O O10 0.160257 0.651001 0.923143
O O11 0.000000 0.500000 0.000000
O O12 0.325524 0.293260 0.394964
O O13 0.500000 0.000000 0.500000
O O14 0.000000 0.000000 0.000000
#
# Coordination Sequence:
#
# PCOD9099547 Si02
#       6
#     2   2   2   2   2   2
#     4  10  18  34  58  80 101 141 178 221 253 313
#     4  11  19  30  51  82 109 133 174 218 263 304
#     4   8  17  31  57  80  99 132 186 219 252 299
#     4  10  21  32  50  82 110 137 172 217 266 312
#     4   9  18  34  53  81 101 138 180 216 249 316
#     4  10  16  31  56  79 100 132 186 220 245 306
#
# _framework density 21.748878000000001
#
# number of rings (size 3 to 8) (size 9 to 14) (size 15 to 20)
#    0.000    2.667    5.000    0.500    0.000    0.000 
#    0.000    3.333    0.000   13.000   17.333    1.167 
#    0.000    0.000    0.000    0.000    0.000    0.000 
#
# Total GULP energy -66873.500885 kJ/mol
# GULP energy per Si atom -5572.791740 kJ/mol
# Density = 2.169938 g / cm^3
# Si number density = 21.748878 Si / 1000 Ang^3
#
#
#
# Elastic Constant Matrix: (Units=GPa)
#
#
# Indices 1 2 3 4 5 6 
#
# 1 90.3894 25.9614 38.0930 -3.6285 38.1229 -4.4360
# 2 25.9614 83.6566 15.6639 -6.7544 13.1064 8.6659
# 3 38.0930 15.6639 89.9732 -5.5207 24.5059 -1.3931
# 4 -3.6285 -6.7544 -5.5207 20.1964 -2.9642 1.2584
# 5 38.1229 13.1064 24.5059 -2.9642 40.7114 -1.1737
# 6 -4.4360 8.6659 -1.3931 1.2584 -1.1737 24.2818
#
#
#
# Elastic Compliance Matrix: (Units=1/GPa)
#
#
# Indices 1 2 3 4 5 6 
#
# 1 0.020493 -0.003721 -0.003761 -0.001153 -0.015693 0.004157
# 2 -0.003721 0.014285 -0.000572 0.004237 -0.000637 -0.006061
# 3 -0.003761 -0.000572 0.014226 0.002335 -0.004688 -0.000014
# 4 -0.001153 0.004237 0.002335 0.051911 0.001969 -0.004184
# 5 -0.015693 -0.000637 -0.004688 0.001969 0.042400 -0.000961
# 6 0.004157 -0.006061 -0.000014 -0.004184 -0.000961 0.044275
#
#
# Mechanical properties :
#
#
# Convention : Reuss Voigt Hill
#
# Bulk Modulus (GPa) = 30.39801 47.05065 38.72433
# Shear Modulus (GPa) = 23.29216 29.32466 26.30841
#
# Velocity S-wave (km/s) = 3.27610 3.67594 3.48177
# Velocity P-wave (km/s) = 5.32143 6.30058 5.83159
#
# Compressibility (1/GPa) = 0.03289689
#
# Stress axis : x y z
#
# Youngs Moduli (GPa) = 48.79680 70.00312 70.29309
#
# Poissons Ratio (x) = 0.26046 0.26436
# Poissons Ratio (y) = 0.18156 0.04022
# Poissons Ratio (z) = 0.18352 0.04006
#
# Static dielectric constant tensor:
#      x y z
#    x 1.840930 -0.044780 -0.012580 
#    y -0.044780 1.894540 0.048540 
#    z -0.012580 0.048540 1.869800 
# 
# From -- ./inp_files/150913.got.cif
#   From: 2010.05.17/outbox.cif.g08.bks.cpg/sg2_76_cif.got.tgz:150913.got - 2010.06.03 11:33:40.
