data_PCOD9099259
_publ_section_title
;
Structure prediction by ZEFSAII (Michael W. Deem and Ramdas Pophale) SiO2 
 PCOD9099259
Probable space group: P -1
;
_chemical_formula_sum "Si O2"
_cell_formula_units_Z 16
_cell_length_a 22.010516
_cell_length_b 23.433614
_cell_length_c 9.044774
_cell_angle_alpha 151.117226
_cell_angle_beta 32.361009
_cell_angle_gamma 161.394745
_cell_volume 715.585279
_symmetry_space_group_name_H-M "P -1"
_symmetry_group_IT_number 2
_symmetry_cell_setting 'triclinic'
loop_
_space_group_symop_operation_xyz
x,y,z
-x,-y,-z
loop_
_atom_site_type_symbol
_atom_site_label
_atom_site_fract_x
_atom_site_fract_y
_atom_site_fract_z
Si Si1 0.579978 0.294071 0.343817
Si Si2 0.229276 0.095651 0.292702
Si Si3 0.265996 0.629331 0.469295
Si Si4 0.170364 0.008644 0.555370
Si Si5 0.413013 0.025072 0.626522
Si Si6 0.103852 0.603600 0.181224
Si Si7 0.834569 0.713400 0.092935
Si Si8 0.212579 0.309641 0.212691
O O1 0.660769 0.332838 0.428581
O O2 0.355719 0.080394 0.336311
O O3 0.607680 0.453454 0.594335
O O4 0.720729 0.340513 0.052703
O O5 0.145234 0.011522 0.440102
O O6 0.294433 0.286227 0.582603
O O7 0.374866 0.114151 0.996078
O O8 0.050930 0.927863 0.171435
O O9 0.431571 0.824073 0.476394
O O10 0.074728 0.548370 0.685026
O O11 0.215980 0.456001 0.122282
O O12 0.227805 0.181091 0.910034
O O13 0.974332 0.804804 0.572248
O O14 0.500000 0.000000 0.500000
O O15 0.216972 0.818292 0.479199
O O16 0.000000 0.500000 0.000000
O O17 0.822115 0.699700 0.910750
#
# Coordination Sequence:
#
# PCOD9099259 Si02
#       8
#     2   2   2   2   2   2   2   2
#     4  10  21  36  63  90 119 164 215 267 308 388
#     4  10  21  39  66  94 134 164 211 265 327 392
#     4  10  23  42  67  91 124 172 220 269 329 380
#     4  10  20  37  59  96 127 163 204 264 330 379
#     4  12  26  43  65  95 133 176 220 272 328 400
#     4  10  23  43  63  91 125 165 219 271 319 384
#     4   9  19  42  67  94 124 170 213 266 322 391
#     4   9  20  37  63  89 127 164 208 264 320 380
#
# _framework density 22.35932
#
# number of rings (size 3 to 8) (size 9 to 14) (size 15 to 20)
#    0.000    2.000    1.250    1.125    1.750    5.000 
#    4.500    0.000    0.000    0.000    0.000    0.000 
#    0.000    0.000    0.000    0.000    0.000    0.000 
#
# Total GULP energy -89234.498471 kJ/mol
# GULP energy per Si atom -5577.156154 kJ/mol
# Density = 2.230843 g / cm^3
# Si number density = 22.359320 Si / 1000 Ang^3
#
#
#
# Elastic Constant Matrix: (Units=GPa)
#
#
# Indices 1 2 3 4 5 6 
#
# 1 35.6700 5.1370 24.1281 0.5377 -11.5952 10.1981
# 2 5.1370 105.7071 21.3546 -26.3461 0.1905 0.7350
# 3 24.1281 21.3546 95.0255 -21.4723 -5.2163 5.0343
# 4 0.5377 -26.3461 -21.4723 21.1934 14.2726 -8.7611
# 5 -11.5952 0.1905 -5.2163 14.2726 21.8971 -1.9227
# 6 10.1981 0.7350 5.0343 -8.7611 -1.9227 24.8494
#
#
#
# Elastic Compliance Matrix: (Units=1/GPa)
#
#
# Indices 1 2 3 4 5 6 
#
# 1 -0.009275 0.018481 0.012613 0.082895 -0.053836 0.025765
# 2 0.018481 0.003549 -0.009794 -0.028256 0.024631 -0.013762
# 3 0.012613 -0.009794 0.004307 -0.033570 0.028319 -0.015404
# 4 0.082895 -0.028256 -0.033570 -0.125331 0.112403 -0.061874
# 5 -0.053836 0.024631 0.028319 0.112403 -0.045026 0.051774
# 6 0.025765 -0.013762 -0.015404 -0.061874 0.051774 0.015388
#
#
# Mechanical properties :
#
#
# Convention : Reuss Voigt Hill
#
# Bulk Modulus (GPa) = 24.28282 37.51576 30.89929
# Shear Modulus (GPa) = -26.98894 25.97352 -0.50771
#
# Velocity S-wave (km/s) = -3.47804 3.41198 -0.47703
# Velocity P-wave (km/s) = 2.29023 5.68658 3.68049
#
# Compressibility (1/GPa) = 0.04118137
#
# Stress axis : x y z
#
# Youngs Moduli (GPa) = -107.82109 281.74270 232.19186
#
# Poissons Ratio (x) = -5.20689 -2.92858
# Poissons Ratio (y) = 1.99264 2.27406
# Poissons Ratio (z) = 1.35992 2.75935
#
# Static dielectric constant tensor:
#      x y z
#    x 1.838470 0.019910 -0.033270 
#    y 0.019910 1.774660 0.040490 
#    z -0.033270 0.040490 1.934080 
# 
# From -- ./inp_files/355586.got.cif
#   From: 2010.05.17/outbox.cif.g08.bks.cpg/sg2_178_cif.got.tgz:355586.got - 2010.06.03 11:33:40.
