data_PCOD9099413
_publ_section_title
;
Structure prediction by ZEFSAII (Michael W. Deem and Ramdas Pophale) SiO2 
 PCOD9099413
Probable space group: P -1
;
_chemical_formula_sum "Si O2"
_cell_formula_units_Z 12
_cell_length_a 5.323225
_cell_length_b 9.252616
_cell_length_c 20.521032
_cell_angle_alpha 146.151245
_cell_angle_beta 119.883957
_cell_angle_gamma 69.529038
_cell_volume 483.813173
_symmetry_space_group_name_H-M "P -1"
_symmetry_group_IT_number 2
_symmetry_cell_setting 'triclinic'
loop_
_space_group_symop_operation_xyz
x,y,z
-x,-y,-z
loop_
_atom_site_type_symbol
_atom_site_label
_atom_site_fract_x
_atom_site_fract_y
_atom_site_fract_z
Si Si1 0.774284 0.098559 0.619853
Si Si2 0.547943 0.125244 0.962132
Si Si3 0.543606 0.792448 0.587520
Si Si4 0.849538 0.978442 0.822487
Si Si5 0.960383 0.397785 0.634562
Si Si6 0.542005 0.585003 0.818410
O O1 0.982068 0.238544 0.643789
O O2 0.727070 0.348092 0.752446
O O3 0.500000 0.000000 0.500000
O O4 0.774477 0.868006 0.586825
O O5 0.718953 0.146817 0.924511
O O6 0.664024 0.877193 0.920630
O O7 0.585386 0.359900 0.106480
O O8 0.193760 0.065369 0.885412
O O9 0.500000 0.500000 0.500000
O O10 0.652845 0.971573 0.729689
O O11 0.228481 0.784878 0.509692
O O12 0.828336 0.671825 0.728007
O O13 0.294334 0.495573 0.698465
#
# Coordination Sequence:
#
# PCOD9099413 Si02
#       6
#     2   2   2   2   2   2
#     4  10  20  37  60  88 122 156 206 258 305 360
#     4  10  22  37  68  88 130 160 208 248 299 369
#     4   9  20  39  59  87 123 162 203 253 311 368
#     4  10  20  41  59  95 121 169 201 246 306 367
#     4   9  19  37  62  87 124 152 208 256 305 358
#     4  10  21  36  61  96 115 162 204 258 301 355
#
# _framework density 24.802965
#
# number of rings (size 3 to 8) (size 9 to 14) (size 15 to 20)
#    0.000    2.333    1.667    0.000    2.333    4.667 
#    9.000    5.000    0.000    0.000    0.000    0.000 
#    0.000    0.000    0.000    0.000    0.000    0.000 
#
# Total GULP energy -66877.051388 kJ/mol
# GULP energy per Si atom -5573.087616 kJ/mol
# Density = 2.474651 g / cm^3
# Si number density = 24.802965 Si / 1000 Ang^3
#
#
#
# Elastic Constant Matrix: (Units=GPa)
#
#
# Indices 1 2 3 4 5 6 
#
# 1 78.1350 22.3737 43.8343 -4.4612 0.5865 9.8612
# 2 22.3737 106.9309 36.0112 -7.7714 -10.4792 17.5586
# 3 43.8343 36.0112 133.3413 -16.1734 -1.0285 -13.4105
# 4 -4.4612 -7.7714 -16.1734 37.9948 -0.1891 -5.4077
# 5 0.5865 -10.4792 -1.0285 -0.1891 50.8970 -0.8146
# 6 9.8612 17.5586 -13.4105 -5.4077 -0.8146 20.3511
#
#
#
# Elastic Compliance Matrix: (Units=1/GPa)
#
#
# Indices 1 2 3 4 5 6 
#
# 1 0.019478 0.001603 -0.009093 -0.003797 -0.000378 -0.017837
# 2 0.001603 0.014141 -0.006358 -0.002123 0.002474 -0.017632
# 3 -0.009093 -0.006358 0.015280 0.007245 -0.000519 0.021865
# 4 -0.003797 -0.002123 0.007245 0.030896 0.000135 0.016661
# 5 -0.000378 0.002474 -0.000519 0.000135 0.020128 -0.001452
# 6 -0.017837 -0.017632 0.021865 0.016661 -0.001452 0.091770
#
#
# Mechanical properties :
#
#
# Convention : Reuss Voigt Hill
#
# Bulk Modulus (GPa) = 47.16427 58.09396 52.62911
# Shear Modulus (GPa) = 22.07934 36.26110 29.17022
#
# Velocity S-wave (km/s) = 2.98684 3.82772 3.43312
# Velocity P-wave (km/s) = 5.56344 6.55807 6.08112
#
# Compressibility (1/GPa) = 0.02120249
#
# Stress axis : x y z
#
# Youngs Moduli (GPa) = 51.33968 70.71670 65.44630
#
# Poissons Ratio (x) = -0.11335 0.59513
# Poissons Ratio (y) = -0.08229 0.41608
# Poissons Ratio (z) = 0.46685 0.44959
#
# Static dielectric constant tensor:
#      x y z
#    x 2.199470 -0.003760 0.016900 
#    y -0.003760 2.000390 0.025610 
#    z 0.016900 0.025610 2.006300 
# 
# From -- ./inp_files/19246.got.cif
#   From: 2010.05.17/outbox.cif.g08.bks.cpg/sg2_10_cif.got.tgz:19246.got - 2010.06.03 11:33:40.
