data_PCOD9099762
_publ_section_title
;
Structure prediction by ZEFSAII (Michael W. Deem and Ramdas Pophale) SiO2 
 PCOD9099762
Probable space group: P -1
;
_chemical_formula_sum "Si O2"
_cell_formula_units_Z 16
_cell_length_a 15.457125
_cell_length_b 24.812365
_cell_length_c 5.403186
_cell_angle_alpha 92.236359
_cell_angle_beta 98.113027
_cell_angle_gamma 17.838126
_cell_volume 596.593223
_symmetry_space_group_name_H-M "P -1"
_symmetry_group_IT_number 2
_symmetry_cell_setting 'triclinic'
loop_
_space_group_symop_operation_xyz
x,y,z
-x,-y,-z
loop_
_atom_site_type_symbol
_atom_site_label
_atom_site_fract_x
_atom_site_fract_y
_atom_site_fract_z
Si Si1 0.176148 0.531051 0.666782
Si Si2 0.287437 0.669235 0.566777
Si Si3 0.208126 0.848965 0.859481
Si Si4 0.822784 0.237451 0.975998
Si Si5 0.649272 0.988511 0.933464
Si Si6 0.207852 0.311417 0.146809
Si Si7 0.609941 0.682597 0.688055
Si Si8 0.846655 0.834030 0.483222
O O1 0.466823 0.360286 0.932931
O O2 0.269655 0.429332 0.490942
O O3 0.874013 0.688277 0.702983
O O4 0.086357 0.643692 0.561069
O O5 0.500000 0.500000 0.500000
O O6 0.258138 0.729997 0.338432
O O7 0.991733 0.808694 0.521921
O O8 0.418293 0.601474 0.884665
O O9 0.048439 0.884809 0.804661
O O10 0.304190 0.834945 0.687149
O O11 0.000000 0.000000 0.000000
O O12 0.069668 0.136623 0.003444
O O13 0.708352 0.913585 0.170751
O O14 0.377671 0.187102 0.954463
O O15 0.651419 0.954137 0.674234
O O16 0.388085 0.254054 0.339507
O O17 0.867983 0.529084 0.976005
#
# Coordination Sequence:
#
# PCOD9099762 Si02
#       8
#     2   2   2   2   2   2   2   2
#     4  11  25  43  68 101 133 179 226 289 346 414
#     4  10  20  37  61  91 129 180 215 263 327 400
#     4  11  25  43  66  99 133 177 226 285 343 408
#     4  10  22  39  62  96 131 171 219 269 330 395
#     4  10  23  44  68 104 138 187 227 281 334 416
#     4  10  23  45  70  95 135 179 236 284 346 401
#     4  10  24  45  69  98 133 178 233 289 346 406
#     4  10  24  40  67 102 145 176 230 278 346 406
#
# _framework density 26.818943000000001
#
# number of rings (size 3 to 8) (size 9 to 14) (size 15 to 20)
#    0.000    1.750    0.000    2.250    8.750    2.500 
#    6.750    0.000    0.000    0.000    0.000    0.000 
#    0.000    0.000    0.000    0.000    0.000    0.000 
#
# Total GULP energy -89179.933434 kJ/mol
# GULP energy per Si atom -5573.745840 kJ/mol
# Density = 2.675790 g / cm^3
# Si number density = 26.818943 Si / 1000 Ang^3
#
#
#
# Elastic Constant Matrix: (Units=GPa)
#
#
# Indices 1 2 3 4 5 6 
#
# 1 154.8948 32.1192 69.5269 8.3919 -0.9183 -9.5463
# 2 32.1192 97.1877 28.4065 23.7506 -5.4741 -6.8803
# 3 69.5269 28.4065 116.4030 33.5716 -17.8083 -26.8408
# 4 8.3919 23.7506 33.5716 56.0265 -6.4742 -5.0807
# 5 -0.9183 -5.4741 -17.8083 -6.4742 44.5208 5.6220
# 6 -9.5463 -6.8803 -26.8408 -5.0807 5.6220 34.1357
#
#
#
# Elastic Compliance Matrix: (Units=1/GPa)
#
#
# Indices 1 2 3 4 5 6 
#
# 1 0.009787 -0.002247 -0.007151 0.003298 -0.002140 -0.002496
# 2 -0.002247 0.012285 0.000060 -0.004732 0.000663 0.001081
# 3 -0.007151 0.000060 0.018430 -0.008509 0.004673 0.010468
# 4 0.003298 -0.004732 -0.008509 0.024175 -0.000007 -0.003122
# 5 -0.002140 0.000663 0.004673 -0.000007 0.024471 -0.000822
# 6 -0.002496 0.001081 0.010468 -0.003122 -0.000822 0.036716
#
#
# Mechanical properties :
#
#
# Convention : Reuss Voigt Hill
#
# Bulk Modulus (GPa) = 45.81968 69.84342 57.83155
# Shear Modulus (GPa) = 32.93454 42.83214 37.88334
#
# Velocity S-wave (km/s) = 3.50813 4.00069 3.76248
# Velocity P-wave (km/s) = 5.79062 6.88766 6.36282
#
# Compressibility (1/GPa) = 0.02182468
#
# Stress axis : x y z
#
# Youngs Moduli (GPa) = 102.17833 81.40025 54.25883
#
# Poissons Ratio (x) = 0.18294 0.38802
# Poissons Ratio (y) = 0.22964 -0.00326
# Poissons Ratio (z) = 0.73071 -0.00489
#
# Static dielectric constant tensor:
#      x y z
#    x 1.704630 -0.466010 -0.306350 
#    y -0.466010 1.722480 -0.321480 
#    z -0.306350 -0.321480 2.025720 
# 
# From -- ./inp_files/101154.got.cif
#   From: 2010.05.17/outbox.cif.g08.bks.cpg/sg2_51_cif.got.tgz:101154.got - 2010.06.03 11:33:40.
