data_PCOD9099688
_publ_section_title
;
Structure prediction by ZEFSAII (Michael W. Deem and Ramdas Pophale) SiO2 
 PCOD9099688
Probable space group: P -1
;
_chemical_formula_sum "Si O2"
_cell_formula_units_Z 16
_cell_length_a 13.004956
_cell_length_b 5.033860
_cell_length_c 11.720463
_cell_angle_alpha 79.257121
_cell_angle_beta 107.686006
_cell_angle_gamma 85.105641
_cell_volume 709.898181
_symmetry_space_group_name_H-M "P -1"
_symmetry_group_IT_number 2
_symmetry_cell_setting 'triclinic'
loop_
_space_group_symop_operation_xyz
x,y,z
-x,-y,-z
loop_
_atom_site_type_symbol
_atom_site_label
_atom_site_fract_x
_atom_site_fract_y
_atom_site_fract_z
Si Si1 0.549979 0.759893 0.452363
Si Si2 0.126865 0.888359 0.325504
Si Si3 0.397205 0.545285 0.829882
Si Si4 0.329694 0.018720 0.944113
Si Si5 0.111376 0.222360 0.732261
Si Si6 0.747207 0.635228 0.672273
Si Si7 0.418965 0.122741 0.205574
Si Si8 0.820757 0.250852 0.383845
O O1 0.500000 0.500000 0.500000
O O2 0.678281 0.710748 0.525951
O O3 0.500000 0.000000 0.500000
O O4 0.502889 0.870186 0.307161
O O5 0.210196 0.685459 0.291801
O O6 0.151741 0.791260 0.471831
O O7 0.004230 0.847340 0.261930
O O8 0.153430 0.193391 0.302087
O O9 0.399870 0.231743 0.890544
O O10 0.507499 0.649931 0.823525
O O11 0.305702 0.628759 0.694632
O O12 0.354027 0.730239 0.910816
O O13 0.205074 0.146501 0.864142
O O14 0.356933 0.021945 0.085272
O O15 0.110115 0.532836 0.667025
O O16 0.150053 0.032022 0.651564
O O17 0.665759 0.740555 0.738663
#
# Coordination Sequence:
#
# PCOD9099688 Si02
#       8
#     2   2   2   2   2   2   2   2
#     4  10  22  39  58  84 117 156 198 240 289 352
#     4  12  22  39  60  88 122 159 200 248 295 354
#     4  10  22  38  62  92 121 155 202 252 302 363
#     4  10  23  40  62  92 119 155 209 252 298 362
#     4  10  21  39  62  89 119 153 199 254 300 347
#     4  11  25  38  57  90 121 158 204 239 291 367
#     4  11  23  42  63  86 126 167 194 247 308 357
#     4  10  20  37  61  89 117 153 195 248 311 356
#
# _framework density 22.538443999999998
#
# number of rings (size 3 to 8) (size 9 to 14) (size 15 to 20)
#    0.000    1.500    0.000    5.250    0.000    9.000 
#    0.000    1.250    0.000    0.000    0.000    0.000 
#    0.000    0.000    0.000    0.000    0.000    0.000 
#
# Total GULP energy -89654.432437 kJ/mol
# GULP energy per Si atom -5603.402027 kJ/mol
# Density = 2.248715 g / cm^3
# Si number density = 22.538444 Si / 1000 Ang^3
#
#
#
# Elastic Constant Matrix: (Units=GPa)
#
#
# Indices 1 2 3 4 5 6 
#
# 1 80.5693 -5.4043 32.0268 10.7190 11.7306 12.4470
# 2 -5.4043 95.9530 18.2511 6.4351 8.2802 10.2573
# 3 32.0268 18.2511 118.4857 15.4423 8.9270 0.8566
# 4 10.7190 6.4351 15.4423 25.9698 2.4308 1.1868
# 5 11.7306 8.2802 8.9270 2.4308 15.5185 10.3087
# 6 12.4470 10.2573 0.8566 1.1868 10.3087 35.0187
#
#
#
# Elastic Compliance Matrix: (Units=1/GPa)
#
#
# Indices 1 2 3 4 5 6 
#
# 1 0.016561 0.003110 -0.003696 -0.004411 -0.008708 -0.003994
# 2 0.003110 0.011895 -0.001935 -0.002454 -0.005268 -0.002908
# 3 -0.003696 -0.001935 0.010502 -0.004046 -0.003420 0.002767
# 4 -0.004411 -0.002454 -0.004046 0.043342 -0.000530 0.001073
# 5 -0.008708 -0.005268 -0.003420 -0.000530 0.090415 -0.021876
# 6 -0.003994 -0.002908 0.002767 0.001073 -0.021876 0.037164
#
#
# Mechanical properties :
#
#
# Convention : Reuss Voigt Hill
#
# Bulk Modulus (GPa) = 29.48422 42.75059 36.11740
# Shear Modulus (GPa) = 22.10184 31.97700 27.03942
#
# Velocity S-wave (km/s) = 3.13490 3.77075 3.46743
# Velocity P-wave (km/s) = 5.11992 6.16175 5.66483
#
# Compressibility (1/GPa) = 0.03391645
#
# Stress axis : x y z
#
# Youngs Moduli (GPa) = 60.38252 84.06818 95.22154
#
# Poissons Ratio (x) = -0.26145 0.35191
# Poissons Ratio (y) = -0.18779 0.18426
# Poissons Ratio (z) = 0.22315 0.16268
#
# Static dielectric constant tensor:
#      x y z
#    x 1.836880 -0.013020 0.016410 
#    y -0.013020 1.807440 -0.001570 
#    z 0.016410 -0.001570 1.838320 
# 
# From -- ./inp_files/410295.got.cif
#   From: 2010.05.17/outbox.cif.g08.bks.cpg/sg2_206_cif.got.tgz:410295.got - 2010.06.03 11:33:40.
