data_PCOD9099382
_publ_section_title
;
Structure prediction by ZEFSAII (Michael W. Deem and Ramdas Pophale) SiO2 
 PCOD9099382
Probable space group: P -1
;
_chemical_formula_sum "Si O2"
_cell_formula_units_Z 16
_cell_length_a 9.465759
_cell_length_b 11.732250
_cell_length_c 20.470675
_cell_angle_alpha 40.832521
_cell_angle_beta 35.988357
_cell_angle_gamma 67.158984
_cell_volume 709.600882
_symmetry_space_group_name_H-M "P -1"
_symmetry_group_IT_number 2
_symmetry_cell_setting 'triclinic'
loop_
_space_group_symop_operation_xyz
x,y,z
-x,-y,-z
loop_
_atom_site_type_symbol
_atom_site_label
_atom_site_fract_x
_atom_site_fract_y
_atom_site_fract_z
Si Si1 0.704334 0.847959 0.270156
Si Si2 0.376966 0.100319 0.954542
Si Si3 0.186216 0.437819 0.718034
Si Si4 0.331008 0.778026 0.602981
Si Si5 0.345222 0.420590 0.907745
Si Si6 0.438424 0.934331 0.871788
Si Si7 0.727936 0.719913 0.857196
Si Si8 0.673267 0.212554 0.244964
O O1 0.400227 0.636420 0.503926
O O2 0.758638 0.740919 0.234372
O O3 0.659681 0.014481 0.180549
O O4 0.013850 0.951767 0.149116
O O5 0.466810 0.328858 0.850986
O O6 0.489537 0.090189 0.844623
O O7 0.500000 0.000000 0.000000
O O8 0.274454 0.555289 0.702699
O O9 0.834628 0.304953 0.898583
O O10 0.385439 0.801266 0.649145
O O11 0.042139 0.770147 0.702654
O O12 0.556989 0.966077 0.386829
O O13 0.471272 0.665856 0.775283
O O14 0.309174 0.307491 0.038869
O O15 0.016337 0.340971 0.042088
O O16 0.698596 0.910391 0.769185
O O17 0.500000 0.500000 0.000000
#
# Coordination Sequence:
#
# PCOD9099382 Si02
#       8
#     2   2   2   2   2   2   2   2
#     4  10  24  39  65  95 119 163 215 248 307 380
#     4  11  21  38  66  92 125 163 201 260 310 371
#     4  10  20  40  63  88 123 160 209 257 299 368
#     4  10  20  37  60  87 121 161 200 259 310 364
#     4  10  21  38  62  89 121 162 211 249 312 372
#     4  11  23  42  64  93 125 167 210 249 316 369
#     4  11  22  39  59  88 125 160 204 258 308 367
#     4   9  21  37  59  89 120 157 207 255 308 369
#
# _framework density 22.547888
#
# number of rings (size 3 to 8) (size 9 to 14) (size 15 to 20)
#    0.000    1.750    2.500    2.250    3.500    2.000 
#    2.250    1.250    0.000   12.750    0.000    0.000 
#    0.000    0.000    0.000    0.000    0.000    0.000 
#
# Total GULP energy -89085.598408 kJ/mol
# GULP energy per Si atom -5567.849900 kJ/mol
# Density = 2.249657 g / cm^3
# Si number density = 22.547888 Si / 1000 Ang^3
#
#
#
# Elastic Constant Matrix: (Units=GPa)
#
#
# Indices 1 2 3 4 5 6 
#
# 1 90.8416 12.1569 8.9534 2.6681 7.6627 -25.1580
# 2 12.1569 78.1270 -14.0653 -22.9070 4.5470 -8.8095
# 3 8.9534 -14.0653 39.8711 -0.1426 5.6790 -8.9717
# 4 2.6681 -22.9070 -0.1426 28.7428 1.8548 1.6960
# 5 7.6627 4.5470 5.6790 1.8548 16.4546 -3.1023
# 6 -25.1580 -8.8095 -8.9717 1.6960 -3.1023 39.3202
#
#
#
# Elastic Compliance Matrix: (Units=1/GPa)
#
#
# Indices 1 2 3 4 5 6 
#
# 1 0.014103 -0.002454 -0.001774 -0.003525 -0.003380 0.007954
# 2 -0.002454 0.021199 0.010354 0.017550 -0.009507 0.004035
# 3 -0.001774 0.010354 0.032633 0.008988 -0.012950 0.007222
# 4 -0.003525 0.017550 0.008988 0.049874 -0.011811 0.000645
# 5 -0.003380 -0.009507 -0.012950 -0.011811 0.070554 -0.001172
# 6 0.007954 0.004035 0.007222 0.000645 -0.001172 0.032953
#
#
# Mechanical properties :
#
#
# Convention : Reuss Voigt Hill
#
# Bulk Modulus (GPa) = 12.47040 24.76996 18.62018
# Shear Modulus (GPa) = 21.20507 30.35651 25.78079
#
# Velocity S-wave (km/s) = 3.07000 3.67319 3.38506
# Velocity P-wave (km/s) = 4.25548 5.38509 4.85326
#
# Compressibility (1/GPa) = 0.08018990
#
# Stress axis : x y z
#
# Youngs Moduli (GPa) = 70.90746 47.17101 30.64345
#
# Poissons Ratio (x) = 0.11574 0.05435
# Poissons Ratio (y) = 0.17397 -0.31729
# Poissons Ratio (z) = 0.12577 -0.48842
#
# Static dielectric constant tensor:
#      x y z
#    x 1.834450 0.031660 0.006410 
#    y 0.031660 2.004980 -0.055460 
#    z 0.006410 -0.055460 1.937140 
# 
# From -- ./inp_files/259019.got.cif
#   From: 2010.05.17/outbox.cif.g08.bks.cpg/sg2_130_cif.got.tgz:259019.got - 2010.06.03 11:33:40.
