data_PCOD9099771
_publ_section_title
;
Structure prediction by ZEFSAII (Michael W. Deem and Ramdas Pophale) SiO2 
 PCOD9099771
Probable space group: P -1
;
_chemical_formula_sum "Si O2"
_cell_formula_units_Z 16
_cell_length_a 18.516689
_cell_length_b 16.096534
_cell_length_c 5.009666
_cell_angle_alpha 94.607842
_cell_angle_beta 67.790149
_cell_angle_gamma 148.181330
_cell_volume 633.919093
_symmetry_space_group_name_H-M "P -1"
_symmetry_group_IT_number 2
_symmetry_cell_setting 'triclinic'
loop_
_space_group_symop_operation_xyz
x,y,z
-x,-y,-z
loop_
_atom_site_type_symbol
_atom_site_label
_atom_site_fract_x
_atom_site_fract_y
_atom_site_fract_z
Si Si1 0.352209 0.316529 0.325393
Si Si2 0.483716 0.923409 0.257642
Si Si3 0.776812 0.631706 0.411042
Si Si4 0.172789 0.778471 0.331207
Si Si5 0.857870 0.018786 0.736874
Si Si6 0.587056 0.394102 0.135919
Si Si7 0.112558 0.554239 0.640556
Si Si8 0.272358 0.007834 0.593755
O O1 0.263032 0.309287 0.590695
O O2 0.448704 0.337591 0.367793
O O3 0.222160 0.146760 0.264247
O O4 0.500000 0.500000 0.000000
O O5 0.302562 0.706776 0.492470
O O6 0.500000 0.000000 0.500000
O O7 0.500000 0.000000 0.000000
O O8 0.658488 0.038712 0.019924
O O9 0.739286 0.545562 0.171752
O O10 0.957621 0.806176 0.346504
O O11 0.651705 0.473999 0.769182
O O12 0.159283 0.667235 0.378824
O O13 0.196996 0.845411 0.598718
O O14 0.999685 0.626857 0.370895
O O15 0.836606 0.045338 0.491970
O O16 0.751041 0.968557 0.089855
O O17 0.470997 0.202756 0.286508
O O18 0.000000 0.500000 0.000000
#
# Coordination Sequence:
#
# PCOD9099771 Si02
#       8
#     2   2   2   2   2   2   2   2
#     4   9  19  37  63  90 117 164 208 254 314 364
#     4  10  20  37  61  92 121 151 196 249 302 360
#     4  11  21  39  62  91 122 156 210 268 310 350
#     4  10  23  40  64  90 126 168 202 254 314 373
#     4  11  24  40  61  90 127 159 208 262 303 370
#     4  10  21  39  61  87 124 162 206 254 305 383
#     4  10  20  39  67  95 125 153 208 263 306 359
#     4  11  24  43  61  84 125 173 203 240 316 379
#
# _framework density 25.239812000000001
#
# number of rings (size 3 to 8) (size 9 to 14) (size 15 to 20)
#    0.000    1.750    1.250    3.750    1.750    3.000 
#    4.500    6.250    0.000    0.000    0.000    0.000 
#    0.000    0.000    0.000    0.000    0.000    0.000 
#
# Total GULP energy -89378.442069 kJ/mol
# GULP energy per Si atom -5586.152629 kJ/mol
# Density = 2.518236 g / cm^3
# Si number density = 25.239812 Si / 1000 Ang^3
#
#
#
# Elastic Constant Matrix: (Units=GPa)
#
#
# Indices 1 2 3 4 5 6 
#
# 1 42.4080 15.3262 0.0508 -6.6638 11.5240 9.1983
# 2 15.3262 207.5913 32.3649 -12.4253 -8.9890 14.7767
# 3 0.0508 32.3649 81.3132 -3.8987 4.9712 4.2990
# 4 -6.6638 -12.4253 -3.8987 51.6581 17.3334 -4.7623
# 5 11.5240 -8.9890 4.9712 17.3334 14.1316 2.4918
# 6 9.1983 14.7767 4.2990 -4.7623 2.4918 38.3810
#
#
#
# Elastic Compliance Matrix: (Units=1/GPa)
#
#
# Indices 1 2 3 4 5 6 
#
# 1 0.074623 -0.010779 0.015556 0.055848 -0.141799 0.000659
# 2 -0.010779 0.007147 -0.004789 -0.009270 0.026836 -0.002524
# 3 0.015556 -0.004789 0.017513 0.016422 -0.042199 0.000932
# 4 0.055848 -0.009270 0.016422 0.078161 -0.154510 0.008075
# 5 -0.141799 0.026836 -0.042199 -0.154510 0.410910 -0.017471
# 6 0.000659 -0.002524 0.000932 0.008075 -0.017471 0.028900
#
#
# Mechanical properties :
#
#
# Convention : Reuss Voigt Hill
#
# Bulk Modulus (GPa) = 10.07489 47.42180 28.74834
# Shear Modulus (GPa) = 7.68801 39.73886 23.71343
#
# Velocity S-wave (km/s) = 1.74717 3.97224 3.06849
# Velocity P-wave (km/s) = 2.84086 6.31407 4.89581
#
# Compressibility (1/GPa) = 0.09925667
#
# Stress axis : x y z
#
# Youngs Moduli (GPa) = 13.40073 139.92833 57.10122
#
# Poissons Ratio (x) = 1.50826 -0.88824
# Poissons Ratio (y) = 0.14444 0.27349
# Poissons Ratio (z) = -0.20846 0.67018
#
# Static dielectric constant tensor:
#      x y z
#    x 2.156620 0.043600 -0.033790 
#    y 0.043600 2.052640 -0.021620 
#    z -0.033790 -0.021620 2.020340 
# 
# From -- ./inp_files/127600.got.cif
#   From: 2010.05.17/outbox.cif.g08.bks.cpg/sg2_64_cif.got.tgz:127600.got - 2010.06.03 11:33:40.
