data_PCOD9099745
_publ_section_title
;
Structure prediction by ZEFSAII (Michael W. Deem and Ramdas Pophale) SiO2 
 PCOD9099745
Probable space group: P -1
;
_chemical_formula_sum "Si O2"
_cell_formula_units_Z 16
_cell_length_a 5.303911
_cell_length_b 28.294821
_cell_length_c 9.400239
_cell_angle_alpha 38.193420
_cell_angle_beta 48.411466
_cell_angle_gamma 51.977872
_cell_volume 638.699562
_symmetry_space_group_name_H-M "P -1"
_symmetry_group_IT_number 2
_symmetry_cell_setting 'triclinic'
loop_
_space_group_symop_operation_xyz
x,y,z
-x,-y,-z
loop_
_atom_site_type_symbol
_atom_site_label
_atom_site_fract_x
_atom_site_fract_y
_atom_site_fract_z
Si Si1 0.109489 0.775150 0.093223
Si Si2 0.861937 0.253973 0.461651
Si Si3 0.405920 0.837061 0.587998
Si Si4 0.531842 0.113879 0.854957
Si Si5 0.127468 0.481187 0.658682
Si Si6 0.586802 0.017469 0.588603
Si Si7 0.876681 0.686167 0.029671
Si Si8 0.787282 0.637410 0.484780
O O1 0.107988 0.804715 0.858977
O O2 0.511200 0.745225 0.041420
O O3 0.878082 0.847956 0.087408
O O4 0.944210 0.700057 0.367104
O O5 0.693942 0.178835 0.722470
O O6 0.617721 0.327645 0.450400
O O7 0.262196 0.231293 0.402343
O O8 0.858652 0.273232 0.248815
O O9 0.326270 0.888075 0.354086
O O10 0.529012 0.893903 0.524753
O O11 0.573906 0.036496 0.114248
O O12 0.500000 0.500000 0.500000
O O13 0.000000 0.500000 0.500000
O O14 0.880992 0.545633 0.696155
O O15 0.150550 0.388827 0.881999
O O16 0.500000 0.000000 0.500000
O O17 0.000000 0.000000 0.500000
O O18 0.958365 0.650829 0.237450
#
# Coordination Sequence:
#
# PCOD9099745 Si02
#       8
#     2   2   2   2   2   2   2   2
#     4  10  20  38  64  92 134 172 226 282 332 408
#     4  10  24  38  64 100 128 178 222 284 334 400
#     4  11  24  43  69  98 136 176 231 275 349 400
#     4  11  24  43  69  98 136 176 231 275 349 400
#     4  10  20  37  66  93 131 183 226 269 337 397
#     4  12  29  49  76 101 138 182 226 278 345 412
#     4  10  20  37  61  90 132 174 228 273 339 390
#     4  10  20  37  61  90 132 174 228 273 339 390
#
# _framework density 25.050902000000001
#
# number of rings (size 3 to 8) (size 9 to 14) (size 15 to 20)
#    0.000    1.500    2.500    1.875    3.500    5.000 
#    0.000    0.000    0.000    3.000    0.000    0.000 
#    0.000    0.000    0.000    0.000    0.000    0.000 
#
# Total GULP energy -89393.311948 kJ/mol
# GULP energy per Si atom -5587.081997 kJ/mol
# Density = 2.499388 g / cm^3
# Si number density = 25.050902 Si / 1000 Ang^3
#
#
#
# Elastic Constant Matrix: (Units=GPa)
#
#
# Indices 1 2 3 4 5 6 
#
# 1 99.7997 19.5017 19.6548 3.0006 3.0293 -5.1979
# 2 19.5017 108.6755 15.9396 -7.8142 -5.5115 -7.7823
# 3 19.6548 15.9396 87.1375 15.0148 5.2433 -5.3144
# 4 3.0006 -7.8142 15.0148 39.4681 9.8253 2.0299
# 5 3.0293 -5.5115 5.2433 9.8253 37.3229 8.5881
# 6 -5.1979 -7.7823 -5.3144 2.0299 8.5881 26.3233
#
#
#
# Elastic Compliance Matrix: (Units=1/GPa)
#
#
# Indices 1 2 3 4 5 6 
#
# 1 0.010847 -0.001616 -0.001944 -0.000197 -0.001178 0.001671
# 2 -0.001616 0.010119 -0.001860 0.002542 0.000794 0.001842
# 3 -0.001944 -0.001860 0.013370 -0.005131 -0.001234 0.002564
# 4 -0.000197 0.002542 -0.005131 0.029458 -0.006536 -0.000463
# 5 -0.001178 0.000794 -0.001234 -0.006536 0.031182 -0.009916
# 6 0.001671 0.001842 0.002564 -0.000463 -0.009916 0.042652
#
#
# Mechanical properties :
#
#
# Convention : Reuss Voigt Hill
#
# Bulk Modulus (GPa) = 42.55941 45.08941 43.82441
# Shear Modulus (GPa) = 31.98952 36.65731 34.32342
#
# Velocity S-wave (km/s) = 3.57736 3.82948 3.70557
# Velocity P-wave (km/s) = 5.83862 6.13118 5.98669
#
# Compressibility (1/GPa) = 0.02349657
#
# Stress axis : x y z
#
# Youngs Moduli (GPa) = 92.18736 98.82037 74.79591
#
# Poissons Ratio (x) = 0.15966 0.14543
# Poissons Ratio (y) = 0.14894 0.13912
# Poissons Ratio (z) = 0.17924 0.18381
#
# Static dielectric constant tensor:
#      x y z
#    x 2.066230 0.049170 0.038690 
#    y 0.049170 2.077530 -0.018350 
#    z 0.038690 -0.018350 2.007710 
# 
# From -- ./inp_files/143355.got.cif
#   From: 2010.05.17/outbox.cif.g08.bks.cpg/sg2_72_cif.got.tgz:143355.got - 2010.06.03 11:33:40.
