data_PCOD9099746
_publ_section_title
;
Structure prediction by ZEFSAII (Michael W. Deem and Ramdas Pophale) SiO2 
 PCOD9099746
Probable space group: P -1
;
_chemical_formula_sum "Si O2"
_cell_formula_units_Z 16
_cell_length_a 13.973233
_cell_length_b 11.438141
_cell_length_c 7.581867
_cell_angle_alpha 104.186142
_cell_angle_beta 62.760285
_cell_angle_gamma 138.947056
_cell_volume 697.119316
_symmetry_space_group_name_H-M "P -1"
_symmetry_group_IT_number 2
_symmetry_cell_setting 'triclinic'
loop_
_space_group_symop_operation_xyz
x,y,z
-x,-y,-z
loop_
_atom_site_type_symbol
_atom_site_label
_atom_site_fract_x
_atom_site_fract_y
_atom_site_fract_z
Si Si1 0.432320 0.587585 0.939268
Si Si2 0.890810 0.350427 0.191216
Si Si3 0.558321 0.753969 0.538495
Si Si4 0.690249 0.780391 0.084359
Si Si5 0.811869 0.445103 0.746566
Si Si6 0.638877 0.056071 0.780470
Si Si7 0.217593 0.488903 0.579279
Si Si8 0.876681 0.126108 0.880822
O O1 0.552773 0.683547 0.706913
O O2 0.333414 0.382133 0.961130
O O3 0.536614 0.699135 0.068054
O O4 0.304975 0.589269 0.024054
O O5 0.771186 0.358607 0.332906
O O6 0.012368 0.428016 0.276719
O O7 0.828559 0.174177 0.101309
O O8 0.000000 0.500000 0.000000
O O9 0.682231 0.817242 0.306712
O O10 0.385060 0.576375 0.534560
O O11 0.578072 0.911360 0.631539
O O12 0.838929 0.961159 0.919493
O O13 0.734653 0.251210 0.699632
O O14 0.811877 0.533972 0.613331
O O15 0.763113 0.081062 0.803636
O O16 0.500000 0.000000 0.000000
O O17 0.061873 0.302387 0.736395
#
# Coordination Sequence:
#
# PCOD9099746 Si02
#       8
#     2   2   2   2   2   2   2   2
#     4  11  23  46  70  93 137 173 231 282 326 391
#     4  10  20  37  61  90 136 175 210 264 341 399
#     4  12  24  43  70 104 133 177 225 276 340 398
#     4  11  25  45  71  96 128 184 232 277 328 389
#     4  12  22  41  64 101 135 180 217 273 342 398
#     4  12  23  38  68 100 142 171 220 283 331 401
#     4  11  24  39  64 100 140 176 214 266 347 411
#     4  11  23  43  62  99 135 175 222 276 328 400
#
# _framework density 22.951592999999999
#
# number of rings (size 3 to 8) (size 9 to 14) (size 15 to 20)
#    0.000    0.750    6.250    3.000    1.750    0.500 
#    0.000    3.125    0.000    0.000    0.000    0.000 
#    0.000    0.000    0.000    0.000    0.000    0.000 
#
# Total GULP energy -89433.301882 kJ/mol
# GULP energy per Si atom -5589.581368 kJ/mol
# Density = 2.289935 g / cm^3
# Si number density = 22.951593 Si / 1000 Ang^3
#
#
#
# Elastic Constant Matrix: (Units=GPa)
#
#
# Indices 1 2 3 4 5 6 
#
# 1 30.5079 20.4688 0.8148 -7.9475 5.4296 0.2743
# 2 20.4688 114.6966 27.6005 -8.9509 11.3010 -12.4432
# 3 0.8148 27.6005 87.9612 -5.3249 16.5828 -3.2858
# 4 -7.9475 -8.9509 -5.3249 27.1292 -3.0113 7.6124
# 5 5.4296 11.3010 16.5828 -3.0113 23.8636 -2.7370
# 6 0.2743 -12.4432 -3.2858 7.6124 -2.7370 33.1663
#
#
#
# Elastic Compliance Matrix: (Units=1/GPa)
#
#
# Indices 1 2 3 4 5 6 
#
# 1 0.042132 -0.007432 0.003926 0.011464 -0.008041 -0.006043
# 2 -0.007432 0.011316 -0.003152 -0.000295 -0.001059 0.003975
# 3 0.003926 -0.003152 0.014121 0.002174 -0.009061 -0.001063
# 4 0.011464 -0.000295 0.002174 0.043370 0.000356 -0.009915
# 5 -0.008041 -0.001059 -0.009061 0.000356 0.050909 0.002891
# 6 -0.006043 0.003975 -0.001063 -0.009915 0.002891 0.034101
#
#
# Mechanical properties :
#
#
# Convention : Reuss Voigt Hill
#
# Bulk Modulus (GPa) = 18.43195 36.77045 27.60120
# Shear Modulus (GPa) = 21.99251 29.11727 25.55489
#
# Velocity S-wave (km/s) = 3.09886 3.56566 3.34042
# Velocity P-wave (km/s) = 4.56641 5.74522 5.18940
#
# Compressibility (1/GPa) = 0.05425363
#
# Stress axis : x y z
#
# Youngs Moduli (GPa) = 23.73493 88.37050 70.81460
#
# Poissons Ratio (x) = 0.65680 -0.27802
# Poissons Ratio (y) = 0.17641 0.22318
# Poissons Ratio (z) = -0.09318 0.27851
#
# Static dielectric constant tensor:
#      x y z
#    x 1.828560 -0.001340 0.005180 
#    y -0.001340 1.843870 0.010300 
#    z 0.005180 0.010300 1.938500 
# 
# From -- ./inp_files/305379.got.cif
#   From: 2010.05.17/outbox.cif.g08.bks.cpg/sg2_153_cif.got.tgz:305379.got - 2010.06.03 11:33:40.
