data_PCOD9099388
_publ_section_title
;
Structure prediction by ZEFSAII (Michael W. Deem and Ramdas Pophale) SiO2 
 PCOD9099388
Probable space group: P -1
;
_chemical_formula_sum "Si O2"
_cell_formula_units_Z 14
_cell_length_a 13.283783
_cell_length_b 15.057401
_cell_length_c 11.317810
_cell_angle_alpha 49.191990
_cell_angle_beta 23.622556
_cell_angle_gamma 53.376318
_cell_volume 686.583281
_symmetry_space_group_name_H-M "P -1"
_symmetry_group_IT_number 2
_symmetry_cell_setting 'triclinic'
loop_
_space_group_symop_operation_xyz
x,y,z
-x,-y,-z
loop_
_atom_site_type_symbol
_atom_site_label
_atom_site_fract_x
_atom_site_fract_y
_atom_site_fract_z
Si Si1 0.872457 0.728334 0.220535
Si Si2 0.263429 0.559835 0.991432
Si Si3 0.905093 0.233316 0.687108
Si Si4 0.777849 0.991721 0.150039
Si Si5 0.031438 0.380398 0.222414
Si Si6 0.285620 0.418984 0.691114
Si Si7 0.377201 0.351135 0.214827
O O1 0.874392 0.672806 0.136669
O O2 0.668380 0.668284 0.579939
O O3 0.814987 0.864564 0.162456
O O4 0.128069 0.683705 0.046577
O O5 0.462824 0.577477 0.657610
O O6 0.069673 0.469109 0.214158
O O7 0.333752 0.481694 0.096967
O O8 0.964966 0.260050 0.462136
O O9 0.156212 0.271929 0.457419
O O10 0.827982 0.100772 0.915173
O O11 0.653952 0.307872 0.920978
O O12 0.500000 0.000000 0.500000
O O13 0.000000 0.000000 0.000000
O O14 0.819916 0.448362 0.316967
O O15 0.264752 0.377793 0.883964
#
# Coordination Sequence:
#
# PCOD9099388 Si02
#       7
#     2   2   2   2   2   2   2
#     4  11  24  36  57  93 121 159 200 250 310 358
#     4  10  21  36  59  92 123 160 195 254 305 367
#     4  11  21  41  63  89 118 162 208 247 291 363
#     4  12  24  42  64  86 122 165 204 247 298 366
#     4   9  20  38  60  88 118 163 205 242 304 357
#     4  10  20  37  60  87 124 158 201 250 300 363
#     4  11  22  38  62  91 124 157 196 251 311 361
#
# _framework density 20.390826000000001
#
# number of rings (size 3 to 8) (size 9 to 14) (size 15 to 20)
#    0.000    1.429    4.286    0.857    4.000    0.571 
#    0.000    0.714    0.000    0.857    0.000    0.000 
#    0.000    0.000    0.000    0.000    0.000    0.000 
#
# Total GULP energy -78088.973468 kJ/mol
# GULP energy per Si atom -5577.783819 kJ/mol
# Density = 2.034442 g / cm^3
# Si number density = 20.390826 Si / 1000 Ang^3
#
#
#
# Elastic Constant Matrix: (Units=GPa)
#
#
# Indices 1 2 3 4 5 6 
#
# 1 81.9570 35.4814 38.4485 -2.9361 16.5638 -6.8256
# 2 35.4814 141.0704 40.5402 -17.5033 12.6684 -22.3317
# 3 38.4485 40.5402 120.2113 -11.0340 12.7068 -19.3571
# 4 -2.9361 -17.5033 -11.0340 35.3897 -12.2095 5.5733
# 5 16.5638 12.6684 12.7068 -12.2095 46.3128 -6.3463
# 6 -6.8256 -22.3317 -19.3571 5.5733 -6.3463 28.4514
#
#
#
# Elastic Compliance Matrix: (Units=1/GPa)
#
#
# Indices 1 2 3 4 5 6 
#
# 1 0.016228 -0.003098 -0.004207 -0.002858 -0.004818 -0.001916
# 2 -0.003098 0.009396 -0.001054 0.003374 0.000450 0.005355
# 3 -0.004207 -0.001054 0.011041 0.001714 -0.000054 0.005327
# 4 -0.002858 0.003374 0.001714 0.033296 0.008192 -0.001566
# 5 -0.004818 0.000450 -0.000054 0.008192 0.025821 0.003315
# 6 -0.001916 0.005355 0.005327 -0.001566 0.003315 0.043562
#
#
# Mechanical properties :
#
#
# Convention : Reuss Voigt Hill
#
# Bulk Modulus (GPa) = 50.13063 63.57545 56.85304
# Shear Modulus (GPa) = 30.72931 37.28201 34.00566
#
# Velocity S-wave (km/s) = 3.88624 4.28058 4.08817
# Velocity P-wave (km/s) = 6.69145 7.46173 7.08706
#
# Compressibility (1/GPa) = 0.01994788
#
# Stress axis : x y z
#
# Youngs Moduli (GPa) = 61.62089 106.42291 90.57469
#
# Poissons Ratio (x) = 0.32967 0.38107
# Poissons Ratio (y) = 0.19089 0.09544
# Poissons Ratio (z) = 0.25925 0.11214
#
# Static dielectric constant tensor:
#      x y z
#    x 1.858910 -0.003060 -0.065140 
#    y -0.003060 1.737860 -0.008810 
#    z -0.065140 -0.008810 1.813590 
# 
# From -- ./inp_files/63487.got.cif
#   From: 2010.05.17/outbox.cif.g08.bks.cpg/sg2_32_cif.got.tgz:63487.got - 2010.06.03 11:33:40.
