data_PCOD9099324
_publ_section_title
;
Structure prediction by ZEFSAII (Michael W. Deem and Ramdas Pophale) SiO2 
 PCOD9099324
Probable space group: P -1
;
_chemical_formula_sum "Si O2"
_cell_formula_units_Z 12
_cell_length_a 9.438187
_cell_length_b 7.536520
_cell_length_c 9.739148
_cell_angle_alpha 60.972280
_cell_angle_beta 87.584550
_cell_angle_gamma 51.715549
_cell_volume 440.459684
_symmetry_space_group_name_H-M "P -1"
_symmetry_group_IT_number 2
_symmetry_cell_setting 'triclinic'
loop_
_space_group_symop_operation_xyz
x,y,z
-x,-y,-z
loop_
_atom_site_type_symbol
_atom_site_label
_atom_site_fract_x
_atom_site_fract_y
_atom_site_fract_z
Si Si1 0.616755 0.771674 0.455520
Si Si2 0.125984 0.433835 0.250195
Si Si3 0.756538 0.123380 0.589951
Si Si4 0.211313 0.965729 0.067677
Si Si5 0.668154 0.597427 0.239554
Si Si6 0.691479 0.454380 0.992723
O O1 0.820399 0.537484 0.612797
O O2 0.469907 0.728379 0.460129
O O3 0.671373 0.768645 0.295146
O O4 0.500000 0.000000 0.500000
O O5 0.132522 0.185556 0.352928
O O6 0.296505 0.352582 0.171569
O O7 0.929943 0.712358 0.087818
O O8 0.824525 0.078685 0.760316
O O9 0.759716 0.315143 0.422931
O O10 0.436830 0.814034 0.128633
O O11 0.189935 0.815081 0.009093
O O12 0.752645 0.475516 0.129976
O O13 0.500000 0.500000 0.000000
#
# Coordination Sequence:
#
# PCOD9099324 Si02
#       6
#     2   2   2   2   2   2
#     4   9  18  34  59  86 112 153 198 231 280 358
#     4  11  21  37  62  89 113 152 203 243 285 349
#     4  10  20  37  60  85 115 156 196 236 289 358
#     4  10  20  38  62  85 114 157 200 238 286 352
#     4  10  20  39  61  84 117 155 194 243 294 344
#     4  10  21  37  58  87 120 153 191 245 297 343
#
# _framework density 27.244266
#
# number of rings (size 3 to 8) (size 9 to 14) (size 15 to 20)
#    0.000    2.000    0.000    6.000    0.000    0.000 
#    0.000   20.833    0.000    4.000    0.000    3.500 
#    0.000    0.000    0.000    0.000    0.000    0.000 
#
# Total GULP energy -66946.021781 kJ/mol
# GULP energy per Si atom -5578.835148 kJ/mol
# Density = 2.718226 g / cm^3
# Si number density = 27.244266 Si / 1000 Ang^3
#
#
#
# Elastic Constant Matrix: (Units=GPa)
#
#
# Indices 1 2 3 4 5 6 
#
# 1 106.0661 35.2248 44.8165 10.1970 17.4370 0.6392
# 2 35.2248 169.4666 94.5749 24.8080 13.0368 30.9497
# 3 44.8165 94.5749 228.7233 33.2883 40.4815 1.9962
# 4 10.1970 24.8080 33.2883 73.3012 6.5963 7.0908
# 5 17.4370 13.0368 40.4815 6.5963 48.0067 10.1569
# 6 0.6392 30.9497 1.9962 7.0908 10.1569 39.6642
#
#
#
# Elastic Compliance Matrix: (Units=1/GPa)
#
#
# Indices 1 2 3 4 5 6 
#
# 1 0.010954 -0.001998 -0.000692 -0.000464 -0.003284 0.002341
# 2 -0.001998 0.010001 -0.004165 -0.000717 0.003376 -0.008298
# 3 -0.000692 -0.004165 0.007452 -0.001821 -0.005636 0.004655
# 4 -0.000464 -0.000717 -0.001821 0.014953 0.000286 -0.002088
# 5 -0.003284 0.003376 -0.005636 0.000286 0.027824 -0.009474
# 6 0.002341 -0.008298 0.004655 -0.002088 -0.009474 0.034214
#
#
# Mechanical properties :
#
#
# Convention : Reuss Voigt Hill
#
# Bulk Modulus (GPa) = 68.03410 94.83204 81.43307
# Shear Modulus (GPa) = 40.32066 54.17040 47.24553
#
# Velocity S-wave (km/s) = 3.85121 4.46390 4.16883
# Velocity P-wave (km/s) = 6.69342 7.83914 7.28883
#
# Compressibility (1/GPa) = 0.01469851
#
# Stress axis : x y z
#
# Youngs Moduli (GPa) = 91.28769 99.99013 134.19875
#
# Poissons Ratio (x) = 0.19975 0.09286
# Poissons Ratio (y) = 0.18237 0.55889
# Poissons Ratio (z) = 0.06316 0.41642
#
# Static dielectric constant tensor:
#      x y z
#    x 2.293650 -0.109100 -0.025570 
#    y -0.109100 2.281200 -0.061400 
#    z -0.025570 -0.061400 2.103570 
# 
# From -- ./inp_files/237144.got.cif
#   From: 2010.05.17/outbox.cif.g08.bks.cpg/sg2_119_cif.got.tgz:237144.got - 2010.06.03 11:33:40.
