data_PCOD9099253
_publ_section_title
;
Structure prediction by ZEFSAII (Michael W. Deem and Ramdas Pophale) SiO2 
 PCOD9099253
Probable space group: P -1
;
_chemical_formula_sum "Si O2"
_cell_formula_units_Z 16
_cell_length_a 23.136901
_cell_length_b 14.787150
_cell_length_c 20.695598
_cell_angle_alpha 26.225548
_cell_angle_beta 19.244548
_cell_angle_gamma 18.065049
_cell_volume 723.681141
_symmetry_space_group_name_H-M "P -1"
_symmetry_group_IT_number 2
_symmetry_cell_setting 'triclinic'
loop_
_space_group_symop_operation_xyz
x,y,z
-x,-y,-z
loop_
_atom_site_type_symbol
_atom_site_label
_atom_site_fract_x
_atom_site_fract_y
_atom_site_fract_z
Si Si1 0.733351 0.628437 0.682800
Si Si2 0.352891 0.167437 0.656627
Si Si3 0.331705 0.910421 0.721450
Si Si4 0.588056 0.086119 0.040326
Si Si5 0.945194 0.091577 0.726078
Si Si6 0.852866 0.387780 0.070549
Si Si7 0.532793 0.239901 0.657063
Si Si8 0.799702 0.422558 0.952326
O O1 0.551894 0.953577 0.638091
O O2 0.603079 0.676022 0.856093
O O3 0.761559 0.414011 0.742558
O O4 0.000000 0.500000 0.500000
O O5 0.395937 0.955595 0.692769
O O6 0.446667 0.277969 0.443998
O O7 0.072085 0.378314 0.843300
O O8 0.247867 0.750999 0.921428
O O9 0.084113 0.244769 0.746357
O O10 0.612488 0.819537 0.189965
O O11 0.827962 0.025796 0.841398
O O12 0.432116 0.246091 0.036260
O O13 0.037878 0.882970 0.824838
O O14 0.171475 0.028073 0.494285
O O15 0.593302 0.662506 0.202127
O O16 0.810942 0.374182 0.048394
O O17 0.500000 0.500000 0.500000
#
# Coordination Sequence:
#
# PCOD9099253 Si02
#       8
#     2   2   2   2   2   2   2   2
#     4  12  23  36  66 101 134 161 213 274 339 381
#     4  10  20  37  59  95 122 175 210 263 324 388
#     4   9  20  36  60  90 135 164 210 261 327 394
#     4  12  24  42  67  98 131 172 213 274 327 384
#     4  11  24  43  67 100 131 167 215 276 327 389
#     4  10  23  43  64  87 128 173 216 264 312 389
#     4  10  25  47  67  94 130 174 226 268 317 380
#     4  10  22  38  62  93 130 169 207 265 327 386
#
# _framework density 22.109183999999999
#
# number of rings (size 3 to 8) (size 9 to 14) (size 15 to 20)
#    0.000    1.500    2.500    1.875    7.000    2.500 
#    4.500    0.625    0.000    0.000    0.000    0.000 
#    0.000    0.000    0.000    0.000    0.000    0.000 
#
# Total GULP energy -89183.948990 kJ/mol
# GULP energy per Si atom -5573.996812 kJ/mol
# Density = 2.205886 g / cm^3
# Si number density = 22.109184 Si / 1000 Ang^3
#
#
#
# Elastic Constant Matrix: (Units=GPa)
#
#
# Indices 1 2 3 4 5 6 
#
# 1 59.9459 4.4311 21.1967 1.3623 -5.1205 -10.0876
# 2 4.4311 36.4450 -7.3631 -6.9617 4.3032 7.1415
# 3 21.1967 -7.3631 105.1351 18.1549 4.9194 12.1957
# 4 1.3623 -6.9617 18.1549 23.4102 16.3479 -0.1131
# 5 -5.1205 4.3032 4.9194 16.3479 41.1070 -0.6448
# 6 -10.0876 7.1415 12.1957 -0.1131 -0.6448 33.6751
#
#
#
# Elastic Compliance Matrix: (Units=1/GPa)
#
#
# Indices 1 2 3 4 5 6 
#
# 1 0.021419 -0.006797 -0.005801 -0.002320 0.005154 0.010050
# 2 -0.006797 0.035587 0.002707 0.017117 -0.011872 -0.010733
# 3 -0.005801 0.002707 0.013406 -0.010228 0.001345 -0.007176
# 4 -0.002320 0.017117 -0.010228 0.078193 -0.031969 -0.000970
# 5 0.005154 -0.011872 0.001345 -0.031969 0.038830 0.004211
# 6 0.010050 -0.010733 -0.007176 -0.000970 0.004211 0.037658
#
#
# Mechanical properties :
#
#
# Convention : Reuss Voigt Hill
#
# Bulk Modulus (GPa) = 19.75061 26.45061 23.10061
# Shear Modulus (GPa) = 19.10205 31.85588 25.47897
#
# Velocity S-wave (km/s) = 2.94255 3.79996 3.39841
# Velocity P-wave (km/s) = 4.52741 5.58950 5.08626
#
# Compressibility (1/GPa) = 0.05063136
#
# Stress axis : x y z
#
# Youngs Moduli (GPa) = 46.68666 28.10050 74.59183
#
# Poissons Ratio (x) = 0.19100 0.43269
# Poissons Ratio (y) = 0.31733 -0.20195
# Poissons Ratio (z) = 0.27082 -0.07608
#
# Static dielectric constant tensor:
#      x y z
#    x 1.940600 -0.048260 0.003580 
#    y -0.048260 1.907840 0.003900 
#    z 0.003580 0.003900 1.884470 
# 
# From -- ./inp_files/602114.got.cif
#   From: 2010.05.17/outbox.cif.g08.bks.cpg/sg2_302_cif.got.tgz:602114.got - 2010.06.03 11:33:40.
