data_PCOD9099348
_publ_section_title
;
Structure prediction by ZEFSAII (Michael W. Deem and Ramdas Pophale) SiO2 
 PCOD9099348
Probable space group: P -1
;
_chemical_formula_sum "Si O2"
_cell_formula_units_Z 12
_cell_length_a 18.659554
_cell_length_b 5.177011
_cell_length_c 5.374972
_cell_angle_alpha 95.457769
_cell_angle_beta 67.700424
_cell_angle_gamma 120.808017
_cell_volume 409.375841
_symmetry_space_group_name_H-M "P -1"
_symmetry_group_IT_number 2
_symmetry_cell_setting 'triclinic'
loop_
_space_group_symop_operation_xyz
x,y,z
-x,-y,-z
loop_
_atom_site_type_symbol
_atom_site_label
_atom_site_fract_x
_atom_site_fract_y
_atom_site_fract_z
Si Si1 0.136144 0.270260 0.311893
Si Si2 0.643504 0.141685 0.404921
Si Si3 0.696608 0.678645 0.777303
Si Si4 0.183586 0.758603 0.694443
Si Si5 0.528507 0.273340 0.180611
Si Si6 0.987100 0.220516 0.216528
O O1 0.229363 0.295975 0.115830
O O2 0.155648 0.449366 0.560208
O O3 0.090125 0.400679 0.204302
O O4 0.065102 0.928150 0.465791
O O5 0.669812 0.385358 0.614653
O O6 0.737556 0.170911 0.204440
O O7 0.592523 0.229338 0.282576
O O8 0.565356 0.809325 0.574066
O O9 0.754134 0.971893 0.559035
O O10 0.599142 0.601024 0.001344
O O11 0.085737 0.730853 0.833685
O O12 0.500000 0.000000 0.000000
O O13 0.000000 0.000000 0.000000
#
# Coordination Sequence:
#
# PCOD9099348 Si02
#       6
#     2   2   2   2   2   2
#     4   9  20  38  57  83 116 148 189 235 279 336
#     4   9  19  37  57  82 115 148 189 236 278 333
#     4   9  19  35  57  84 114 149 187 232 282 332
#     4  10  20  37  60  86 116 150 191 237 283 336
#     4   9  18  37  59  79 113 153 185 229 286 336
#     4  10  21  38  58  82 115 152 189 234 284 333
#
# _framework density 29.312919999999998
#
# number of rings (size 3 to 8) (size 9 to 14) (size 15 to 20)
#    0.000    2.667    0.000    0.500    0.000    5.333 
#    0.000   29.167    0.000    0.000    0.000    0.000 
#    0.000    0.000    0.000    0.000    0.000    0.000 
#
# Total GULP energy -67073.702421 kJ/mol
# GULP energy per Si atom -5589.475202 kJ/mol
# Density = 2.924620 g / cm^3
# Si number density = 29.312920 Si / 1000 Ang^3
#
#
#
# Elastic Constant Matrix: (Units=GPa)
#
#
# Indices 1 2 3 4 5 6 
#
# 1 234.0837 29.6808 50.2719 -2.0536 -5.6040 42.6282
# 2 29.6808 47.1267 7.4704 -9.9363 -31.2034 19.2329
# 3 50.2719 7.4704 59.8770 -12.3131 -21.5107 15.0003
# 4 -2.0536 -9.9363 -12.3131 54.2624 3.9785 -14.2280
# 5 -5.6040 -31.2034 -21.5107 3.9785 77.9300 -13.5908
# 6 42.6282 19.2329 15.0003 -14.2280 -13.5908 60.5492
#
#
#
# Elastic Compliance Matrix: (Units=1/GPa)
#
#
# Indices 1 2 3 4 5 6 
#
# 1 0.006612 -0.004841 -0.005971 -0.002525 -0.003509 -0.003019
# 2 -0.004841 0.036427 0.007428 0.005682 0.015076 -0.005284
# 3 -0.005971 0.007428 0.025551 0.005993 0.009112 -0.001033
# 4 -0.002525 0.005682 0.005993 0.021620 0.003399 0.004332
# 5 -0.003509 0.015076 0.009112 0.003399 0.021126 0.000965
# 6 -0.003019 -0.005284 -0.001033 0.004332 0.000965 0.021809
#
#
# Mechanical properties :
#
#
# Convention : Reuss Voigt Hill
#
# Bulk Modulus (GPa) = 16.17514 57.32593 36.75053
# Shear Modulus (GPa) = 31.14849 55.45926 43.30387
#
# Velocity S-wave (km/s) = 3.26332 4.35440 3.84773
# Velocity P-wave (km/s) = 4.44174 6.69926 5.68371
#
# Compressibility (1/GPa) = 0.06182328
#
# Stress axis : x y z
#
# Youngs Moduli (GPa) = 151.24843 27.45181 39.13676
#
# Poissons Ratio (x) = 0.13290 0.23367
# Poissons Ratio (y) = 0.73221 -0.29071
# Poissons Ratio (z) = 0.90303 -0.20391
#
# Static dielectric constant tensor:
#      x y z
#    x 2.339340 -0.017790 0.056380 
#    y -0.017790 2.279120 -0.125790 
#    z 0.056380 -0.125790 2.502440 
# 
# From -- ./inp_files/3054.got.cif
#   From: 2010.05.17/outbox.cif.g08.bks.cpg/sg2_2_cif.got.tgz:3054.got - 2010.06.03 11:33:40.
