data_PCOD9099239
_publ_section_title
;
Structure prediction by ZEFSAII (Michael W. Deem and Ramdas Pophale) SiO2 
 PCOD9099239
Probable space group: P -1
;
_chemical_formula_sum "Si O2"
_cell_formula_units_Z 15
_cell_length_a 10.303490
_cell_length_b 17.354155
_cell_length_c 13.747627
_cell_angle_alpha 22.721316
_cell_angle_beta 40.953147
_cell_angle_gamma 42.942641
_cell_volume 616.210394
_symmetry_space_group_name_H-M "P -1"
_symmetry_group_IT_number 2
_symmetry_cell_setting 'triclinic'
loop_
_space_group_symop_operation_xyz
x,y,z
-x,-y,-z
loop_
_atom_site_type_symbol
_atom_site_label
_atom_site_fract_x
_atom_site_fract_y
_atom_site_fract_z
Si Si1 0.885064 0.838033 0.806899
Si Si2 0.606521 0.707562 0.471431
Si Si3 0.291176 0.802077 0.398205
Si Si4 0.151379 0.947311 0.098432
Si Si5 0.495201 0.228368 0.209082
Si Si6 0.177639 0.714828 0.166501
Si Si7 0.721015 0.386665 0.075640
Si Si8 0.000000 0.500000 0.000000
O O1 0.054714 0.713991 0.922506
O O2 0.840948 0.675176 0.943250
O O3 0.000000 0.000000 0.500000
O O4 0.724100 0.975623 0.801859
O O5 0.507977 0.697240 0.432718
O O6 0.787835 0.524761 0.592841
O O7 0.430154 0.688904 0.670967
O O8 0.690309 0.916311 0.192604
O O9 0.233118 0.842573 0.272751
O O10 0.130826 0.674089 0.685408
O O11 0.111149 0.782637 0.233332
O O12 0.957488 0.120138 0.016656
O O13 0.634084 0.333125 0.084233
O O14 0.500000 0.000000 0.500000
O O15 0.594832 0.243851 0.030922
O O16 0.288486 0.376589 0.167144
#
# Coordination Sequence:
#
# PCOD9099239 Si02
#       8
#     2   2   2   2   2   2   2   1
#     4  10  20  38  59  91 123 161 200 257 317 384
#     4  11  22  42  64  93 132 169 215 271 321 386
#     4  11  24  42  67  99 128 171 218 263 336 386
#     4  11  24  43  66  91 129 176 221 267 313 392
#     4  10  21  37  62  92 126 165 204 266 317 382
#     4  10  24  43  62  96 127 173 225 260 326 379
#     4  10  20  37  59  92 126 159 214 251 326 382
#     4  10  22  40  62  96 132 162 204 270 324 390
#
# _framework density 24.342333
#
# number of rings (size 3 to 8) (size 9 to 14) (size 15 to 20)
#    0.000    1.600    2.667    2.400    0.000    5.867 
#    0.000    4.000    0.000    0.000    0.000    0.000 
#    0.000    0.000    0.000    0.000    0.000    0.000 
#
# Total GULP energy -83513.951463 kJ/mol
# GULP energy per Si atom -5567.596764 kJ/mol
# Density = 2.428693 g / cm^3
# Si number density = 24.342333 Si / 1000 Ang^3
#
#
#
# Elastic Constant Matrix: (Units=GPa)
#
#
# Indices 1 2 3 4 5 6 
#
# 1 84.0377 20.7799 2.7073 -0.2654 17.3703 -4.1401
# 2 20.7799 74.8582 22.9093 -21.6263 4.7936 1.9531
# 3 2.7073 22.9093 94.7975 -24.3119 -2.5619 8.0409
# 4 -0.2654 -21.6263 -24.3119 30.6539 2.2401 0.8949
# 5 17.3703 4.7936 -2.5619 2.2401 22.4748 -4.8799
# 6 -4.1401 1.9531 8.0409 0.8949 -4.8799 36.2156
#
#
#
# Elastic Compliance Matrix: (Units=1/GPa)
#
#
# Indices 1 2 3 4 5 6 
#
# 1 0.015115 -0.004095 -0.000375 -0.002310 -0.010474 0.000678
# 2 -0.004095 0.018659 -0.001095 0.012505 -0.002596 -0.001890
# 3 -0.000375 -0.001095 0.013716 0.010170 0.000372 -0.003230
# 4 -0.002310 0.012505 0.010170 0.050070 -0.005846 -0.005221
# 5 -0.010474 -0.002596 0.000372 -0.005846 0.055166 0.006438
# 6 0.000678 -0.001890 -0.003230 -0.005221 0.006438 0.029506
#
#
# Mechanical properties :
#
#
# Convention : Reuss Voigt Hill
#
# Bulk Modulus (GPa) = 27.50337 38.49848 33.00092
# Shear Modulus (GPa) = 24.33294 31.68864 28.01079
#
# Velocity S-wave (km/s) = 3.16510 3.61195 3.39588
# Velocity P-wave (km/s) = 4.96792 5.76582 5.38168
#
# Compressibility (1/GPa) = 0.03635918
#
# Stress axis : x y z
#
# Youngs Moduli (GPa) = 66.15844 53.59446 72.90530
#
# Poissons Ratio (x) = 0.21949 0.02734
# Poissons Ratio (y) = 0.27095 0.07984
# Poissons Ratio (z) = 0.02481 0.05869
#
# Static dielectric constant tensor:
#      x y z
#    x 2.025780 -0.016130 0.014610 
#    y -0.016130 1.960070 -0.003540 
#    z 0.014610 -0.003540 1.923160 
# 
# From -- ./inp_files/523145.got.cif
#   From: 2010.05.17/outbox.cif.g08.bks.cpg/sg2_262_cif.got.tgz:523145.got - 2010.06.03 11:33:40.
