data_PCOD9099868
_publ_section_title
;
Structure prediction by ZEFSAII (Michael W. Deem and Ramdas Pophale) SiO2 
 PCOD9099868
Probable space group: P -1
;
_chemical_formula_sum "Si O2"
_cell_formula_units_Z 16
_cell_length_a 8.584777
_cell_length_b 7.090017
_cell_length_c 12.253726
_cell_angle_alpha 93.262225
_cell_angle_beta 101.718453
_cell_angle_gamma 57.799811
_cell_volume 616.780756
_symmetry_space_group_name_H-M "P -1"
_symmetry_group_IT_number 2
_symmetry_cell_setting 'triclinic'
loop_
_space_group_symop_operation_xyz
x,y,z
-x,-y,-z
loop_
_atom_site_type_symbol
_atom_site_label
_atom_site_fract_x
_atom_site_fract_y
_atom_site_fract_z
Si Si1 0.607904 0.636413 0.089296
Si Si2 0.540983 0.693678 0.487236
Si Si3 0.406770 0.417968 0.142214
Si Si4 0.952081 0.119422 0.113858
Si Si5 0.223349 0.888505 0.702355
Si Si6 0.825869 0.496145 0.696430
Si Si7 0.844907 0.029220 0.657025
Si Si8 0.234343 0.294472 0.678440
O O1 0.437312 0.606710 0.101258
O O2 0.645542 0.753232 0.196192
O O3 0.801622 0.386733 0.098276
O O4 0.567695 0.729501 0.964568
O O5 0.500000 0.500000 0.500000
O O6 0.657948 0.688799 0.607828
O O7 0.342338 0.908088 0.429716
O O8 0.678068 0.639077 0.402445
O O9 0.221623 0.475342 0.181512
O O10 0.571182 0.319320 0.252850
O O11 0.131134 0.053868 0.215964
O O12 0.849304 0.036595 0.179543
O O13 0.000000 0.000000 0.000000
O O14 0.238944 0.070187 0.645795
O O15 0.054866 0.865387 0.631909
O O16 0.834820 0.265641 0.664969
O O17 0.018357 0.467952 0.684772
#
# Coordination Sequence:
#
# PCOD9099868 Si02
#       8
#     2   2   2   2   2   2   2   2
#     4  10  21  34  64  88 119 158 200 242 284 357
#     4  10  20  37  65  87 110 157 207 244 288 358
#     4  10  20  40  58  88 120 157 202 233 294 359
#     4   9  17  35  59  84 117 161 194 235 286 352
#     4   8  20  37  56  84 125 152 186 250 296 343
#     4  10  20  37  62  82 120 158 193 249 296 345
#     4   8  17  35  57  83 112 153 201 231 289 347
#     4  11  22  39  58  90 121 151 199 247 304 346
#
# _framework density 25.941144999999999
#
# number of rings (size 3 to 8) (size 9 to 14) (size 15 to 20)
#    0.750    1.750    0.000    2.625    0.000    3.000 
#    2.250    1.250    5.500    0.000    0.000    0.000 
#    0.000    0.000    0.000    0.000    0.000    0.000 
#
# Total GULP energy -89297.702647 kJ/mol
# GULP energy per Si atom -5581.106415 kJ/mol
# Density = 2.588210 g / cm^3
# Si number density = 25.941145 Si / 1000 Ang^3
#
#
#
# Elastic Constant Matrix: (Units=GPa)
#
#
# Indices 1 2 3 4 5 6 
#
# 1 121.4139 20.9368 69.1115 -9.8446 -30.9895 -18.8147
# 2 20.9368 63.5395 16.9089 -16.0322 -9.9397 -3.2205
# 3 69.1115 16.9089 138.1625 -1.3206 -16.9939 -20.9396
# 4 -9.8446 -16.0322 -1.3206 30.5366 -15.6100 5.3276
# 5 -30.9895 -9.9397 -16.9939 -15.6100 52.6639 -12.4519
# 6 -18.8147 -3.2205 -20.9396 5.3276 -12.4519 38.9611
#
#
#
# Elastic Compliance Matrix: (Units=1/GPa)
#
#
# Indices 1 2 3 4 5 6 
#
# 1 0.016853 0.001389 -0.005585 0.011517 0.013695 0.008054
# 2 0.001389 0.021432 -0.001590 0.016172 0.009731 0.002487
# 3 -0.005585 -0.001590 0.010657 -0.002855 -0.000234 0.003215
# 4 0.011517 0.016172 -0.002855 0.057805 0.027521 0.006256
# 5 0.013695 0.009731 -0.000234 0.027521 0.040890 0.016597
# 6 0.008054 0.002487 0.003215 0.006256 0.016597 0.035938
#
#
# Mechanical properties :
#
#
# Convention : Reuss Voigt Hill
#
# Bulk Modulus (GPa) = 26.75772 59.67006 43.21389
# Shear Modulus (GPa) = 24.08429 38.84289 31.46359
#
# Velocity S-wave (km/s) = 3.05030 3.87375 3.48643
# Velocity P-wave (km/s) = 4.76896 6.56201 5.73598
#
# Compressibility (1/GPa) = 0.03737239
#
# Stress axis : x y z
#
# Youngs Moduli (GPa) = 59.33569 46.65860 93.83089
#
# Poissons Ratio (x) = -0.06483 0.52407
# Poissons Ratio (y) = -0.08245 0.14915
# Poissons Ratio (z) = 0.33140 0.07417
#
# Static dielectric constant tensor:
#      x y z
#    x 2.083950 -0.046830 0.057080 
#    y -0.046830 2.148660 -0.006260 
#    z 0.057080 -0.006260 2.063200 
# 
# From -- ./inp_files/379174.got.cif
#   From: 2010.05.17/outbox.cif.g08.bks.cpg/sg2_190_cif.got.tgz:379174.got - 2010.06.03 11:33:40.
