data_PCOD9099811
_publ_section_title
;
Structure prediction by ZEFSAII (Michael W. Deem and Ramdas Pophale) SiO2 
 PCOD9099811
Probable space group: P -1
;
_chemical_formula_sum "Si O2"
_cell_formula_units_Z 16
_cell_length_a 14.167012
_cell_length_b 17.089220
_cell_length_c 8.517055
_cell_angle_alpha 109.634506
_cell_angle_beta 121.484741
_cell_angle_gamma 25.147649
_cell_volume 692.006662
_symmetry_space_group_name_H-M "P -1"
_symmetry_group_IT_number 2
_symmetry_cell_setting 'triclinic'
loop_
_space_group_symop_operation_xyz
x,y,z
-x,-y,-z
loop_
_atom_site_type_symbol
_atom_site_label
_atom_site_fract_x
_atom_site_fract_y
_atom_site_fract_z
Si Si1 0.916015 0.243092 0.464466
Si Si2 0.574611 0.328323 0.245073
Si Si3 0.015304 0.720407 0.149427
Si Si4 0.964628 0.944059 0.141431
Si Si5 0.332926 0.060767 0.269328
Si Si6 0.768311 0.433352 0.172047
Si Si7 0.722933 0.114329 0.689266
Si Si8 0.713417 0.655508 0.350305
O O1 0.742426 0.290626 0.432220
O O2 0.743530 0.414815 0.310152
O O3 0.042245 0.221843 0.680931
O O4 0.118463 0.051468 0.406166
O O5 0.764094 0.124531 0.214352
O O6 0.314400 0.483174 0.223031
O O7 0.450953 0.450048 0.057659
O O8 0.012951 0.815887 0.139270
O O9 0.800417 0.815837 0.925061
O O10 0.841655 0.031959 0.916196
O O11 0.218129 0.832413 0.280992
O O12 0.070316 0.212021 0.236254
O O13 0.500000 0.000000 0.500000
O O14 0.521956 0.855896 0.249759
O O15 0.737146 0.553481 0.210915
O O16 0.429901 0.276851 0.567675
O O17 0.000000 0.500000 0.500000
#
# Coordination Sequence:
#
# PCOD9099811 Si02
#       8
#     2   2   2   2   2   2   2   2
#     4  11  23  38  59  94 136 165 195 248 319 375
#     4  10  21  37  60  92 123 169 210 240 300 370
#     4  11  23  40  60  91 133 168 198 249 315 378
#     4  10  20  38  62  91 127 159 208 256 298 371
#     4  11  22  42  65  89 114 159 219 262 302 355
#     4  11  21  37  63  89 122 157 212 258 292 364
#     4  10  20  37  61  94 119 158 207 252 311 353
#     4  12  22  38  68  91 112 156 216 268 302 350
#
# _framework density 23.121165000000001
#
# number of rings (size 3 to 8) (size 9 to 14) (size 15 to 20)
#    0.000    1.250    5.000    1.500    1.750    2.000 
#    2.250    0.625    0.000    1.500    0.000    0.000 
#    0.000    0.000    0.000    0.000    0.000    0.000 
#
# Total GULP energy -89287.017977 kJ/mol
# GULP energy per Si atom -5580.438624 kJ/mol
# Density = 2.306854 g / cm^3
# Si number density = 23.121165 Si / 1000 Ang^3
#
#
#
# Elastic Constant Matrix: (Units=GPa)
#
#
# Indices 1 2 3 4 5 6 
#
# 1 37.2075 9.0443 13.8360 -8.9148 14.5945 -1.6817
# 2 9.0443 131.7861 23.0233 -2.6044 15.8179 -17.0013
# 3 13.8360 23.0233 126.3365 14.1991 19.8276 -6.6488
# 4 -8.9148 -2.6044 14.1991 33.9940 -6.8942 9.7027
# 5 14.5945 15.8179 19.8276 -6.8942 29.7319 -5.0614
# 6 -1.6817 -17.0013 -6.6488 9.7027 -5.0614 22.3070
#
#
#
# Elastic Compliance Matrix: (Units=1/GPa)
#
#
# Indices 1 2 3 4 5 6 
#
# 1 0.035621 -0.000861 -0.002940 0.009422 -0.013921 -0.006104
# 2 -0.000861 0.008955 -0.000437 -0.001956 -0.003360 0.006718
# 3 -0.002940 -0.000437 0.010405 -0.007701 -0.006288 0.004470
# 4 0.009422 -0.001956 -0.007701 0.042172 0.007993 -0.019606
# 5 -0.013921 -0.003360 -0.006288 0.007993 0.048656 0.002079
# 6 -0.006104 0.006718 0.004470 -0.019606 0.002079 0.059821
#
#
# Mechanical properties :
#
#
# Convention : Reuss Voigt Hill
#
# Bulk Modulus (GPa) = 21.50326 43.01527 32.25927
# Shear Modulus (GPa) = 21.77648 33.83502 27.80575
#
# Velocity S-wave (km/s) = 3.07227 3.82956 3.47163
# Velocity P-wave (km/s) = 4.68034 6.18051 5.48199
#
# Compressibility (1/GPa) = 0.04650457
#
# Stress axis : x y z
#
# Youngs Moduli (GPa) = 28.07347 111.67159 96.11149
#
# Poissons Ratio (x) = 0.09620 0.28253
# Poissons Ratio (y) = 0.02418 0.04198
# Poissons Ratio (z) = 0.08252 0.04878
#
# Static dielectric constant tensor:
#      x y z
#    x 1.880730 0.001100 -0.013260 
#    y 0.001100 1.917680 -0.003880 
#    z -0.013260 -0.003880 1.976690 
# 
# From -- ./inp_files/337768.got.cif
#   From: 2010.05.17/outbox.cif.g08.bks.cpg/sg2_169_cif.got.tgz:337768.got - 2010.06.03 11:33:40.
