data_PCOD9099127
_publ_section_title
;
Structure prediction by ZEFSAII (Michael W. Deem and Ramdas Pophale) SiO2 
 PCOD9099127
Probable space group: P -1
;
_chemical_formula_sum "Si O2"
_cell_formula_units_Z 14
_cell_length_a 9.515019
_cell_length_b 10.760939
_cell_length_c 7.446905
_cell_angle_alpha 73.707551
_cell_angle_beta 70.453406
_cell_angle_gamma 121.341461
_cell_volume 506.454454
_symmetry_space_group_name_H-M "P -1"
_symmetry_group_IT_number 2
_symmetry_cell_setting 'triclinic'
loop_
_space_group_symop_operation_xyz
x,y,z
-x,-y,-z
loop_
_atom_site_type_symbol
_atom_site_label
_atom_site_fract_x
_atom_site_fract_y
_atom_site_fract_z
Si Si1 0.249416 0.718546 0.458454
Si Si2 0.060627 0.212060 0.039627
Si Si3 0.867828 0.343811 0.888229
Si Si4 0.814687 0.053900 0.688902
Si Si5 0.790909 0.832199 0.489354
Si Si6 0.575602 0.746834 0.162580
Si Si7 0.619366 0.422781 0.065559
O O1 0.061051 0.552003 0.713004
O O2 0.274241 0.884600 0.420587
O O3 0.422098 0.712636 0.387419
O O4 0.197790 0.704351 0.272522
O O5 0.942029 0.252586 0.969125
O O6 0.245597 0.242511 0.852613
O O7 0.192610 0.369359 0.067373
O O8 0.898068 0.008986 0.254489
O O9 0.698065 0.320593 0.081121
O O10 0.054413 0.198167 0.573330
O O11 0.801107 0.910652 0.646754
O O12 0.680171 0.939839 0.963564
O O13 0.554159 0.657219 0.677664
O O14 0.458960 0.616376 0.092492
#
# Coordination Sequence:
#
# PCOD9099127 Si02
#       7
#     2   2   2   2   2   2   2
#     4  10  20  38  56  77 114 156 191 230 277 333
#     4  11  21  38  58  86 120 143 185 244 279 327
#     4  10  23  36  55  84 113 151 195 229 278 341
#     4   9  17  35  59  84 113 146 187 235 277 334
#     4   9  20  35  59  90 112 141 188 232 285 339
#     4   9  20  35  59  87 110 149 194 225 279 344
#     4  10  20  37  59  86 115 151 185 226 288 337
#
# _framework density 27.643156999999999
#
# number of rings (size 3 to 8) (size 9 to 14) (size 15 to 20)
#    0.000    2.286    0.000    3.000    0.000    4.571 
#    0.000    7.143    0.000    0.000    0.000    0.000 
#    0.000    0.000    0.000    0.000    0.000    0.000 
#
# Total GULP energy -78313.235748 kJ/mol
# GULP energy per Si atom -5593.802553 kJ/mol
# Density = 2.758024 g / cm^3
# Si number density = 27.643157 Si / 1000 Ang^3
#
#
#
# Elastic Constant Matrix: (Units=GPa)
#
#
# Indices 1 2 3 4 5 6 
#
# 1 189.0687 38.6156 53.9830 -3.8826 -6.5159 -34.7401
# 2 38.6156 112.0300 36.9282 -16.2053 2.8290 2.0853
# 3 53.9830 36.9282 105.3552 -22.1400 -40.6898 -12.1278
# 4 -3.8826 -16.2053 -22.1400 31.5985 -10.2002 2.7419
# 5 -6.5159 2.8290 -40.6898 -10.2002 44.3920 9.6478
# 6 -34.7401 2.0853 -12.1278 2.7419 9.6478 46.6308
#
#
#
# Elastic Compliance Matrix: (Units=1/GPa)
#
#
# Indices 1 2 3 4 5 6 
#
# 1 0.009458 -0.001095 -0.011418 -0.012431 -0.013528 0.007655
# 2 -0.001095 0.011462 -0.006192 -0.000501 -0.006335 -0.001599
# 3 -0.011418 -0.006192 0.048119 0.048123 0.056088 -0.010149
# 4 -0.012431 -0.000501 0.048123 0.086025 0.065411 -0.015315
# 5 -0.013528 -0.006335 0.056088 0.065411 0.091284 -0.017940
# 6 0.007655 -0.001599 -0.010149 -0.015315 -0.017940 0.029193
#
#
# Mechanical properties :
#
#
# Convention : Reuss Voigt Hill
#
# Bulk Modulus (GPa) = 31.61739 73.94531 52.78135
# Shear Modulus (GPa) = 15.45626 42.98606 29.22116
#
# Velocity S-wave (km/s) = 2.36717 3.94767 3.25481
# Velocity P-wave (km/s) = 4.35130 6.89832 5.76718
#
# Compressibility (1/GPa) = 0.03162816
#
# Stress axis : x y z
#
# Youngs Moduli (GPa) = 105.73069 87.24358 20.78182
#
# Poissons Ratio (x) = 0.09557 0.23728
# Poissons Ratio (y) = 0.11582 0.12869
# Poissons Ratio (z) = 1.20721 0.54023
#
# Static dielectric constant tensor:
#      x y z
#    x 2.247200 0.070230 -0.051070 
#    y 0.070230 2.326060 0.050560 
#    z -0.051070 0.050560 2.183240 
# 
# From -- ./inp_files/174283.got.cif
#   From: 2010.05.17/outbox.cif.g08.bks.cpg/sg2_88_cif.got.tgz:174283.got - 2010.06.03 11:33:40.
