data_PCOD9099160
_publ_section_title
;
Structure prediction by ZEFSAII (Michael W. Deem and Ramdas Pophale) SiO2 
 PCOD9099160
Probable space group: P -1
;
_chemical_formula_sum "Si O2"
_cell_formula_units_Z 16
_cell_length_a 15.302890
_cell_length_b 6.808061
_cell_length_c 8.823474
_cell_angle_alpha 128.254087
_cell_angle_beta 99.211664
_cell_angle_gamma 63.040842
_cell_volume 633.796575
_symmetry_space_group_name_H-M "P -1"
_symmetry_group_IT_number 2
_symmetry_cell_setting 'triclinic'
loop_
_space_group_symop_operation_xyz
x,y,z
-x,-y,-z
loop_
_atom_site_type_symbol
_atom_site_label
_atom_site_fract_x
_atom_site_fract_y
_atom_site_fract_z
Si Si1 0.617544 0.803515 0.342327
Si Si2 0.834105 0.377267 0.205125
Si Si3 0.414948 0.642584 0.675628
Si Si4 0.698047 0.206247 0.694580
Si Si5 0.197325 0.828581 0.592862
Si Si6 0.479655 0.279537 0.989388
Si Si7 0.034374 0.298462 0.607052
Si Si8 0.121088 0.143756 0.229593
O O1 0.725655 0.576188 0.202825
O O2 0.588501 0.622565 0.365477
O O3 0.637725 0.043705 0.538915
O O4 0.539661 0.903591 0.230138
O O5 0.815063 0.355376 0.366770
O O6 0.900881 0.531947 0.278745
O O7 0.882237 0.074683 0.996177
O O8 0.500000 0.500000 0.500000
O O9 0.299849 0.837334 0.684619
O O10 0.442829 0.809988 0.894052
O O11 0.915891 0.928097 0.354790
O O12 0.768233 0.238399 0.602608
O O13 0.623549 0.518441 0.865368
O O14 0.234002 0.992479 0.247971
O O15 0.500000 0.500000 0.000000
O O16 0.057177 0.180909 0.384411
O O17 0.922217 0.545003 0.704805
#
# Coordination Sequence:
#
# PCOD9099160 Si02
#       8
#     2   2   2   2   2   2   2   2
#     4  10  21  37  64  85 117 164 196 241 310 358
#     4  11  20  39  65  90 121 163 203 244 308 363
#     4  10  20  37  59  87 122 153 200 252 297 351
#     4  11  20  41  62  87 126 157 201 250 303 358
#     4  10  22  38  62  90 125 160 197 257 300 358
#     4  10  21  37  62  86 115 160 203 245 297 359
#     4  10  22  43  62  89 127 159 202 249 310 356
#     4  10  21  38  67  91 120 164 202 251 298 370
#
# _framework density 25.244693000000002
#
# number of rings (size 3 to 8) (size 9 to 14) (size 15 to 20)
#    0.000    1.750    5.000    0.375    0.000    2.500 
#    0.000   11.250    0.000    0.000    0.000    0.000 
#    0.000    0.000    0.000    0.000    0.000    0.000 
#
# Total GULP energy -89335.835490 kJ/mol
# GULP energy per Si atom -5583.489718 kJ/mol
# Density = 2.518723 g / cm^3
# Si number density = 25.244693 Si / 1000 Ang^3
#
#
#
# Elastic Constant Matrix: (Units=GPa)
#
#
# Indices 1 2 3 4 5 6 
#
# 1 55.5884 0.3338 20.6473 -3.6311 10.7312 -8.6884
# 2 0.3338 105.6719 5.1064 -15.0410 -5.7530 -7.1116
# 3 20.6473 5.1064 91.5473 13.3985 10.7820 4.1654
# 4 -3.6311 -15.0410 13.3985 40.8362 -8.4380 -0.0402
# 5 10.7312 -5.7530 10.7820 -8.4380 14.9014 1.3161
# 6 -8.6884 -7.1116 4.1654 -0.0402 1.3161 44.7867
#
#
#
# Elastic Compliance Matrix: (Units=1/GPa)
#
#
# Indices 1 2 3 4 5 6 
#
# 1 0.022962 -0.000287 -0.003751 0.000225 -0.014262 0.005177
# 2 -0.000287 0.011361 -0.002996 0.007372 0.010783 0.001717
# 3 -0.003751 -0.002996 0.015124 -0.009404 -0.014529 -0.002192
# 4 0.000225 0.007372 -0.009404 0.036521 0.030059 0.001238
# 5 -0.014262 0.010783 -0.014529 0.030059 0.109331 -0.002889
# 6 0.005177 0.001717 -0.002192 0.001238 -0.002889 0.023895
#
#
# Mechanical properties :
#
#
# Convention : Reuss Voigt Hill
#
# Bulk Modulus (GPa) = 28.26705 33.88695 31.07700
# Shear Modulus (GPa) = 20.40362 35.21952 27.81157
#
# Velocity S-wave (km/s) = 2.84603 3.73919 3.32276
# Velocity P-wave (km/s) = 4.69269 5.66521 5.20173
#
# Compressibility (1/GPa) = 0.03537688
#
# Stress axis : x y z
#
# Youngs Moduli (GPa) = 43.55088 88.02200 66.12152
#
# Poissons Ratio (x) = 0.02529 0.24805
# Poissons Ratio (y) = 0.01251 0.19810
# Poissons Ratio (z) = 0.16338 0.26371
#
# Static dielectric constant tensor:
#      x y z
#    x 2.233720 -0.120190 -0.168950 
#    y -0.120190 2.098310 0.064970 
#    z -0.168950 0.064970 2.203180 
# 
# From -- ./inp_files/311743.got.cif
#   From: 2010.05.17/outbox.cif.g08.bks.cpg/sg2_156_cif.got.tgz:311743.got - 2010.06.03 11:33:40.
