data_PCOD9099534
_publ_section_title
;
Structure prediction by ZEFSAII (Michael W. Deem and Ramdas Pophale) SiO2 
 PCOD9099534
Probable space group: P -1
;
_chemical_formula_sum "Si O2"
_cell_formula_units_Z 16
_cell_length_a 11.059495
_cell_length_b 10.398666
_cell_length_c 11.298610
_cell_angle_alpha 54.009646
_cell_angle_beta 118.032712
_cell_angle_gamma 130.983308
_cell_volume 786.022646
_symmetry_space_group_name_H-M "P -1"
_symmetry_group_IT_number 2
_symmetry_cell_setting 'triclinic'
loop_
_space_group_symop_operation_xyz
x,y,z
-x,-y,-z
loop_
_atom_site_type_symbol
_atom_site_label
_atom_site_fract_x
_atom_site_fract_y
_atom_site_fract_z
Si Si1 0.072816 0.820911 0.064223
Si Si2 0.465543 0.569745 0.785975
Si Si3 0.903372 0.245068 0.491595
Si Si4 0.616951 0.145745 0.828498
Si Si5 0.206395 0.585915 0.822243
Si Si6 0.828355 0.919264 0.799503
Si Si7 0.554087 0.268601 0.968523
Si Si8 0.252991 0.598168 0.481310
O O1 0.217764 0.827933 0.058307
O O2 0.955252 0.611920 0.172377
O O3 0.149439 0.961485 0.135297
O O4 0.962614 0.867315 0.910084
O O5 0.348306 0.580003 0.821641
O O6 0.648637 0.738983 0.801507
O O7 0.462650 0.376756 0.892442
O O8 0.391116 0.585835 0.619999
O O9 0.823250 0.256364 0.326788
O O10 0.819606 0.313092 0.511435
O O11 0.095803 0.393359 0.493407
O O12 0.865918 0.049862 0.632012
O O13 0.541937 0.213277 0.856135
O O14 0.668820 0.269205 0.667866
O O15 0.508064 0.922126 0.882966
O O16 0.260453 0.602583 0.973263
#
# Coordination Sequence:
#
# PCOD9099534 Si02
#       8
#     2   2   2   2   2   2   2   2
#     4  11  22  38  64  90 121 160 203 251 305 359
#     4  11  24  38  62  95 128 152 200 262 305 354
#     4  10  20  37  60  97 119 155 201 249 316 355
#     4  11  24  44  64  84 124 169 207 242 299 372
#     4  11  22  39  65  92 124 156 204 260 301 355
#     4  11  22  35  61  98 122 154 196 253 313 355
#     4  11  26  42  61  91 123 165 207 245 302 365
#     4  10  21  39  63  88 125 160 198 255 302 359
#
# _framework density 20.355647999999999
#
# number of rings (size 3 to 8) (size 9 to 14) (size 15 to 20)
#    0.000    1.250    3.750    2.625    7.000    2.000 
#    0.000    0.000    0.000    1.500    0.000    0.000 
#    0.000    0.000    0.000    0.000    0.000    0.000 
#
# Total GULP energy -89335.864455 kJ/mol
# GULP energy per Si atom -5583.491528 kJ/mol
# Density = 2.030932 g / cm^3
# Si number density = 20.355648 Si / 1000 Ang^3
#
#
#
# Elastic Constant Matrix: (Units=GPa)
#
#
# Indices 1 2 3 4 5 6 
#
# 1 36.7451 27.6991 23.3189 1.3797 14.6012 7.8684
# 2 27.6991 93.6456 33.8876 -6.0426 7.9565 9.7498
# 3 23.3189 33.8876 106.4661 -6.7251 19.6615 -2.3251
# 4 1.3797 -6.0426 -6.7251 31.1812 9.1948 5.1099
# 5 14.6012 7.9565 19.6615 9.1948 29.1713 1.9841
# 6 7.8684 9.7498 -2.3251 5.1099 1.9841 21.3708
#
#
#
# Elastic Compliance Matrix: (Units=1/GPa)
#
#
# Indices 1 2 3 4 5 6 
#
# 1 0.046449 -0.009328 -0.003983 0.002592 -0.018006 -0.012228
# 2 -0.009328 0.015027 -0.003040 0.002823 0.002043 -0.004617
# 3 -0.003983 -0.003040 0.012932 0.003899 -0.007396 0.004014
# 4 0.002592 0.002823 0.003899 0.039842 -0.016587 -0.009805
# 5 -0.018006 0.002043 -0.007396 -0.016587 0.052679 0.003968
# 6 -0.012228 -0.004617 0.004014 -0.009805 0.003968 0.055814
#
#
# Mechanical properties :
#
#
# Convention : Reuss Voigt Hill
#
# Bulk Modulus (GPa) = 23.97609 45.18533 34.58071
# Shear Modulus (GPa) = 18.56344 26.47474 22.51909
#
# Velocity S-wave (km/s) = 3.02314 3.61031 3.32969
# Velocity P-wave (km/s) = 4.89796 6.29486 5.63982
#
# Compressibility (1/GPa) = 0.04170822
#
# Stress axis : x y z
#
# Youngs Moduli (GPa) = 21.52876 66.54776 77.32544
#
# Poissons Ratio (x) = 0.62074 0.30797
# Poissons Ratio (y) = 0.20081 0.23505
# Poissons Ratio (z) = 0.08574 0.20229
#
# Static dielectric constant tensor:
#      x y z
#    x 1.707340 -0.005390 0.002530 
#    y -0.005390 1.762990 0.003170 
#    z 0.002530 0.003170 1.747140 
# 
# From -- ./inp_files/425322.got.cif
#   From: 2010.05.17/outbox.cif.g08.bks.cpg/sg2_213_cif.got.tgz:425322.got - 2010.06.03 11:33:40.
