data_PCOD9099642
_publ_section_title
;
Structure prediction by ZEFSAII (Michael W. Deem and Ramdas Pophale) SiO2 
 PCOD9099642
Probable space group: P -1
;
_chemical_formula_sum "Si O2"
_cell_formula_units_Z 14
_cell_length_a 8.049036
_cell_length_b 12.289605
_cell_length_c 9.226971
_cell_angle_alpha 92.526348
_cell_angle_beta 131.801214
_cell_angle_gamma 86.205656
_cell_volume 678.911823
_symmetry_space_group_name_H-M "P -1"
_symmetry_group_IT_number 2
_symmetry_cell_setting 'triclinic'
loop_
_space_group_symop_operation_xyz
x,y,z
-x,-y,-z
loop_
_atom_site_type_symbol
_atom_site_label
_atom_site_fract_x
_atom_site_fract_y
_atom_site_fract_z
Si Si1 0.282200 0.212892 0.047167
Si Si2 0.747711 0.453537 0.673771
Si Si3 0.947243 0.349815 0.067298
Si Si4 0.744635 0.223031 0.207432
Si Si5 0.213960 0.962140 0.982423
Si Si6 0.083578 0.756318 0.397948
Si Si7 0.276245 0.940968 0.330683
O O1 0.148686 0.231070 0.820810
O O2 0.296111 0.082550 0.067182
O O3 0.521373 0.261321 0.165933
O O4 0.132535 0.269899 0.089464
O O5 0.500000 0.500000 0.500000
O O6 0.819215 0.363952 0.590101
O O7 0.919360 0.549815 0.786830
O O8 0.780897 0.393754 0.845803
O O9 0.822224 0.293336 0.122137
O O10 0.695221 0.105493 0.104611
O O11 0.930638 0.218452 0.439729
O O12 0.273436 0.897628 0.161213
O O13 0.948468 0.979800 0.798129
O O14 0.235453 0.845148 0.414371
O O15 0.500000 0.000000 0.500000
#
# Coordination Sequence:
#
# PCOD9099642 Si02
#       7
#     2   2   2   2   2   2   2
#     4  10  22  42  59  86 128 157 194 248 292 347
#     4  10  21  42  65  85 117 157 197 250 302 347
#     4  10  23  41  63  89 116 155 203 243 297 360
#     4  12  23  38  63  91 122 159 195 243 298 348
#     4  10  21  36  58  89 123 161 200 235 290 360
#     4  10  23  38  57  90 122 153 202 246 290 360
#     4  10  20  37  61  87 122 162 199 242 291 347
#
# _framework density 20.621234000000001
#
# number of rings (size 3 to 8) (size 9 to 14) (size 15 to 20)
#    0.000    1.714    0.000    5.571    0.000    6.286 
#    0.000   10.000    0.000    0.000    0.000    0.000 
#    0.000    0.000    0.000    0.000    0.000    0.000 
#
# Total GULP energy -78189.397860 kJ/mol
# GULP energy per Si atom -5584.956990 kJ/mol
# Density = 2.057430 g / cm^3
# Si number density = 20.621234 Si / 1000 Ang^3
#
#
#
# Elastic Constant Matrix: (Units=GPa)
#
#
# Indices 1 2 3 4 5 6 
#
# 1 84.6854 30.5851 42.0767 -7.0807 -6.4696 16.1352
# 2 30.5851 97.2949 38.7207 2.8935 -17.2398 8.4592
# 3 42.0767 38.7207 88.7069 10.4022 -17.1135 6.5091
# 4 -7.0807 2.8935 10.4022 23.8820 3.0272 -0.1462
# 5 -6.4696 -17.2398 -17.1135 3.0272 33.6163 5.1813
# 6 16.1352 8.4592 6.5091 -0.1462 5.1813 18.4595
#
#
#
# Elastic Compliance Matrix: (Units=1/GPa)
#
#
# Indices 1 2 3 4 5 6 
#
# 1 0.020480 -0.002034 -0.009165 0.010306 -0.000617 -0.013483
# 2 -0.002034 0.013780 -0.003362 -0.001584 0.005879 -0.005014
# 3 -0.009165 -0.003362 0.019963 -0.011981 0.007715 0.000252
# 4 0.010306 -0.001584 -0.011981 0.051526 -0.009413 -0.001008
# 5 -0.000617 0.005879 0.007715 -0.009413 0.039908 -0.016151
# 6 -0.013483 -0.005014 0.000252 -0.001008 -0.016151 0.072692
#
#
# Mechanical properties :
#
#
# Convention : Reuss Voigt Hill
#
# Bulk Modulus (GPa) = 39.83991 54.82802 47.33396
# Shear Modulus (GPa) = 19.54358 25.81188 22.67773
#
# Velocity S-wave (km/s) = 3.08188 3.54179 3.31981
# Velocity P-wave (km/s) = 5.65913 6.58571 6.13993
#
# Compressibility (1/GPa) = 0.02510046
#
# Stress axis : x y z
#
# Youngs Moduli (GPa) = 48.82780 72.56647 50.09350
#
# Poissons Ratio (x) = 0.14763 0.45909
# Poissons Ratio (y) = 0.09933 0.16843
# Poissons Ratio (z) = 0.44749 0.24399
#
# Static dielectric constant tensor:
#      x y z
#    x 1.769650 0.008900 0.006570 
#    y 0.008900 1.768650 -0.001830 
#    z 0.006570 -0.001830 1.727660 
# 
# From -- ./inp_files/187987.got.cif
#   From: 2010.05.17/outbox.cif.g08.bks.cpg/sg2_94_cif.got.tgz:187987.got - 2010.06.03 11:33:40.
