data_PCOD9099999
_publ_section_title
;
Structure prediction by ZEFSAII (Michael W. Deem and Ramdas Pophale) SiO2 
 PCOD9099999
Probable space group: P -1
;
_chemical_formula_sum "Si O2"
_cell_formula_units_Z 14
_cell_length_a 8.045633
_cell_length_b 9.434966
_cell_length_c 13.116817
_cell_angle_alpha 44.394642
_cell_angle_beta 105.857293
_cell_angle_gamma 109.111913
_cell_volume 657.029901
_symmetry_space_group_name_H-M "P -1"
_symmetry_group_IT_number 2
_symmetry_cell_setting 'triclinic'
loop_
_space_group_symop_operation_xyz
x,y,z
-x,-y,-z
loop_
_atom_site_type_symbol
_atom_site_label
_atom_site_fract_x
_atom_site_fract_y
_atom_site_fract_z
Si Si1 0.102115 0.102976 0.081778
Si Si2 0.047098 0.817940 0.667979
Si Si3 0.668954 0.312884 0.362826
Si Si4 0.870105 0.426761 0.921734
Si Si5 0.336273 0.926344 0.828974
Si Si6 0.379973 0.068972 0.300471
Si Si7 0.233324 0.208699 0.834007
O O1 0.217387 0.141122 0.182654
O O2 0.230695 0.134057 0.989725
O O3 0.973906 0.879223 0.181412
O O4 0.968581 0.262101 0.966908
O O5 0.182069 0.710193 0.682500
O O6 0.155849 0.908306 0.740781
O O7 0.879881 0.634829 0.753659
O O8 0.000000 0.000000 0.500000
O O9 0.675095 0.145770 0.538225
O O10 0.702861 0.546966 0.285050
O O11 0.487190 0.233367 0.312508
O O12 0.690311 0.294942 0.003934
O O13 0.000000 0.500000 0.000000
O O14 0.489868 0.961764 0.754366
O O15 0.340531 0.096694 0.829456
#
# Coordination Sequence:
#
# PCOD9099999 Si02
#       7
#     2   2   2   2   2   2   2
#     4  10  21  39  65  91 121 162 209 251 306 361
#     4  10  20  37  62  90 119 161 209 252 298 359
#     4  10  22  41  62  91 128 161 206 253 304 369
#     4   9  18  36  60  88 116 156 206 256 285 358
#     4   9  21  40  58  89 127 156 201 259 301 366
#     4  10  23  41  61  89 130 165 202 248 308 370
#     4  10  21  40  63  88 126 160 206 260 295 364
#
# _framework density 21.308012000000002
#
# number of rings (size 3 to 8) (size 9 to 14) (size 15 to 20)
#    0.000    2.286    1.429    0.000    6.000    2.286 
#    0.000    0.000    0.000    0.000    0.000    0.000 
#    0.000    0.000    0.000    0.000    0.000    0.000 
#
# Total GULP energy -78162.716906 kJ/mol
# GULP energy per Si atom -5583.051208 kJ/mol
# Density = 2.125951 g / cm^3
# Si number density = 21.308012 Si / 1000 Ang^3
#
#
#
# Elastic Constant Matrix: (Units=GPa)
#
#
# Indices 1 2 3 4 5 6 
#
# 1 53.5747 14.5028 13.1427 2.4247 -19.4942 -11.0702
# 2 14.5028 100.1928 36.9656 -27.2603 -12.3931 -17.5325
# 3 13.1427 36.9656 100.5534 -15.0065 -15.2489 2.2156
# 4 2.4247 -27.2603 -15.0065 36.8349 5.4632 -5.2976
# 5 -19.4942 -12.3931 -15.2489 5.4632 34.9126 7.8160
# 6 -11.0702 -17.5325 2.2156 -5.2976 7.8160 25.1758
#
#
#
# Elastic Compliance Matrix: (Units=1/GPa)
#
#
# Indices 1 2 3 4 5 6 
#
# 1 0.025366 -0.002045 -0.001524 -0.004934 0.012433 0.004966
# 2 -0.002045 0.018755 -0.005222 0.014681 -0.002772 0.016571
# 3 -0.001524 -0.005222 0.012869 -0.000174 0.004481 -0.006867
# 4 -0.004934 0.014681 -0.000174 0.042381 -0.008656 0.019675
# 5 0.012433 -0.002772 0.004481 -0.008656 0.040426 -0.011230
# 6 0.004966 0.016571 -0.006867 0.019675 -0.011230 0.061675
#
#
# Mechanical properties :
#
#
# Convention : Reuss Voigt Hill
#
# Bulk Modulus (GPa) = 25.37575 42.61589 33.99582
# Shear Modulus (GPa) = 21.53408 32.03198 26.78303
#
# Velocity S-wave (km/s) = 3.18246 3.88143 3.54919
# Velocity P-wave (km/s) = 5.04370 6.33488 5.72580
#
# Compressibility (1/GPa) = 0.03940771
#
# Stress axis : x y z
#
# Youngs Moduli (GPa) = 39.42254 53.32008 77.70810
#
# Poissons Ratio (x) = 0.10905 0.11843
# Poissons Ratio (y) = 0.08062 0.40578
# Poissons Ratio (z) = 0.06008 0.27843
#
# Static dielectric constant tensor:
#      x y z
#    x 1.827820 0.004920 -0.012440 
#    y 0.004920 1.778370 0.006190 
#    z -0.012440 0.006190 1.777690 
# 
# From -- ./inp_files/159251.got.cif
#   From: 2010.05.17/outbox.cif.g08.bks.cpg/sg2_80_cif.got.tgz:159251.got - 2010.06.03 11:33:40.
