data_PCOD9099707
_publ_section_title
;
Structure prediction by ZEFSAII (Michael W. Deem and Ramdas Pophale) SiO2 
 PCOD9099707
Probable space group: P -1
;
_chemical_formula_sum "Si O2"
_cell_formula_units_Z 16
_cell_length_a 4.915422
_cell_length_b 5.397987
_cell_length_c 22.541215
_cell_angle_alpha 83.122483
_cell_angle_beta 78.867694
_cell_angle_gamma 100.226257
_cell_volume 570.123969
_symmetry_space_group_name_H-M "P -1"
_symmetry_group_IT_number 2
_symmetry_cell_setting 'triclinic'
loop_
_space_group_symop_operation_xyz
x,y,z
-x,-y,-z
loop_
_atom_site_type_symbol
_atom_site_label
_atom_site_fract_x
_atom_site_fract_y
_atom_site_fract_z
Si Si1 0.687467 0.792888 0.487006
Si Si2 0.303372 0.236181 0.263852
Si Si3 0.339565 0.225367 0.988048
Si Si4 0.473023 0.486885 0.137518
Si Si5 0.772923 0.932564 0.239318
Si Si6 0.305136 0.350568 0.632099
Si Si7 0.121973 0.344534 0.394367
Si Si8 0.070060 0.831692 0.888314
O O1 0.500000 0.500000 0.500000
O O2 0.808062 0.833476 0.413463
O O3 0.879198 0.778546 0.537395
O O4 0.500000 0.000000 0.500000
O O5 0.453258 0.479501 0.210296
O O6 0.986106 0.171118 0.254510
O O7 0.277042 0.247673 0.334767
O O8 0.469772 0.012640 0.248214
O O9 0.053932 0.162040 0.040864
O O10 0.500000 0.500000 0.000000
O O11 0.361953 0.278920 0.915051
O O12 0.500000 0.000000 0.000000
O O13 0.159028 0.399860 0.126371
O O14 0.635614 0.260537 0.121112
O O15 0.906189 0.942121 0.167763
O O16 0.783676 0.725828 0.295142
O O17 0.644021 0.389811 0.614340
O O18 0.173452 0.594403 0.615042
#
# Coordination Sequence:
#
# PCOD9099707 Si02
#       8
#     2   2   2   2   2   2   2   2
#     4  10  23  44  68  96 130 168 214 264 318 378
#     4  10  20  37  61  89 123 167 212 261 315 377
#     4  10  21  40  64  92 126 166 212 262 318 378
#     4   9  19  37  60  88 125 164 210 260 315 375
#     4  10  20  37  61  89 123 167 212 261 315 377
#     4  11  23  40  61  93 130 168 211 262 318 378
#     4  11  23  40  61  93 130 168 211 262 318 378
#     4   9  19  37  60  88 125 164 210 260 315 375
#
# _framework density 28.064074000000002
#
# number of rings (size 3 to 8) (size 9 to 14) (size 15 to 20)
#    0.000    2.000    0.000    3.000    0.000    3.000 
#    0.000   20.625    0.000    0.000    0.000    0.000 
#    0.000    0.000    0.000    0.000    0.000    0.000 
#
# Total GULP energy -89518.744279 kJ/mol
# GULP energy per Si atom -5594.921517 kJ/mol
# Density = 2.800020 g / cm^3
# Si number density = 28.064074 Si / 1000 Ang^3
#
#
#
# Elastic Constant Matrix: (Units=GPa)
#
#
# Indices 1 2 3 4 5 6 
#
# 1 77.6965 15.4367 34.2018 3.0540 3.4244 -10.7056
# 2 15.4367 106.9206 68.2733 -8.4357 2.1964 -26.3842
# 3 34.2018 68.2733 287.8228 -20.1771 22.8070 4.8758
# 4 3.0540 -8.4357 -20.1771 67.5578 9.9793 0.9173
# 5 3.4244 2.1964 22.8070 9.9793 53.3293 -1.2348
# 6 -10.7056 -26.3842 4.8758 0.9173 -1.2348 40.6811
#
#
#
# Elastic Compliance Matrix: (Units=1/GPa)
#
#
# Indices 1 2 3 4 5 6 
#
# 1 0.014291 0.000029 -0.001882 -0.001292 0.000221 0.004041
# 2 0.000029 0.013961 -0.003534 0.000398 0.001080 0.009509
# 3 -0.001882 -0.003534 0.004870 0.001466 -0.002171 -0.003470
# 4 -0.001292 0.000398 0.001466 0.015882 -0.003549 -0.000724
# 5 0.000221 0.001080 -0.002171 -0.003549 0.020325 0.001716
# 6 0.004041 0.009509 -0.003470 -0.000724 0.001716 0.032297
#
#
# Mechanical properties :
#
#
# Convention : Reuss Voigt Hill
#
# Bulk Modulus (GPa) = 44.74571 78.69591 61.72081
# Shear Modulus (GPa) = 41.71957 55.94884 48.83420
#
# Velocity S-wave (km/s) = 3.85981 4.46983 4.17597
# Velocity P-wave (km/s) = 5.98689 7.39875 6.72995
#
# Compressibility (1/GPa) = 0.02234851
#
# Stress axis : x y z
#
# Youngs Moduli (GPa) = 69.97441 71.62885 205.34876
#
# Poissons Ratio (x) = -0.00207 0.38638
# Poissons Ratio (y) = -0.00202 0.72567
# Poissons Ratio (z) = 0.13166 0.25312
#
# Static dielectric constant tensor:
#      x y z
#    x 2.160170 0.208390 0.000320 
#    y 0.208390 2.233810 -0.004410 
#    z 0.000320 -0.004410 2.260900 
# 
# From -- ./inp_files/603146.got.cif
#   From: 2010.05.17/outbox.cif.g08.bks.cpg/sg2_302_cif.got.tgz:603146.got - 2010.06.03 11:33:40.
