data_PCOD9099846
_publ_section_title
;
Structure prediction by ZEFSAII (Michael W. Deem and Ramdas Pophale) SiO2 
 PCOD9099846
Probable space group: P -1
;
_chemical_formula_sum "Si O2"
_cell_formula_units_Z 16
_cell_length_a 14.519511
_cell_length_b 9.173446
_cell_length_c 8.424778
_cell_angle_alpha 95.913181
_cell_angle_beta 136.171563
_cell_angle_gamma 106.154475
_cell_volume 664.028860
_symmetry_space_group_name_H-M "P -1"
_symmetry_group_IT_number 2
_symmetry_cell_setting 'triclinic'
loop_
_space_group_symop_operation_xyz
x,y,z
-x,-y,-z
loop_
_atom_site_type_symbol
_atom_site_label
_atom_site_fract_x
_atom_site_fract_y
_atom_site_fract_z
Si Si1 0.758176 0.904843 0.429939
Si Si2 0.263936 0.369642 0.378096
Si Si3 0.433529 0.925141 0.662404
Si Si4 0.710713 0.216353 0.874250
Si Si5 0.258747 0.511755 0.841138
Si Si6 0.944925 0.513492 0.689477
Si Si7 0.064843 0.257600 0.817246
Si Si8 0.490968 0.661613 0.870652
O O1 0.763282 0.784380 0.559030
O O2 0.650411 0.978908 0.363632
O O3 0.666435 0.786831 0.153112
O O4 0.927878 0.063290 0.625658
O O5 0.159993 0.447153 0.322027
O O6 0.438263 0.526777 0.645567
O O7 0.198480 0.298513 0.115883
O O8 0.348855 0.835324 0.383436
O O9 0.430122 0.789406 0.763464
O O10 0.610808 0.056718 0.846619
O O11 0.678021 0.359521 0.918604
O O12 0.894924 0.308359 0.114340
O O13 0.147458 0.548139 0.597077
O O14 0.145321 0.329898 0.756724
O O15 0.396434 0.555128 0.897034
O O16 0.988091 0.373478 0.779349
#
# Coordination Sequence:
#
# PCOD9099846 Si02
#       8
#     2   2   2   2   2   2   2   2
#     4  12  24  40  67  95 130 160 212 260 315 369
#     4  11  24  43  63  91 131 171 203 253 321 380
#     4  11  23  37  68  95 124 160 213 261 310 360
#     4  10  20  37  61  98 126 153 209 265 306 359
#     4  10  21  38  64  95 126 156 209 263 313 363
#     4  10  21  38  67  90 125 160 213 253 311 368
#     4  11  22  39  68  93 120 167 217 260 303 365
#     4  11  23  42  68  92 127 169 211 252 315 376
#
# _framework density 24.095338000000002
#
# number of rings (size 3 to 8) (size 9 to 14) (size 15 to 20)
#    0.000    1.250    1.250    6.750    3.500    0.000 
#    0.000    3.125   13.750    0.000    0.000    0.000 
#    0.000    0.000    0.000    0.000    0.000    0.000 
#
# Total GULP energy -89541.431078 kJ/mol
# GULP energy per Si atom -5596.339442 kJ/mol
# Density = 2.404050 g / cm^3
# Si number density = 24.095338 Si / 1000 Ang^3
#
#
#
# Elastic Constant Matrix: (Units=GPa)
#
#
# Indices 1 2 3 4 5 6 
#
# 1 40.7674 18.7913 15.0064 0.3795 1.3912 -0.2746
# 2 18.7913 148.5720 69.5332 3.1061 5.7647 11.2021
# 3 15.0064 69.5332 152.9088 26.7022 1.1260 16.6077
# 4 0.3795 3.1061 26.7022 45.6788 0.5022 9.5322
# 5 1.3912 5.7647 1.1260 0.5022 12.9622 1.2299
# 6 -0.2746 11.2021 16.6077 9.5322 1.2299 31.8280
#
#
#
# Elastic Compliance Matrix: (Units=1/GPa)
#
#
# Indices 1 2 3 4 5 6 
#
# 1 0.026436 -0.002645 -0.001687 0.000561 -0.001720 0.001938
# 2 -0.002645 0.009192 -0.004096 0.002171 -0.003377 -0.001640
# 3 -0.001687 -0.004096 0.009653 -0.004908 0.001563 -0.002200
# 4 0.000561 0.002171 -0.004908 0.025852 -0.001041 -0.005900
# 5 -0.001720 -0.003377 0.001563 -0.001041 0.078964 -0.002382
# 6 0.001938 -0.001640 -0.002200 -0.005900 -0.002382 0.035020
#
#
# Mechanical properties :
#
#
# Convention : Reuss Voigt Hill
#
# Bulk Modulus (GPa) = 35.18262 60.98998 48.08630
# Shear Modulus (GPa) = 23.64640 34.02160 28.83400
#
# Velocity S-wave (km/s) = 3.13608 3.76168 3.46303
# Velocity P-wave (km/s) = 5.26749 6.65085 5.99918
#
# Compressibility (1/GPa) = 0.02842313
#
# Stress axis : x y z
#
# Youngs Moduli (GPa) = 37.82683 108.79389 103.59748
#
# Poissons Ratio (x) = 0.28776 0.17482
# Poissons Ratio (y) = 0.10005 0.42437
# Poissons Ratio (z) = 0.06383 0.44565
#
# Static dielectric constant tensor:
#      x y z
#    x 1.933280 -0.018360 0.028470 
#    y -0.018360 1.917970 0.012670 
#    z 0.028470 0.012670 1.930140 
# 
# From -- ./inp_files/328974.got.cif
#   From: 2010.05.17/outbox.cif.g08.bks.cpg/sg2_165_cif.got.tgz:328974.got - 2010.06.03 11:33:40.
