data_PCOD9099953
_publ_section_title
;
Structure prediction by ZEFSAII (Michael W. Deem and Ramdas Pophale) SiO2 
 PCOD9099953
Probable space group: P -1
;
_chemical_formula_sum "Si O2"
_cell_formula_units_Z 12
_cell_length_a 10.255887
_cell_length_b 9.292035
_cell_length_c 7.135149
_cell_angle_alpha 128.351494
_cell_angle_beta 64.024619
_cell_angle_gamma 89.808604
_cell_volume 441.371659
_symmetry_space_group_name_H-M "P -1"
_symmetry_group_IT_number 2
_symmetry_cell_setting 'triclinic'
loop_
_space_group_symop_operation_xyz
x,y,z
-x,-y,-z
loop_
_atom_site_type_symbol
_atom_site_label
_atom_site_fract_x
_atom_site_fract_y
_atom_site_fract_z
Si Si1 0.828304 0.633566 0.796505
Si Si2 0.461990 0.623813 0.314541
Si Si3 0.708634 0.321830 0.193445
Si Si4 0.106018 0.737664 0.309352
Si Si5 0.284329 0.012419 0.571463
Si Si6 0.734217 0.894166 0.741083
O O1 0.806052 0.479104 0.830562
O O2 0.713547 0.743967 0.784411
O O3 0.000000 0.500000 0.500000
O O4 0.814157 0.822518 0.085101
O O5 0.303538 0.646335 0.551325
O O6 0.432937 0.844473 0.442353
O O7 0.500000 0.500000 0.000000
O O8 0.589097 0.503701 0.293495
O O9 0.869615 0.278498 0.944076
O O10 0.670411 0.123754 0.030949
O O11 0.924034 0.820758 0.544948
O O12 0.187143 0.882515 0.451279
O O13 0.321517 0.107129 0.436268
#
# Coordination Sequence:
#
# PCOD9099953 Si02
#       6
#     2   2   2   2   2   2
#     4  10  23  40  58  91 128 160 195 252 303 357
#     4  11  20  36  65  88 116 165 207 243 302 353
#     4  10  20  37  62  88 121 157 202 256 292 357
#     4  10  22  40  61  94 125 154 205 249 301 365
#     4  11  21  40  63  86 122 164 200 245 305 357
#     4  10  20  39  61  91 124 158 198 252 304 357
#
# _framework density 27.187971999999998
#
# number of rings (size 3 to 8) (size 9 to 14) (size 15 to 20)
#    0.000    1.667    5.000    2.000    0.000    5.333 
#    9.000    0.833    0.000    3.000    0.000    0.000 
#    0.000    0.000    0.000    0.000    0.000    0.000 
#
# Total GULP energy -67165.220863 kJ/mol
# GULP energy per Si atom -5597.101739 kJ/mol
# Density = 2.712609 g / cm^3
# Si number density = 27.187972 Si / 1000 Ang^3
#
#
#
# Elastic Constant Matrix: (Units=GPa)
#
#
# Indices 1 2 3 4 5 6 
#
# 1 71.0438 27.8173 25.4744 9.2555 -0.2962 -20.6940
# 2 27.8173 251.9393 91.0002 8.0745 13.9986 -41.4036
# 3 25.4744 91.0002 192.3906 0.9638 7.5906 -12.2642
# 4 9.2555 8.0745 0.9638 77.9846 -11.8005 -5.5067
# 5 -0.2962 13.9986 7.5906 -11.8005 26.6445 3.3115
# 6 -20.6940 -41.4036 -12.2642 -5.5067 3.3115 46.2163
#
#
#
# Elastic Compliance Matrix: (Units=1/GPa)
#
#
# Indices 1 2 3 4 5 6 
#
# 1 0.016952 0.000021 -0.001763 -0.001636 -0.000916 0.007012
# 2 0.000021 0.005782 -0.002303 -0.000738 -0.003296 0.004727
# 3 -0.001763 -0.002303 0.006467 0.000228 -0.000417 -0.001079
# 4 -0.001636 -0.000738 0.000228 0.014073 0.006553 -0.000125
# 5 -0.000916 -0.003296 -0.000417 0.006553 0.042991 -0.005773
# 6 0.007012 0.004727 -0.001079 -0.000125 -0.005773 0.029124
#
#
# Mechanical properties :
#
#
# Convention : Reuss Voigt Hill
#
# Bulk Modulus (GPa) = 47.36928 89.32861 68.34895
# Shear Modulus (GPa) = 38.30963 54.90787 46.60875
#
# Velocity S-wave (km/s) = 3.75782 4.49883 4.14492
# Velocity P-wave (km/s) = 6.02404 7.74036 6.93550
#
# Compressibility (1/GPa) = 0.02111073
#
# Stress axis : x y z
#
# Youngs Moduli (GPa) = 58.99152 172.94564 154.63426
#
# Poissons Ratio (x) = -0.00360 0.27263
# Poissons Ratio (y) = -0.00123 0.35607
# Poissons Ratio (z) = 0.10401 0.39824
#
# Static dielectric constant tensor:
#      x y z
#    x 2.204530 0.042580 -0.041800 
#    y 0.042580 2.115960 -0.011850 
#    z -0.041800 -0.011850 2.104410 
# 
# From -- ./inp_files/296674.got.cif
#   From: 2010.05.17/outbox.cif.g08.bks.cpg/sg2_149_cif.got.tgz:296674.got - 2010.06.03 11:33:40.
