data_PCOD9099300
_publ_section_title
;
Structure prediction by ZEFSAII (Michael W. Deem and Ramdas Pophale) SiO2 
 PCOD9099300
Probable space group: P -1
;
_chemical_formula_sum "Si O2"
_cell_formula_units_Z 14
_cell_length_a 17.985719
_cell_length_b 22.016402
_cell_length_c 11.695088
_cell_angle_alpha 150.692056
_cell_angle_beta 25.987333
_cell_angle_gamma 163.099883
_cell_volume 587.300623
_symmetry_space_group_name_H-M "P -1"
_symmetry_group_IT_number 2
_symmetry_cell_setting 'triclinic'
loop_
_space_group_symop_operation_xyz
x,y,z
-x,-y,-z
loop_
_atom_site_type_symbol
_atom_site_label
_atom_site_fract_x
_atom_site_fract_y
_atom_site_fract_z
Si Si1 0.517762 0.723883 0.519205
Si Si2 0.730895 0.285192 0.338938
Si Si3 0.367653 0.439298 0.768656
Si Si4 0.179361 0.813592 0.745383
Si Si5 0.242209 0.725993 0.280777
Si Si6 0.108164 0.200147 0.494532
Si Si7 0.259959 0.810709 0.142205
O O1 0.421268 0.684998 0.457479
O O2 0.473464 0.569772 0.389507
O O3 0.354841 0.737690 0.835219
O O4 0.855995 0.951948 0.434319
O O5 0.708592 0.244104 0.436607
O O6 0.060158 0.496869 0.190215
O O7 0.550151 0.064145 0.173304
O O8 0.218749 0.290563 0.618161
O O9 0.618969 0.671847 0.750765
O O10 0.118124 0.340079 0.032687
O O11 0.160816 0.773164 0.571885
O O12 0.411565 0.059709 0.848481
O O13 0.153103 0.718125 0.265582
O O14 0.959679 0.235989 0.703642
#
# Coordination Sequence:
#
# PCOD9099300 Si02
#       7
#     2   2   2   2   2   2   2
#     4  11  22  37  59  88 118 148 188 235 286 343
#     4  10  20  37  60  84 111 149 192 234 281 332
#     4  11  23  37  57  86 119 152 184 232 294 341
#     4  10  22  40  60  86 115 147 196 239 275 338
#     4  10  21  38  64  85 109 152 197 238 278 328
#     4  10  21  37  56  84 118 149 186 234 287 338
#     4  10  21  38  59  87 115 147 195 236 274 342
#
# _framework density 23.837878
#
# number of rings (size 3 to 8) (size 9 to 14) (size 15 to 20)
#    0.000    1.714    0.000    6.000    0.000    6.857 
#    0.000    2.857    0.000   10.286    0.000    0.000 
#    0.000    0.000    0.000    0.000    0.000    0.000 
#
# Total GULP energy -78253.327257 kJ/mol
# GULP energy per Si atom -5589.523375 kJ/mol
# Density = 2.378362 g / cm^3
# Si number density = 23.837878 Si / 1000 Ang^3
#
#
#
# Elastic Constant Matrix: (Units=GPa)
#
#
# Indices 1 2 3 4 5 6 
#
# 1 89.4858 34.9876 20.2404 -9.3510 6.0128 -23.9533
# 2 34.9876 125.2040 24.7090 -26.6639 0.1431 -0.3652
# 3 20.2404 24.7090 69.0281 -37.0456 5.0298 -3.9540
# 4 -9.3510 -26.6639 -37.0456 36.0439 -7.8923 -0.8152
# 5 6.0128 0.1431 5.0298 -7.8923 26.5465 -8.8653
# 6 -23.9533 -0.3652 -3.9540 -0.8152 -8.8653 43.6032
#
#
#
# Elastic Compliance Matrix: (Units=1/GPa)
#
#
# Indices 1 2 3 4 5 6 
#
# 1 0.015663 -0.004281 -0.004661 -0.003982 -0.001212 0.007825
# 2 -0.004281 0.010837 0.002527 0.010141 0.003039 -0.001224
# 3 -0.004661 0.002527 0.035217 0.038384 0.006693 0.002733
# 4 -0.003982 0.010141 0.038384 0.077973 0.018993 0.006697
# 5 -0.001212 0.003039 0.006693 0.018993 0.045503 0.009573
# 6 0.007825 -0.001224 0.002733 0.006697 0.009573 0.029542
#
#
# Mechanical properties :
#
#
# Convention : Reuss Voigt Hill
#
# Bulk Modulus (GPa) = 20.45511 49.28799 34.87155
# Shear Modulus (GPa) = 20.50344 34.82410 27.66377
#
# Velocity S-wave (km/s) = 2.93596 3.82628 3.41030
# Velocity P-wave (km/s) = 4.48249 6.34364 5.49247
#
# Compressibility (1/GPa) = 0.04888753
#
# Stress axis : x y z
#
# Youngs Moduli (GPa) = 63.84542 92.27469 28.39513
#
# Poissons Ratio (x) = 0.39502 0.13235
# Poissons Ratio (y) = 0.27332 -0.07175
# Poissons Ratio (z) = 0.29758 -0.23318
#
# Static dielectric constant tensor:
#      x y z
#    x 1.932190 0.017310 -0.036280 
#    y 0.017310 1.945750 -0.034570 
#    z -0.036280 -0.034570 1.918520 
# 
# From -- ./inp_files/467120.got.cif
#   From: 2010.05.17/outbox.cif.g08.bks.cpg/sg2_234_cif.got.tgz:467120.got - 2010.06.03 11:33:40.
