data_PCOD9099265
_publ_section_title
;
Structure prediction by ZEFSAII (Michael W. Deem and Ramdas Pophale) SiO2 
 PCOD9099265
Probable space group: P -1
;
_chemical_formula_sum "Si O2"
_cell_formula_units_Z 16
_cell_length_a 15.026410
_cell_length_b 14.135511
_cell_length_c 5.668747
_cell_angle_alpha 92.915583
_cell_angle_beta 95.632215
_cell_angle_gamma 140.239399
_cell_volume 751.144635
_symmetry_space_group_name_H-M "P -1"
_symmetry_group_IT_number 2
_symmetry_cell_setting 'triclinic'
loop_
_space_group_symop_operation_xyz
x,y,z
-x,-y,-z
loop_
_atom_site_type_symbol
_atom_site_label
_atom_site_fract_x
_atom_site_fract_y
_atom_site_fract_z
Si Si1 0.573802 0.699387 0.680814
Si Si2 0.877960 0.319683 0.466186
Si Si3 0.703567 0.610115 0.700013
Si Si4 0.112843 0.378518 0.469798
Si Si5 0.711796 0.320995 0.695917
Si Si6 0.642761 0.056546 0.082295
Si Si7 0.644256 0.408210 0.054050
Si Si8 0.599028 0.919037 0.564398
O O1 0.683353 0.704594 0.745272
O O2 0.428641 0.533341 0.516818
O O3 0.510995 0.698424 0.895198
O O4 0.627822 0.830158 0.551546
O O5 0.782726 0.279478 0.653411
O O6 0.000000 0.500000 0.500000
O O7 0.958927 0.286049 0.500225
O O8 0.780030 0.235208 0.197733
O O9 0.850872 0.694729 0.634096
O O10 0.677340 0.525311 0.912009
O O11 0.169612 0.501384 0.307862
O O12 0.225817 0.486704 0.719133
O O13 0.573551 0.213055 0.477525
O O14 0.647635 0.309420 0.916825
O O15 0.635604 0.997648 0.331625
O O16 0.659791 0.010744 0.838633
O O17 0.500000 0.000000 0.000000
#
# Coordination Sequence:
#
# PCOD9099265 Si02
#       8
#     2   2   2   2   2   2   2   2
#     4  10  19  33  57  91 129 167 208 268 329 377
#     4  10  23  44  63  90 124 170 216 261 322 382
#     4   9  18  32  56  92 128 162 216 268 322 371
#     4   9  19  36  55  89 126 162 215 263 314 378
#     4  10  19  34  58  90 123 166 207 260 318 377
#     4  12  27  46  66  96 132 172 217 268 325 393
#     4  10  16  31  54  92 130 163 208 272 321 377
#     4  12  23  41  66  92 137 167 213 265 332 386
#
# _framework density 21.300826000000001
#
# number of rings (size 3 to 8) (size 9 to 14) (size 15 to 20)
#    0.000    1.750    5.000    1.500    0.000    0.500 
#    6.750    0.000    0.000    1.500    0.000    0.000 
#    0.000    0.000    0.000    0.000    0.000    0.000 
#
# Total GULP energy -89142.227490 kJ/mol
# GULP energy per Si atom -5571.389218 kJ/mol
# Density = 2.125234 g / cm^3
# Si number density = 21.300826 Si / 1000 Ang^3
#
#
#
# Elastic Constant Matrix: (Units=GPa)
#
#
# Indices 1 2 3 4 5 6 
#
# 1 204.7681 40.6741 59.5826 -10.4472 -4.3305 -6.4771
# 2 40.6741 52.0087 28.6384 -0.0811 1.2688 -14.7358
# 3 59.5826 28.6384 90.2426 -3.0043 -17.4110 1.6889
# 4 -10.4472 -0.0811 -3.0043 31.7857 2.1048 10.5865
# 5 -4.3305 1.2688 -17.4110 2.1048 24.7078 0.5179
# 6 -6.4771 -14.7358 1.6889 10.5865 0.5179 17.5230
#
#
#
# Elastic Compliance Matrix: (Units=1/GPa)
#
#
# Indices 1 2 3 4 5 6 
#
# 1 0.006660 -0.004068 -0.003176 0.002698 -0.001044 -0.002252
# 2 -0.004068 0.045770 -0.016068 -0.018518 -0.013859 0.050133
# 3 -0.003176 -0.016068 0.021921 0.007142 0.015559 -0.021573
# 4 0.002698 -0.018518 0.007142 0.047411 0.003340 -0.044006
# 5 -0.001044 -0.013859 0.015559 0.003340 0.052040 -0.017097
# 6 -0.002252 0.050133 -0.021573 -0.044006 -0.017097 0.127565
#
#
# Mechanical properties :
#
#
# Convention : Reuss Voigt Hill
#
# Bulk Modulus (GPa) = 36.06551 67.20107 51.63329
# Shear Modulus (GPa) = 13.99650 29.34491 21.67071
#
# Velocity S-wave (km/s) = 2.56615 3.71569 3.19308
# Velocity P-wave (km/s) = 5.07429 7.07287 6.15524
#
# Compressibility (1/GPa) = 0.02772732
#
# Stress axis : x y z
#
# Youngs Moduli (GPa) = 150.14870 21.84815 45.61930
#
# Poissons Ratio (x) = 0.08889 0.14487
# Poissons Ratio (y) = 0.61087 0.73300
# Poissons Ratio (z) = 0.47683 0.35105
#
# Static dielectric constant tensor:
#      x y z
#    x 1.818650 0.004410 -0.042120 
#    y 0.004410 1.854270 -0.043860 
#    z -0.042120 -0.043860 1.838360 
# 
# From -- ./inp_files/98339.got.cif
#   From: 2010.05.17/outbox.cif.g08.bks.cpg/sg2_50_cif.got.tgz:98339.got - 2010.06.03 11:33:40.
