data_PCOD9099867
_publ_section_title
;
Structure prediction by ZEFSAII (Michael W. Deem and Ramdas Pophale) SiO2 
 PCOD9099867
Probable space group: P -1
;
_chemical_formula_sum "Si O2"
_cell_formula_units_Z 16
_cell_length_a 4.932446
_cell_length_b 15.892263
_cell_length_c 12.480531
_cell_angle_alpha 59.335027
_cell_angle_beta 78.324031
_cell_angle_gamma 93.779024
_cell_volume 807.322896
_symmetry_space_group_name_H-M "P -1"
_symmetry_group_IT_number 2
_symmetry_cell_setting 'triclinic'
loop_
_space_group_symop_operation_xyz
x,y,z
-x,-y,-z
loop_
_atom_site_type_symbol
_atom_site_label
_atom_site_fract_x
_atom_site_fract_y
_atom_site_fract_z
Si Si1 0.639742 0.577854 0.764398
Si Si2 0.177276 0.288512 0.535319
Si Si3 0.174063 0.627109 0.060910
Si Si4 0.759686 0.699215 0.888461
Si Si5 0.732074 0.546025 0.294491
Si Si6 0.761990 0.894936 0.479427
Si Si7 0.293064 0.611388 0.429459
Si Si8 0.811158 0.117013 0.360367
O O1 0.826994 0.650875 0.615902
O O2 0.751690 0.481914 0.859693
O O3 0.627242 0.643578 0.827364
O O4 0.363848 0.530491 0.746997
O O5 0.197791 0.177172 0.573569
O O6 0.454284 0.335797 0.547542
O O7 0.919462 0.313844 0.606837
O O8 0.975519 0.633319 0.175172
O O9 0.477962 0.701085 0.978792
O O10 0.968283 0.638244 0.971323
O O11 0.969102 0.802435 0.775541
O O12 0.451715 0.582688 0.330911
O O13 0.826603 0.489367 0.426528
O O14 0.479860 0.852194 0.599899
O O15 0.029741 0.897992 0.532443
O O16 0.741720 0.008520 0.380407
#
# Coordination Sequence:
#
# PCOD9099867 Si02
#       8
#     2   2   2   2   2   2   2   2
#     4  11  23  36  54  79 119 154 188 223 267 333
#     4  11  21  35  59  87 109 147 183 233 291 333
#     4  12  24  37  52  80 113 162 189 228 258 335
#     4  12  25  35  55  81 118 153 193 215 275 331
#     4  10  23  39  55  78 115 153 197 235 277 315
#     4  10  20  37  62  82 114 142 184 229 291 334
#     4  10  23  36  58  81 111 146 194 240 281 327
#     4  10  21  38  57  85 112 150 181 230 276 341
#
# _framework density 19.81859
#
# number of rings (size 3 to 8) (size 9 to 14) (size 15 to 20)
#    0.000    1.250    3.750    2.250    3.500    1.500 
#    0.000    0.000    0.000    0.000    0.000    5.250 
#    0.000    0.000    0.000    0.000    0.000    0.000 
#
# Total GULP energy -89329.489213 kJ/mol
# GULP energy per Si atom -5583.093076 kJ/mol
# Density = 1.977348 g / cm^3
# Si number density = 19.818590 Si / 1000 Ang^3
#
#
#
# Elastic Constant Matrix: (Units=GPa)
#
#
# Indices 1 2 3 4 5 6 
#
# 1 97.9859 28.0064 26.0192 5.8237 -16.0861 -2.5279
# 2 28.0064 86.5518 31.3465 -4.7172 -15.9733 -5.5879
# 3 26.0192 31.3465 81.2351 -3.4837 -20.2350 7.4999
# 4 5.8237 -4.7172 -3.4837 10.2993 -0.4950 0.3287
# 5 -16.0861 -15.9733 -20.2350 -0.4950 41.8321 5.3404
# 6 -2.5279 -5.5879 7.4999 0.3287 5.3404 23.6196
#
#
#
# Elastic Compliance Matrix: (Units=1/GPa)
#
#
# Indices 1 2 3 4 5 6 
#
# 1 0.012820 -0.003166 -0.002898 -0.009619 0.002050 0.001214
# 2 -0.003166 0.015211 -0.004424 0.007226 0.002012 0.004109
# 3 -0.002898 -0.004424 0.017744 0.006225 0.006957 -0.008651
# 4 -0.009619 0.007226 0.006225 0.108249 0.003820 -0.003667
# 5 0.002050 0.002012 0.006957 0.003820 0.029936 -0.008336
# 6 0.001214 0.004109 -0.008651 -0.003667 -0.008336 0.048122
#
#
# Mechanical properties :
#
#
# Convention : Reuss Voigt Hill
#
# Bulk Modulus (GPa) = 40.32558 48.50188 44.41373
# Shear Modulus (GPa) = 19.13330 27.17690 23.15510
#
# Velocity S-wave (km/s) = 3.11049 3.70710 3.42183
# Velocity P-wave (km/s) = 5.76990 6.54595 6.17014
#
# Compressibility (1/GPa) = 0.02479816
#
# Stress axis : x y z
#
# Youngs Moduli (GPa) = 78.00510 65.74279 56.35738
#
# Poissons Ratio (x) = 0.20815 0.16334
# Poissons Ratio (y) = 0.24697 0.24931
# Poissons Ratio (z) = 0.22608 0.29083
#
# Static dielectric constant tensor:
#      x y z
#    x 1.751360 -0.006500 -0.025290 
#    y -0.006500 1.722570 0.003930 
#    z -0.025290 0.003930 1.758650 
# 
# From -- ./inp_files/366800.got.cif
#   From: 2010.05.17/outbox.cif.g08.bks.cpg/sg2_184_cif.got.tgz:366800.got - 2010.06.03 11:33:40.
