data_PCOD9099510
_publ_section_title
;
Structure prediction by ZEFSAII (Michael W. Deem and Ramdas Pophale) SiO2 
 PCOD9099510
Probable space group: P -1
;
_chemical_formula_sum "Si O2"
_cell_formula_units_Z 16
_cell_length_a 21.640764
_cell_length_b 16.695304
_cell_length_c 10.565367
_cell_angle_alpha 44.407045
_cell_angle_beta 142.811814
_cell_angle_gamma 163.674344
_cell_volume 619.677201
_symmetry_space_group_name_H-M "P -1"
_symmetry_group_IT_number 2
_symmetry_cell_setting 'triclinic'
loop_
_space_group_symop_operation_xyz
x,y,z
-x,-y,-z
loop_
_atom_site_type_symbol
_atom_site_label
_atom_site_fract_x
_atom_site_fract_y
_atom_site_fract_z
Si Si1 0.750391 0.806746 0.748934
Si Si2 0.714652 0.641422 0.307687
Si Si3 0.777257 0.123268 0.075713
Si Si4 0.965861 0.133124 0.206066
Si Si5 0.416423 0.929728 0.796543
Si Si6 0.008582 0.670826 0.336628
Si Si7 0.093842 0.345374 0.558994
Si Si8 0.698224 0.521281 0.862216
O O1 0.537755 0.616644 0.722960
O O2 0.638217 0.587556 0.728091
O O3 0.854207 0.017712 0.593420
O O4 0.000000 0.000000 0.000000
O O5 0.959085 0.842261 0.562732
O O6 0.700703 0.538164 0.285751
O O7 0.797904 0.859107 0.172173
O O8 0.534491 0.797492 0.104619
O O9 0.847198 0.134601 0.044588
O O10 0.006292 0.336486 0.312128
O O11 0.659583 0.129014 0.886987
O O12 0.233810 0.422579 0.236221
O O13 0.148004 0.578063 0.729459
O O14 0.304007 0.935183 0.558325
O O15 0.500000 0.000000 0.000000
O O16 0.843450 0.513051 0.376576
O O17 0.965340 0.746456 0.111264
#
# Coordination Sequence:
#
# PCOD9099510 Si02
#       8
#     2   2   2   2   2   2   2   2
#     4  12  23  36  53  88 134 176 206 248 310 378
#     4  10  22  36  58  89 129 176 215 250 303 378
#     4  10  21  37  67  90 120 169 213 262 321 372
#     4  10  20  37  60  92 126 167 218 260 305 370
#     4  10  20  41  70  92 118 162 212 271 326 376
#     4  10  22  39  62  98 124 157 218 263 320 382
#     4  11  21  38  60  93 130 164 209 260 311 379
#     4  11  21  38  58  90 131 170 208 261 307 375
#
# _framework density 25.819894999999999
#
# number of rings (size 3 to 8) (size 9 to 14) (size 15 to 20)
#    0.000    1.500    5.000    0.750    0.000    1.500 
#    4.500    0.625    0.000    6.000    0.000    0.000 
#    0.000    0.000    0.000    0.000    0.000    0.000 
#
# Total GULP energy -89460.261161 kJ/mol
# GULP energy per Si atom -5591.266323 kJ/mol
# Density = 2.576113 g / cm^3
# Si number density = 25.819895 Si / 1000 Ang^3
#
#
#
# Elastic Constant Matrix: (Units=GPa)
#
#
# Indices 1 2 3 4 5 6 
#
# 1 163.7712 26.1468 45.8061 11.8537 26.4659 17.4795
# 2 26.1468 73.9916 12.5161 -3.4814 5.7856 19.5832
# 3 45.8061 12.5161 133.8718 18.2735 3.9365 -11.9766
# 4 11.8537 -3.4814 18.2735 23.9766 4.2814 8.5678
# 5 26.4659 5.7856 3.9365 4.2814 39.4757 11.6925
# 6 17.4795 19.5832 -11.9766 8.5678 11.6925 38.2459
#
#
#
# Elastic Compliance Matrix: (Units=1/GPa)
#
#
# Indices 1 2 3 4 5 6 
#
# 1 0.008039 -0.001491 -0.002610 -0.000632 -0.004156 -0.002315
# 2 -0.001491 0.018480 -0.003860 0.010698 0.001303 -0.012784
# 3 -0.002610 -0.003860 0.011042 -0.010904 -0.000318 0.009167
# 4 -0.000632 0.010698 -0.010904 0.059743 -0.000026 -0.021979
# 5 -0.004156 0.001303 -0.000318 -0.000026 0.030375 -0.008148
# 6 -0.002315 -0.012784 0.009167 -0.021979 -0.008148 0.044036
#
#
# Mechanical properties :
#
#
# Convention : Reuss Voigt Hill
#
# Bulk Modulus (GPa) = 46.21353 60.06362 53.13858
# Shear Modulus (GPa) = 25.66094 39.48401 32.57247
#
# Velocity S-wave (km/s) = 3.15595 3.91475 3.55565
# Velocity P-wave (km/s) = 5.58724 6.61413 6.12226
#
# Compressibility (1/GPa) = 0.02163868
#
# Stress axis : x y z
#
# Youngs Moduli (GPa) = 124.39944 54.11246 90.56708
#
# Poissons Ratio (x) = 0.08069 0.23636
# Poissons Ratio (y) = 0.18550 0.34958
# Poissons Ratio (z) = 0.32465 0.20887
#
# Static dielectric constant tensor:
#      x y z
#    x 2.151920 -0.116200 0.019700 
#    y -0.116200 2.026590 0.007260 
#    z 0.019700 0.007260 2.111490 
# 
# From -- ./inp_files/472218.got.cif
#   From: 2010.05.17/outbox.cif.g08.bks.cpg/sg2_237_cif.got.tgz:472218.got - 2010.06.03 11:33:40.
