data_PCOD9099457
_publ_section_title
;
Structure prediction by ZEFSAII (Michael W. Deem and Ramdas Pophale) SiO2 
 PCOD9099457
Probable space group: P -1
;
_chemical_formula_sum "Si O2"
_cell_formula_units_Z 14
_cell_length_a 6.908965
_cell_length_b 10.906448
_cell_length_c 24.650067
_cell_angle_alpha 22.424028
_cell_angle_beta 110.403643
_cell_angle_gamma 108.495221
_cell_volume 664.015166
_symmetry_space_group_name_H-M "P -1"
_symmetry_group_IT_number 2
_symmetry_cell_setting 'triclinic'
loop_
_space_group_symop_operation_xyz
x,y,z
-x,-y,-z
loop_
_atom_site_type_symbol
_atom_site_label
_atom_site_fract_x
_atom_site_fract_y
_atom_site_fract_z
Si Si1 0.403628 0.728715 0.981834
Si Si2 0.908727 0.730343 0.253092
Si Si3 0.291988 0.191593 0.105938
Si Si4 0.970475 0.089010 0.594125
Si Si5 0.558432 0.765157 0.725994
Si Si6 0.874449 0.273725 0.343147
Si Si7 0.397010 0.174052 0.643079
O O1 0.636555 0.719677 0.984041
O O2 0.301510 0.079574 0.831846
O O3 0.288459 0.496086 0.021880
O O4 0.385697 0.578647 0.101623
O O5 0.939854 0.416892 0.422378
O O6 0.919204 0.600652 0.245414
O O7 0.088583 0.986423 0.174251
O O8 0.482408 0.963089 0.237742
O O9 0.149353 0.167554 0.623177
O O10 0.756464 0.965886 0.646811
O O11 0.048981 0.801035 0.679602
O O12 0.374252 0.762028 0.665696
O O13 0.458921 0.938953 0.696794
O O14 0.000000 0.000000 0.500000
O O15 0.500000 0.500000 0.500000
#
# Coordination Sequence:
#
# PCOD9099457 Si02
#       7
#     2   2   2   2   2   2   2
#     4  10  24  40  59  86 124 165 195 241 305 360
#     4  11  22  37  64  90 115 161 205 242 301 360
#     4  10  22  41  60  85 128 158 198 250 294 357
#     4  10  22  39  64  91 120 156 199 256 301 345
#     4  10  23  41  60  88 125 156 200 249 299 358
#     4   9  22  41  61  90 121 155 201 254 301 346
#     4  10  20  37  60  90 120 153 201 246 297 349
#
# _framework density 21.083856000000001
#
# number of rings (size 3 to 8) (size 9 to 14) (size 15 to 20)
#    0.000    2.000    1.429    0.429    2.000   11.429 
#    0.000    1.429    0.000    0.000    0.000    0.000 
#    0.000    0.000    0.000    0.000    0.000    0.000 
#
# Total GULP energy -78068.849909 kJ/mol
# GULP energy per Si atom -5576.346422 kJ/mol
# Density = 2.103587 g / cm^3
# Si number density = 21.083856 Si / 1000 Ang^3
#
#
#
# Elastic Constant Matrix: (Units=GPa)
#
#
# Indices 1 2 3 4 5 6 
#
# 1 96.6833 17.1088 15.8452 4.3234 -9.9505 11.2699
# 2 17.1088 36.5350 11.7746 -1.0054 6.6793 5.2243
# 3 15.8452 11.7746 57.3487 -11.2560 1.8283 -9.0833
# 4 4.3234 -1.0054 -11.2560 15.9553 -9.2322 9.7371
# 5 -9.9505 6.6793 1.8283 -9.2322 35.7021 -4.1415
# 6 11.2699 5.2243 -9.0833 9.7371 -4.1415 25.4145
#
#
#
# Elastic Compliance Matrix: (Units=1/GPa)
#
#
# Indices 1 2 3 4 5 6 
#
# 1 0.012821 -0.004836 -0.003682 -0.001166 0.003792 -0.004943
# 2 -0.004836 0.034713 -0.007140 -0.001534 -0.008847 -0.008397
# 3 -0.003682 -0.007140 0.023895 0.015892 0.003914 0.006190
# 4 -0.001166 -0.001534 0.015892 0.105933 0.023024 -0.030322
# 5 0.003792 -0.008847 0.003914 0.023024 0.036316 -0.001367
# 6 -0.004943 -0.008397 0.006190 -0.030322 -0.001367 0.056872
#
#
# Mechanical properties :
#
#
# Convention : Reuss Voigt Hill
#
# Bulk Modulus (GPa) = 24.92947 31.11382 28.02164
# Shear Modulus (GPa) = 15.86113 25.13694 20.49903
#
# Velocity S-wave (km/s) = 2.74576 3.45662 3.12149
# Velocity P-wave (km/s) = 4.67995 5.54258 5.12943
#
# Compressibility (1/GPa) = 0.04011317
#
# Stress axis : x y z
#
# Youngs Moduli (GPa) = 77.99898 28.80803 41.84912
#
# Poissons Ratio (x) = 0.13930 0.15409
# Poissons Ratio (y) = 0.37717 0.29881
# Poissons Ratio (z) = 0.28720 0.20569
#
# Static dielectric constant tensor:
#      x y z
#    x 1.791690 0.001790 0.098230 
#    y 0.001790 1.812040 0.060140 
#    z 0.098230 0.060140 2.159050 
# 
# From -- ./inp_files/28314.got.cif
#   From: 2010.05.17/outbox.cif.g08.bks.cpg/sg2_15_cif.got.tgz:28314.got - 2010.06.03 11:33:40.
