data_PCOD9099240
_publ_section_title
;
Structure prediction by ZEFSAII (Michael W. Deem and Ramdas Pophale) SiO2 
 PCOD9099240
Probable space group: P -1
;
_chemical_formula_sum "Si O2"
_cell_formula_units_Z 14
_cell_length_a 11.034202
_cell_length_b 12.593628
_cell_length_c 13.889563
_cell_angle_alpha 52.793806
_cell_angle_beta 147.005017
_cell_angle_gamma 135.880157
_cell_volume 731.695661
_symmetry_space_group_name_H-M "P -1"
_symmetry_group_IT_number 2
_symmetry_cell_setting 'triclinic'
loop_
_space_group_symop_operation_xyz
x,y,z
-x,-y,-z
loop_
_atom_site_type_symbol
_atom_site_label
_atom_site_fract_x
_atom_site_fract_y
_atom_site_fract_z
Si Si1 0.524028 0.876439 0.513278
Si Si2 0.202722 0.225566 0.952745
Si Si3 0.029600 0.112416 0.089847
Si Si4 0.924995 0.055080 0.519566
Si Si5 0.011599 0.422497 0.651185
Si Si6 0.626439 0.926663 0.059804
Si Si7 0.274176 0.714990 0.783687
O O1 0.718633 0.825572 0.714920
O O2 0.662656 0.946514 0.464427
O O3 0.251272 0.727496 0.416844
O O4 0.500000 0.000000 0.500000
O O5 0.210469 0.356227 0.818718
O O6 0.081513 0.223250 0.975581
O O7 0.477336 0.238125 0.144027
O O8 0.023412 0.056295 0.886224
O O9 0.775882 0.060747 0.007843
O O10 0.881235 0.196268 0.387780
O O11 0.000000 0.000000 0.500000
O O12 0.157426 0.092542 0.727966
O O13 0.000000 0.500000 0.500000
O O14 0.094610 0.542263 0.727999
O O15 0.418044 0.775601 0.948798
O O16 0.500000 0.000000 0.000000
#
# Coordination Sequence:
#
# PCOD9099240 Si02
#       7
#     2   2   2   2   2   2   2
#     4  11  21  39  63  93 127 167 222 266 320 391
#     4  10  20  37  59  92 126 161 213 265 325 384
#     4   9  19  34  62  89 117 158 217 270 312 373
#     4  11  23  42  71  96 126 171 227 277 319 383
#     4  12  25  37  61  97 140 174 205 268 340 389
#     4  10  21  39  65  90 120 165 220 267 316 378
#     4  11  24  39  63  93 129 169 213 262 332 384
#
# _framework density 19.133638999999999
#
# number of rings (size 3 to 8) (size 9 to 14) (size 15 to 20)
#    0.000    1.429    2.857    3.000    8.000    0.000 
#    0.000    0.714    0.000    1.714    0.000    0.000 
#    0.000    0.000    0.000    0.000    0.000    0.000 
#
# Total GULP energy -77941.716902 kJ/mol
# GULP energy per Si atom -5567.265493 kJ/mol
# Density = 1.909009 g / cm^3
# Si number density = 19.133639 Si / 1000 Ang^3
#
#
#
# Elastic Constant Matrix: (Units=GPa)
#
#
# Indices 1 2 3 4 5 6 
#
# 1 129.0932 46.2461 28.6182 1.4509 -0.4676 -6.5995
# 2 46.2461 109.4608 56.1360 15.7099 2.3779 -11.8476
# 3 28.6182 56.1360 95.4235 -0.1188 2.1275 -3.8188
# 4 1.4509 15.7099 -0.1188 44.1369 -1.4530 -2.0049
# 5 -0.4676 2.3779 2.1275 -1.4530 28.5495 -2.0485
# 6 -6.5995 -11.8476 -3.8188 -2.0049 -2.0485 15.3543
#
#
#
# Elastic Compliance Matrix: (Units=1/GPa)
#
#
# Indices 1 2 3 4 5 6 
#
# 1 0.009232 -0.003624 -0.000600 0.001063 0.000641 0.001247
# 2 -0.003624 0.016675 -0.008380 -0.005471 -0.000496 0.008444
# 3 -0.000600 -0.008380 0.015502 0.002912 -0.000502 -0.002555
# 4 0.001063 -0.005471 0.002912 0.024645 0.001538 0.000382
# 5 0.000641 -0.000496 -0.000502 0.001538 0.035532 0.004709
# 6 0.001247 0.008444 -0.002555 0.000382 0.004709 0.072222
#
#
# Mechanical properties :
#
#
# Convention : Reuss Voigt Hill
#
# Bulk Modulus (GPa) = 61.72884 66.21977 63.97431
# Shear Modulus (GPa) = 24.45991 31.13995 27.79993
#
# Velocity S-wave (km/s) = 3.57931 4.03860 3.81587
# Velocity P-wave (km/s) = 7.02951 7.51208 7.27479
#
# Compressibility (1/GPa) = 0.01619988
#
# Stress axis : x y z
#
# Youngs Moduli (GPa) = 108.32184 59.97141 64.50796
#
# Poissons Ratio (x) = 0.21736 0.03868
# Poissons Ratio (y) = 0.39259 0.54059
# Poissons Ratio (z) = 0.06495 0.50258
#
# Static dielectric constant tensor:
#      x y z
#    x 1.741760 0.000810 -0.036030 
#    y 0.000810 1.647090 0.020900 
#    z -0.036030 0.020900 1.747450 
# 
# From -- ./inp_files/257802.got.cif
#   From: 2010.05.17/outbox.cif.g08.bks.cpg/sg2_129_cif.got.tgz:257802.got - 2010.06.03 11:33:40.
