data_PCOD9099820
_publ_section_title
;
Structure prediction by ZEFSAII (Michael W. Deem and Ramdas Pophale) SiO2 
 PCOD9099820
Probable space group: P -1
;
_chemical_formula_sum "Si O2"
_cell_formula_units_Z 15
_cell_length_a 9.250740
_cell_length_b 14.324293
_cell_length_c 8.634037
_cell_angle_alpha 72.817351
_cell_angle_beta 117.500522
_cell_angle_gamma 140.822089
_cell_volume 637.090751
_symmetry_space_group_name_H-M "P -1"
_symmetry_group_IT_number 2
_symmetry_cell_setting 'triclinic'
loop_
_space_group_symop_operation_xyz
x,y,z
-x,-y,-z
loop_
_atom_site_type_symbol
_atom_site_label
_atom_site_fract_x
_atom_site_fract_y
_atom_site_fract_z
Si Si1 0.500000 0.500000 0.000000
Si Si2 0.021079 0.437409 0.687491
Si Si3 0.271811 0.701426 0.893851
Si Si4 0.087815 0.239803 0.790530
Si Si5 0.503866 0.829067 0.273321
Si Si6 0.765722 0.581285 0.766453
Si Si7 0.730086 0.739946 0.452514
Si Si8 0.530837 0.984474 0.702613
O O1 0.327131 0.321268 0.965584
O O2 0.655836 0.553507 0.891456
O O3 0.749045 0.298382 0.690939
O O4 0.000000 0.500000 0.500000
O O5 0.186767 0.565233 0.834264
O O6 0.135243 0.381243 0.735554
O O7 0.017494 0.634532 0.863438
O O8 0.385664 0.823113 0.759405
O O9 0.450175 0.779220 0.092227
O O10 0.105564 0.205411 0.645061
O O11 0.826501 0.104742 0.807195
O O12 0.702088 0.840886 0.426487
O O13 0.563883 0.969289 0.260654
O O14 0.815638 0.706018 0.644235
O O15 0.551923 0.424684 0.645596
O O16 0.500000 0.000000 0.500000
#
# Coordination Sequence:
#
# PCOD9099820 Si02
#       8
#     1   2   2   2   2   2   2   2
#     4  10  22  36  64  92 134 162 218 268 334 380
#     4  11  22  37  66  99 129 171 226 274 319 397
#     4  12  23  41  69  95 133 175 227 272 333 395
#     4  10  23  41  65  97 133 170 215 273 333 393
#     4  11  24  40  65  97 126 172 232 274 328 391
#     4  10  20  37  61  94 129 171 206 273 333 385
#     4  10  21  39  64  93 133 166 217 270 333 389
#     4  11  24  46  66  93 134 183 222 274 330 408
#
# _framework density 23.544525
#
# number of rings (size 3 to 8) (size 9 to 14) (size 15 to 20)
#    0.000    1.333    1.333    5.600    7.467    0.000 
#    0.000    3.333    0.000    0.000    0.000    0.000 
#    0.000    0.000    0.000    0.000    0.000    0.000 
#
# Total GULP energy -83780.714686 kJ/mol
# GULP energy per Si atom -5585.380979 kJ/mol
# Density = 2.349094 g / cm^3
# Si number density = 23.544525 Si / 1000 Ang^3
#
#
#
# Elastic Constant Matrix: (Units=GPa)
#
#
# Indices 1 2 3 4 5 6 
#
# 1 124.7619 32.7284 2.1984 -2.5784 3.5339 -0.3257
# 2 32.7284 87.2987 0.4554 -5.1003 -1.4804 11.7244
# 3 2.1984 0.4554 51.8737 -0.3541 -3.2755 1.9956
# 4 -2.5784 -5.1003 -0.3541 30.0512 -2.4185 0.3418
# 5 3.5339 -1.4804 -3.2755 -2.4185 28.5138 -6.4873
# 6 -0.3257 11.7244 1.9956 0.3418 -6.4873 31.0280
#
#
#
# Elastic Compliance Matrix: (Units=1/GPa)
#
#
# Indices 1 2 3 4 5 6 
#
# 1 0.008989 -0.003549 -0.000464 0.000064 -0.001064 0.001242
# 2 -0.003549 0.013604 0.000255 0.002080 0.000173 -0.005181
# 3 -0.000464 0.000255 0.019468 0.000415 0.002135 -0.000912
# 4 0.000064 0.002080 0.000415 0.033879 0.002889 -0.000581
# 5 -0.001064 0.000173 0.002135 0.002889 0.037426 0.007579
# 6 0.001242 -0.005181 -0.000912 -0.000581 0.007579 0.035849
#
#
# Mechanical properties :
#
#
# Convention : Reuss Voigt Hill
#
# Bulk Modulus (GPa) = 28.94702 37.18874 33.06788
# Shear Modulus (GPa) = 29.71832 33.15542 31.43687
#
# Velocity S-wave (km/s) = 3.55662 3.75667 3.65802
# Velocity P-wave (km/s) = 5.40253 5.88610 5.64949
#
# Compressibility (1/GPa) = 0.03454587
#
# Stress axis : x y z
#
# Youngs Moduli (GPa) = 111.24640 73.50616 51.36707
#
# Poissons Ratio (x) = 0.26085 0.02385
# Poissons Ratio (y) = 0.39478 -0.01312
# Poissons Ratio (z) = 0.05165 -0.01877
#
# Static dielectric constant tensor:
#      x y z
#    x 1.770580 -0.071380 -0.064940 
#    y -0.071380 1.873590 0.004240 
#    z -0.064940 0.004240 1.794400 
# 
# From -- ./inp_files/207084.got.cif
#   From: 2010.05.17/outbox.cif.g08.bks.cpg/sg2_104_cif.got.tgz:207084.got - 2010.06.03 11:33:40.
