data_PCOD9099527
_publ_section_title
;
Structure prediction by ZEFSAII (Michael W. Deem and Ramdas Pophale) SiO2 
 PCOD9099527
Probable space group: P -1
;
_chemical_formula_sum "Si O2"
_cell_formula_units_Z 16
_cell_length_a 13.729000
_cell_length_b 23.843340
_cell_length_c 9.979852
_cell_angle_alpha 37.325172
_cell_angle_beta 134.206880
_cell_angle_gamma 156.080260
_cell_volume 797.269922
_symmetry_space_group_name_H-M "P -1"
_symmetry_group_IT_number 2
_symmetry_cell_setting 'triclinic'
loop_
_space_group_symop_operation_xyz
x,y,z
-x,-y,-z
loop_
_atom_site_type_symbol
_atom_site_label
_atom_site_fract_x
_atom_site_fract_y
_atom_site_fract_z
Si Si1 0.340048 0.566063 0.886761
Si Si2 0.348173 0.009657 0.324154
Si Si3 0.487138 0.504486 0.639047
Si Si4 0.008921 0.874769 0.494060
Si Si5 0.834630 0.868459 0.709028
Si Si6 0.993502 0.764785 0.957962
Si Si7 0.806002 0.363529 0.184654
Si Si8 0.058571 0.752376 0.322909
O O1 0.551968 0.731651 0.689170
O O2 0.203210 0.563486 0.849291
O O3 0.472100 0.571980 0.107382
O O4 0.178830 0.410846 0.933623
O O5 0.544586 0.200860 0.172101
O O6 0.500000 0.000000 0.500000
O O7 0.200292 0.915197 0.224615
O O8 0.149204 0.907500 0.443879
O O9 0.500000 0.500000 0.500000
O O10 0.721584 0.695847 0.546745
O O11 0.229459 0.399304 0.638229
O O12 0.098558 0.873584 0.719064
O O13 0.070965 0.018535 0.289513
O O14 0.860391 0.773397 0.893593
O O15 0.000000 0.000000 0.500000
O O16 0.134311 0.797615 0.153620
O O17 0.869360 0.302950 0.432791
O O18 0.000000 0.500000 0.000000
#
# Coordination Sequence:
#
# PCOD9099527 Si02
#       8
#     2   2   2   2   2   2   2   2
#     4  11  22  40  68  90 131 175 208 263 328 385
#     4  10  22  42  66  87 128 173 213 262 322 384
#     4  11  21  37  65  97 127 164 218 265 319 377
#     4  10  21  39  66  95 128 173 210 267 328 380
#     4  10  20  37  60  94 125 165 212 256 317 381
#     4  10  23  39  65  92 130 167 211 263 324 382
#     4  11  25  45  66  93 128 174 220 261 323 383
#     4  11  23  43  64  96 133 167 215 269 314 382
#
# _framework density 20.068484999999999
#
# number of rings (size 3 to 8) (size 9 to 14) (size 15 to 20)
#    0.000    1.500    3.750    1.125    8.750    0.500 
#    4.500    4.375    0.000    0.000    0.000    0.000 
#    0.000    0.000    0.000    0.000    0.000    0.000 
#
# Total GULP energy -89176.262490 kJ/mol
# GULP energy per Si atom -5573.516406 kJ/mol
# Density = 2.002281 g / cm^3
# Si number density = 20.068485 Si / 1000 Ang^3
#
#
#
# Elastic Constant Matrix: (Units=GPa)
#
#
# Indices 1 2 3 4 5 6 
#
# 1 93.2463 42.1211 32.9342 -8.2087 7.4537 -14.7568
# 2 42.1211 105.7018 38.8992 -14.8293 -0.2258 -16.3137
# 3 32.9342 38.8992 65.9158 2.9367 -12.0858 -18.3241
# 4 -8.2087 -14.8293 2.9367 33.4052 -6.3714 -2.1457
# 5 7.4537 -0.2258 -12.0858 -6.3714 34.0948 -0.3603
# 6 -14.7568 -16.3137 -18.3241 -2.1457 -0.3603 34.2186
#
#
#
# Elastic Compliance Matrix: (Units=1/GPa)
#
#
# Indices 1 2 3 4 5 6 
#
# 1 0.015270 -0.003238 -0.006272 0.001988 -0.005193 0.001753
# 2 -0.003238 0.014411 -0.006575 0.006267 -0.000331 0.002342
# 3 -0.006272 -0.006575 0.026482 -0.004358 0.009987 0.008174
# 4 0.001988 0.006267 -0.004358 0.034704 0.004587 0.003736
# 5 -0.005193 -0.000331 0.009987 0.004587 0.034898 0.003606
# 6 0.001753 0.002342 0.008174 0.003736 0.003606 0.035746
#
#
# Mechanical properties :
#
#
# Convention : Reuss Voigt Hill
#
# Bulk Modulus (GPa) = 41.68028 54.75253 48.21640
# Shear Modulus (GPa) = 24.79197 30.40435 27.59816
#
# Velocity S-wave (km/s) = 3.51859 3.89656 3.71239
# Velocity P-wave (km/s) = 6.10913 6.89828 6.51566
#
# Compressibility (1/GPa) = 0.02399216
#
# Stress axis : x y z
#
# Youngs Moduli (GPa) = 65.48880 69.39281 37.76133
#
# Poissons Ratio (x) = 0.22473 0.23683
# Poissons Ratio (y) = 0.21208 0.24828
# Poissons Ratio (z) = 0.41073 0.45626
#
# Static dielectric constant tensor:
#      x y z
#    x 1.716610 -0.011090 0.017190 
#    y -0.011090 1.745670 0.002050 
#    z 0.017190 0.002050 1.773440 
# 
# From -- ./inp_files/282805.got.cif
#   From: 2010.05.17/outbox.cif.g08.bks.cpg/sg2_142_cif.got.tgz:282805.got - 2010.06.03 11:33:40.
