data_PCOD9099027
_publ_section_title
;
Structure prediction by ZEFSAII (Michael W. Deem and Ramdas Pophale) SiO2 
 PCOD9099027
Probable space group: P -1
;
_chemical_formula_sum "Si O2"
_cell_formula_units_Z 16
_cell_length_a 13.471176
_cell_length_b 8.073947
_cell_length_c 13.946456
_cell_angle_alpha 53.502768
_cell_angle_beta 147.839925
_cell_angle_gamma 124.272223
_cell_volume 642.747528
_symmetry_space_group_name_H-M "P -1"
_symmetry_group_IT_number 2
_symmetry_cell_setting 'triclinic'
loop_
_space_group_symop_operation_xyz
x,y,z
-x,-y,-z
loop_
_atom_site_type_symbol
_atom_site_label
_atom_site_fract_x
_atom_site_fract_y
_atom_site_fract_z
Si Si1 0.350121 0.120483 0.626275
Si Si2 0.272969 0.820681 0.365377
Si Si3 0.460261 0.113811 0.276414
Si Si4 0.294479 0.068972 0.810439
Si Si5 0.142389 0.381072 0.914370
Si Si6 0.917012 0.906604 0.753788
Si Si7 0.235356 0.709629 0.031181
Si Si8 0.131297 0.361671 0.708545
O O1 0.241424 0.091357 0.648391
O O2 0.221094 0.187464 0.412368
O O3 0.420425 0.911546 0.712507
O O4 0.553022 0.253149 0.768922
O O5 0.403734 0.756309 0.580053
O O6 0.082611 0.669506 0.244801
O O7 0.400524 0.888901 0.354914
O O8 0.202373 0.034709 0.272987
O O9 0.264624 0.192737 0.069881
O O10 0.279915 0.278895 0.786335
O O11 0.194451 0.878670 0.857364
O O12 0.500000 0.000000 0.000000
O O13 0.209934 0.501158 0.023181
O O14 0.192381 0.481704 0.815868
O O15 0.074524 0.760066 0.955406
O O16 0.006857 0.142577 0.714561
O O17 0.000000 0.500000 0.500000
#
# Coordination Sequence:
#
# PCOD9099027 Si02
#       8
#     2   2   2   2   2   2   2   2
#     4  10  20  37  59  81 111 161 196 232 288 357
#     4   9  20  40  64  88 112 154 202 246 305 347
#     4  10  20  40  66  85 115 155 203 248 291 362
#     4   9  19  38  55  80 119 163 196 232 295 358
#     4  11  22  37  59  92 121 151 196 252 298 347
#     4   9  20  38  60  80 117 157 195 237 299 354
#     4  10  22  36  56  86 123 152 194 241 291 359
#     4  10  22  37  59  90 121 157 205 248 290 358
#
# _framework density 24.893131
#
# number of rings (size 3 to 8) (size 9 to 14) (size 15 to 20)
#    0.000    2.250    0.000    3.375    3.500    2.000 
#   11.250    5.625    0.000    4.500    0.000    0.000 
#    0.000    0.000    0.000    0.000    0.000    0.000 
#
# Total GULP energy -89296.028469 kJ/mol
# GULP energy per Si atom -5581.001779 kJ/mol
# Density = 2.483647 g / cm^3
# Si number density = 24.893131 Si / 1000 Ang^3
#
#
#
# Elastic Constant Matrix: (Units=GPa)
#
#
# Indices 1 2 3 4 5 6 
#
# 1 85.7244 6.9310 16.6939 -0.6667 8.0205 -11.8969
# 2 6.9310 42.6161 27.2091 9.2083 3.4619 -14.6524
# 3 16.6939 27.2091 99.9891 32.2560 6.8553 1.3435
# 4 -0.6667 9.2083 32.2560 37.9777 -8.8556 -0.8088
# 5 8.0205 3.4619 6.8553 -8.8556 39.6930 -0.8398
# 6 -11.8969 -14.6524 1.3435 -0.8088 -0.8398 18.1632
#
#
#
# Elastic Compliance Matrix: (Units=1/GPa)
#
#
# Indices 1 2 3 4 5 6 
#
# 1 0.014273 0.004924 -0.004794 0.003069 -0.001510 0.013743
# 2 0.004924 0.045637 -0.014260 0.001714 -0.001260 0.041114
# 3 -0.004794 -0.014260 0.020203 -0.015328 -0.005057 -0.017055
# 4 0.003069 0.001714 -0.015328 0.041781 0.011345 0.006912
# 5 -0.001510 -0.001260 -0.005057 0.011345 0.029018 0.000215
# 6 0.013743 0.041114 -0.017055 0.006912 0.000215 0.098805
#
#
# Mechanical properties :
#
#
# Convention : Reuss Voigt Hill
#
# Bulk Modulus (GPa) = 19.28533 36.66641 27.97587
# Shear Modulus (GPa) = 16.93424 30.99980 23.96702
#
# Velocity S-wave (km/s) = 2.61104 3.53273 3.10626
# Velocity P-wave (km/s) = 4.10538 5.60373 4.91202
#
# Compressibility (1/GPa) = 0.05185290
#
# Stress axis : x y z
#
# Youngs Moduli (GPa) = 70.06157 21.91201 49.49877
#
# Poissons Ratio (x) = -0.10790 0.23731
# Poissons Ratio (y) = -0.34500 0.70585
# Poissons Ratio (z) = 0.33589 0.31247
#
# Static dielectric constant tensor:
#      x y z
#    x 2.206640 -0.011390 -0.019090 
#    y -0.011390 1.998310 0.036660 
#    z -0.019090 0.036660 1.963940 
# 
# From -- ./inp_files/469153.got.cif
#   From: 2010.05.17/outbox.cif.g08.bks.cpg/sg2_235_cif.got.tgz:469153.got - 2010.06.03 11:33:40.
