data_PCOD9099308
_publ_section_title
;
Structure prediction by ZEFSAII (Michael W. Deem and Ramdas Pophale) SiO2 
 PCOD9099308
Probable space group: P -1
;
_chemical_formula_sum "Si O2"
_cell_formula_units_Z 14
_cell_length_a 11.364003
_cell_length_b 12.030940
_cell_length_c 9.149231
_cell_angle_alpha 116.280123
_cell_angle_beta 40.899324
_cell_angle_gamma 106.467246
_cell_volume 731.541986
_symmetry_space_group_name_H-M "P -1"
_symmetry_group_IT_number 2
_symmetry_cell_setting 'triclinic'
loop_
_space_group_symop_operation_xyz
x,y,z
-x,-y,-z
loop_
_atom_site_type_symbol
_atom_site_label
_atom_site_fract_x
_atom_site_fract_y
_atom_site_fract_z
Si Si1 0.566909 0.558403 0.821403
Si Si2 0.638745 0.743499 0.327548
Si Si3 0.597670 0.011403 0.573522
Si Si4 0.055939 0.875815 0.781424
Si Si5 0.237469 0.662214 0.671192
Si Si6 0.316446 0.523189 0.781854
Si Si7 0.300701 0.197804 0.037131
O O1 0.709411 0.456763 0.551833
O O2 0.391421 0.577142 0.892098
O O3 0.500000 0.500000 0.000000
O O4 0.655813 0.685848 0.839360
O O5 0.425216 0.728540 0.541185
O O6 0.739820 0.614266 0.211793
O O7 0.670907 0.759315 0.133739
O O8 0.675000 0.870236 0.449270
O O9 0.758623 0.098888 0.456278
O O10 0.445003 0.079508 0.857741
O O11 0.500000 0.000000 0.500000
O O12 0.093688 0.760044 0.788605
O O13 0.899095 0.845454 0.800815
O O14 0.000000 0.000000 0.000000
O O15 0.193143 0.612608 0.844701
O O16 0.500000 0.500000 0.500000
#
# Coordination Sequence:
#
# PCOD9099308 Si02
#       7
#     2   2   2   2   2   2   2
#     4  10  16  31  55  77 107 139 175 216 260 318
#     4   9  14  30  51  72 102 130 173 209 255 301
#     4  10  17  31  50  78 103 131 176 222 255 298
#     4  12  20  31  53  81 107 133 179 227 254 311
#     4  10  19  33  51  81 107 135 175 216 266 316
#     4   8  17  30  53  77 102 140 174 211 264 318
#     4  11  19  29  52  84 103 133 177 218 267 299
#
# _framework density 19.137657999999998
#
# number of rings (size 3 to 8) (size 9 to 14) (size 15 to 20)
#    0.000    2.286    8.571    0.000    0.000    0.571 
#    0.000    0.714    0.000   13.714    0.000   13.000 
#    0.000    0.000    0.000    0.000    0.000    0.000 
#
# Total GULP energy -77997.953816 kJ/mol
# GULP energy per Si atom -5571.282415 kJ/mol
# Density = 1.909410 g / cm^3
# Si number density = 19.137658 Si / 1000 Ang^3
#
#
#
# Elastic Constant Matrix: (Units=GPa)
#
#
# Indices 1 2 3 4 5 6 
#
# 1 83.3101 52.8001 36.6625 11.3120 -5.3069 11.9009
# 2 52.8001 116.0689 22.0367 25.8666 0.0517 16.5287
# 3 36.6625 22.0367 31.1874 13.3954 -0.4936 2.1582
# 4 11.3120 25.8666 13.3954 35.8086 3.4343 -0.1098
# 5 -5.3069 0.0517 -0.4936 3.4343 26.1799 -1.0245
# 6 11.9009 16.5287 2.1582 -0.1098 -1.0245 25.5204
#
#
#
# Elastic Compliance Matrix: (Units=1/GPa)
#
#
# Indices 1 2 3 4 5 6 
#
# 1 0.034618 -0.009927 -0.037344 0.009724 0.004810 -0.006321
# 2 -0.009927 0.015051 0.005608 -0.009768 -0.000877 -0.005671
# 3 -0.037344 0.005608 0.081062 -0.022282 -0.002867 0.006716
# 4 0.009724 -0.009768 -0.022282 0.040603 -0.003611 0.003706
# 5 0.004810 -0.000877 -0.002867 -0.003611 0.039599 0.000141
# 6 -0.006321 -0.005671 0.006716 0.003706 0.000141 0.045258
#
#
# Mechanical properties :
#
#
# Convention : Reuss Voigt Hill
#
# Bulk Modulus (GPa) = 21.09439 50.39612 35.74526
# Shear Modulus (GPa) = 14.07187 25.43958 19.75572
#
# Velocity S-wave (km/s) = 2.71458 3.64990 3.21642
# Velocity P-wave (km/s) = 4.56855 6.64478 5.70196
#
# Compressibility (1/GPa) = 0.04740597
#
# Stress axis : x y z
#
# Youngs Moduli (GPa) = 28.88690 66.44017 12.33623
#
# Poissons Ratio (x) = 0.65952 0.46068
# Poissons Ratio (y) = 0.28675 -0.06918
# Poissons Ratio (z) = 1.07875 -0.37261
#
# Static dielectric constant tensor:
#      x y z
#    x 1.754040 -0.021300 -0.036660 
#    y -0.021300 1.729150 0.003540 
#    z -0.036660 0.003540 1.694680 
# 
# From -- ./inp_files/259768.got.cif
#   From: 2010.05.17/outbox.cif.g08.bks.cpg/sg2_130_cif.got.tgz:259768.got - 2010.06.03 11:33:40.
