data_PCOD9099238
_publ_section_title
;
Structure prediction by ZEFSAII (Michael W. Deem and Ramdas Pophale) SiO2 
 PCOD9099238
Probable space group: P -1
;
_chemical_formula_sum "Si O2"
_cell_formula_units_Z 16
_cell_length_a 20.051098
_cell_length_b 12.719309
_cell_length_c 9.166229
_cell_angle_alpha 54.365189
_cell_angle_beta 54.909769
_cell_angle_gamma 21.448096
_cell_volume 690.549786
_symmetry_space_group_name_H-M "P -1"
_symmetry_group_IT_number 2
_symmetry_cell_setting 'triclinic'
loop_
_space_group_symop_operation_xyz
x,y,z
-x,-y,-z
loop_
_atom_site_type_symbol
_atom_site_label
_atom_site_fract_x
_atom_site_fract_y
_atom_site_fract_z
Si Si1 0.603210 0.051670 0.264356
Si Si2 0.162478 0.171164 0.601528
Si Si3 0.635365 0.942487 0.760257
Si Si4 0.098021 0.026434 0.370688
Si Si5 0.979862 0.015019 0.765482
Si Si6 0.203578 0.163208 0.077267
Si Si7 0.890927 0.339957 0.846750
Si Si8 0.336475 0.326409 0.612722
O O1 0.765755 0.884611 0.288497
O O2 0.638899 0.853601 0.332029
O O3 0.440282 0.269695 0.410359
O O4 0.632808 0.081299 0.050163
O O5 0.313136 0.996954 0.435773
O O6 0.000000 0.500000 0.500000
O O7 0.080695 0.145491 0.730339
O O8 0.716303 0.851619 0.891692
O O9 0.740863 0.666363 0.785582
O O10 0.429323 0.210249 0.748957
O O11 0.120085 0.901066 0.582731
O O12 0.877784 0.348653 0.377829
O O13 0.172789 0.063827 0.260059
O O14 0.140273 0.899223 0.265407
O O15 0.862584 0.280603 0.798439
O O16 0.081884 0.777571 0.944001
O O17 0.000000 0.500000 0.000000
#
# Coordination Sequence:
#
# PCOD9099238 Si02
#       8
#     2   2   2   2   2   2   2   2
#     4  10  21  35  57  92 128 159 188 242 338 369
#     4   9  17  32  59  89 120 154 199 255 310 353
#     4  10  22  36  62  98 127 156 191 265 336 357
#     4  11  23  41  65  90 125 161 215 251 299 369
#     4  10  23  38  58  87 122 175 206 252 286 357
#     4  12  21  37  63  96 126 156 202 265 312 365
#     4  10  20  37  59  92 123 159 215 249 295 373
#     4  10  23  39  60  95 131 160 191 257 330 373
#
# _framework density 23.169943
#
# number of rings (size 3 to 8) (size 9 to 14) (size 15 to 20)
#    0.000    1.750    1.250    3.750    7.000    0.500 
#    0.000    0.000    0.000   24.000    3.250    0.000 
#    0.000    0.000    0.000    0.000    0.000    0.000 
#
# Total GULP energy -89286.563547 kJ/mol
# GULP energy per Si atom -5580.410222 kJ/mol
# Density = 2.311721 g / cm^3
# Si number density = 23.169943 Si / 1000 Ang^3
#
#
#
# Elastic Constant Matrix: (Units=GPa)
#
#
# Indices 1 2 3 4 5 6 
#
# 1 111.0403 44.4158 27.1526 2.8882 12.8528 13.1519
# 2 44.4158 46.3677 22.7264 1.1932 0.0216 -4.0633
# 3 27.1526 22.7264 114.2948 -1.4284 -12.8884 9.7119
# 4 2.8882 1.1932 -1.4284 20.7041 1.6773 -2.1170
# 5 12.8528 0.0216 -12.8884 1.6773 49.9850 3.1171
# 6 13.1519 -4.0633 9.7119 -2.1170 3.1171 20.8474
#
#
#
# Elastic Compliance Matrix: (Units=1/GPa)
#
#
# Indices 1 2 3 4 5 6 
#
# 1 0.019328 -0.019966 0.000268 -0.002848 -0.003803 -0.015930
# 2 -0.019966 0.045803 -0.006188 0.002049 0.001933 0.024325
# 3 0.000268 -0.006188 0.010860 0.000107 0.003160 -0.006896
# 4 -0.002848 0.002049 0.000107 0.049450 -0.001360 0.007371
# 5 -0.003803 0.001933 0.003160 -0.001360 0.021976 -0.002120
# 6 -0.015930 0.024325 -0.006896 0.007371 -0.002120 0.067036
#
#
# Mechanical properties :
#
#
# Convention : Reuss Voigt Hill
#
# Bulk Modulus (GPa) = 41.29106 51.14361 46.21733
# Shear Modulus (GPa) = 18.22831 30.13449 24.18140
#
# Velocity S-wave (km/s) = 2.80790 3.61028 3.23407
# Velocity P-wave (km/s) = 5.32654 6.28490 5.82546
#
# Compressibility (1/GPa) = 0.02421832
#
# Stress axis : x y z
#
# Youngs Moduli (GPa) = 51.73879 21.83248 92.08338
#
# Poissons Ratio (x) = 0.43591 -0.02464
# Poissons Ratio (y) = 1.03303 0.56977
# Poissons Ratio (z) = -0.01385 0.13509
#
# Static dielectric constant tensor:
#      x y z
#    x 1.863240 0.001420 0.010420 
#    y 0.001420 1.902980 0.033690 
#    z 0.010420 0.033690 1.957220 
# 
# From -- ./inp_files/331682.got.cif
#   From: 2010.05.17/outbox.cif.g08.bks.cpg/sg2_166_cif.got.tgz:331682.got - 2010.06.03 11:33:40.
