data_PCOD9099927
_publ_section_title
;
Structure prediction by ZEFSAII (Michael W. Deem and Ramdas Pophale) SiO2 
 PCOD9099927
Probable space group: P -1
;
_chemical_formula_sum "Si O2"
_cell_formula_units_Z 10
_cell_length_a 7.320573
_cell_length_b 9.447397
_cell_length_c 13.674422
_cell_angle_alpha 137.577488
_cell_angle_beta 59.234974
_cell_angle_gamma 90.820839
_cell_volume 427.190122
_symmetry_space_group_name_H-M "P -1"
_symmetry_group_IT_number 2
_symmetry_cell_setting 'triclinic'
loop_
_space_group_symop_operation_xyz
x,y,z
-x,-y,-z
loop_
_atom_site_type_symbol
_atom_site_label
_atom_site_fract_x
_atom_site_fract_y
_atom_site_fract_z
Si Si1 0.142946 0.684845 0.292629
Si Si2 0.835505 0.339298 0.515977
Si Si3 0.397121 0.090785 0.184671
Si Si4 0.386913 0.420144 0.798015
Si Si5 0.808412 0.718674 0.054768
O O1 0.077111 0.617388 0.379645
O O2 0.466519 0.521411 0.132463
O O3 0.079557 0.577152 0.165651
O O4 0.000000 0.000000 0.500000
O O5 0.696433 0.608482 0.629990
O O6 0.611921 0.302982 0.589782
O O7 0.129366 0.109015 0.275296
O O8 0.500000 0.000000 0.000000
O O9 0.612572 0.914829 0.121954
O O10 0.087951 0.669344 0.971347
O O11 0.348854 0.231365 0.775456
#
# Coordination Sequence:
#
# PCOD9099927 Si02
#       5
#     2   2   2   2   2
#     4  10  20  37  62  87 124 162 202 250 304 362
#     4   9  22  38  60  94 119 160 212 247 307 374
#     4  11  20  39  66  87 123 167 206 249 314 369
#     4   9  22  40  59 100 120 155 217 248 312 368
#     4  11  21  38  68  91 124 166 200 261 309 360
#
# _framework density 23.40878
#
# number of rings (size 3 to 8) (size 9 to 14) (size 15 to 20)
#    1.200    0.800    2.000    1.800    0.000    3.200 
#    0.000    1.000    0.000    0.000    0.000    0.000 
#    0.000    0.000    0.000    0.000    0.000    0.000 
#
# Total GULP energy -55673.883552 kJ/mol
# GULP energy per Si atom -5567.388355 kJ/mol
# Density = 2.335550 g / cm^3
# Si number density = 23.408780 Si / 1000 Ang^3
#
#
#
# Elastic Constant Matrix: (Units=GPa)
#
#
# Indices 1 2 3 4 5 6 
#
# 1 117.4180 52.4425 58.2737 0.3001 -32.0903 -7.8527
# 2 52.4425 154.4744 78.8847 -6.0513 -36.6206 -22.9525
# 3 58.2737 78.8847 106.5233 -9.3804 -39.0653 1.9723
# 4 0.3001 -6.0513 -9.3804 60.0271 15.1496 -17.8074
# 5 -32.0903 -36.6206 -39.0653 15.1496 43.0167 8.3009
# 6 -7.8527 -22.9525 1.9723 -17.8074 8.3009 32.1395
#
#
#
# Elastic Compliance Matrix: (Units=1/GPa)
#
#
# Indices 1 2 3 4 5 6 
#
# 1 0.012593 -0.000685 -0.004645 -0.002075 0.005253 0.000367
# 2 -0.000685 0.013593 -0.010482 0.004290 -0.002518 0.013211
# 3 -0.004645 -0.010482 0.025552 -0.006634 0.016659 -0.018167
# 4 -0.002075 0.004290 -0.006634 0.027340 -0.017938 0.022745
# 5 0.005253 -0.002518 0.016659 -0.017938 0.051236 -0.024709
# 6 0.000367 0.013211 -0.018167 0.022745 -0.024709 0.060737
#
#
# Mechanical properties :
#
#
# Convention : Reuss Voigt Hill
#
# Bulk Modulus (GPa) = 49.71360 84.17974 66.94667
# Shear Modulus (GPa) = 21.79805 39.62432 30.71119
#
# Velocity S-wave (km/s) = 3.05485 4.11872 3.62602
# Velocity P-wave (km/s) = 5.80742 7.65881 6.79645
#
# Compressibility (1/GPa) = 0.02011522
#
# Stress axis : x y z
#
# Youngs Moduli (GPa) = 79.40771 73.56969 39.13557
#
# Poissons Ratio (x) = 0.05037 0.18179
# Poissons Ratio (y) = 0.05436 0.41020
# Poissons Ratio (z) = 0.36886 0.77113
#
# Static dielectric constant tensor:
#      x y z
#    x 1.853810 0.042850 -0.020740 
#    y 0.042850 1.955990 -0.014210 
#    z -0.020740 -0.014210 2.020200 
# 
# From -- ./inp_files/72910.got.cif
#   From: 2010.05.17/outbox.cif.g08.bks.cpg/sg2_37_cif.got.tgz:72910.got - 2010.06.03 11:33:40.
