data_PCOD9099538
_publ_section_title
;
Structure prediction by ZEFSAII (Michael W. Deem and Ramdas Pophale) SiO2 
 PCOD9099538
Probable space group: P -1
;
_chemical_formula_sum "Si O2"
_cell_formula_units_Z 16
_cell_length_a 8.594385
_cell_length_b 11.831452
_cell_length_c 11.575076
_cell_angle_alpha 125.094975
_cell_angle_beta 53.553521
_cell_angle_gamma 93.155267
_cell_volume 697.416445
_symmetry_space_group_name_H-M "P -1"
_symmetry_group_IT_number 2
_symmetry_cell_setting 'triclinic'
loop_
_space_group_symop_operation_xyz
x,y,z
-x,-y,-z
loop_
_atom_site_type_symbol
_atom_site_label
_atom_site_fract_x
_atom_site_fract_y
_atom_site_fract_z
Si Si1 0.330797 0.535202 0.699462
Si Si2 0.943063 0.841583 0.136815
Si Si3 0.367990 0.134180 0.892772
Si Si4 0.863264 0.002629 0.675311
Si Si5 0.287496 0.477988 0.098154
Si Si6 0.718786 0.514113 0.629554
Si Si7 0.100499 0.359450 0.783237
Si Si8 0.126906 0.241050 0.295880
O O1 0.500000 0.500000 0.500000
O O2 0.480662 0.532190 0.738198
O O3 0.266964 0.395679 0.657600
O O4 0.118997 0.695852 0.900727
O O5 0.751579 0.932360 0.183336
O O6 0.828391 0.789172 0.258588
O O7 0.080240 0.907924 0.191709
O O8 0.620416 0.062979 0.769292
O O9 0.317726 0.304073 0.961788
O O10 0.262193 0.142167 0.070201
O O11 0.909264 0.846764 0.632112
O O12 0.000000 0.000000 0.500000
O O13 0.219717 0.498652 0.272234
O O14 0.102843 0.610825 0.187109
O O15 0.500000 0.500000 0.000000
O O16 0.748301 0.660023 0.658757
O O17 0.899963 0.358201 0.407894
O O18 0.000000 0.500000 0.000000
#
# Coordination Sequence:
#
# PCOD9099538 Si02
#       8
#     2   2   2   2   2   2   2   2
#     4  11  22  38  65 106 140 174 225 286 351 416
#     4  11  24  45  69 102 140 185 234 285 357 412
#     4  11  23  45  70  93 137 183 230 287 351 418
#     4  12  29  47  69  99 138 188 242 289 346 425
#     4  11  20  35  67  99 133 177 224 282 355 408
#     4  10  23  38  70  97 133 177 224 291 354 403
#     4  10  20  37  60  98 139 168 217 287 333 413
#     4  10  24  46  67 100 135 178 240 286 347 424
#
# _framework density 22.941817
#
# number of rings (size 3 to 8) (size 9 to 14) (size 15 to 20)
#    0.000    1.250    2.500    4.875    7.000    1.000 
#    0.000    1.250    0.000    0.000    0.000    0.000 
#    0.000    0.000    0.000    0.000    0.000    0.000 
#
# Total GULP energy -89251.553041 kJ/mol
# GULP energy per Si atom -5578.222065 kJ/mol
# Density = 2.288960 g / cm^3
# Si number density = 22.941817 Si / 1000 Ang^3
#
#
#
# Elastic Constant Matrix: (Units=GPa)
#
#
# Indices 1 2 3 4 5 6 
#
# 1 157.1009 27.7913 36.8805 -2.6511 -16.1756 -8.7073
# 2 27.7913 105.8227 38.5119 -25.8815 -1.5709 -2.1507
# 3 36.8805 38.5119 67.6946 -26.2720 -4.5203 5.8209
# 4 -2.6511 -25.8815 -26.2720 32.8642 3.6431 -4.2440
# 5 -16.1756 -1.5709 -4.5203 3.6431 31.9702 -12.5310
# 6 -8.7073 -2.1507 5.8209 -4.2440 -12.5310 25.4682
#
#
#
# Elastic Compliance Matrix: (Units=1/GPa)
#
#
# Indices 1 2 3 4 5 6 
#
# 1 0.009105 -0.001030 -0.006513 -0.005143 0.007006 0.007105
# 2 -0.001030 0.013117 -0.004395 0.007123 -0.000192 0.002853
# 3 -0.006513 -0.004395 0.028214 0.018019 -0.004887 -0.008448
# 4 -0.005143 0.007123 0.018019 0.050686 -0.005249 0.000588
# 5 0.007006 -0.000192 -0.004887 -0.005249 0.044291 0.024413
# 6 0.007105 0.002853 -0.008448 0.000588 0.024413 0.055976
#
#
# Mechanical properties :
#
#
# Convention : Reuss Voigt Hill
#
# Bulk Modulus (GPa) = 37.65083 59.66508 48.65796
# Shear Modulus (GPa) = 21.35671 33.22280 27.28975
#
# Velocity S-wave (km/s) = 3.05439 3.80956 3.45268
# Velocity P-wave (km/s) = 5.37458 6.73899 6.09508
#
# Compressibility (1/GPa) = 0.02655984
#
# Stress axis : x y z
#
# Youngs Moduli (GPa) = 109.82982 76.23703 35.44305
#
# Poissons Ratio (x) = 0.07854 0.23086
# Poissons Ratio (y) = 0.11314 0.15576
# Poissons Ratio (z) = 0.71537 0.33503
#
# Static dielectric constant tensor:
#      x y z
#    x 1.983090 0.018780 0.062940 
#    y 0.018780 1.873510 0.042360 
#    z 0.062940 0.042360 1.986210 
# 
# From -- ./inp_files/392785.got.cif
#   From: 2010.05.17/outbox.cif.g08.bks.cpg/sg2_197_cif.got.tgz:392785.got - 2010.06.03 11:33:40.
