data_PCOD9099212
_publ_section_title
;
Structure prediction by ZEFSAII (Michael W. Deem and Ramdas Pophale) SiO2 
 PCOD9099212
Probable space group: P -1
;
_chemical_formula_sum "Si O2"
_cell_formula_units_Z 12
_cell_length_a 9.138819
_cell_length_b 16.396675
_cell_length_c 5.330419
_cell_angle_alpha 69.725177
_cell_angle_beta 98.618682
_cell_angle_gamma 130.033824
_cell_volume 570.703419
_symmetry_space_group_name_H-M "P -1"
_symmetry_group_IT_number 2
_symmetry_cell_setting 'triclinic'
loop_
_space_group_symop_operation_xyz
x,y,z
-x,-y,-z
loop_
_atom_site_type_symbol
_atom_site_label
_atom_site_fract_x
_atom_site_fract_y
_atom_site_fract_z
Si Si1 0.328476 0.249583 0.274790
Si Si2 0.333986 0.430579 0.327478
Si Si3 0.950759 0.253960 0.727667
Si Si4 0.917791 0.873728 0.154879
Si Si5 0.251813 0.661126 0.653679
Si Si6 0.078834 0.435980 0.937213
O O1 0.184848 0.169629 0.552309
O O2 0.523763 0.267382 0.327013
O O3 0.740478 0.511006 0.889472
O O4 0.232474 0.202184 0.028736
O O5 0.500000 0.500000 0.500000
O O6 0.138752 0.331227 0.522725
O O7 0.378452 0.369293 0.213608
O O8 0.798577 0.268628 0.577754
O O9 0.916268 0.138286 0.828042
O O10 0.025344 0.321921 0.933753
O O11 0.000000 0.000000 0.000000
O O12 0.161937 0.537100 0.652025
O O13 0.118171 0.613286 0.919847
#
# Coordination Sequence:
#
# PCOD9099212 Si02
#       6
#     2   2   2   2   2   2
#     4  11  24  42  67  97 126 165 217 267 315 381
#     4  10  21  34  59  94 130 169 212 253 307 386
#     4  10  21  39  58  88 127 168 208 262 317 374
#     4  11  25  47  71  91 120 166 222 280 326 364
#     4  10  23  35  60  94 131 172 203 251 316 387
#     4  10  20  37  59  89 136 175 204 242 314 387
#
# _framework density 21.026682999999998
#
# number of rings (size 3 to 8) (size 9 to 14) (size 15 to 20)
#    0.000    1.667    1.667    2.000    7.000    2.667 
#    0.000    1.667    0.000    0.000    0.000    0.000 
#    0.000    0.000    0.000    0.000    0.000    0.000 
#
# Total GULP energy -66894.578788 kJ/mol
# GULP energy per Si atom -5574.548232 kJ/mol
# Density = 2.097882 g / cm^3
# Si number density = 21.026683 Si / 1000 Ang^3
#
#
#
# Elastic Constant Matrix: (Units=GPa)
#
#
# Indices 1 2 3 4 5 6 
#
# 1 146.2307 28.0164 26.7462 3.2898 32.2034 1.4438
# 2 28.0164 52.8439 10.3475 4.2503 19.4772 -16.5559
# 3 26.7462 10.3475 63.2202 4.6337 13.4870 -1.1468
# 4 3.2898 4.2503 4.6337 35.6627 -2.6434 13.5783
# 5 32.2034 19.4772 13.4870 -2.6434 50.2467 -0.9336
# 6 1.4438 -16.5559 -1.1468 13.5783 -0.9336 31.9118
#
#
#
# Elastic Compliance Matrix: (Units=1/GPa)
#
#
# Indices 1 2 3 4 5 6 
#
# 1 0.008815 -0.003908 -0.002463 0.000848 -0.003485 -0.002978
# 2 -0.003908 0.032956 -0.000153 -0.012868 -0.010489 0.022437
# 3 -0.002463 -0.000153 0.017839 -0.003025 -0.003275 0.001864
# 4 0.000848 -0.012868 -0.003025 0.039285 0.006889 -0.023337
# 5 -0.003485 -0.010489 -0.003275 0.006889 0.027303 -0.007534
# 6 -0.002978 0.022437 0.001864 -0.023337 -0.007534 0.052888
#
#
# Mechanical properties :
#
#
# Convention : Reuss Voigt Hill
#
# Bulk Modulus (GPa) = 21.47625 43.61278 32.54452
# Shear Modulus (GPa) = 24.07853 36.70990 30.39421
#
# Velocity S-wave (km/s) = 3.38767 4.18290 3.80611
# Velocity P-wave (km/s) = 5.05348 6.64195 5.90141
#
# Compressibility (1/GPa) = 0.04656306
#
# Stress axis : x y z
#
# Youngs Moduli (GPa) = 113.43756 30.34331 56.05750
#
# Poissons Ratio (x) = 0.11859 0.13805
# Poissons Ratio (y) = 0.44334 0.00857
# Poissons Ratio (z) = 0.27935 0.00464
#
# Static dielectric constant tensor:
#      x y z
#    x 1.885370 -0.112160 0.023660 
#    y -0.112160 1.806090 0.020170 
#    z 0.023660 0.020170 1.949630 
# 
# From -- ./inp_files/46701.got.cif
#   From: 2010.05.17/outbox.cif.g08.bks.cpg/sg2_24_cif.got.tgz:46701.got - 2010.06.03 11:33:40.
