data_PCOD9099634
_publ_section_title
;
Structure prediction by ZEFSAII (Michael W. Deem and Ramdas Pophale) SiO2 
 PCOD9099634
Probable space group: P -1
;
_chemical_formula_sum "Si O2"
_cell_formula_units_Z 16
_cell_length_a 18.878055
_cell_length_b 6.836136
_cell_length_c 20.685822
_cell_angle_alpha 138.559838
_cell_angle_beta 25.871943
_cell_angle_gamma 137.148010
_cell_volume 754.932485
_symmetry_space_group_name_H-M "P -1"
_symmetry_group_IT_number 2
_symmetry_cell_setting 'triclinic'
loop_
_space_group_symop_operation_xyz
x,y,z
-x,-y,-z
loop_
_atom_site_type_symbol
_atom_site_label
_atom_site_fract_x
_atom_site_fract_y
_atom_site_fract_z
Si Si1 0.788375 0.163843 0.820667
Si Si2 0.181412 0.671159 0.918246
Si Si3 0.617735 0.697497 0.139612
Si Si4 0.719030 0.651551 0.354354
Si Si5 0.933791 0.105851 0.813077
Si Si6 0.903198 0.423036 0.654969
Si Si7 0.555911 0.046677 0.391750
Si Si8 0.266919 0.523967 0.319630
O O1 0.937927 0.201786 0.759212
O O2 0.853180 0.228595 0.711172
O O3 0.705119 0.810966 0.804406
O O4 0.676931 0.394902 0.994035
O O5 0.290998 0.473661 0.742027
O O6 0.245949 0.012471 0.924771
O O7 0.172629 0.704599 0.010252
O O8 0.000000 0.500000 0.000000
O O9 0.438215 0.688099 0.251514
O O10 0.602398 0.765769 0.245727
O O11 0.693881 0.354538 0.346601
O O12 0.584527 0.856030 0.514399
O O13 0.892168 0.845146 0.281751
O O14 0.864957 0.750559 0.783767
O O15 0.792008 0.318832 0.656940
O O16 0.098152 0.469687 0.488124
O O17 0.500000 0.000000 0.500000
#
# Coordination Sequence:
#
# PCOD9099634 Si02
#       8
#     2   2   2   2   2   2   2   2
#     4  11  23  39  62  95 127 159 214 253 308 378
#     4   9  19  39  61  86 121 163 207 255 308 366
#     4  11  22  41  62  94 127 166 204 260 318 367
#     4   9  20  38  57  84 119 157 207 253 297 370
#     4  10  20  37  61  87 118 164 204 251 309 362
#     4  10  21  42  64  89 124 166 208 257 305 376
#     4  10  22  39  59  89 124 158 204 255 311 370
#     4  10  23  41  63  91 129 163 209 256 312 370
#
# _framework density 21.193947999999999
#
# number of rings (size 3 to 8) (size 9 to 14) (size 15 to 20)
#    0.000    2.000    1.250    1.500    1.750    2.500 
#    2.250    1.875    0.000    0.000    0.000    0.000 
#    0.000    0.000    0.000    0.000    0.000    0.000 
#
# Total GULP energy -89129.480710 kJ/mol
# GULP energy per Si atom -5570.592544 kJ/mol
# Density = 2.114571 g / cm^3
# Si number density = 21.193948 Si / 1000 Ang^3
#
#
#
# Elastic Constant Matrix: (Units=GPa)
#
#
# Indices 1 2 3 4 5 6 
#
# 1 93.4242 42.0853 18.6697 -8.1225 18.7153 1.2376
# 2 42.0853 63.8777 23.9115 3.8880 7.7126 7.1950
# 3 18.6697 23.9115 68.3159 15.8857 12.4433 9.2972
# 4 -8.1225 3.8880 15.8857 30.3250 1.2411 4.8234
# 5 18.7153 7.7126 12.4433 1.2411 34.1289 -3.0580
# 6 1.2376 7.1950 9.2972 4.8234 -3.0580 25.6244
#
#
#
# Elastic Compliance Matrix: (Units=1/GPa)
#
#
# Indices 1 2 3 4 5 6 
#
# 1 0.017954 -0.010896 -0.001571 0.007226 -0.007023 0.000564
# 2 -0.010896 0.025071 -0.004896 -0.003016 0.001850 -0.003949
# 3 -0.001571 -0.004896 0.020727 -0.009634 -0.005681 -0.004934
# 4 0.007226 -0.003016 -0.009634 0.041035 -0.001613 -0.003924
# 5 -0.007023 0.001850 -0.005681 -0.001613 0.035438 0.006414
# 6 0.000564 -0.003949 -0.004934 -0.003924 0.006414 0.043401
#
#
# Mechanical properties :
#
#
# Convention : Reuss Voigt Hill
#
# Bulk Modulus (GPa) = 34.45099 43.88341 39.16720
# Shear Modulus (GPa) = 21.92712 27.41240 24.66976
#
# Velocity S-wave (km/s) = 3.22000 3.60030 3.41545
# Velocity P-wave (km/s) = 5.48771 6.16713 5.83731
#
# Compressibility (1/GPa) = 0.02902674
#
# Stress axis : x y z
#
# Youngs Moduli (GPa) = 55.69827 39.88596 48.24575
#
# Poissons Ratio (x) = 0.43461 0.07578
# Poissons Ratio (y) = 0.60690 0.23621
# Poissons Ratio (z) = 0.08748 0.19528
#
# Static dielectric constant tensor:
#      x y z
#    x 1.762840 -0.001840 0.030340 
#    y -0.001840 1.789370 -0.019670 
#    z 0.030340 -0.019670 1.854730 
# 
# From -- ./inp_files/110683.got.cif
#   From: 2010.05.17/outbox.cif.g08.bks.cpg/sg2_56_cif.got.tgz:110683.got - 2010.06.03 11:33:40.
