data_PCOD9099297
_publ_section_title
;
Structure prediction by ZEFSAII (Michael W. Deem and Ramdas Pophale) SiO2 
 PCOD9099297
Probable space group: P -1
;
_chemical_formula_sum "Si O2"
_cell_formula_units_Z 16
_cell_length_a 18.837364
_cell_length_b 9.219601
_cell_length_c 11.889140
_cell_angle_alpha 81.902254
_cell_angle_beta 40.236159
_cell_angle_gamma 116.300476
_cell_volume 671.579288
_symmetry_space_group_name_H-M "P -1"
_symmetry_group_IT_number 2
_symmetry_cell_setting 'triclinic'
loop_
_space_group_symop_operation_xyz
x,y,z
-x,-y,-z
loop_
_atom_site_type_symbol
_atom_site_label
_atom_site_fract_x
_atom_site_fract_y
_atom_site_fract_z
Si Si1 0.913475 0.585334 0.911540
Si Si2 0.054299 0.802382 0.385404
Si Si3 0.778139 0.763361 0.014940
Si Si4 0.308722 0.287582 0.617010
Si Si5 0.321227 0.705432 0.342037
Si Si6 0.713266 0.222001 0.977897
Si Si7 0.675660 0.975228 0.766070
Si Si8 0.109165 0.362341 0.832702
O O1 0.764802 0.321120 0.034328
O O2 0.172587 0.871819 0.543216
O O3 0.854310 0.686404 0.948130
O O4 0.856064 0.490242 0.121182
O O5 0.161601 0.786448 0.194951
O O6 0.207548 0.992689 0.288311
O O7 0.830113 0.490234 0.742062
O O8 0.064958 0.955983 0.278693
O O9 0.539870 0.495090 0.278058
O O10 0.734071 0.778635 0.190504
O O11 0.286686 0.435694 0.605319
O O12 0.111626 0.975673 0.834473
O O13 0.285010 0.803222 0.295504
O O14 0.109864 0.427439 0.699928
O O15 0.483841 0.936848 0.223957
O O16 0.426543 0.696995 0.139927
#
# Coordination Sequence:
#
# PCOD9099297 Si02
#       8
#     2   2   2   2   2   2   2   2
#     4  10  22  38  57  91 123 145 193 258 289 330
#     4   9  18  36  59  81 113 157 191 231 289 355
#     4  10  20  37  63  85 113 156 198 238 294 347
#     4   9  20  37  58  86 115 155 202 236 280 365
#     4  10  20  37  60  83 117 166 193 225 295 365
#     4   9  19  34  56  85 117 147 194 241 281 342
#     4   9  20  36  55  83 118 147 194 241 283 344
#     4  10  21  38  60  85 120 156 193 241 295 344
#
# _framework density 23.824442999999999
#
# number of rings (size 3 to 8) (size 9 to 14) (size 15 to 20)
#    0.000    2.500    0.000    2.250    0.000    9.000 
#    0.000    1.250    0.000   20.250    0.000    0.000 
#    0.000    0.000    0.000    0.000    0.000    0.000 
#
# Total GULP energy -89163.250313 kJ/mol
# GULP energy per Si atom -5572.703145 kJ/mol
# Density = 2.377022 g / cm^3
# Si number density = 23.824443 Si / 1000 Ang^3
#
#
#
# Elastic Constant Matrix: (Units=GPa)
#
#
# Indices 1 2 3 4 5 6 
#
# 1 56.8168 -6.4681 1.5286 -0.9499 11.6639 0.2576
# 2 -6.4681 19.2237 20.5799 6.3953 -6.4022 11.1887
# 3 1.5286 20.5799 72.7995 15.1940 -0.8494 0.8539
# 4 -0.9499 6.3953 15.1940 29.8250 1.1635 7.0648
# 5 11.6639 -6.4022 -0.8494 1.1635 36.9869 -3.3803
# 6 0.2576 11.1887 0.8539 7.0648 -3.3803 27.7370
#
#
#
# Elastic Compliance Matrix: (Units=1/GPa)
#
#
# Indices 1 2 3 4 5 6 
#
# 1 0.020277 0.013151 -0.004507 0.001831 -0.004865 -0.006414
# 2 0.013151 0.127000 -0.036032 0.002769 0.012403 -0.049437
# 3 -0.004507 -0.036032 0.025716 -0.009167 -0.002491 0.015816
# 4 0.001831 0.002769 -0.009167 0.040487 -0.002632 -0.011485
# 5 -0.004865 0.012403 -0.002491 -0.002632 0.030700 -0.000470
# 6 -0.006414 -0.049437 0.015816 -0.011485 -0.000470 0.058436
#
#
# Mechanical properties :
#
#
# Convention : Reuss Voigt Hill
#
# Bulk Modulus (GPa) = 8.45891 20.01342 14.23617
# Shear Modulus (GPa) = 12.60090 27.78976 20.19533
#
# Velocity S-wave (km/s) = 2.30229 3.41902 2.91464
# Velocity P-wave (km/s) = 3.25970 4.89948 4.16116
#
# Compressibility (1/GPa) = 0.11821851
#
# Stress axis : x y z
#
# Youngs Moduli (GPa) = 49.31601 7.87400 38.88701
#
# Poissons Ratio (x) = -0.10355 0.17527
# Poissons Ratio (y) = -0.64858 1.40116
# Poissons Ratio (z) = 0.22228 0.28371
#
# Static dielectric constant tensor:
#      x y z
#    x 1.920300 0.051040 -0.028970 
#    y 0.051040 1.927580 -0.041200 
#    z -0.028970 -0.041200 1.993120 
# 
# From -- ./inp_files/461219.got.cif
#   From: 2010.05.17/outbox.cif.g08.bks.cpg/sg2_231_cif.got.tgz:461219.got - 2010.06.03 11:33:40.
