data_PCOD9099958
_publ_section_title
;
Structure prediction by ZEFSAII (Michael W. Deem and Ramdas Pophale) SiO2 
 PCOD9099958
Probable space group: P -1
;
_chemical_formula_sum "Si O2"
_cell_formula_units_Z 16
_cell_length_a 12.829915
_cell_length_b 9.204884
_cell_length_c 23.064498
_cell_angle_alpha 123.134687
_cell_angle_beta 25.076934
_cell_angle_gamma 130.675149
_cell_volume 867.431906
_symmetry_space_group_name_H-M "P -1"
_symmetry_group_IT_number 2
_symmetry_cell_setting 'triclinic'
loop_
_space_group_symop_operation_xyz
x,y,z
-x,-y,-z
loop_
_atom_site_type_symbol
_atom_site_label
_atom_site_fract_x
_atom_site_fract_y
_atom_site_fract_z
Si Si1 0.151859 0.211753 0.643198
Si Si2 0.798186 0.448578 0.375748
Si Si3 0.817080 0.746045 0.877228
Si Si4 0.735546 0.417442 0.073880
Si Si5 0.825948 0.877788 0.645404
Si Si6 0.790791 0.089652 0.905655
Si Si7 0.442545 0.408478 0.904569
Si Si8 0.883509 0.244610 0.624540
O O1 0.477707 0.322470 0.500553
O O2 0.065207 0.379126 0.702906
O O3 0.035843 0.141952 0.749084
O O4 0.019412 0.022854 0.628647
O O5 0.929749 0.300974 0.273584
O O6 0.871938 0.582173 0.425301
O O7 0.606743 0.605001 0.903035
O O8 0.821221 0.948433 0.905846
O O9 0.753552 0.712100 0.970361
O O10 0.453547 0.286695 0.222663
O O11 0.684538 0.555588 0.082880
O O12 0.800472 0.276211 0.970216
O O13 0.000000 0.500000 0.000000
O O14 0.990366 0.783992 0.505552
O O15 0.780593 0.034481 0.661745
O O16 0.500000 0.000000 0.000000
O O17 0.644549 0.313966 0.763575
#
# Coordination Sequence:
#
# PCOD9099958 Si02
#       8
#     2   2   2   2   2   2   2   2
#     4  10  20  37  62  88 123 154 199 246 298 356
#     4   9  20  36  60  94 117 154 196 250 298 351
#     4  10  20  37  66  92 118 151 206 251 296 355
#     4  12  26  41  59  90 124 161 201 248 301 357
#     4  10  20  40  59  86 122 162 198 241 300 360
#     4  12  22  39  63  88 116 159 202 249 300 353
#     4  10  20  39  63  91 119 158 199 250 300 355
#     4   9  20  37  63  86 119 159 198 239 303 362
#
# _framework density 18.445253000000001
#
# number of rings (size 3 to 8) (size 9 to 14) (size 15 to 20)
#    0.000    1.750    2.500    1.500    5.250    1.000 
#    6.750    1.250    0.000    0.000    0.000    0.000 
#    0.000    0.000    0.000    0.000    0.000    0.000 
#
# Total GULP energy -89072.425652 kJ/mol
# GULP energy per Si atom -5567.026603 kJ/mol
# Density = 1.840327 g / cm^3
# Si number density = 18.445253 Si / 1000 Ang^3
#
#
#
# Elastic Constant Matrix: (Units=GPa)
#
#
# Indices 1 2 3 4 5 6 
#
# 1 -59.4026 159.6357 228.5683 108.1767 120.9947 5.8272
# 2 159.6357 -21.0572 -86.1549 -70.2594 -88.2883 -5.1958
# 3 228.5683 -86.1549 -97.7401 -119.6883 -111.4576 -6.3749
# 4 108.1767 -70.2594 -119.6883 -39.2970 -79.7981 -7.8467
# 5 120.9947 -88.2883 -111.4576 -79.7981 -59.0591 -4.9204
# 6 5.8272 -5.1958 -6.3749 -7.8467 -4.9204 28.7474
#
#
#
# Elastic Compliance Matrix: (Units=1/GPa)
#
#
# Indices 1 2 3 4 5 6 
#
# 1 0.007363 -0.000651 -0.001548 0.007135 0.009209 0.001570
# 2 -0.000651 0.024269 -0.014153 -0.011524 0.004746 -0.000953
# 3 -0.001548 -0.014153 0.018937 0.000317 -0.018094 -0.001055
# 4 0.007135 -0.011524 0.000317 0.028509 -0.007526 0.003035
# 5 0.009209 0.004746 -0.018094 -0.007526 0.039187 -0.000368
# 6 0.001570 -0.000953 -0.001055 0.003035 -0.000368 0.034826
#
#
# Mechanical properties :
#
#
# Convention : Reuss Voigt Hill
#
# Bulk Modulus (GPa) = 55.97661 47.32203 51.64932
# Shear Modulus (GPa) = 26.07537 -45.93834 -9.93149
#
# Velocity S-wave (km/s) = 3.76395 -4.99593 -2.32293
# Velocity P-wave (km/s) = 7.02161 2.75100 4.56810
#
# Compressibility (1/GPa) = 0.01786461
#
# Stress axis : x y z
#
# Youngs Moduli (GPa) = 135.81344 41.20419 52.80591
#
# Poissons Ratio (x) = 0.02683 0.08176
# Poissons Ratio (y) = 0.08845 0.74736
# Poissons Ratio (z) = 0.21028 0.58316
#
# Static dielectric constant tensor:
#      x y z
#    x 1.640290 -0.024410 0.004890 
#    y -0.024410 1.627400 -0.020870 
#    z 0.004890 -0.020870 1.618890 
# 
# From -- ./inp_files/258859.got.cif
#   From: 2010.05.17/outbox.cif.g08.bks.cpg/sg2_130_cif.got.tgz:258859.got - 2010.06.03 11:33:40.
