data_PCOD9099794
_publ_section_title
;
Structure prediction by ZEFSAII (Michael W. Deem and Ramdas Pophale) SiO2 
 PCOD9099794
Probable space group: P -1
;
_chemical_formula_sum "Si O2"
_cell_formula_units_Z 16
_cell_length_a 9.067288
_cell_length_b 21.040245
_cell_length_c 8.107158
_cell_angle_alpha 147.619243
_cell_angle_beta 85.942820
_cell_angle_gamma 106.907236
_cell_volume 744.935526
_symmetry_space_group_name_H-M "P -1"
_symmetry_group_IT_number 2
_symmetry_cell_setting 'triclinic'
loop_
_space_group_symop_operation_xyz
x,y,z
-x,-y,-z
loop_
_atom_site_type_symbol
_atom_site_label
_atom_site_fract_x
_atom_site_fract_y
_atom_site_fract_z
Si Si1 0.592193 0.269879 0.118385
Si Si2 0.787074 0.802791 0.047931
Si Si3 0.333389 0.751762 0.307221
Si Si4 0.531288 0.862719 0.847307
Si Si5 0.151264 0.894727 0.687095
Si Si6 0.678910 0.557164 0.698898
Si Si7 0.928186 0.999943 0.760194
Si Si8 0.466036 0.373716 0.834087
O O1 0.599551 0.193927 0.117412
O O2 0.702214 0.427676 0.458351
O O3 0.402011 0.243817 0.083532
O O4 0.621316 0.223873 0.835265
O O5 0.820148 0.909677 0.424649
O O6 0.918810 0.877786 0.063399
O O7 0.802018 0.672909 0.827642
O O8 0.445800 0.859109 0.669740
O O9 0.160303 0.756759 0.359740
O O10 0.374788 0.631314 0.098666
O O11 0.596981 0.753180 0.555544
O O12 0.685047 0.996164 0.173888
O O13 0.999307 0.910183 0.653826
O O14 0.159533 0.944521 0.982407
O O15 0.500000 0.500000 0.500000
O O16 0.656860 0.628997 0.020648
O O17 0.500000 0.500000 0.000000
#
# Coordination Sequence:
#
# PCOD9099794 Si02
#       8
#     2   2   2   2   2   2   2   2
#     4  11  19  35  60  92 111 146 181 239 313 333
#     4  10  19  36  56  88 108 144 201 239 273 344
#     4  10  22  35  54  88 123 142 183 245 294 338
#     4  10  20  34  56  90 116 147 181 236 304 340
#     4  11  21  39  55  78 116 159 193 231 279 341
#     4  10  16  31  57  83 112 137 179 240 295 332
#     4  10  22  37  57  77 111 164 201 224 270 338
#     4  10  18  30  52  87 120 140 177 226 301 350
#
# _framework density 21.478368
#
# number of rings (size 3 to 8) (size 9 to 14) (size 15 to 20)
#    0.750    1.000    5.000    1.875    0.000    0.500 
#    4.500    0.000    0.000    1.500    0.000    0.000 
#    0.000    0.000    0.000    0.000    0.000    0.000 
#
# Total GULP energy -89114.650856 kJ/mol
# GULP energy per Si atom -5569.665679 kJ/mol
# Density = 2.142948 g / cm^3
# Si number density = 21.478368 Si / 1000 Ang^3
#
#
#
# Elastic Constant Matrix: (Units=GPa)
#
#
# Indices 1 2 3 4 5 6 
#
# 1 30.4964 19.7559 23.0923 -3.2549 -17.3451 -0.1638
# 2 19.7559 100.3162 45.7692 -15.2390 -10.4373 5.6233
# 3 23.0923 45.7692 66.9112 -4.2639 -15.9468 -1.6782
# 4 -3.2549 -15.2390 -4.2639 38.8246 3.4569 5.1641
# 5 -17.3451 -10.4373 -15.9468 3.4569 25.1716 -1.5984
# 6 -0.1638 5.6233 -1.6782 5.1641 -1.5984 13.2004
#
#
#
# Elastic Compliance Matrix: (Units=1/GPa)
#
#
# Indices 1 2 3 4 5 6 
#
# 1 0.064178 -0.004914 -0.010033 -0.001797 0.036504 0.006737
# 2 -0.004914 0.017308 -0.011202 0.007241 -0.005082 -0.012306
# 3 -0.010033 -0.011202 0.027815 -0.004264 0.007330 0.010739
# 4 -0.001797 0.007241 -0.004264 0.030715 -0.006198 -0.016415
# 5 0.036504 -0.005082 0.007330 -0.006198 0.069181 0.014351
# 6 0.006737 -0.012306 0.010739 -0.016415 0.014351 0.090606
#
#
# Mechanical properties :
#
#
# Convention : Reuss Voigt Hill
#
# Bulk Modulus (GPa) = 17.54296 41.66209 29.60253
# Shear Modulus (GPa) = 13.47342 22.71309 18.09325
#
# Velocity S-wave (km/s) = 2.50732 3.25543 2.90555
# Velocity P-wave (km/s) = 4.07034 5.79394 5.00687
#
# Compressibility (1/GPa) = 0.05700292
#
# Stress axis : x y z
#
# Youngs Moduli (GPa) = 15.58172 57.77680 35.95203
#
# Poissons Ratio (x) = 0.28390 0.36072
# Poissons Ratio (y) = 0.07657 0.40272
# Poissons Ratio (z) = 0.15634 0.64720
#
# Static dielectric constant tensor:
#      x y z
#    x 1.824820 -0.084130 -0.017870 
#    y -0.084130 1.873590 0.023400 
#    z -0.017870 0.023400 1.815930 
# 
# From -- ./inp_files/284539.got.cif
#   From: 2010.05.17/outbox.cif.g08.bks.cpg/sg2_143_cif.got.tgz:284539.got - 2010.06.03 11:33:40.
