data_PCOD9099606
_publ_section_title
;
Structure prediction by ZEFSAII (Michael W. Deem and Ramdas Pophale) SiO2 
 PCOD9099606
Probable space group: P -1
;
_chemical_formula_sum "Si O2"
_cell_formula_units_Z 16
_cell_length_a 24.030672
_cell_length_b 6.354156
_cell_length_c 15.567759
_cell_angle_alpha 109.626930
_cell_angle_beta 23.583879
_cell_angle_gamma 94.931243
_cell_volume 724.074313
_symmetry_space_group_name_H-M "P -1"
_symmetry_group_IT_number 2
_symmetry_cell_setting 'triclinic'
loop_
_space_group_symop_operation_xyz
x,y,z
-x,-y,-z
loop_
_atom_site_type_symbol
_atom_site_label
_atom_site_fract_x
_atom_site_fract_y
_atom_site_fract_z
Si Si1 0.051159 0.096325 0.023890
Si Si2 0.250836 0.702102 0.938980
Si Si3 0.862000 0.938530 0.699312
Si Si4 0.237191 0.398017 0.269838
Si Si5 0.760374 0.699478 0.546195
Si Si6 0.908087 0.012152 0.390697
Si Si7 0.598059 0.339000 0.466390
Si Si8 0.493679 0.822574 0.799985
O O1 0.943824 0.425876 0.219546
O O2 0.981768 0.037198 0.200038
O O3 0.256651 0.927851 0.721748
O O4 0.000000 0.000000 0.000000
O O5 0.402056 0.438488 0.743142
O O6 0.328694 0.700820 0.738145
O O7 0.202183 0.966612 0.099630
O O8 0.069359 0.758595 0.181485
O O9 0.903332 0.647495 0.572926
O O10 0.684394 0.141632 0.924897
O O11 0.000000 0.000000 0.500000
O O12 0.268455 0.326389 0.316979
O O13 0.170063 0.710691 0.406219
O O14 0.411213 0.146333 0.942215
O O15 0.618169 0.725006 0.690594
O O16 0.769452 0.955821 0.559455
O O17 0.583212 0.597602 0.567466
#
# Coordination Sequence:
#
# PCOD9099606 Si02
#       8
#     2   2   2   2   2   2   2   2
#     4  10  20  37  61  86 117 158 201 253 300 357
#     4   9  18  34  59  84 118 154 196 251 293 357
#     4   9  18  34  58  85 116 157 200 243 303 354
#     4   9  21  36  56  88 119 159 200 243 303 350
#     4  11  20  37  61  86 124 161 198 251 299 360
#     4  10  22  36  58  89 120 163 205 242 300 360
#     4   9  17  36  59  86 117 154 196 252 306 351
#     4   9  19  34  59  86 121 159 196 246 304 358
#
# _framework density 22.097180000000002
#
# number of rings (size 3 to 8) (size 9 to 14) (size 15 to 20)
#    0.750    1.750    1.250    1.125    0.000    1.500 
#    0.000    0.625    0.000    7.500    0.000    0.000 
#    0.000    0.000    0.000    0.000    0.000    0.000 
#
# Total GULP energy -89083.606126 kJ/mol
# GULP energy per Si atom -5567.725383 kJ/mol
# Density = 2.204689 g / cm^3
# Si number density = 22.097180 Si / 1000 Ang^3
#
#
#
# Elastic Constant Matrix: (Units=GPa)
#
#
# Indices 1 2 3 4 5 6 
#
# 1 145.4776 39.2692 54.1153 4.7574 -10.5945 31.1101
# 2 39.2692 60.7572 42.2995 10.7366 1.9874 23.6783
# 3 54.1153 42.2995 90.0941 28.3890 -10.5686 12.5230
# 4 4.7574 10.7366 28.3890 27.7675 4.6386 0.8225
# 5 -10.5945 1.9874 -10.5686 4.6386 46.4201 7.4667
# 6 31.1101 23.6783 12.5230 0.8225 7.4667 29.6616
#
#
#
# Elastic Compliance Matrix: (Units=1/GPa)
#
#
# Indices 1 2 3 4 5 6 
#
# 1 0.011545 0.000470 -0.007068 0.005010 0.002142 -0.010178
# 2 0.000470 0.033953 -0.014023 0.001978 -0.001294 -0.021406
# 3 -0.007068 -0.014023 0.030333 -0.025807 0.007737 0.004569
# 4 0.005010 0.001978 -0.025807 0.062609 -0.011930 0.005329
# 5 0.002142 -0.001294 0.007737 -0.011930 0.026793 -0.010894
# 6 -0.010178 -0.021406 0.004569 0.005329 -0.010894 0.062143
#
#
# Mechanical properties :
#
#
# Convention : Reuss Voigt Hill
#
# Bulk Modulus (GPa) = 28.91057 63.07742 45.99399
# Shear Modulus (GPa) = 17.84775 31.47951 24.66363
#
# Velocity S-wave (km/s) = 2.84508 3.77847 3.34450
# Velocity P-wave (km/s) = 4.88921 6.90241 5.98112
#
# Compressibility (1/GPa) = 0.03458943
#
# Stress axis : x y z
#
# Youngs Moduli (GPa) = 86.61881 29.45227 32.96735
#
# Poissons Ratio (x) = -0.01384 0.23300
# Poissons Ratio (y) = -0.04071 0.46231
# Poissons Ratio (z) = 0.61220 0.41301
#
# Static dielectric constant tensor:
#      x y z
#    x 1.824750 -0.017070 -0.019820 
#    y -0.017070 1.815860 0.049730 
#    z -0.019820 0.049730 1.885050 
# 
# From -- ./inp_files/579500.got.cif
#   From: 2010.05.17/outbox.cif.g08.bks.cpg/sg2_290_cif.got.tgz:579500.got - 2010.06.03 11:33:40.
