data_PCOD9099595
_publ_section_title
;
Structure prediction by ZEFSAII (Michael W. Deem and Ramdas Pophale) SiO2 
 PCOD9099595
Probable space group: P -1
;
_chemical_formula_sum "Si O2"
_cell_formula_units_Z 16
_cell_length_a 11.709922
_cell_length_b 14.572189
_cell_length_c 13.015482
_cell_angle_alpha 137.331527
_cell_angle_beta 146.265583
_cell_angle_gamma 57.695501
_cell_volume 818.229699
_symmetry_space_group_name_H-M "P -1"
_symmetry_group_IT_number 2
_symmetry_cell_setting 'triclinic'
loop_
_space_group_symop_operation_xyz
x,y,z
-x,-y,-z
loop_
_atom_site_type_symbol
_atom_site_label
_atom_site_fract_x
_atom_site_fract_y
_atom_site_fract_z
Si Si1 0.926707 0.048070 0.213268
Si Si2 0.613639 0.877810 0.450901
Si Si3 0.993544 0.645448 0.402076
Si Si4 0.941132 0.095771 0.623557
Si Si5 0.499367 0.903198 0.157878
Si Si6 0.126227 0.404807 0.954774
Si Si7 0.655587 0.579629 0.267088
Si Si8 0.433330 0.613226 0.759716
O O1 0.971763 0.188052 0.431426
O O2 0.136760 0.060106 0.313501
O O3 0.717892 0.050777 0.994763
O O4 0.928930 0.925579 0.194220
O O5 0.522287 0.844438 0.240285
O O6 0.596190 0.728789 0.368913
O O7 0.500000 0.000000 0.500000
O O8 0.219980 0.607397 0.533900
O O9 0.870195 0.583324 0.157420
O O10 0.876883 0.604390 0.390173
O O11 0.003051 0.251202 0.761796
O O12 0.694170 0.032930 0.404225
O O13 0.000000 0.000000 0.500000
O O14 0.510633 0.773566 0.985799
O O15 0.371254 0.427027 0.184944
O O16 0.000000 0.500000 0.000000
O O17 0.635629 0.485222 0.274608
O O18 0.500000 0.500000 0.000000
#
# Coordination Sequence:
#
# PCOD9099595 Si02
#       8
#     2   2   2   2   2   2   2   2
#     4   9  20  37  61  87 111 149 199 239 280 337
#     4  10  21  37  57  86 123 150 185 236 290 346
#     4  10  21  39  61  90 116 150 201 244 283 350
#     4  11  20  38  61  83 109 149 198 232 280 343
#     4  10  20  37  61  86 114 149 195 244 281 334
#     4  12  25  40  58  86 125 158 188 241 299 345
#     4  11  19  38  66  85 112 155 198 238 291 341
#     4  11  21  38  63  89 116 152 199 245 289 343
#
# _framework density 19.554411000000002
#
# number of rings (size 3 to 8) (size 9 to 14) (size 15 to 20)
#    0.000    1.500    5.000    1.125    0.000    4.500 
#    0.000    1.250    0.000    0.000    0.000    0.000 
#    0.000    0.000    0.000    0.000    0.000    0.000 
#
# Total GULP energy -89214.029543 kJ/mol
# GULP energy per Si atom -5575.876846 kJ/mol
# Density = 1.950990 g / cm^3
# Si number density = 19.554411 Si / 1000 Ang^3
#
#
#
# Elastic Constant Matrix: (Units=GPa)
#
#
# Indices 1 2 3 4 5 6 
#
# 1 39.3062 39.9675 12.5273 2.2118 20.2696 -11.7138
# 2 39.9675 104.1301 40.4545 -3.9034 22.8770 -20.1534
# 3 12.5273 40.4545 52.6391 -15.3417 16.5093 -6.8642
# 4 2.2118 -3.9034 -15.3417 40.9518 -3.1063 8.6395
# 5 20.2696 22.8770 16.5093 -3.1063 17.0098 -4.6609
# 6 -11.7138 -20.1534 -6.8642 8.6395 -4.6609 37.1288
#
#
#
# Elastic Compliance Matrix: (Units=1/GPa)
#
#
# Indices 1 2 3 4 5 6 
#
# 1 0.110258 -0.024338 0.031492 -0.008975 -0.127153 0.013523
# 2 -0.024338 0.022777 -0.016672 -0.002468 0.015220 0.004087
# 3 0.031492 -0.016672 0.044863 0.009219 -0.056995 -0.000120
# 4 -0.008975 -0.002468 0.009219 0.030553 0.008308 -0.008533
# 5 -0.127153 0.015220 -0.056995 0.008308 0.242885 -0.013834
# 6 0.013523 0.004087 -0.000120 -0.008533 -0.013834 0.033645
#
#
# Mechanical properties :
#
#
# Convention : Reuss Voigt Hill
#
# Bulk Modulus (GPa) = 6.29484 42.44154 24.36819
# Shear Modulus (GPa) = 8.97713 25.89317 17.43515
#
# Velocity S-wave (km/s) = 2.14495 3.64285 2.98924
# Velocity P-wave (km/s) = 3.05950 6.28055 4.93993
#
# Compressibility (1/GPa) = 0.15886024
#
# Stress axis : x y z
#
# Youngs Moduli (GPa) = 9.06963 43.90420 22.29025
#
# Poissons Ratio (x) = 1.06854 -0.70196
# Poissons Ratio (y) = 0.22074 0.37163
# Poissons Ratio (z) = -0.28562 0.73199
#
# Static dielectric constant tensor:
#      x y z
#    x 1.727950 0.006580 0.025080 
#    y 0.006580 1.713330 0.006460 
#    z 0.025080 0.006460 1.695620 
# 
# From -- ./inp_files/338063.got.cif
#   From: 2010.05.17/outbox.cif.g08.bks.cpg/sg2_170_cif.got.tgz:338063.got - 2010.06.03 11:33:40.
