data_PCOD9099108
_publ_section_title
;
Structure prediction by ZEFSAII (Michael W. Deem and Ramdas Pophale) SiO2 
 PCOD9099108
Probable space group: P -1
;
_chemical_formula_sum "Si O2"
_cell_formula_units_Z 16
_cell_length_a 11.644047
_cell_length_b 10.856937
_cell_length_c 6.672781
_cell_angle_alpha 52.613645
_cell_angle_beta 87.889576
_cell_angle_gamma 89.655150
_cell_volume 669.665236
_symmetry_space_group_name_H-M "P -1"
_symmetry_group_IT_number 2
_symmetry_cell_setting 'triclinic'
loop_
_space_group_symop_operation_xyz
x,y,z
-x,-y,-z
loop_
_atom_site_type_symbol
_atom_site_label
_atom_site_fract_x
_atom_site_fract_y
_atom_site_fract_z
Si Si1 0.116896 0.925287 0.499214
Si Si2 0.947404 0.300503 0.631680
Si Si3 0.863576 0.767697 0.995130
Si Si4 0.497789 0.387322 0.419248
Si Si5 0.654379 0.395006 0.049535
Si Si6 0.132217 0.397507 0.245668
Si Si7 0.749848 0.165895 0.023513
Si Si8 0.292564 0.189364 0.711682
O O1 0.082778 0.799486 0.463192
O O2 0.180368 0.868188 0.744893
O O3 0.000000 0.000000 0.500000
O O4 0.178902 0.069534 0.246638
O O5 0.033004 0.217569 0.865485
O O6 0.032882 0.428742 0.388016
O O7 0.823740 0.287421 0.762380
O O8 0.754323 0.714924 0.186794
O O9 0.904714 0.666825 0.905814
O O10 0.500000 0.500000 0.500000
O O11 0.614741 0.362060 0.311872
O O12 0.425545 0.232404 0.629955
O O13 0.418210 0.469480 0.177951
O O14 0.640502 0.251181 0.039066
O O15 0.784739 0.459109 0.958011
O O16 0.211221 0.262812 0.471114
O O17 0.728372 0.996054 0.097925
#
# Coordination Sequence:
#
# PCOD9099108 Si02
#       8
#     2   2   2   2   2   2   2   2
#     4  12  19  33  56  87 125 166 195 234 283 338
#     4  11  21  32  55  87 126 160 201 236 279 341
#     4  11  18  33  59  87 118 160 205 236 275 341
#     4  10  22  48  70  84 109 152 199 249 307 364
#     4  10  25  43  63  87 118 152 197 251 302 352
#     4  10  20  37  59  85 117 166 204 231 284 352
#     4  12  23  37  57  93 127 154 193 246 291 345
#     4  10  21  35  64  92 113 151 199 243 296 355
#
# _framework density 23.892536
#
# number of rings (size 3 to 8) (size 9 to 14) (size 15 to 20)
#    0.000    1.250    5.000    1.875    0.000    2.000 
#    0.000    3.125    0.000    0.000    0.000    0.000 
#    0.000    0.000    0.000    0.000    0.000    0.000 
#
# Total GULP energy -89239.977013 kJ/mol
# GULP energy per Si atom -5577.498563 kJ/mol
# Density = 2.383816 g / cm^3
# Si number density = 23.892536 Si / 1000 Ang^3
#
#
#
# Elastic Constant Matrix: (Units=GPa)
#
#
# Indices 1 2 3 4 5 6 
#
# 1 41.6630 32.0007 44.1555 6.1999 -32.8192 5.6413
# 2 32.0007 71.7306 45.2511 17.2725 -34.8412 1.2794
# 3 44.1555 45.2511 120.6570 24.9029 -38.1447 5.5399
# 4 6.1999 17.2725 24.9029 48.8157 -14.4586 -1.6198
# 5 -32.8192 -34.8412 -38.1447 -14.4586 43.5488 5.8448
# 6 5.6413 1.2794 5.5399 -1.6198 5.8448 29.3183
#
#
#
# Elastic Compliance Matrix: (Units=1/GPa)
#
#
# Indices 1 2 3 4 5 6 
#
# 1 0.094282 -0.005798 -0.014517 0.015042 0.062280 -0.026730
# 2 -0.005798 0.025116 -0.002501 -0.003162 0.012783 -0.002231
# 3 -0.014517 -0.002501 0.015212 -0.005454 -0.001429 0.000012
# 4 0.015042 -0.003162 -0.005454 0.026272 0.013140 -0.002894
# 5 0.062280 0.012783 -0.001429 0.013140 0.087117 -0.028913
# 6 -0.026730 -0.002231 0.000012 -0.002894 -0.028913 0.044951
#
#
# Mechanical properties :
#
#
# Convention : Reuss Voigt Hill
#
# Bulk Modulus (GPa) = 11.23876 52.98500 32.11188
# Shear Modulus (GPa) = 13.57813 31.84610 22.71212
#
# Velocity S-wave (km/s) = 2.38649 3.65484 3.08652
# Velocity P-wave (km/s) = 3.50826 6.32732 5.11580
#
# Compressibility (1/GPa) = 0.08897779
#
# Stress axis : x y z
#
# Youngs Moduli (GPa) = 10.60653 39.81554 65.73828
#
# Poissons Ratio (x) = 0.23084 0.95430
# Poissons Ratio (y) = 0.06149 0.16443
# Poissons Ratio (z) = 0.15397 0.09959
#
# Static dielectric constant tensor:
#      x y z
#    x 1.946250 0.044890 -0.131920 
#    y 0.044890 1.860800 0.082700 
#    z -0.131920 0.082700 1.835000 
# 
# From -- ./inp_files/68469.got.cif
#   From: 2010.05.17/outbox.cif.g08.bks.cpg/sg2_35_cif.got.tgz:68469.got - 2010.06.03 11:33:40.
