data_PCOD9099052
_publ_section_title
;
Structure prediction by ZEFSAII (Michael W. Deem and Ramdas Pophale) SiO2 
 PCOD9099052
Probable space group: P -1
;
_chemical_formula_sum "Si O2"
_cell_formula_units_Z 16
_cell_length_a 17.911311
_cell_length_b 11.964533
_cell_length_c 7.815050
_cell_angle_alpha 52.028736
_cell_angle_beta 95.510675
_cell_angle_gamma 56.996745
_cell_volume 839.352668
_symmetry_space_group_name_H-M "P -1"
_symmetry_group_IT_number 2
_symmetry_cell_setting 'triclinic'
loop_
_space_group_symop_operation_xyz
x,y,z
-x,-y,-z
loop_
_atom_site_type_symbol
_atom_site_label
_atom_site_fract_x
_atom_site_fract_y
_atom_site_fract_z
Si Si1 0.459878 0.745696 0.614841
Si Si2 0.224439 0.402198 0.570443
Si Si3 0.976775 0.399177 0.469446
Si Si4 0.230829 0.242355 0.176218
Si Si5 0.526906 0.357823 0.884294
Si Si6 0.355372 0.281319 0.377427
Si Si7 0.780163 0.895870 0.327863
Si Si8 0.550363 0.831668 0.015121
O O1 0.467375 0.597191 0.635541
O O2 0.572049 0.682277 0.667708
O O3 0.337824 0.007390 0.324837
O O4 0.468210 0.685734 0.870817
O O5 0.093344 0.609913 0.417775
O O6 0.272003 0.412000 0.402883
O O7 0.235417 0.220600 0.687403
O O8 0.315554 0.315837 0.818573
O O9 0.000000 0.500000 0.500000
O O10 0.103983 0.185308 0.619400
O O11 0.884258 0.576864 0.134513
O O12 0.275755 0.330556 0.166619
O O13 0.208034 0.187088 0.399588
O O14 0.462758 0.316736 0.823751
O O15 0.661683 0.158103 0.043339
O O16 0.459078 0.011739 0.679287
O O17 0.500000 0.000000 0.000000
#
# Coordination Sequence:
#
# PCOD9099052 Si02
#       8
#     2   2   2   2   2   2   2   2
#     4  10  20  31  52  83 113 137 166 218 273 320
#     4   9  18  30  50  76 102 136 177 216 255 304
#     4  10  20  31  53  78 103 137 180 227 259 300
#     4  10  18  32  53  81 104 134 183 221 259 308
#     4  10  19  33  51  81 116 137 168 212 274 321
#     4  10  18  31  51  78 108 136 174 222 259 312
#     4   9  17  34  51  78 107 139 175 219 255 308
#     4  10  16  31  54  75 110 141 170 217 261 316
#
# _framework density 19.062308999999999
#
# number of rings (size 3 to 8) (size 9 to 14) (size 15 to 20)
#    0.000    2.250    5.000    1.500    1.750    0.000 
#    0.000    2.500    0.000    1.500    6.500    0.000 
#    0.000    0.000    0.000    0.000    0.000    0.000 
#
# Total GULP energy -89168.950967 kJ/mol
# GULP energy per Si atom -5573.059435 kJ/mol
# Density = 1.901892 g / cm^3
# Si number density = 19.062309 Si / 1000 Ang^3
#
#
#
# Elastic Constant Matrix: (Units=GPa)
#
#
# Indices 1 2 3 4 5 6 
#
# 1 126.6595 56.3080 39.2593 -20.4426 30.8076 -14.8207
# 2 56.3080 87.3372 31.4435 -6.9653 8.9835 -5.6680
# 3 39.2593 31.4435 43.7893 5.1223 17.9797 1.8639
# 4 -20.4426 -6.9653 5.1223 28.3070 4.8782 7.3459
# 5 30.8076 8.9835 17.9797 4.8782 30.3150 -5.3185
# 6 -14.8207 -5.6680 1.8639 7.3459 -5.3185 43.6249
#
#
#
# Elastic Compliance Matrix: (Units=1/GPa)
#
#
# Indices 1 2 3 4 5 6 
#
# 1 0.020638 -0.006934 -0.009014 0.017167 -0.016046 0.001649
# 2 -0.006934 0.019095 -0.010894 -0.000162 0.008158 0.001613
# 3 -0.009014 -0.010894 0.046293 -0.013654 -0.013896 -0.005851
# 4 0.017167 -0.000162 -0.013654 0.054768 -0.019015 -0.005146
# 5 -0.016046 0.008158 -0.013896 -0.019015 0.059342 0.006639
# 6 0.001649 0.001613 -0.005851 -0.005146 0.006639 0.025618
#
#
# Mechanical properties :
#
#
# Convention : Reuss Voigt Hill
#
# Bulk Modulus (GPa) = 30.91999 56.86751 43.89375
# Shear Modulus (GPa) = 17.22830 29.16772 23.19801
#
# Velocity S-wave (km/s) = 3.00957 3.91593 3.49228
# Velocity P-wave (km/s) = 5.32282 7.09529 6.27198
#
# Compressibility (1/GPa) = 0.03234154
#
# Stress axis : x y z
#
# Youngs Moduli (GPa) = 48.45383 52.36940 21.60144
#
# Poissons Ratio (x) = 0.36313 0.19472
# Poissons Ratio (y) = 0.33598 0.23533
# Poissons Ratio (z) = 0.43677 0.57053
#
# Static dielectric constant tensor:
#      x y z
#    x 1.701390 -0.042360 -0.011500 
#    y -0.042360 1.743740 0.052350 
#    z -0.011500 0.052350 1.675310 
# 
# From -- ./inp_files/270991.got.cif
#   From: 2010.05.17/outbox.cif.g08.bks.cpg/sg2_136_cif.got.tgz:270991.got - 2010.06.03 11:33:40.
