data_PCOD9099227
_publ_section_title
;
Structure prediction by ZEFSAII (Michael W. Deem and Ramdas Pophale) SiO2 
 PCOD9099227
Probable space group: P -1
;
_chemical_formula_sum "Si O2"
_cell_formula_units_Z 15
_cell_length_a 8.669451
_cell_length_b 22.255338
_cell_length_c 19.441800
_cell_angle_alpha 17.680282
_cell_angle_beta 35.379813
_cell_angle_gamma 33.319282
_cell_volume 621.638894
_symmetry_space_group_name_H-M "P -1"
_symmetry_group_IT_number 2
_symmetry_cell_setting 'triclinic'
loop_
_space_group_symop_operation_xyz
x,y,z
-x,-y,-z
loop_
_atom_site_type_symbol
_atom_site_label
_atom_site_fract_x
_atom_site_fract_y
_atom_site_fract_z
Si Si1 0.521367 0.476873 0.215273
Si Si2 0.725403 0.605734 0.275955
Si Si3 0.874271 0.727269 0.221893
Si Si4 0.000000 0.000000 0.000000
Si Si5 0.403861 0.560206 0.621268
Si Si6 0.124600 0.069122 0.617756
Si Si7 0.235552 0.199921 0.573248
Si Si8 0.513732 0.670371 0.864430
O O1 0.678912 0.458990 0.249342
O O2 0.510880 0.252549 0.437618
O O3 0.202797 0.607972 0.214414
O O4 0.605018 0.577277 0.008368
O O5 0.500000 0.500000 0.500000
O O6 0.736412 0.777310 0.140466
O O7 0.640428 0.628655 0.201679
O O8 0.025521 0.418513 0.378678
O O9 0.713713 0.575345 0.478479
O O10 0.863904 0.903889 0.087972
O O11 0.887530 0.865333 0.242931
O O12 0.197863 0.784785 0.424702
O O13 0.251795 0.039154 0.681306
O O14 0.286904 0.206412 0.370339
O O15 0.204612 0.845755 0.795911
O O16 0.500000 0.500000 0.000000
#
# Coordination Sequence:
#
# PCOD9099227 Si02
#       8
#     2   2   2   1   2   2   2   2
#     4  11  21  39  71  95 130 178 228 268 331 390
#     4   8  18  34  57  79 122 174 209 250 313 384
#     4  10  21  37  60  95 134 182 209 257 330 407
#     4  12  22  32  58  94 136 170 222 260 314 394
#     4  10  20  40  67  97 135 169 218 283 326 392
#     4  10  23  45  68  95 132 171 227 278 334 401
#     4  10  20  37  59  90 130 171 215 262 322 402
#     4  11  23  44  74  93 123 182 228 276 337 404
#
# _framework density 24.129766
#
# number of rings (size 3 to 8) (size 9 to 14) (size 15 to 20)
#    0.000    1.867    2.667    1.200    3.733    0.533 
#    0.000   14.000    0.000    0.000    0.000    0.000 
#    0.000    0.000    0.000    0.000    0.000    0.000 
#
# Total GULP energy -83514.459786 kJ/mol
# GULP energy per Si atom -5567.630652 kJ/mol
# Density = 2.407485 g / cm^3
# Si number density = 24.129766 Si / 1000 Ang^3
#
#
#
# Elastic Constant Matrix: (Units=GPa)
#
#
# Indices 1 2 3 4 5 6 
#
# 1 146.8882 44.1768 27.1887 -8.2681 -10.5627 65.5655
# 2 44.1768 102.0308 28.5772 -10.3868 -2.4707 32.4276
# 3 27.1887 28.5772 85.4457 11.0936 8.4452 26.8848
# 4 -8.2681 -10.3868 11.0936 41.8110 21.4991 -5.3316
# 5 -10.5627 -2.4707 8.4452 21.4991 26.7930 3.2499
# 6 65.5655 32.4276 26.8848 -5.3316 3.2499 49.3615
#
#
#
# Elastic Compliance Matrix: (Units=1/GPa)
#
#
# Indices 1 2 3 4 5 6 
#
# 1 0.022219 -0.000509 0.003072 -0.011736 0.021227 -0.033516
# 2 -0.000509 0.013020 -0.002672 0.002952 0.000215 -0.006117
# 3 0.003072 -0.002672 0.016093 -0.007698 0.003543 -0.012155
# 4 -0.011736 0.002952 -0.007698 0.051747 -0.046666 0.026505
# 5 0.021227 0.000215 0.003543 -0.046666 0.087017 -0.041036
# 6 -0.033516 -0.006117 -0.012155 0.026505 -0.041036 0.080981
#
#
# Mechanical properties :
#
#
# Convention : Reuss Voigt Hill
#
# Bulk Modulus (GPa) = 19.56479 59.36112 39.46295
# Shear Modulus (GPa) = 17.34103 39.22124 28.28113
#
# Velocity S-wave (km/s) = 2.68369 4.03604 3.42723
# Velocity P-wave (km/s) = 4.21054 6.80982 5.66137
#
# Compressibility (1/GPa) = 0.05111222
#
# Stress axis : x y z
#
# Youngs Moduli (GPa) = 45.00716 76.80701 62.13761
#
# Poissons Ratio (x) = 0.03910 -0.19087
# Poissons Ratio (y) = 0.02291 0.16606
# Poissons Ratio (z) = -0.13825 0.20526
#
# Static dielectric constant tensor:
#      x y z
#    x 2.058300 -0.011210 0.001260 
#    y -0.011210 1.994560 -0.027370 
#    z 0.001260 -0.027370 1.942240 
# 
# From -- ./inp_files/562870.got.cif
#   From: 2010.05.17/outbox.cif.g08.bks.cpg/sg2_282_cif.got.tgz:562870.got - 2010.06.03 11:33:40.
