data_PCOD9099326
_publ_section_title
;
Structure prediction by ZEFSAII (Michael W. Deem and Ramdas Pophale) SiO2 
 PCOD9099326
Probable space group: P -1
;
_chemical_formula_sum "Si O2"
_cell_formula_units_Z 16
_cell_length_a 18.185993
_cell_length_b 18.857524
_cell_length_c 7.486643
_cell_angle_alpha 140.383485
_cell_angle_beta 52.019301
_cell_angle_gamma 157.432977
_cell_volume 577.966732
_symmetry_space_group_name_H-M "P -1"
_symmetry_group_IT_number 2
_symmetry_cell_setting 'triclinic'
loop_
_space_group_symop_operation_xyz
x,y,z
-x,-y,-z
loop_
_atom_site_type_symbol
_atom_site_label
_atom_site_fract_x
_atom_site_fract_y
_atom_site_fract_z
Si Si1 0.399507 0.144954 0.818790
Si Si2 0.504853 0.307677 0.607373
Si Si3 0.940612 0.704643 0.700181
Si Si4 0.709480 0.662710 0.441332
Si Si5 0.175825 0.601682 0.994040
Si Si6 0.866805 0.959550 0.432146
Si Si7 0.400918 0.016263 0.913814
Si Si8 0.974223 0.628353 0.869872
O O1 0.425498 0.145058 0.572428
O O2 0.610087 0.436970 0.108177
O O3 0.382505 0.027188 0.754242
O O4 0.187951 0.991336 0.877021
O O5 0.753484 0.593194 0.790627
O O6 0.347102 0.242126 0.742353
O O7 0.466948 0.202658 0.275440
O O8 0.896514 0.589456 0.363642
O O9 0.907835 0.586472 0.687663
O O10 0.500000 0.500000 0.500000
O O11 0.791894 0.813478 0.435506
O O12 0.923790 0.871183 0.635332
O O13 0.414850 0.871702 0.103127
O O14 0.000000 0.500000 0.000000
O O15 0.177876 0.582273 0.164720
O O16 0.943929 0.164139 0.778942
O O17 0.170038 0.752750 0.816695
#
# Coordination Sequence:
#
# PCOD9099326 Si02
#       8
#     2   2   2   2   2   2   2   2
#     4  11  22  38  63  88 116 161 203 241 293 353
#     4  10  20  37  60  85 116 153 203 248 285 348
#     4  10  21  38  62  89 116 157 202 240 297 356
#     4  11  22  37  58  87 122 156 198 245 292 347
#     4  11  23  38  60  90 120 153 196 244 297 357
#     4  10  22  38  59  86 118 159 197 243 298 343
#     4   9  20  38  60  85 115 156 195 236 298 352
#     4  10  20  40  62  82 118 157 196 245 292 349
#
# _framework density 27.683254999999999
#
# number of rings (size 3 to 8) (size 9 to 14) (size 15 to 20)
#    0.000    1.750    0.000    6.000    0.000    5.500 
#    0.000    3.750    0.000    0.000    0.000    0.000 
#    0.000    0.000    0.000    0.000    0.000    0.000 
#
# Total GULP energy -89509.130394 kJ/mol
# GULP energy per Si atom -5594.320650 kJ/mol
# Density = 2.762025 g / cm^3
# Si number density = 27.683255 Si / 1000 Ang^3
#
#
#
# Elastic Constant Matrix: (Units=GPa)
#
#
# Indices 1 2 3 4 5 6 
#
# 1 103.7328 86.2328 17.9914 6.6549 3.1385 36.3713
# 2 86.2328 220.4774 30.3890 16.5047 8.2900 63.8751
# 3 17.9914 30.3890 64.2852 11.8408 -5.1533 -2.8110
# 4 6.6549 16.5047 11.8408 41.0569 -3.1053 14.5408
# 5 3.1385 8.2900 -5.1533 -3.1053 32.3406 1.0415
# 6 36.3713 63.8751 -2.8110 14.5408 1.0415 90.5365
#
#
#
# Elastic Compliance Matrix: (Units=1/GPa)
#
#
# Indices 1 2 3 4 5 6 
#
# 1 0.014953 -0.004762 -0.002304 0.001152 -0.000394 -0.002899
# 2 -0.004762 0.007933 -0.002639 -0.000504 -0.001922 -0.003663
# 3 -0.002304 -0.002639 0.018857 -0.005236 0.003267 0.004176
# 4 0.001152 -0.000504 -0.005236 0.027714 0.001997 -0.004744
# 5 -0.000394 -0.001922 0.003267 0.001997 0.032134 0.000925
# 6 -0.002899 -0.003663 0.004176 -0.004744 0.000925 0.015675
#
#
# Mechanical properties :
#
#
# Convention : Reuss Voigt Hill
#
# Bulk Modulus (GPa) = 44.77735 73.08020 58.92878
# Shear Modulus (GPa) = 34.69308 49.71227 42.20268
#
# Velocity S-wave (km/s) = 3.54392 4.24223 3.90870
# Velocity P-wave (km/s) = 5.74072 7.10291 6.45783
#
# Compressibility (1/GPa) = 0.02233272
#
# Stress axis : x y z
#
# Youngs Moduli (GPa) = 66.87467 126.05427 53.03105
#
# Poissons Ratio (x) = 0.60032 0.12220
# Poissons Ratio (y) = 0.31849 0.13993
# Poissons Ratio (z) = 0.15410 0.33261
#
# Static dielectric constant tensor:
#      x y z
#    x 2.186240 0.079890 -0.021360 
#    y 0.079890 2.076590 -0.029040 
#    z -0.021360 -0.029040 2.193730 
# 
# From -- ./inp_files/349587.got.cif
#   From: 2010.05.17/outbox.cif.g08.bks.cpg/sg2_175_cif.got.tgz:349587.got - 2010.06.03 11:33:40.
