data_PCOD9099669
_publ_section_title
;
Structure prediction by ZEFSAII (Michael W. Deem and Ramdas Pophale) SiO2 
 PCOD9099669
Probable space group: P -1
;
_chemical_formula_sum "Si O2"
_cell_formula_units_Z 16
_cell_length_a 15.952050
_cell_length_b 8.373113
_cell_length_c 7.988745
_cell_angle_alpha 121.143171
_cell_angle_beta 110.979400
_cell_angle_gamma 103.949974
_cell_volume 721.296407
_symmetry_space_group_name_H-M "P -1"
_symmetry_group_IT_number 2
_symmetry_cell_setting 'triclinic'
loop_
_space_group_symop_operation_xyz
x,y,z
-x,-y,-z
loop_
_atom_site_type_symbol
_atom_site_label
_atom_site_fract_x
_atom_site_fract_y
_atom_site_fract_z
Si Si1 0.915905 0.060567 0.509926
Si Si2 0.833589 0.073415 0.786192
Si Si3 0.727103 0.635586 0.049720
Si Si4 0.651009 0.647019 0.365742
Si Si5 0.023555 0.474450 0.312092
Si Si6 0.500718 0.777529 0.416724
Si Si7 0.552562 0.213315 0.269308
Si Si8 0.221012 0.620617 0.306085
O O1 0.893017 0.013094 0.662350
O O2 0.805391 0.902445 0.244136
O O3 0.000000 0.000000 0.500000
O O4 0.968345 0.317164 0.658587
O O5 0.790768 0.197934 0.707113
O O6 0.739535 0.837935 0.653087
O O7 0.920078 0.245335 0.064362
O O8 0.608922 0.461170 0.803747
O O9 0.788667 0.545956 0.937557
O O10 0.701994 0.607874 0.217187
O O11 0.578193 0.748373 0.334581
O O12 0.582977 0.421557 0.290997
O O13 0.000000 0.500000 0.500000
O O14 0.131088 0.502499 0.323828
O O15 0.525191 0.807294 0.648190
O O16 0.500000 0.000000 0.500000
O O17 0.662953 0.264643 0.462028
O O18 0.500000 0.000000 0.000000
#
# Coordination Sequence:
#
# PCOD9099669 Si02
#       8
#     2   2   2   2   2   2   2   2
#     4  10  20  37  61  88 121 162 206 253 312 381
#     4  10  22  41  63  89 123 166 211 256 312 388
#     4  10  21  37  63  89 117 163 212 256 307 379
#     4  11  23  39  63  95 124 160 214 268 315 368
#     4  11  24  39  63  95 127 163 206 264 321 372
#     4  11  23  41  64  91 127 172 212 256 316 383
#     4  11  25  41  62  95 131 167 208 266 319 366
#     4  10  22  43  63  88 126 171 212 255 318 385
#
# _framework density 22.182283000000002
#
# number of rings (size 3 to 8) (size 9 to 14) (size 15 to 20)
#    0.000    1.500    0.000    6.000    0.000    9.000 
#    0.000    1.875    0.000    0.000    0.000    0.000 
#    0.000    0.000    0.000    0.000    0.000    0.000 
#
# Total GULP energy -89079.792994 kJ/mol
# GULP energy per Si atom -5567.487062 kJ/mol
# Density = 2.213179 g / cm^3
# Si number density = 22.182283 Si / 1000 Ang^3
#
#
#
# Elastic Constant Matrix: (Units=GPa)
#
#
# Indices 1 2 3 4 5 6 
#
# 1 95.8116 14.5211 42.1792 -7.1472 -21.0590 12.3489
# 2 14.5211 47.6923 20.3803 7.9219 -13.5347 19.7134
# 3 42.1792 20.3803 183.5978 11.4817 -6.2038 14.2253
# 4 -7.1472 7.9219 11.4817 34.4660 8.8075 -0.8853
# 5 -21.0590 -13.5347 -6.2038 8.8075 36.5450 -3.9964
# 6 12.3489 19.7134 14.2253 -0.8853 -3.9964 25.9696
#
#
#
# Elastic Compliance Matrix: (Units=1/GPa)
#
#
# Indices 1 2 3 4 5 6 
#
# 1 0.013748 0.000279 -0.002762 0.001903 0.006644 -0.004149
# 2 0.000279 0.038859 -0.000960 -0.012968 0.014528 -0.027311
# 3 -0.002762 -0.000960 0.006452 -0.002430 -0.000446 -0.001644
# 4 0.001903 -0.012968 -0.002430 0.036476 -0.011850 0.009690
# 5 0.006644 0.014528 -0.000446 -0.011850 0.038431 -0.008433
# 6 -0.004149 -0.027311 -0.001644 0.009690 -0.008433 0.061144
#
#
# Mechanical properties :
#
#
# Convention : Reuss Voigt Hill
#
# Bulk Modulus (GPa) = 19.16716 53.47365 36.32040
# Shear Modulus (GPa) = 22.79087 36.06419 29.42753
#
# Velocity S-wave (km/s) = 3.20884 4.03651 3.64624
# Velocity P-wave (km/s) = 4.73164 6.77372 5.84259
#
# Compressibility (1/GPa) = 0.05217258
#
# Stress axis : x y z
#
# Youngs Moduli (GPa) = 72.73770 25.73431 154.98873
#
# Poissons Ratio (x) = -0.00718 0.42814
# Poissons Ratio (y) = -0.02029 0.14873
# Poissons Ratio (z) = 0.20093 0.02470
#
# Static dielectric constant tensor:
#      x y z
#    x 1.872090 -0.071450 0.026020 
#    y -0.071450 1.732190 0.018900 
#    z 0.026020 0.018900 1.898220 
# 
# From -- ./inp_files/329608.got.cif
#   From: 2010.05.17/outbox.cif.g08.bks.cpg/sg2_165_cif.got.tgz:329608.got - 2010.06.03 11:33:40.
