data_PCOD9099905
_publ_section_title
;
Structure prediction by ZEFSAII (Michael W. Deem and Ramdas Pophale) SiO2 
 PCOD9099905
Probable space group: P -1
;
_chemical_formula_sum "Si O2"
_cell_formula_units_Z 16
_cell_length_a 5.523418
_cell_length_b 14.437284
_cell_length_c 9.391686
_cell_angle_alpha 114.044953
_cell_angle_beta 86.978590
_cell_angle_gamma 91.785469
_cell_volume 682.946480
_symmetry_space_group_name_H-M "P -1"
_symmetry_group_IT_number 2
_symmetry_cell_setting 'triclinic'
loop_
_space_group_symop_operation_xyz
x,y,z
-x,-y,-z
loop_
_atom_site_type_symbol
_atom_site_label
_atom_site_fract_x
_atom_site_fract_y
_atom_site_fract_z
Si Si1 0.226089 0.074460 0.878378
Si Si2 0.519161 0.342741 0.342218
Si Si3 0.985674 0.249384 0.818507
Si Si4 0.741540 0.553161 0.081960
Si Si5 0.814293 0.526188 0.381572
Si Si6 0.031495 0.862904 0.798570
Si Si7 0.609745 0.220549 0.024251
Si Si8 0.864905 0.289669 0.522964
O O1 0.067654 0.143669 0.820438
O O2 0.169815 0.957508 0.779810
O O3 0.492432 0.122943 0.891379
O O4 0.168717 0.091269 0.060290
O O5 0.760137 0.407305 0.325911
O O6 0.321134 0.420363 0.450794
O O7 0.429050 0.286343 0.167517
O O8 0.609226 0.282482 0.442343
O O9 0.204447 0.329518 0.884036
O O10 0.900854 0.250693 0.657933
O O11 0.759645 0.282726 0.943021
O O12 0.699189 0.551889 0.250936
O O13 0.500000 0.500000 0.000000
O O14 0.000000 0.500000 0.000000
O O15 0.063389 0.590505 0.401510
O O16 0.211450 0.814372 0.877739
O O17 0.967411 0.779517 0.629370
#
# Coordination Sequence:
#
# PCOD9099905 Si02
#       8
#     2   2   2   2   2   2   2   2
#     4  10  20  37  62  86 121 154 212 264 317 391
#     4  10  21  37  59  85 117 158 212 259 315 379
#     4  10  24  37  60  90 122 167 204 266 317 390
#     4  11  26  43  65  96 135 177 217 265 323 390
#     4  10  22  37  60  88 115 167 208 259 314 376
#     4   9  20  38  60  89 114 162 206 264 325 378
#     4  10  20  38  61  89 120 161 208 261 320 383
#     4  10  21  39  56  82 124 156 205 261 321 383
#
# _framework density 23.427897000000002
#
# number of rings (size 3 to 8) (size 9 to 14) (size 15 to 20)
#    0.000    2.000    0.000    2.250    7.000    1.500 
#    4.500    0.625    0.000    0.000    0.000    0.000 
#    0.000    0.000    0.000    0.000    0.000    0.000 
#
# Total GULP energy -89212.005071 kJ/mol
# GULP energy per Si atom -5575.750317 kJ/mol
# Density = 2.337457 g / cm^3
# Si number density = 23.427897 Si / 1000 Ang^3
#
#
#
# Elastic Constant Matrix: (Units=GPa)
#
#
# Indices 1 2 3 4 5 6 
#
# 1 54.7516 18.3336 28.0472 -6.9953 10.5259 14.5977
# 2 18.3336 130.1657 41.5554 -3.4863 9.8066 14.8342
# 3 28.0472 41.5554 95.0161 -14.4130 10.0039 2.5562
# 4 -6.9953 -3.4863 -14.4130 37.7651 0.9818 3.5628
# 5 10.5259 9.8066 10.0039 0.9818 31.6504 5.8995
# 6 14.5977 14.8342 2.5562 3.5628 5.8995 25.3023
#
#
#
# Elastic Compliance Matrix: (Units=1/GPa)
#
#
# Indices 1 2 3 4 5 6 
#
# 1 0.026737 0.000446 -0.006640 0.003946 -0.004340 -0.014560
# 2 0.000446 0.009592 -0.004109 -0.000082 -0.000839 -0.005259
# 3 -0.006640 -0.004109 0.014953 0.003710 -0.002241 0.004730
# 4 0.003946 -0.000082 0.003710 0.029262 -0.002210 -0.006208
# 5 -0.004340 -0.000839 -0.002241 -0.002210 0.034935 -0.004612
# 6 -0.014560 -0.005259 0.004730 -0.006208 -0.004612 0.052477
#
#
# Mechanical properties :
#
#
# Convention : Reuss Voigt Hill
#
# Bulk Modulus (GPa) = 32.60002 50.64508 41.62255
# Shear Modulus (GPa) = 25.15249 31.74338 28.44794
#
# Velocity S-wave (km/s) = 3.28016 3.68494 3.48843
# Velocity P-wave (km/s) = 5.31894 6.30630 5.83355
#
# Compressibility (1/GPa) = 0.03067483
#
# Stress axis : x y z
#
# Youngs Moduli (GPa) = 37.40171 104.25475 66.87487
#
# Poissons Ratio (x) = -0.04649 0.44406
# Poissons Ratio (y) = -0.01668 0.27481
# Poissons Ratio (z) = 0.24835 0.42842
#
# Static dielectric constant tensor:
#      x y z
#    x 2.032180 -0.003260 -0.043820 
#    y -0.003260 1.935450 0.059590 
#    z -0.043820 0.059590 1.906620 
# 
# From -- ./inp_files/38017.got.cif
#   From: 2010.05.17/outbox.cif.g08.bks.cpg/sg2_20_cif.got.tgz:38017.got - 2010.06.03 11:33:40.
