data_PCOD9099991
_publ_section_title
;
Structure prediction by ZEFSAII (Michael W. Deem and Ramdas Pophale) SiO2 
 PCOD9099991
Probable space group: P -1
;
_chemical_formula_sum "Si O2"
_cell_formula_units_Z 13
_cell_length_a 9.123496
_cell_length_b 16.690725
_cell_length_c 5.091672
_cell_angle_alpha 61.581192
_cell_angle_beta 114.827597
_cell_angle_gamma 133.140327
_cell_volume 492.158803
_symmetry_space_group_name_H-M "P -1"
_symmetry_group_IT_number 2
_symmetry_cell_setting 'triclinic'
loop_
_space_group_symop_operation_xyz
x,y,z
-x,-y,-z
loop_
_atom_site_type_symbol
_atom_site_label
_atom_site_fract_x
_atom_site_fract_y
_atom_site_fract_z
Si Si1 0.017271 0.253517 0.599442
Si Si2 0.755404 0.906333 0.467626
Si Si3 0.500000 0.500000 0.500000
Si Si4 0.333014 0.011560 0.228784
Si Si5 0.242678 0.587852 0.078702
Si Si6 0.742610 0.689118 0.808103
Si Si7 0.178672 0.636711 0.460186
O O1 0.065178 0.275101 0.291476
O O2 0.904763 0.300534 0.571584
O O3 0.220222 0.313881 0.845204
O O4 0.875847 0.117817 0.742781
O O5 0.689182 0.915954 0.690034
O O6 0.721576 0.788381 0.579142
O O7 0.650068 0.936690 0.126112
O O8 0.000000 0.000000 0.500000
O O9 0.324194 0.517682 0.310422
O O10 0.571296 0.573980 0.716405
O O11 0.500000 0.000000 0.500000
O O12 0.279367 0.674817 0.193891
O O13 0.328114 0.646869 0.772405
O O14 0.000000 0.500000 0.000000
O O15 0.000000 0.500000 0.500000
#
# Coordination Sequence:
#
# PCOD9099991 Si02
#       7
#     2   2   1   2   2   2   2
#     4  12  23  44  71 102 140 195 227 294 369 429
#     4  12  23  47  73 103 141 192 239 300 367 430
#     4  12  28  46  70 110 138 188 252 286 356 450
#     4  12  26  44  72 110 143 184 250 300 366 444
#     4  10  22  41  62  89 133 175 222 285 338 409
#     4  12  26  42  73 102 142 186 239 295 357 434
#     4  10  20  37  62  89 128 174 218 266 340 409
#
# _framework density 26.414239999999999
#
# number of rings (size 3 to 8) (size 9 to 14) (size 15 to 20)
#    0.000    0.615    3.077    6.462    0.000    4.923 
#    0.000    0.000    0.000    0.000    0.000    0.000 
#    0.000    0.000    0.000    0.000    0.000    0.000 
#
# Total GULP energy -72597.882092 kJ/mol
# GULP energy per Si atom -5584.452469 kJ/mol
# Density = 2.635412 g / cm^3
# Si number density = 26.414240 Si / 1000 Ang^3
#
#
#
# Elastic Constant Matrix: (Units=GPa)
#
#
# Indices 1 2 3 4 5 6 
#
# 1 95.5396 36.5999 27.6751 11.4709 20.0268 -30.9956
# 2 36.5999 141.1226 18.6712 7.0637 -0.7807 -17.2226
# 3 27.6751 18.6712 145.2073 29.6559 6.8941 -14.2428
# 4 11.4709 7.0637 29.6559 36.0840 -12.6411 3.0251
# 5 20.0268 -0.7807 6.8941 -12.6411 64.0913 12.8632
# 6 -30.9956 -17.2226 -14.2428 3.0251 12.8632 56.6257
#
#
#
# Elastic Compliance Matrix: (Units=1/GPa)
#
#
# Indices 1 2 3 4 5 6 
#
# 1 0.019147 -0.003013 0.000752 -0.010984 -0.010836 0.012801
# 2 -0.003013 0.007982 -0.000485 0.000120 0.001031 0.000416
# 3 0.000752 -0.000485 0.009331 -0.009526 -0.003929 0.004012
# 4 -0.010984 0.000120 -0.009526 0.045995 0.016454 -0.014567
# 5 -0.010836 0.001031 -0.003929 0.016454 0.025326 -0.013238
# 6 0.012801 0.000416 0.004012 -0.014567 -0.013238 0.029588
#
#
# Mechanical properties :
#
#
# Convention : Reuss Voigt Hill
#
# Bulk Modulus (GPa) = 32.29162 60.86244 46.57703
# Shear Modulus (GPa) = 32.64036 51.28845 41.96440
#
# Velocity S-wave (km/s) = 3.51908 4.41125 3.99018
# Velocity P-wave (km/s) = 5.36316 7.00265 6.23701
#
# Compressibility (1/GPa) = 0.03096778
#
# Stress axis : x y z
#
# Youngs Moduli (GPa) = 52.22822 125.28124 107.16604
#
# Poissons Ratio (x) = 0.37747 -0.08055
# Poissons Ratio (y) = 0.15736 0.05195
# Poissons Ratio (z) = -0.03926 0.06073
#
# Static dielectric constant tensor:
#      x y z
#    x 2.117890 0.142510 -0.117210 
#    y 0.142510 2.126060 -0.092330 
#    z -0.117210 -0.092330 2.199900 
# 
# From -- ./inp_files/34184.got.cif
#   From: 2010.05.17/outbox.cif.g08.bks.cpg/sg2_18_cif.got.tgz:34184.got - 2010.06.03 11:33:40.
