data_PCOD9099106
_publ_section_title
;
Structure prediction by ZEFSAII (Michael W. Deem and Ramdas Pophale) SiO2 
 PCOD9099106
Probable space group: P -1
;
_chemical_formula_sum "Si O2"
_cell_formula_units_Z 16
_cell_length_a 7.669993
_cell_length_b 21.435397
_cell_length_c 12.113735
_cell_angle_alpha 152.237465
_cell_angle_beta 75.182835
_cell_angle_gamma 89.065938
_cell_volume 755.587003
_symmetry_space_group_name_H-M "P -1"
_symmetry_group_IT_number 2
_symmetry_cell_setting 'triclinic'
loop_
_space_group_symop_operation_xyz
x,y,z
-x,-y,-z
loop_
_atom_site_type_symbol
_atom_site_label
_atom_site_fract_x
_atom_site_fract_y
_atom_site_fract_z
Si Si1 0.989664 0.391755 0.169062
Si Si2 0.172506 0.105027 0.251372
Si Si3 0.553503 0.035785 0.226870
Si Si4 0.699809 0.732716 0.874794
Si Si5 0.074864 0.446676 0.779590
Si Si6 0.532614 0.524872 0.214730
Si Si7 0.713866 0.243599 0.573054
Si Si8 0.406163 0.626855 0.811551
O O1 0.840898 0.568126 0.524717
O O2 0.059663 0.424763 0.091657
O O3 0.840266 0.321429 0.060362
O O4 0.173119 0.289744 0.067924
O O5 0.313008 0.993324 0.953651
O O6 0.088928 0.283576 0.505185
O O7 0.962777 0.105060 0.314580
O O8 0.324640 0.074655 0.283092
O O9 0.661416 0.879258 0.038435
O O10 0.437419 0.824590 0.497236
O O11 0.475319 0.749644 0.966402
O O12 0.311359 0.416148 0.683793
O O13 0.000000 0.500000 0.000000
O O14 0.348411 0.658809 0.378608
O O15 0.474524 0.468612 0.245860
O O16 0.667049 0.369723 0.873211
O O17 0.500000 0.500000 0.500000
#
# Coordination Sequence:
#
# PCOD9099106 Si02
#       8
#     2   2   2   2   2   2   2   2
#     4   9  20  35  59  90 113 148 203 249 294 344
#     4  11  23  38  60  91 123 162 199 247 309 362
#     4  11  24  40  59  89 130 161 201 243 305 372
#     4  10  20  37  59  85 117 155 198 246 290 357
#     4  11  19  37  64  91 121 153 198 258 306 349
#     4  10  22  38  62  93 125 147 209 257 296 362
#     4  11  23  39  61  93 122 161 194 254 311 357
#     4   9  20  35  57  86 114 151 193 247 295 338
#
# _framework density 21.17559
#
# number of rings (size 3 to 8) (size 9 to 14) (size 15 to 20)
#    0.000    1.750    3.750    0.375    1.750    2.000 
#    0.000    0.625    0.000    2.250    0.000    0.000 
#    0.000    0.000    0.000    0.000    0.000    0.000 
#
# Total GULP energy -89376.840733 kJ/mol
# GULP energy per Si atom -5586.052546 kJ/mol
# Density = 2.112739 g / cm^3
# Si number density = 21.175590 Si / 1000 Ang^3
#
#
#
# Elastic Constant Matrix: (Units=GPa)
#
#
# Indices 1 2 3 4 5 6 
#
# 1 83.5768 35.2340 14.1338 12.0508 0.3049 -16.4752
# 2 35.2340 120.8533 13.8799 1.5811 -4.6536 -18.9593
# 3 14.1338 13.8799 20.8700 3.5968 -7.8019 -2.7684
# 4 12.0508 1.5811 3.5968 23.2736 -1.3979 -1.7809
# 5 0.3049 -4.6536 -7.8019 -1.3979 21.9799 8.6989
# 6 -16.4752 -18.9593 -2.7684 -1.7809 8.6989 26.7162
#
#
#
# Elastic Compliance Matrix: (Units=1/GPa)
#
#
# Indices 1 2 3 4 5 6 
#
# 1 0.018221 -0.002553 -0.011568 -0.007221 -0.009670 0.010894
# 2 -0.002553 0.010504 -0.005504 0.001805 -0.001984 0.006076
# 3 -0.011568 -0.005504 0.068921 -0.003601 0.028546 -0.013432
# 4 -0.007221 0.001805 -0.003601 0.047205 0.002714 -0.001282
# 5 -0.009670 -0.001984 0.028546 0.002714 0.065650 -0.025608
# 6 0.010894 0.006076 -0.013432 -0.001282 -0.025608 0.055321
#
#
# Mechanical properties :
#
#
# Convention : Reuss Voigt Hill
#
# Bulk Modulus (GPa) = 17.12407 39.08838 28.10622
# Shear Modulus (GPa) = 15.40662 25.19742 20.30202
#
# Velocity S-wave (km/s) = 2.70027 3.45328 3.09972
# Velocity P-wave (km/s) = 4.22211 5.86510 5.11007
#
# Compressibility (1/GPa) = 0.05839734
#
# Stress axis : x y z
#
# Youngs Moduli (GPa) = 54.88106 95.20162 14.50946
#
# Poissons Ratio (x) = 0.24302 0.16784
# Poissons Ratio (y) = 0.14009 0.07986
# Poissons Ratio (z) = 0.63484 0.52398
#
# Static dielectric constant tensor:
#      x y z
#    x 1.787670 0.001890 -0.028730 
#    y 0.001890 1.755820 -0.029990 
#    z -0.028730 -0.029990 1.761740 
# 
# From -- ./inp_files/404268.got.cif
#   From: 2010.05.17/outbox.cif.g08.bks.cpg/sg2_203_cif.got.tgz:404268.got - 2010.06.03 11:33:40.
