data_PCOD9099585
_publ_section_title
;
Structure prediction by ZEFSAII (Michael W. Deem and Ramdas Pophale) SiO2 
 PCOD9099585
Probable space group: P -1
;
_chemical_formula_sum "Si O2"
_cell_formula_units_Z 16
_cell_length_a 8.314759
_cell_length_b 7.499440
_cell_length_c 10.677967
_cell_angle_alpha 112.286394
_cell_angle_beta 85.823093
_cell_angle_gamma 90.453961
_cell_volume 614.321223
_symmetry_space_group_name_H-M "P -1"
_symmetry_group_IT_number 2
_symmetry_cell_setting 'triclinic'
loop_
_space_group_symop_operation_xyz
x,y,z
-x,-y,-z
loop_
_atom_site_type_symbol
_atom_site_label
_atom_site_fract_x
_atom_site_fract_y
_atom_site_fract_z
Si Si1 0.623236 0.238798 0.944538
Si Si2 0.281363 0.175227 0.047713
Si Si3 0.658368 0.633950 0.663812
Si Si4 0.118784 0.505215 0.873518
Si Si5 0.295467 0.520522 0.639812
Si Si6 0.111675 0.076444 0.794550
Si Si7 0.787676 0.028181 0.680929
Si Si8 0.672144 0.931727 0.422070
O O1 0.432466 0.247214 0.976257
O O2 0.691134 0.210413 0.793015
O O3 0.720082 0.407993 0.049713
O O4 0.673267 0.032831 0.950938
O O5 0.135522 0.126998 0.951151
O O6 0.257637 0.338811 0.198459
O O7 0.467388 0.611227 0.685467
O O8 0.722905 0.488519 0.513019
O O9 0.679093 0.844319 0.660595
O O10 0.146915 0.597230 0.756076
O O11 0.093564 0.282802 0.782538
O O12 0.000000 0.500000 0.000000
O O13 0.327880 0.298635 0.622180
O O14 0.276607 0.999764 0.701438
O O15 0.948998 0.981210 0.737390
O O16 0.803116 0.029817 0.532153
O O17 0.500000 0.000000 0.500000
#
# Coordination Sequence:
#
# PCOD9099585 Si02
#       8
#     2   2   2   2   2   2   2   2
#     4  10  20  37  61  89 120 164 206 251 303 363
#     4  10  21  37  62  90 120 160 210 256 301 359
#     4   9  18  36  60  84 115 155 203 249 294 360
#     4  11  21  39  59  91 126 163 201 252 311 367
#     4   9  19  37  63  88 118 159 205 248 311 355
#     4  11  23  38  61  91 125 165 201 254 312 367
#     4  10  20  37  61  85 121 164 200 248 308 361
#     4  10  21  39  61  89 120 159 208 254 301 368
#
# _framework density 26.045003999999999
#
# number of rings (size 3 to 8) (size 9 to 14) (size 15 to 20)
#    0.000    2.000    2.500    1.125    0.000    3.500 
#    2.250    0.000    0.000    1.500    0.000    0.000 
#    0.000    0.000    0.000    0.000    0.000    0.000 
#
# Total GULP energy -89164.563167 kJ/mol
# GULP energy per Si atom -5572.785198 kJ/mol
# Density = 2.598572 g / cm^3
# Si number density = 26.045004 Si / 1000 Ang^3
#
#
#
# Elastic Constant Matrix: (Units=GPa)
#
#
# Indices 1 2 3 4 5 6 
#
# 1 108.9778 32.7697 67.4399 -8.7302 -2.3536 31.7953
# 2 32.7697 57.1009 15.9143 -0.5353 -1.8934 17.6632
# 3 67.4399 15.9143 154.4261 -25.3608 12.4778 26.1285
# 4 -8.7302 -0.5353 -25.3608 27.3535 8.9009 -6.1279
# 5 -2.3536 -1.8934 12.4778 8.9009 50.8161 -3.9117
# 6 31.7953 17.6632 26.1285 -6.1279 -3.9117 25.7602
#
#
#
# Elastic Compliance Matrix: (Units=1/GPa)
#
#
# Indices 1 2 3 4 5 6 
#
# 1 0.017759 -0.004344 -0.005636 -0.003229 0.001551 -0.013757
# 2 -0.004344 0.023554 0.001190 -0.002611 -0.000131 -0.012636
# 3 -0.005636 0.001190 0.011468 0.009602 -0.005020 -0.003970
# 4 -0.003229 -0.002611 0.009602 0.049251 -0.010760 0.006118
# 5 0.001551 -0.000131 -0.005020 -0.010760 0.023189 0.004229
# 6 -0.013757 -0.012636 -0.003970 0.006118 0.004229 0.070588
#
#
# Mechanical properties :
#
#
# Convention : Reuss Voigt Hill
#
# Bulk Modulus (GPa) = 28.40837 61.41697 44.91267
# Shear Modulus (GPa) = 22.21002 34.41135 28.31069
#
# Velocity S-wave (km/s) = 2.92337 3.63881 3.30053
# Velocity P-wave (km/s) = 4.72502 6.42549 5.63971
#
# Compressibility (1/GPa) = 0.03520089
#
# Stress axis : x y z
#
# Youngs Moduli (GPa) = 56.31092 42.45482 87.19584
#
# Poissons Ratio (x) = 0.18443 0.49141
# Poissons Ratio (y) = 0.24463 -0.10374
# Poissons Ratio (z) = 0.31735 -0.05051
#
# Static dielectric constant tensor:
#      x y z
#    x 2.114220 -0.077430 -0.083360 
#    y -0.077430 2.062350 -0.065070 
#    z -0.083360 -0.065070 2.292550 
# 
# From -- ./inp_files/380307.got.cif
#   From: 2010.05.17/outbox.cif.g08.bks.cpg/sg2_191_cif.got.tgz:380307.got - 2010.06.03 11:33:40.
