data_PCOD9099864
_publ_section_title
;
Structure prediction by ZEFSAII (Michael W. Deem and Ramdas Pophale) SiO2 
 PCOD9099864
Probable space group: P -1
;
_chemical_formula_sum "Si O2"
_cell_formula_units_Z 16
_cell_length_a 23.188003
_cell_length_b 8.763083
_cell_length_c 13.528124
_cell_angle_alpha 55.206413
_cell_angle_beta 161.823535
_cell_angle_gamma 126.149033
_cell_volume 691.856260
_symmetry_space_group_name_H-M "P -1"
_symmetry_group_IT_number 2
_symmetry_cell_setting 'triclinic'
loop_
_space_group_symop_operation_xyz
x,y,z
-x,-y,-z
loop_
_atom_site_type_symbol
_atom_site_label
_atom_site_fract_x
_atom_site_fract_y
_atom_site_fract_z
Si Si1 0.050872 0.170290 0.855905
Si Si2 0.485182 0.436639 0.613002
Si Si3 0.616252 0.831835 0.757100
Si Si4 0.246037 0.156739 0.798189
Si Si5 0.733122 0.882360 0.506210
Si Si6 0.094601 0.484620 0.465695
Si Si7 0.523536 0.237335 0.050671
Si Si8 0.850172 0.251456 0.305337
O O1 0.036558 0.361220 0.823366
O O2 0.896746 0.190696 0.512064
O O3 0.951932 0.977468 0.818347
O O4 0.235413 0.158326 0.096798
O O5 0.500000 0.500000 0.500000
O O6 0.487208 0.625529 0.609525
O O7 0.319407 0.267103 0.436709
O O8 0.670340 0.349715 0.970797
O O9 0.500000 0.000000 0.500000
O O10 0.712136 0.842167 0.017298
O O11 0.094572 0.290840 0.477099
O O12 0.185181 0.942039 0.743119
O O13 0.430776 0.243449 0.004130
O O14 0.618174 0.051353 0.274390
O O15 0.640342 0.785542 0.290128
O O16 0.308595 0.592227 0.765801
O O17 0.022176 0.397900 0.485230
#
# Coordination Sequence:
#
# PCOD9099864 Si02
#       8
#     2   2   2   2   2   2   2   2
#     4  11  22  43  68  98 131 171 224 271 332 387
#     4  12  25  46  68  93 133 180 222 260 328 403
#     4  12  27  45  65  96 134 177 218 276 330 394
#     4  12  22  38  63 101 141 167 214 272 330 385
#     4  10  20  40  68  95 130 174 219 268 327 390
#     4  11  22  34  62 100 133 167 212 275 321 379
#     4  10  20  37  62 104 137 169 210 275 332 383
#     4  12  21  39  66  99 133 167 219 270 317 393
#
# _framework density 23.126193000000001
#
# number of rings (size 3 to 8) (size 9 to 14) (size 15 to 20)
#    0.000    0.750    5.000    4.875    0.000    0.000 
#    0.000    2.500    0.000    0.000    0.000    0.000 
#    0.000    0.000    0.000    0.000    0.000    0.000 
#
# Total GULP energy -89462.773008 kJ/mol
# GULP energy per Si atom -5591.423313 kJ/mol
# Density = 2.307356 g / cm^3
# Si number density = 23.126193 Si / 1000 Ang^3
#
#
#
# Elastic Constant Matrix: (Units=GPa)
#
#
# Indices 1 2 3 4 5 6 
#
# 1 83.9575 49.0279 36.5704 0.1260 23.4714 18.9921
# 2 49.0279 159.1204 35.8959 -14.5545 19.9646 14.1463
# 3 36.5704 35.8959 84.4024 -25.2602 17.7268 5.6711
# 4 0.1260 -14.5545 -25.2602 29.9210 3.2931 22.4969
# 5 23.4714 19.9646 17.7268 3.2931 48.4890 4.6219
# 6 18.9921 14.1463 5.6711 22.4969 4.6219 54.5326
#
#
#
# Elastic Compliance Matrix: (Units=1/GPa)
#
#
# Indices 1 2 3 4 5 6 
#
# 1 0.019202 -0.004153 -0.007605 -0.006818 -0.004184 -0.001652
# 2 -0.004153 0.008782 0.001816 0.009718 -0.002470 -0.004821
# 3 -0.007605 0.001816 0.028456 0.037578 -0.008539 -0.015561
# 4 -0.006818 0.009718 0.037578 0.106912 -0.017249 -0.046698
# 5 -0.004184 -0.002470 -0.008539 -0.017249 0.027216 0.007795
# 6 -0.001652 -0.004821 -0.015561 -0.046698 0.007795 0.040386
#
#
# Mechanical properties :
#
#
# Convention : Reuss Voigt Hill
#
# Bulk Modulus (GPa) = 27.35480 63.38540 45.37010
# Shear Modulus (GPa) = 19.00982 40.32091 29.66537
#
# Velocity S-wave (km/s) = 2.87017 4.18007 3.58545
# Velocity P-wave (km/s) = 4.77891 7.12498 6.06644
#
# Compressibility (1/GPa) = 0.03655666
#
# Stress axis : x y z
#
# Youngs Moduli (GPa) = 52.07805 113.87077 35.14170
#
# Poissons Ratio (x) = 0.47288 0.26724
# Poissons Ratio (y) = 0.21627 -0.06380
# Poissons Ratio (z) = 0.39603 -0.20675
#
# Static dielectric constant tensor:
#      x y z
#    x 1.888050 -0.020820 0.002980 
#    y -0.020820 1.931500 0.038170 
#    z 0.002980 0.038170 1.908360 
# 
# From -- ./inp_files/542521.got.cif
#   From: 2010.05.17/outbox.cif.g08.bks.cpg/sg2_272_cif.got.tgz:542521.got - 2010.06.03 11:33:40.
