data_PCOD9099778
_publ_section_title
;
Structure prediction by ZEFSAII (Michael W. Deem and Ramdas Pophale) SiO2 
 PCOD9099778
Probable space group: P -1
;
_chemical_formula_sum "Si O2"
_cell_formula_units_Z 14
_cell_length_a 6.349608
_cell_length_b 11.918611
_cell_length_c 15.013428
_cell_angle_alpha 141.877817
_cell_angle_beta 57.055104
_cell_angle_gamma 107.054799
_cell_volume 568.429377
_symmetry_space_group_name_H-M "P -1"
_symmetry_group_IT_number 2
_symmetry_cell_setting 'triclinic'
loop_
_space_group_symop_operation_xyz
x,y,z
-x,-y,-z
loop_
_atom_site_type_symbol
_atom_site_label
_atom_site_fract_x
_atom_site_fract_y
_atom_site_fract_z
Si Si1 0.695173 0.605313 0.634539
Si Si2 0.763999 0.394277 0.821402
Si Si3 0.564363 0.692784 0.917000
Si Si4 0.134094 0.054953 0.919521
Si Si5 0.014402 0.665519 0.011427
Si Si6 0.540997 0.057496 0.627301
Si Si7 0.516776 0.741306 0.565565
O O1 0.626494 0.711655 0.810813
O O2 0.634583 0.712009 0.620047
O O3 0.516491 0.456698 0.583544
O O4 0.000000 0.500000 0.500000
O O5 0.755275 0.504248 0.797793
O O6 0.740930 0.185808 0.677899
O O7 0.500000 0.500000 0.000000
O O8 0.982403 0.457493 0.869439
O O9 0.616413 0.871712 0.066266
O O10 0.282211 0.672763 0.997295
O O11 0.953449 0.233393 0.025738
O O12 0.222309 0.871978 0.725236
O O13 0.000000 0.000000 0.000000
O O14 0.743698 0.803355 0.193892
O O15 0.500000 0.000000 0.500000
O O16 0.624672 0.868658 0.550671
#
# Coordination Sequence:
#
# PCOD9099778 Si02
#       7
#     2   2   2   2   2   2   2
#     4  11  24  42  62  86 123 164 203 249 307 369
#     4   9  20  39  61  88 125 160 202 251 299 360
#     4  11  22  39  65  91 119 163 206 245 305 365
#     4  10  20  37  61  92 125 155 198 253 302 360
#     4   9  21  38  61  91 123 157 199 250 301 359
#     4  10  20  40  66  92 124 162 205 251 305 368
#     4  10  23  40  60  90 124 155 202 256 304 357
#
# _framework density 24.629269000000001
#
# number of rings (size 3 to 8) (size 9 to 14) (size 15 to 20)
#    0.000    2.000    0.000    3.429    0.000   10.286 
#    0.000    4.286    0.000   15.429    0.000    0.000 
#    0.000    0.000    0.000    0.000    0.000    0.000 
#
# Total GULP energy -78192.762992 kJ/mol
# GULP energy per Si atom -5585.197357 kJ/mol
# Density = 2.457321 g / cm^3
# Si number density = 24.629269 Si / 1000 Ang^3
#
#
#
# Elastic Constant Matrix: (Units=GPa)
#
#
# Indices 1 2 3 4 5 6 
#
# 1 101.9943 39.2859 21.5171 12.0698 5.0671 4.2506
# 2 39.2859 165.4326 33.8399 19.7482 16.3306 -16.3354
# 3 21.5171 33.8399 91.3889 8.1021 16.2219 1.3346
# 4 12.0698 19.7482 8.1021 37.7867 3.1326 -0.2007
# 5 5.0671 16.3306 16.2219 3.1326 32.9586 -5.2063
# 6 4.2506 -16.3354 1.3346 -0.2007 -5.2063 35.5649
#
#
#
# Elastic Compliance Matrix: (Units=1/GPa)
#
#
# Indices 1 2 3 4 5 6 
#
# 1 0.011398 -0.002373 -0.001590 -0.002074 0.000024 -0.002401
# 2 -0.002373 0.007857 -0.001842 -0.002786 -0.001774 0.003686
# 3 -0.001590 -0.001842 0.013084 -0.000888 -0.005507 -0.001958
# 4 -0.002074 -0.002786 -0.000888 0.028831 -0.000753 -0.000946
# 5 0.000024 -0.001774 -0.005507 -0.000753 0.034704 0.004465
# 6 -0.002401 0.003686 -0.001958 -0.000946 0.004465 0.030819
#
#
# Mechanical properties :
#
#
# Convention : Reuss Voigt Hill
#
# Bulk Modulus (GPa) = 48.24571 60.90021 54.57296
# Shear Modulus (GPa) = 34.43177 38.87357 36.65267
#
# Velocity S-wave (km/s) = 3.74304 3.97715 3.86187
# Velocity P-wave (km/s) = 6.18965 6.77280 6.48778
#
# Compressibility (1/GPa) = 0.02072723
#
# Stress axis : x y z
#
# Youngs Moduli (GPa) = 87.73125 127.27504 76.43052
#
# Poissons Ratio (x) = 0.30207 0.12154
# Poissons Ratio (y) = 0.20822 0.14081
# Poissons Ratio (z) = 0.13951 0.23449
#
# Static dielectric constant tensor:
#      x y z
#    x 2.007160 -0.036280 -0.035880 
#    y -0.036280 1.999850 -0.029050 
#    z -0.035880 -0.029050 1.932240 
# 
# From -- ./inp_files/427231.got.cif
#   From: 2010.05.17/outbox.cif.g08.bks.cpg/sg2_214_cif.got.tgz:427231.got - 2010.06.03 11:33:40.
