data_PCOD9099600
_publ_section_title
;
Structure prediction by ZEFSAII (Michael W. Deem and Ramdas Pophale) SiO2 
 PCOD9099600
Probable space group: P -1
;
_chemical_formula_sum "Si O2"
_cell_formula_units_Z 16
_cell_length_a 9.380059
_cell_length_b 20.063015
_cell_length_c 8.331054
_cell_angle_alpha 49.180123
_cell_angle_beta 47.819269
_cell_angle_gamma 36.137557
_cell_volume 662.517917
_symmetry_space_group_name_H-M "P -1"
_symmetry_group_IT_number 2
_symmetry_cell_setting 'triclinic'
loop_
_space_group_symop_operation_xyz
x,y,z
-x,-y,-z
loop_
_atom_site_type_symbol
_atom_site_label
_atom_site_fract_x
_atom_site_fract_y
_atom_site_fract_z
Si Si1 0.131166 0.105981 0.138484
Si Si2 0.398303 0.638468 0.141116
Si Si3 0.449943 0.211429 0.194650
Si Si4 0.767151 0.633439 0.337844
Si Si5 0.665525 0.335169 0.224212
Si Si6 0.122244 0.267873 0.633974
Si Si7 0.075586 0.586907 0.902615
Si Si8 0.535437 0.105498 0.981198
O O1 0.848846 0.194821 0.283946
O O2 0.226405 0.990450 0.159865
O O3 0.339301 0.082968 0.140179
O O4 0.133405 0.181218 0.880950
O O5 0.393179 0.745447 0.986604
O O6 0.407345 0.613578 0.981901
O O7 0.145852 0.669212 0.351792
O O8 0.664600 0.527276 0.189104
O O9 0.374197 0.196981 0.447322
O O10 0.165874 0.320979 0.169855
O O11 0.578682 0.107640 0.133320
O O12 0.579374 0.614060 0.566518
O O13 0.595134 0.764943 0.186079
O O14 0.889010 0.641890 0.389439
O O15 0.973102 0.551501 0.174438
O O16 0.840792 0.352147 0.156720
#
# Coordination Sequence:
#
# PCOD9099600 Si02
#       8
#     2   2   2   2   2   2   2   2
#     4   9  18  39  63  86 113 155 190 238 284 346
#     4  11  23  38  61  83 121 156 191 242 291 338
#     4  11  22  39  58  88 120 153 186 242 295 342
#     4  10  20  37  61  86 116 154 196 239 281 343
#     4  11  20  37  63  87 113 154 197 238 284 340
#     4  10  21  38  59  84 122 153 190 237 292 342
#     4  11  23  40  58  88 117 151 203 240 280 342
#     4   9  19  38  62  85 120 148 191 239 288 340
#
# _framework density 24.150292
#
# number of rings (size 3 to 8) (size 9 to 14) (size 15 to 20)
#    0.000    1.750    6.250    0.750    0.000    5.000 
#    0.000    2.500    0.000    0.000    0.000    0.000 
#    0.000    0.000    0.000    0.000    0.000    0.000 
#
# Total GULP energy -89473.801740 kJ/mol
# GULP energy per Si atom -5592.112609 kJ/mol
# Density = 2.409533 g / cm^3
# Si number density = 24.150292 Si / 1000 Ang^3
#
#
#
# Elastic Constant Matrix: (Units=GPa)
#
#
# Indices 1 2 3 4 5 6 
#
# 1 94.2798 -6.5615 10.8003 5.6858 -14.6736 12.3364
# 2 -6.5615 56.4385 -10.0822 14.8492 -2.3065 3.5422
# 3 10.8003 -10.0822 84.9073 15.2449 -15.3857 1.0917
# 4 5.6858 14.8492 15.2449 26.3717 -6.2044 5.4081
# 5 -14.6736 -2.3065 -15.3857 -6.2044 21.3502 9.0756
# 6 12.3364 3.5422 1.0917 5.4081 9.0756 27.6282
#
#
#
# Elastic Compliance Matrix: (Units=1/GPa)
#
#
# Indices 1 2 3 4 5 6 
#
# 1 0.015125 0.003456 0.001774 0.000702 0.017898 -0.013284
# 2 0.003456 0.023887 0.006472 -0.015487 0.006854 -0.004081
# 3 0.001774 0.006472 0.016443 -0.009517 0.012990 -0.004676
# 4 0.000702 -0.015487 -0.009517 0.058467 0.015036 -0.014336
# 5 0.017898 0.006854 0.012990 0.015036 0.091646 -0.042432
# 6 -0.013284 -0.004081 -0.004676 -0.014336 -0.042432 0.059579
#
#
# Mechanical properties :
#
#
# Convention : Reuss Voigt Hill
#
# Bulk Modulus (GPa) = 12.68070 24.88210 18.78140
# Shear Modulus (GPa) = 18.65458 31.16796 24.91127
#
# Velocity S-wave (km/s) = 2.78229 3.59637 3.21520
# Velocity P-wave (km/s) = 3.94761 5.25076 4.64511
#
# Compressibility (1/GPa) = 0.07886001
#
# Stress axis : x y z
#
# Youngs Moduli (GPa) = 66.11401 41.86325 60.81568
#
# Poissons Ratio (x) = -0.14467 -0.10791
# Poissons Ratio (y) = -0.22848 -0.39360
# Poissons Ratio (z) = -0.11731 -0.27094
#
# Static dielectric constant tensor:
#      x y z
#    x 1.951260 -0.038680 0.040490 
#    y -0.038680 1.998140 -0.015150 
#    z 0.040490 -0.015150 1.906390 
# 
# From -- ./inp_files/200611.got.cif
#   From: 2010.05.17/outbox.cif.g08.bks.cpg/sg2_101_cif.got.tgz:200611.got - 2010.06.03 11:33:40.
