data_PCOD9099042
_publ_section_title
;
Structure prediction by ZEFSAII (Michael W. Deem and Ramdas Pophale) SiO2 
 PCOD9099042
Probable space group: P -1
;
_chemical_formula_sum "Si O2"
_cell_formula_units_Z 16
_cell_length_a 14.409905
_cell_length_b 11.371482
_cell_length_c 6.122660
_cell_angle_alpha 93.518172
_cell_angle_beta 47.313563
_cell_angle_gamma 112.880559
_cell_volume 648.448694
_symmetry_space_group_name_H-M "P -1"
_symmetry_group_IT_number 2
_symmetry_cell_setting 'triclinic'
loop_
_space_group_symop_operation_xyz
x,y,z
-x,-y,-z
loop_
_atom_site_type_symbol
_atom_site_label
_atom_site_fract_x
_atom_site_fract_y
_atom_site_fract_z
Si Si1 0.677701 0.086886 0.750123
Si Si2 0.193150 0.062316 0.739078
Si Si3 0.588066 0.890093 0.230844
Si Si4 0.682460 0.724896 0.803179
Si Si5 0.904973 0.775980 0.835620
Si Si6 0.238806 0.442784 0.587593
Si Si7 0.715201 0.277721 0.369291
Si Si8 0.012507 0.627434 0.360226
O O1 0.784597 0.056494 0.418642
O O2 0.716664 0.233234 0.614220
O O3 0.684873 0.028567 0.967696
O O4 0.500000 0.000000 0.000000
O O5 0.331780 0.119415 0.684668
O O6 0.217570 0.159290 0.509595
O O7 0.075507 0.082475 0.078277
O O8 0.423223 0.848254 0.527409
O O9 0.575335 0.776269 0.064822
O O10 0.775873 0.732084 0.864063
O O11 0.645578 0.593700 0.707862
O O12 0.017576 0.745471 0.520742
O O13 0.849744 0.668260 0.104271
O O14 0.297353 0.587572 0.610785
O O15 0.128667 0.427401 0.570321
O O16 0.855644 0.312244 0.010098
O O17 0.000000 0.500000 0.500000
#
# Coordination Sequence:
#
# PCOD9099042 Si02
#       8
#     2   2   2   2   2   2   2   2
#     4   9  20  38  55  84 118 147 189 234 275 336
#     4   9  17  37  62  81 113 155 182 235 286 326
#     4   9  19  38  58  85 117 146 188 233 281 335
#     4   8  17  35  60  83 112 147 186 233 285 337
#     4   9  18  36  61  82 108 155 188 233 282 326
#     4  10  20  37  59  82 114 152 187 231 287 334
#     4  11  22  36  55  86 118 151 189 229 278 343
#     4  11  22  39  56  83 118 149 191 234 276 336
#
# _framework density 24.674271999999998
#
# number of rings (size 3 to 8) (size 9 to 14) (size 15 to 20)
#    0.000    2.500    1.250    0.375    0.000    2.500 
#    9.000    6.250    0.000   25.500    0.000    0.000 
#    0.000    0.000    0.000    0.000    0.000    0.000 
#
# Total GULP energy -89194.384741 kJ/mol
# GULP energy per Si atom -5574.649046 kJ/mol
# Density = 2.461811 g / cm^3
# Si number density = 24.674272 Si / 1000 Ang^3
#
#
#
# Elastic Constant Matrix: (Units=GPa)
#
#
# Indices 1 2 3 4 5 6 
#
# 1 42.0375 3.8499 19.3477 -22.3118 11.0746 -19.0824
# 2 3.8499 99.1516 40.9122 15.6061 -7.3589 -6.1851
# 3 19.3477 40.9122 111.4560 -0.7907 -12.0522 0.4598
# 4 -22.3118 15.6061 -0.7907 48.7891 -0.2377 5.3405
# 5 11.0746 -7.3589 -12.0522 -0.2377 33.8874 -3.3774
# 6 -19.0824 -6.1851 0.4598 5.3405 -3.3774 32.9717
#
#
#
# Elastic Compliance Matrix: (Units=1/GPa)
#
#
# Indices 1 2 3 4 5 6 
#
# 1 0.062635 -0.000878 -0.012882 0.025335 -0.022084 0.029899
# 2 -0.000878 0.013081 -0.004503 -0.004978 0.001790 0.002998
# 3 -0.012882 -0.004503 0.013662 -0.003407 0.007351 -0.007186
# 4 0.025335 -0.004978 -0.003407 0.032753 -0.009596 0.007488
# 5 -0.022084 0.001790 0.007351 -0.009596 0.038965 -0.007002
# 6 0.029899 0.002998 -0.007186 0.007488 -0.007002 0.046366
#
#
# Mechanical properties :
#
#
# Convention : Reuss Voigt Hill
#
# Bulk Modulus (GPa) = 18.92124 42.31829 30.61976
# Shear Modulus (GPa) = 19.11269 35.69867 27.40568
#
# Velocity S-wave (km/s) = 2.78618 3.80781 3.33633
# Velocity P-wave (km/s) = 4.24682 6.04322 5.22283
#
# Compressibility (1/GPa) = 0.05285066
#
# Stress axis : x y z
#
# Youngs Moduli (GPa) = 15.96549 76.44476 73.19674
#
# Poissons Ratio (x) = 0.06713 0.94293
# Poissons Ratio (y) = 0.01402 0.32964
# Poissons Ratio (z) = 0.20567 0.34427
#
# Static dielectric constant tensor:
#      x y z
#    x 2.006630 0.011120 -0.048580 
#    y 0.011120 2.018410 0.101070 
#    z -0.048580 0.101070 1.939620 
# 
# From -- ./inp_files/76989.got.cif
#   From: 2010.05.17/outbox.cif.g08.bks.cpg/sg2_39_cif.got.tgz:76989.got - 2010.06.03 11:33:40.
