data_PCOD9099139
_publ_section_title
;
Structure prediction by ZEFSAII (Michael W. Deem and Ramdas Pophale) SiO2 
 PCOD9099139
Probable space group: P -1
;
_chemical_formula_sum "Si O2"
_cell_formula_units_Z 15
_cell_length_a 15.605840
_cell_length_b 5.459752
_cell_length_c 11.958555
_cell_angle_alpha 134.801340
_cell_angle_beta 54.876711
_cell_angle_gamma 122.816965
_cell_volume 574.734419
_symmetry_space_group_name_H-M "P -1"
_symmetry_group_IT_number 2
_symmetry_cell_setting 'triclinic'
loop_
_space_group_symop_operation_xyz
x,y,z
-x,-y,-z
loop_
_atom_site_type_symbol
_atom_site_label
_atom_site_fract_x
_atom_site_fract_y
_atom_site_fract_z
Si Si1 0.167096 0.952289 0.090185
Si Si2 0.981140 0.327067 0.334121
Si Si3 0.651206 0.451990 0.905030
Si Si4 0.485452 0.590489 0.232674
Si Si5 0.408035 0.618078 0.538214
Si Si6 0.828357 0.697146 0.327931
Si Si7 0.000000 0.500000 0.000000
Si Si8 0.840081 0.047800 0.663294
O O1 0.050179 0.019856 0.157116
O O2 0.278589 0.136873 0.010366
O O3 0.116925 0.536828 0.004643
O O4 0.178882 0.130668 0.260131
O O5 0.047954 0.658986 0.323508
O O6 0.000000 0.500000 0.500000
O O7 0.864083 0.067984 0.351302
O O8 0.587035 0.372987 0.810400
O O9 0.745190 0.246054 0.777232
O O10 0.568316 0.379549 0.047645
O O11 0.412955 0.474500 0.360467
O O12 0.560729 0.957197 0.339596
O O13 0.500000 0.500000 0.500000
O O14 0.296685 0.471882 0.638216
O O15 0.911606 0.460133 0.159194
O O16 0.843745 0.789802 0.476922
#
# Coordination Sequence:
#
# PCOD9099139 Si02
#       8
#     2   2   2   2   2   2   1   2
#     4  10  20  37  59  86 120 158 199 250 309 370
#     4   8  18  34  54  83 114 147 196 245 292 359
#     4  10  21  40  62  90 123 160 212 262 308 367
#     4  10  23  40  61  90 124 163 211 263 310 365
#     4  11  23  41  63  92 127 166 208 256 316 375
#     4  10  20  38  59  85 121 160 200 250 307 366
#     4  10  22  36  56  88 122 154 194 248 308 368
#     4  10  20  37  63  89 117 162 209 252 307 372
#
# _framework density 26.099012999999999
#
# number of rings (size 3 to 8) (size 9 to 14) (size 15 to 20)
#    0.000    2.133    0.000    2.400    0.000    6.933 
#    0.000   18.667    0.000    0.000    0.000    0.000 
#    0.000    0.000    0.000    0.000    0.000    0.000 
#
# Total GULP energy -83517.877545 kJ/mol
# GULP energy per Si atom -5567.858503 kJ/mol
# Density = 2.603961 g / cm^3
# Si number density = 26.099013 Si / 1000 Ang^3
#
#
#
# Elastic Constant Matrix: (Units=GPa)
#
#
# Indices 1 2 3 4 5 6 
#
# 1 99.0473 22.5938 57.2386 -4.4399 -18.8860 31.8188
# 2 22.5938 124.1048 34.0963 -22.4019 -14.8390 50.7273
# 3 57.2386 34.0963 208.8188 -19.0755 -6.4802 8.4334
# 4 -4.4399 -22.4019 -19.0755 30.2619 7.7544 -5.1769
# 5 -18.8860 -14.8390 -6.4802 7.7544 40.3064 -4.9706
# 6 31.8188 50.7273 8.4334 -5.1769 -4.9706 43.4870
#
#
#
# Elastic Compliance Matrix: (Units=1/GPa)
#
#
# Indices 1 2 3 4 5 6 
#
# 1 0.020352 0.007705 -0.005766 -0.000974 0.008938 -0.021856
# 2 0.007705 0.021367 -0.003512 0.008418 0.005813 -0.028215
# 3 -0.005766 -0.003512 0.006828 0.002714 -0.002553 0.007023
# 4 -0.000974 0.008418 0.002714 0.041348 -0.005535 -0.005343
# 5 0.008938 0.005813 -0.002553 -0.005535 0.030560 -0.009992
# 6 -0.021856 -0.028215 0.007023 -0.005343 -0.009992 0.068759
#
#
# Mechanical properties :
#
#
# Convention : Reuss Voigt Hill
#
# Bulk Modulus (GPa) = 22.02555 73.31424 47.66990
# Shear Modulus (GPa) = 24.09719 44.01386 34.05553
#
# Velocity S-wave (km/s) = 3.04188 4.11106 3.61620
# Velocity P-wave (km/s) = 4.56015 7.11942 5.97834
#
# Compressibility (1/GPa) = 0.04540181
#
# Stress axis : x y z
#
# Youngs Moduli (GPa) = 49.13470 46.80129 146.46100
#
# Poissons Ratio (x) = -0.36061 0.84445
# Poissons Ratio (y) = -0.37859 0.51438
# Poissons Ratio (z) = 0.28330 0.16437
#
# Static dielectric constant tensor:
#      x y z
#    x 2.168180 -0.049670 0.095010 
#    y -0.049670 2.647080 0.519050 
#    z 0.095010 0.519050 2.647610 
# 
# From -- ./inp_files/459357.got.cif
#   From: 2010.05.17/outbox.cif.g08.bks.cpg/sg2_230_cif.got.tgz:459357.got - 2010.06.03 11:33:40.
