data_PCOD9099858
_publ_section_title
;
Structure prediction by ZEFSAII (Michael W. Deem and Ramdas Pophale) SiO2 
 PCOD9099858
Probable space group: P -1
;
_chemical_formula_sum "Si O2"
_cell_formula_units_Z 16
_cell_length_a 8.008970
_cell_length_b 12.313175
_cell_length_c 9.651195
_cell_angle_alpha 103.163268
_cell_angle_beta 63.327701
_cell_angle_gamma 126.787145
_cell_volume 679.998851
_symmetry_space_group_name_H-M "P -1"
_symmetry_group_IT_number 2
_symmetry_cell_setting 'triclinic'
loop_
_space_group_symop_operation_xyz
x,y,z
-x,-y,-z
loop_
_atom_site_type_symbol
_atom_site_label
_atom_site_fract_x
_atom_site_fract_y
_atom_site_fract_z
Si Si1 0.437482 0.709393 0.246317
Si Si2 0.127276 0.262644 0.034238
Si Si3 0.194503 0.822116 0.404706
Si Si4 0.229041 0.918317 0.107849
Si Si5 0.216496 0.543551 0.023866
Si Si6 0.772107 0.517345 0.507061
Si Si7 0.082687 0.114188 0.292884
Si Si8 0.496592 0.647769 0.681641
O O1 0.431675 0.835314 0.337102
O O2 0.287337 0.653498 0.146521
O O3 0.316961 0.585649 0.362809
O O4 0.680114 0.741859 0.121654
O O5 0.200561 0.416218 0.059268
O O6 0.096692 0.200341 0.179047
O O7 0.902267 0.184309 0.000086
O O8 0.175067 0.850199 0.259686
O O9 0.015252 0.661051 0.461824
O O10 0.127613 0.906134 0.546875
O O11 0.118828 0.004438 0.183824
O O12 0.500000 0.000000 0.000000
O O13 0.413319 0.612342 0.857871
O O14 0.000000 0.500000 0.000000
O O15 0.618125 0.574189 0.581989
O O16 0.714045 0.421127 0.366372
O O17 0.297421 0.195015 0.344493
#
# Coordination Sequence:
#
# PCOD9099858 Si02
#       8
#     2   2   2   2   2   2   2   2
#     4  12  23  42  70 109 146 176 224 282 351 422
#     4  12  25  45  73 103 138 183 230 287 346 407
#     4  11  25  46  68 102 141 182 229 283 348 410
#     4  12  28  51  72  97 133 186 243 291 337 399
#     4  12  23  38  68 106 144 180 221 279 351 419
#     4  10  21  38  67 102 143 178 213 279 351 418
#     4  11  25  46  71  97 139 183 233 285 335 404
#     4  10  20  37  62 100 136 176 222 272 345 406
#
# _framework density 23.529453
#
# number of rings (size 3 to 8) (size 9 to 14) (size 15 to 20)
#    0.000    0.750    2.500    6.000    5.250    1.000 
#    0.000    1.250    0.000    0.000    0.000    0.000 
#    0.000    0.000    0.000    0.000    0.000    0.000 
#
# Total GULP energy -89346.810939 kJ/mol
# GULP energy per Si atom -5584.175684 kJ/mol
# Density = 2.347590 g / cm^3
# Si number density = 23.529453 Si / 1000 Ang^3
#
#
#
# Elastic Constant Matrix: (Units=GPa)
#
#
# Indices 1 2 3 4 5 6 
#
# 1 118.5270 -7.2231 68.4233 -14.2959 -14.1722 -23.0268
# 2 -7.2231 51.4462 -1.3428 19.4825 -11.9472 17.0852
# 3 68.4233 -1.3428 170.2181 0.0441 4.1248 -19.6533
# 4 -14.2959 19.4825 0.0441 23.8471 -5.8965 -2.6989
# 5 -14.1722 -11.9472 4.1248 -5.8965 39.4405 9.9600
# 6 -23.0268 17.0852 -19.6533 -2.6989 9.9600 39.0747
#
#
#
# Elastic Compliance Matrix: (Units=1/GPa)
#
#
# Indices 1 2 3 4 5 6 
#
# 1 0.015393 -0.006248 -0.005287 0.016452 0.004334 0.009176
# 2 -0.006248 0.049574 -0.001218 -0.044356 0.014536 -0.032740
# 3 -0.005287 -0.001218 0.008383 -0.002949 -0.004219 0.002505
# 4 0.016452 -0.044356 -0.002949 0.091384 -0.002265 0.034496
# 5 0.004334 0.014536 -0.004219 -0.002265 0.035220 -0.015057
# 6 0.009176 -0.032740 0.002505 0.034496 -0.015057 0.052795
#
#
# Mechanical properties :
#
#
# Convention : Reuss Voigt Hill
#
# Bulk Modulus (GPa) = 20.90118 51.10068 36.00093
# Shear Modulus (GPa) = 16.99502 39.16139 28.07820
#
# Velocity S-wave (km/s) = 2.69046 4.08408 3.45820
# Velocity P-wave (km/s) = 4.30740 6.63359 5.59277
#
# Compressibility (1/GPa) = 0.04784419
#
# Stress axis : x y z
#
# Youngs Moduli (GPa) = 64.96300 20.17171 119.29428
#
# Poissons Ratio (x) = 0.12603 0.63070
# Poissons Ratio (y) = 0.40588 0.14533
# Poissons Ratio (z) = 0.34345 0.02457
#
# Static dielectric constant tensor:
#      x y z
#    x 1.934150 0.072790 -0.023110 
#    y 0.072790 1.955170 0.017400 
#    z -0.023110 0.017400 1.867980 
# 
# From -- ./inp_files/215125.got.cif
#   From: 2010.05.17/outbox.cif.g08.bks.cpg/sg2_108_cif.got.tgz:215125.got - 2010.06.03 11:33:40.
