data_PCOD9099002
_publ_section_title
;
Structure prediction by ZEFSAII (Michael W. Deem and Ramdas Pophale) SiO2 
 PCOD9099002
Probable space group: P -1
;
_chemical_formula_sum "Si O2"
_cell_formula_units_Z 14
_cell_length_a 12.725863
_cell_length_b 9.554114
_cell_length_c 9.420571
_cell_angle_alpha 74.041641
_cell_angle_beta 67.543891
_cell_angle_gamma 34.912288
_cell_volume 604.236583
_symmetry_space_group_name_H-M "P -1"
_symmetry_group_IT_number 2
_symmetry_cell_setting 'triclinic'
loop_
_space_group_symop_operation_xyz
x,y,z
-x,-y,-z
loop_
_atom_site_type_symbol
_atom_site_label
_atom_site_fract_x
_atom_site_fract_y
_atom_site_fract_z
Si Si1 0.081300 0.352058 0.320581
Si Si2 0.589731 0.042071 0.523785
Si Si3 0.928507 0.938579 0.642923
Si Si4 0.512102 0.603315 0.336882
Si Si5 0.173998 0.123861 0.792596
Si Si6 0.122752 0.692161 0.907397
Si Si7 0.294346 0.189613 0.978528
O O1 0.986412 0.294235 0.411629
O O2 0.171431 0.239646 0.149877
O O3 0.952513 0.624474 0.293926
O O4 0.249317 0.192186 0.391287
O O5 0.458160 0.272604 0.631148
O O6 0.500000 0.000000 0.500000
O O7 0.675181 0.066294 0.355606
O O8 0.005059 0.863047 0.783309
O O9 0.698445 0.172812 0.684989
O O10 0.000000 0.000000 0.500000
O O11 0.500000 0.500000 0.500000
O O12 0.678300 0.423620 0.182393
O O13 0.280363 0.101672 0.872033
O O14 0.027137 0.157625 0.925023
O O15 0.192384 0.450645 0.934813
O O16 0.500000 0.000000 0.000000
#
# Coordination Sequence:
#
# PCOD9099002 Si02
#       7
#     2   2   2   2   2   2   2
#     4  10  20  37  58  91 125 173 209 253 326 401
#     4  11  24  39  62  99 134 162 213 276 331 381
#     4  11  20  36  64  93 122 168 228 265 301 383
#     4  11  24  42  65  93 125 177 227 258 315 403
#     4  11  21  38  60  93 133 164 202 283 338 368
#     4  11  21  38  63  91 125 167 221 260 316 387
#     4  11  19  33  62  93 127 165 213 265 320 390
#
# _framework density 23.169733999999998
#
# number of rings (size 3 to 8) (size 9 to 14) (size 15 to 20)
#    0.000    1.143    4.286    4.714    0.000    0.000 
#    0.000    0.714    0.000    0.857    0.000    0.000 
#    0.000    0.000    0.000    0.000    0.000    0.000 
#
# Total GULP energy -78196.926705 kJ/mol
# GULP energy per Si atom -5585.494765 kJ/mol
# Density = 2.311700 g / cm^3
# Si number density = 23.169734 Si / 1000 Ang^3
#
#
#
# Elastic Constant Matrix: (Units=GPa)
#
#
# Indices 1 2 3 4 5 6 
#
# 1 67.5109 20.6944 23.9631 -9.6433 -12.5444 -15.8095
# 2 20.6944 64.6908 39.7060 -11.5996 0.7115 -21.3001
# 3 23.9631 39.7060 145.8008 -3.2192 -17.8471 -3.8532
# 4 -9.6433 -11.5996 -3.2192 56.1419 -5.1889 1.8860
# 5 -12.5444 0.7115 -17.8471 -5.1889 46.7055 -2.1981
# 6 -15.8095 -21.3001 -3.8532 1.8860 -2.1981 29.0456
#
#
#
# Elastic Compliance Matrix: (Units=1/GPa)
#
#
# Indices 1 2 3 4 5 6 
#
# 1 0.019603 -0.001509 -0.001831 0.003128 0.005384 0.009524
# 2 -0.001509 0.026480 -0.006673 0.004055 -0.002095 0.017290
# 3 -0.001831 -0.006673 0.009190 -0.000757 0.002830 -0.004408
# 4 0.003128 0.004055 -0.000757 0.019283 0.002798 0.003535
# 5 0.005384 -0.002095 0.002830 0.002798 0.024443 0.003438
# 6 0.009524 0.017290 -0.004408 0.003535 0.003438 0.051738
#
#
# Mechanical properties :
#
#
# Convention : Reuss Voigt Hill
#
# Bulk Modulus (GPa) = 28.37234 49.63662 39.00448
# Shear Modulus (GPa) = 27.39542 39.28786 33.34164
#
# Velocity S-wave (km/s) = 3.44230 4.12230 3.79755
# Velocity P-wave (km/s) = 5.29824 6.64284 6.00827
#
# Compressibility (1/GPa) = 0.03524559
#
# Stress axis : x y z
#
# Youngs Moduli (GPa) = 51.01374 37.76454 108.81249
#
# Poissons Ratio (x) = 0.05700 0.19922
# Poissons Ratio (y) = 0.07700 0.72612
# Poissons Ratio (z) = 0.09340 0.25201
#
# Static dielectric constant tensor:
#      x y z
#    x 1.922070 0.014840 -0.047440 
#    y 0.014840 1.935940 0.056610 
#    z -0.047440 0.056610 1.892740 
# 
# From -- ./inp_files/278685.got.cif
#   From: 2010.05.17/outbox.cif.g08.bks.cpg/sg2_140_cif.got.tgz:278685.got - 2010.06.03 11:33:40.
