data_PCOD9099131
_publ_section_title
;
Structure prediction by ZEFSAII (Michael W. Deem and Ramdas Pophale) SiO2 
 PCOD9099131
Probable space group: P -1
;
_chemical_formula_sum "Si O2"
_cell_formula_units_Z 13
_cell_length_a 7.572603
_cell_length_b 11.812522
_cell_length_c 11.694703
_cell_angle_alpha 151.005904
_cell_angle_beta 66.867857
_cell_angle_gamma 113.155407
_cell_volume 463.404801
_symmetry_space_group_name_H-M "P -1"
_symmetry_group_IT_number 2
_symmetry_cell_setting 'triclinic'
loop_
_space_group_symop_operation_xyz
x,y,z
-x,-y,-z
loop_
_atom_site_type_symbol
_atom_site_label
_atom_site_fract_x
_atom_site_fract_y
_atom_site_fract_z
Si Si1 0.638494 0.036173 0.322522
Si Si2 0.058231 0.605567 0.778510
Si Si3 0.637892 0.690250 0.201410
Si Si4 0.918055 0.760366 0.373920
Si Si5 0.247820 0.503984 0.405831
Si Si6 0.350384 0.995381 0.168669
Si Si7 0.500000 0.500000 0.500000
O O1 0.498818 0.169573 0.558958
O O2 0.782399 0.239062 0.406260
O O3 0.505715 0.913219 0.147648
O O4 0.731737 0.864324 0.232513
O O5 0.977881 0.419415 0.731739
O O6 0.202363 0.500308 0.552442
O O7 0.886482 0.664969 0.789949
O O8 0.194637 0.813175 0.983704
O O9 0.798277 0.609343 0.172667
O O10 0.500000 0.500000 0.000000
O O11 0.784549 0.865764 0.593240
O O12 0.000000 0.000000 0.500000
O O13 0.471308 0.498237 0.362900
O O14 0.461270 0.203016 0.248250
#
# Coordination Sequence:
#
# PCOD9099131 Si02
#       7
#     2   2   2   2   2   2   1
#     4   9  20  38  57  86 122 155 200 256 295 355
#     4  11  23  41  62  93 124 162 205 250 318 360
#     4  10  20  37  59  86 116 159 207 243 298 361
#     4  11  23  40  61  89 128 159 206 255 301 372
#     4  10  22  41  61  90 126 156 204 258 300 374
#     4  10  22  40  63  90 124 165 202 256 306 363
#     4  10  20  42  62  86 124 156 204 248 302 362
#
# _framework density 28.053225999999999
#
# number of rings (size 3 to 8) (size 9 to 14) (size 15 to 20)
#    0.000    1.846    1.538    1.846    0.000    4.923 
#    8.308    0.000    0.000    0.000    0.000    0.000 
#    0.000    0.000    0.000    0.000    0.000    0.000 
#
# Total GULP energy -72542.732360 kJ/mol
# GULP energy per Si atom -5580.210182 kJ/mol
# Density = 2.798938 g / cm^3
# Si number density = 28.053226 Si / 1000 Ang^3
#
#
#
# Elastic Constant Matrix: (Units=GPa)
#
#
# Indices 1 2 3 4 5 6 
#
# 1 132.7913 46.4384 71.3922 -8.3980 50.5771 -40.6821
# 2 46.4384 204.1339 49.5663 21.0623 25.1062 -25.9231
# 3 71.3922 49.5663 153.9051 -21.6475 61.5086 -22.4015
# 4 -8.3980 21.0623 -21.6475 32.5490 -5.2053 10.3415
# 5 50.5771 25.1062 61.5086 -5.2053 64.5662 -17.8047
# 6 -40.6821 -25.9231 -22.4015 10.3415 -17.8047 59.2926
#
#
#
# Elastic Compliance Matrix: (Units=1/GPa)
#
#
# Indices 1 2 3 4 5 6 
#
# 1 0.013394 -0.000766 -0.002851 -0.000839 -0.005845 0.006169
# 2 -0.000766 0.006740 -0.002716 -0.007154 0.000783 0.002878
# 3 -0.002851 -0.002716 0.013388 0.009221 -0.009417 -0.002521
# 4 -0.000839 -0.007154 0.009221 0.043466 -0.004352 -0.009108
# 5 -0.005845 0.000783 -0.009417 -0.004352 0.029000 0.002242
# 6 0.006169 0.002878 -0.002521 -0.009108 0.002242 0.023666
#
#
# Mechanical properties :
#
#
# Convention : Reuss Voigt Hill
#
# Bulk Modulus (GPa) = 47.94421 91.73600 69.84011
# Shear Modulus (GPa) = 33.49614 52.84379 43.16996
#
# Velocity S-wave (km/s) = 3.45921 4.34487 3.92709
# Velocity P-wave (km/s) = 5.75173 7.61198 6.74628
#
# Compressibility (1/GPa) = 0.02085758
#
# Stress axis : x y z
#
# Youngs Moduli (GPa) = 74.65845 148.37474 74.69471
#
# Poissons Ratio (x) = 0.11365 0.21292
# Poissons Ratio (y) = 0.05719 0.20284
# Poissons Ratio (z) = 0.21282 0.40293
#
# Static dielectric constant tensor:
#      x y z
#    x -0.329000 -0.591420 -0.068580 
#    y -0.591420 2.058670 0.027260 
#    z -0.068580 0.027260 2.272090 
# 
# From -- ./inp_files/23668.got.cif
#   From: 2010.05.17/outbox.cif.g08.bks.cpg/sg2_12_cif.got.tgz:23668.got - 2010.06.03 11:33:40.
