data_PCOD9099288
_publ_section_title
;
Structure prediction by ZEFSAII (Michael W. Deem and Ramdas Pophale) SiO2 
 PCOD9099288
Probable space group: P -1
;
_chemical_formula_sum "Si O2"
_cell_formula_units_Z 16
_cell_length_a 7.783022
_cell_length_b 5.859623
_cell_length_c 23.221774
_cell_angle_alpha 113.299020
_cell_angle_beta 138.634039
_cell_angle_gamma 59.073187
_cell_volume 600.288698
_symmetry_space_group_name_H-M "P -1"
_symmetry_group_IT_number 2
_symmetry_cell_setting 'triclinic'
loop_
_space_group_symop_operation_xyz
x,y,z
-x,-y,-z
loop_
_atom_site_type_symbol
_atom_site_label
_atom_site_fract_x
_atom_site_fract_y
_atom_site_fract_z
Si Si1 0.698298 0.105581 0.599899
Si Si2 0.720542 0.925361 0.099487
Si Si3 0.173827 0.572367 0.851159
Si Si4 0.378758 0.664467 0.578131
Si Si5 0.069086 0.358239 0.317342
Si Si6 0.887921 0.817397 0.383849
Si Si7 0.194799 0.046990 0.103665
Si Si8 0.206755 0.543258 0.106445
O O1 0.483058 0.372797 0.600595
O O2 0.929329 0.118242 0.613824
O O3 0.500000 0.000000 0.500000
O O4 0.879356 0.938261 0.681420
O O5 0.660406 0.717860 0.108312
O O6 0.011475 0.729930 0.125917
O O7 0.713097 0.227125 0.137381
O O8 0.500000 0.000000 0.000000
O O9 0.973545 0.539171 0.747936
O O10 0.011147 0.767149 0.881061
O O11 0.619490 0.642865 0.590157
O O12 0.082738 0.729264 0.480152
O O13 0.360177 0.913232 0.637841
O O14 0.845052 0.557840 0.322969
O O15 0.343820 0.245392 0.137289
O O16 0.345476 0.748312 0.136451
O O17 0.000000 0.000000 0.000000
O O18 0.000000 0.500000 0.000000
#
# Coordination Sequence:
#
# PCOD9099288 Si02
#       8
#     2   2   2   2   2   2   2   2
#     4  11  19  35  59  92 121 172 220 260 314 388
#     4  10  20  37  60  83 110 149 204 248 313 396
#     4  10  22  35  61  87 118 161 197 264 334 377
#     4  10  21  37  60  90 122 169 220 266 315 380
#     4  11  22  38  61  84 133 165 211 266 332 390
#     4  10  21  37  60  89 127 166 217 270 311 381
#     4   8  14  28  49  74 101 132 183 227 284 357
#     4   8  14  26  49  74  97 126 168 227 276 333
#
# _framework density 26.653843999999999
#
# number of rings (size 3 to 8) (size 9 to 14) (size 15 to 20)
#    0.000    2.250    2.500    1.125    3.500    1.500 
#    0.000    0.000   22.000    0.000    0.000    0.000 
#    0.000    0.000    0.000    0.000    0.000    0.000 
#
# Total GULP energy -89201.692260 kJ/mol
# GULP energy per Si atom -5575.105766 kJ/mol
# Density = 2.659318 g / cm^3
# Si number density = 26.653844 Si / 1000 Ang^3
#
#
#
# Elastic Constant Matrix: (Units=GPa)
#
#
# Indices 1 2 3 4 5 6 
#
# 1 99.1451 48.7439 -0.4927 -11.3055 -15.6118 20.6103
# 2 48.7439 278.2932 51.7691 -31.5291 -25.2376 16.0361
# 3 -0.4927 51.7691 81.4704 -25.6832 -15.1243 3.5177
# 4 -11.3055 -31.5291 -25.6832 36.8960 6.0820 -15.2086
# 5 -15.6118 -25.2376 -15.1243 6.0820 27.4199 2.0854
# 6 20.6103 16.0361 3.5177 -15.2086 2.0854 55.9993
#
#
#
# Elastic Compliance Matrix: (Units=1/GPa)
#
#
# Indices 1 2 3 4 5 6 
#
# 1 0.013338 -0.001811 0.003442 0.001847 0.007750 -0.004394
# 2 -0.001811 0.004655 -0.002143 0.001576 0.001734 -0.000168
# 3 0.003442 -0.002143 0.018603 0.011306 0.007668 0.000963
# 4 0.001847 0.001576 0.011306 0.040892 -0.001040 0.009303
# 5 0.007750 0.001734 0.007668 -0.001040 0.047386 -0.005878
# 6 -0.004394 -0.000168 0.000963 0.009303 -0.005878 0.022208
#
#
# Mechanical properties :
#
#
# Convention : Reuss Voigt Hill
#
# Bulk Modulus (GPa) = 28.11183 73.21661 50.66422
# Shear Modulus (GPa) = 31.25740 47.98894 39.62317
#
# Velocity S-wave (km/s) = 3.42821 4.24778 3.85981
# Velocity P-wave (km/s) = 5.12251 7.18242 6.23808
#
# Compressibility (1/GPa) = 0.03557222
#
# Stress axis : x y z
#
# Youngs Moduli (GPa) = 74.97270 214.83685 53.75531
#
# Poissons Ratio (x) = 0.38914 -0.18504
# Poissons Ratio (y) = 0.13580 0.11518
# Poissons Ratio (z) = -0.25808 0.46033
#
# Static dielectric constant tensor:
#      x y z
#    x 2.142920 0.103180 0.008620 
#    y 0.103180 2.271650 -0.003950 
#    z 0.008620 -0.003950 2.116160 
# 
# From -- ./inp_files/605890.got.cif
#   From: 2010.05.17/outbox.cif.g08.bks.cpg/sg2_303_cif.got.tgz:605890.got - 2010.06.03 11:33:40.
