data_PCOD9099435
_publ_section_title
;
Structure prediction by ZEFSAII (Michael W. Deem and Ramdas Pophale) SiO2 
 PCOD9099435
Probable space group: P -1
;
_chemical_formula_sum "Si O2"
_cell_formula_units_Z 12
_cell_length_a 20.067126
_cell_length_b 10.198916
_cell_length_c 7.310280
_cell_angle_alpha 110.176930
_cell_angle_beta 49.891299
_cell_angle_gamma 147.777841
_cell_volume 531.640464
_symmetry_space_group_name_H-M "P -1"
_symmetry_group_IT_number 2
_symmetry_cell_setting 'triclinic'
loop_
_space_group_symop_operation_xyz
x,y,z
-x,-y,-z
loop_
_atom_site_type_symbol
_atom_site_label
_atom_site_fract_x
_atom_site_fract_y
_atom_site_fract_z
Si Si1 0.703271 0.331232 0.809486
Si Si2 0.953488 0.552605 0.755634
Si Si3 0.718347 0.795556 0.538853
Si Si4 0.394334 0.514156 0.079630
Si Si5 0.424012 0.681328 0.479651
Si Si6 0.248174 0.721943 0.673871
O O1 0.794719 0.416358 0.875022
O O2 0.703756 0.497622 0.852959
O O3 0.798898 0.381892 0.499264
O O4 0.500000 0.000000 0.000000
O O5 0.000000 0.500000 0.500000
O O6 0.889953 0.415521 0.000850
O O7 0.118939 0.884836 0.648741
O O8 0.729154 0.763109 0.719478
O O9 0.693620 0.613457 0.392478
O O10 0.537125 0.630085 0.766925
O O11 0.496803 0.729530 0.175281
O O12 0.315583 0.666740 0.608845
O O13 0.582186 0.941112 0.456705
#
# Coordination Sequence:
#
# PCOD9099435 Si02
#       6
#     2   2   2   2   2   2
#     4  11  22  39  64  90 118 160 205 239 296 366
#     4  12  25  38  62  90 122 161 196 253 305 343
#     4   9  18  35  63  87 121 155 197 247 300 349
#     4   8  17  35  60  87 113 158 201 239 291 361
#     4   8  15  33  59  81 114 158 190 239 292 346
#     4  10  20  37  60  89 120 156 202 243 294 360
#
# _framework density 22.571643999999999
#
# number of rings (size 3 to 8) (size 9 to 14) (size 15 to 20)
#    1.000    1.333    0.000    5.000    0.000    2.000 
#    0.000    0.000    0.000    5.000    0.000    0.000 
#    0.000    0.000    0.000    0.000    0.000    0.000 
#
# Total GULP energy -66970.219210 kJ/mol
# GULP energy per Si atom -5580.851601 kJ/mol
# Density = 2.252027 g / cm^3
# Si number density = 22.571644 Si / 1000 Ang^3
#
#
#
# Elastic Constant Matrix: (Units=GPa)
#
#
# Indices 1 2 3 4 5 6 
#
# 1 70.6476 4.6140 9.0658 10.8745 1.1171 7.3159
# 2 4.6140 91.3694 19.4384 1.3876 5.8480 -15.3964
# 3 9.0658 19.4384 78.4241 6.6208 12.4292 1.9889
# 4 10.8745 1.3876 6.6208 30.2863 0.6127 0.4864
# 5 1.1171 5.8480 12.4292 0.6127 23.0308 10.6642
# 6 7.3159 -15.3964 1.9889 0.4864 10.6642 24.1712
#
#
#
# Elastic Compliance Matrix: (Units=1/GPa)
#
#
# Indices 1 2 3 4 5 6 
#
# 1 0.016020 -0.002015 -0.001374 -0.005320 0.004217 -0.007773
# 2 -0.002015 0.014427 -0.002358 0.000532 -0.008709 0.013825
# 3 -0.001374 -0.002358 0.014926 -0.002521 -0.007886 0.001215
# 4 -0.005320 0.000532 -0.002521 0.035434 -0.000160 0.001514
# 5 0.004217 -0.008709 -0.007886 -0.000160 0.066035 -0.035306
# 6 -0.007773 0.013825 0.001215 0.001514 -0.035306 0.067977
#
#
# Mechanical properties :
#
#
# Convention : Reuss Voigt Hill
#
# Bulk Modulus (GPa) = 29.51873 34.07527 31.79700
# Shear Modulus (GPa) = 21.04311 29.31919 25.18115
#
# Velocity S-wave (km/s) = 3.05664 3.60799 3.34370
# Velocity P-wave (km/s) = 5.05604 5.69965 5.38747
#
# Compressibility (1/GPa) = 0.03387680
#
# Stress axis : x y z
#
# Youngs Moduli (GPa) = 62.42256 69.31433 66.99532
#
# Poissons Ratio (x) = 0.13970 0.09208
# Poissons Ratio (y) = 0.12581 0.15799
# Poissons Ratio (z) = 0.08580 0.16346
#
# Static dielectric constant tensor:
#      x y z
#    x 1.852000 -0.047810 0.006050 
#    y -0.047810 1.814330 0.020250 
#    z 0.006050 0.020250 1.877640 
# 
# From -- ./inp_files/353118.got.cif
#   From: 2010.05.17/outbox.cif.g08.bks.cpg/sg2_177_cif.got.tgz:353118.got - 2010.06.03 11:33:40.
