data_PCOD9099506
_publ_section_title
;
Structure prediction by ZEFSAII (Michael W. Deem and Ramdas Pophale) SiO2 
 PCOD9099506
Probable space group: P -1
;
_chemical_formula_sum "Si O2"
_cell_formula_units_Z 16
_cell_length_a 22.219705
_cell_length_b 12.598791
_cell_length_c 15.043159
_cell_angle_alpha 137.790400
_cell_angle_beta 154.168581
_cell_angle_gamma 24.840997
_cell_volume 701.061973
_symmetry_space_group_name_H-M "P -1"
_symmetry_group_IT_number 2
_symmetry_cell_setting 'triclinic'
loop_
_space_group_symop_operation_xyz
x,y,z
-x,-y,-z
loop_
_atom_site_type_symbol
_atom_site_label
_atom_site_fract_x
_atom_site_fract_y
_atom_site_fract_z
Si Si1 0.906795 0.672580 0.316959
Si Si2 0.525452 0.500577 0.667393
Si Si3 0.563717 0.988988 0.389781
Si Si4 0.614992 0.169177 0.928167
Si Si5 0.909454 0.116718 0.803129
Si Si6 0.402455 0.800196 0.279687
Si Si7 0.860606 0.242918 0.268613
Si Si8 0.510539 0.107090 0.195057
O O1 0.164322 0.341459 0.451767
O O2 0.971519 0.798020 0.477789
O O3 0.747769 0.804774 0.278004
O O4 0.722997 0.780464 0.066126
O O5 0.773508 0.207055 0.769211
O O6 0.304418 0.645586 0.403520
O O7 0.511907 0.442268 0.710550
O O8 0.527042 0.687626 0.774434
O O9 0.368568 0.029958 0.152560
O O10 0.525885 0.129569 0.513976
O O11 0.544101 0.097624 0.338114
O O12 0.516841 0.263726 0.754185
O O13 0.409394 0.434663 0.883030
O O14 0.837603 0.082731 0.170457
O O15 0.049034 0.846642 0.768594
O O16 0.108168 0.065087 0.048449
#
# Coordination Sequence:
#
# PCOD9099506 Si02
#       8
#     2   2   2   2   2   2   2   2
#     4  10  22  41  62  93 127 163 204 262 317 374
#     4  11  22  38  62  92 132 159 204 263 310 383
#     4  11  22  41  66  88 128 166 206 264 309 370
#     4   9  21  41  64  93 122 171 217 252 303 373
#     4  10  20  37  60  92 123 158 207 255 313 363
#     4  11  23  39  63  94 124 170 208 254 315 367
#     4   9  18  41  63  86 125 161 212 255 302 366
#     4  11  23  41  61  97 127 161 209 255 324 373
#
# _framework density 22.822520000000001
#
# number of rings (size 3 to 8) (size 9 to 14) (size 15 to 20)
#    0.000    1.750    1.250    3.375    0.000    1.000 
#   22.500    6.250    0.000   10.500    0.000    0.000 
#    0.000    0.000    0.000    0.000    0.000    0.000 
#
# Total GULP energy -89329.791346 kJ/mol
# GULP energy per Si atom -5583.111959 kJ/mol
# Density = 2.277057 g / cm^3
# Si number density = 22.822520 Si / 1000 Ang^3
#
#
#
# Elastic Constant Matrix: (Units=GPa)
#
#
# Indices 1 2 3 4 5 6 
#
# 1 64.0244 34.4097 -16.7567 -2.7638 -11.9071 0.1800
# 2 34.4097 79.0194 30.2096 26.9394 -2.7335 -4.7515
# 3 -16.7567 30.2096 108.8445 18.1760 11.3091 12.4273
# 4 -2.7638 26.9394 18.1760 28.2473 2.0699 3.7428
# 5 -11.9071 -2.7335 11.3091 2.0699 26.8976 6.6204
# 6 0.1800 -4.7515 12.4273 3.7428 6.6204 31.7919
#
#
#
# Elastic Compliance Matrix: (Units=1/GPa)
#
#
# Indices 1 2 3 4 5 6 
#
# 1 0.037264 -0.029520 0.009991 0.026425 0.010674 -0.013862
# 2 -0.029520 0.044311 -0.011686 -0.039531 -0.004796 0.017010
# 3 0.009991 -0.011686 0.014292 0.004023 -0.001210 -0.007611
# 4 0.026425 -0.039531 0.004023 0.075076 0.004496 -0.017405
# 5 0.010674 -0.004796 -0.001210 0.004496 0.044041 -0.010005
# 6 -0.013862 0.017010 -0.007611 -0.017405 -0.010005 0.041183
#
#
# Mechanical properties :
#
#
# Convention : Reuss Voigt Hill
#
# Bulk Modulus (GPa) = 29.90576 38.62372 34.26474
# Shear Modulus (GPa) = 15.16339 30.98907 23.07623
#
# Velocity S-wave (km/s) = 2.58040 3.68887 3.18326
# Velocity P-wave (km/s) = 4.69148 5.92486 5.34387
#
# Compressibility (1/GPa) = 0.03343837
#
# Stress axis : x y z
#
# Youngs Moduli (GPa) = 26.83559 22.56771 69.97036
#
# Poissons Ratio (x) = 0.66619 -0.69907
# Poissons Ratio (y) = 0.79218 0.81764
# Poissons Ratio (z) = -0.26811 0.26372
#
# Static dielectric constant tensor:
#      x y z
#    x 1.832350 0.004230 0.025860 
#    y 0.004230 1.895170 0.021920 
#    z 0.025860 0.021920 1.867580 
# 
# From -- ./inp_files/541125.got.cif
#   From: 2010.05.17/outbox.cif.g08.bks.cpg/sg2_271_cif.got.tgz:541125.got - 2010.06.03 11:33:40.
