data_PCOD9099143
_publ_section_title
;
Structure prediction by ZEFSAII (Michael W. Deem and Ramdas Pophale) SiO2 
 PCOD9099143
Probable space group: P -1
;
_chemical_formula_sum "Si O2"
_cell_formula_units_Z 16
_cell_length_a 10.581891
_cell_length_b 23.448757
_cell_length_c 10.367981
_cell_angle_alpha 157.310289
_cell_angle_beta 124.289888
_cell_angle_gamma 44.763005
_cell_volume 657.781047
_symmetry_space_group_name_H-M "P -1"
_symmetry_group_IT_number 2
_symmetry_cell_setting 'triclinic'
loop_
_space_group_symop_operation_xyz
x,y,z
-x,-y,-z
loop_
_atom_site_type_symbol
_atom_site_label
_atom_site_fract_x
_atom_site_fract_y
_atom_site_fract_z
Si Si1 0.215949 0.237963 0.449059
Si Si2 0.571738 0.152056 0.116413
Si Si3 0.564881 0.132643 0.791453
Si Si4 0.215041 0.142031 0.878352
Si Si5 0.850808 0.068119 0.438772
Si Si6 0.546175 0.655786 0.303756
Si Si7 0.945682 0.280321 0.796489
Si Si8 0.831665 0.596842 0.959133
O O1 0.375871 0.223486 0.424673
O O2 0.210536 0.352022 0.808952
O O3 0.283513 0.043771 0.138835
O O4 0.999292 0.385104 0.585338
O O5 0.642985 0.144682 0.997904
O O6 0.367428 0.185121 0.054405
O O7 0.532115 0.303731 0.510640
O O8 0.368801 0.330497 0.065408
O O9 0.500000 0.000000 0.500000
O O10 0.690849 0.038176 0.538715
O O11 0.016478 0.293444 0.007891
O O12 0.189177 0.083523 0.881849
O O13 0.636467 0.261125 0.720030
O O14 0.939833 0.106146 0.448557
O O15 0.000000 0.000000 0.500000
O O16 0.740033 0.452019 0.990451
O O17 0.093628 0.286011 0.805537
#
# Coordination Sequence:
#
# PCOD9099143 Si02
#       8
#     2   2   2   2   2   2   2   2
#     4  10  19  30  51  79 107 132 164 225 256 306
#     4  11  19  32  53  80 112 135 160 221 268 318
#     4  10  16  31  54  78 106 134 169 214 255 314
#     4  10  18  34  56  83  99 138 178 208 261 298
#     4  10  21  36  55  73  99 142 182 217 245 309
#     4  11  22  34  51  81 107 138 169 214 277 298
#     4  10  20  34  52  77 107 136 179 213 242 315
#     4  10  17  31  51  79 103 132 180 208 256 293
#
# _framework density 24.324204999999999
#
# number of rings (size 3 to 8) (size 9 to 14) (size 15 to 20)
#    0.000    1.750    6.250    0.750    0.000    0.500 
#    0.000    0.000    0.000    7.500    0.000    0.000 
#    0.000    0.000    0.000    0.000    0.000    0.000 
#
# Total GULP energy -89138.164214 kJ/mol
# GULP energy per Si atom -5571.135263 kJ/mol
# Density = 2.426884 g / cm^3
# Si number density = 24.324205 Si / 1000 Ang^3
#
#
#
# Elastic Constant Matrix: (Units=GPa)
#
#
# Indices 1 2 3 4 5 6 
#
# 1 71.8634 32.2112 25.6680 0.7702 -2.2984 5.3363
# 2 32.2112 139.4005 31.4530 36.8339 -12.6116 -9.7038
# 3 25.6680 31.4530 37.5527 17.5580 -22.9929 -3.9864
# 4 0.7702 36.8339 17.5580 39.0933 0.4086 -11.3618
# 5 -2.2984 -12.6116 -22.9929 0.4086 28.9775 -0.0020
# 6 5.3363 -9.7038 -3.9864 -11.3618 -0.0020 46.1623
#
#
#
# Elastic Compliance Matrix: (Units=1/GPa)
#
#
# Indices 1 2 3 4 5 6 
#
# 1 0.057400 -0.012357 -0.115670 0.062310 -0.093486 -0.003890
# 2 -0.012357 0.012967 0.020736 -0.021307 0.021418 0.000702
# 3 -0.115670 0.020736 0.324922 -0.164354 0.259986 0.005349
# 4 0.062310 -0.021307 -0.164354 0.120789 -0.136445 0.003849
# 5 -0.093486 0.021418 0.259986 -0.136445 0.244633 0.004188
# 6 -0.003890 0.000702 0.005349 0.003849 0.004188 0.023669
#
#
# Mechanical properties :
#
#
# Convention : Reuss Voigt Hill
#
# Bulk Modulus (GPa) = 5.53385 47.49791 26.51588
# Shear Modulus (GPa) = 4.72055 33.47891 19.09973
#
# Velocity S-wave (km/s) = 1.39459 3.71396 2.80521
# Velocity P-wave (km/s) = 2.20753 6.16123 4.62785
#
# Compressibility (1/GPa) = 0.18070597
#
# Stress axis : x y z
#
# Youngs Moduli (GPa) = 17.42150 77.12045 3.07766
#
# Poissons Ratio (x) = 0.95301 0.35599
# Poissons Ratio (y) = 0.21528 -0.06382
# Poissons Ratio (z) = 2.01515 -1.59920
#
# Static dielectric constant tensor:
#      x y z
#    x 1.986280 -0.010080 0.018820 
#    y -0.010080 2.035310 -0.005730 
#    z 0.018820 -0.005730 1.960920 
# 
# From -- ./inp_files/439427.got.cif
#   From: 2010.05.17/outbox.cif.g08.bks.cpg/sg2_220_cif.got.tgz:439427.got - 2010.06.03 11:33:40.
