data_PCOD9099061
_publ_section_title
;
Structure prediction by ZEFSAII (Michael W. Deem and Ramdas Pophale) SiO2 
 PCOD9099061
Probable space group: P -1
;
_chemical_formula_sum "Si O2"
_cell_formula_units_Z 16
_cell_length_a 15.404239
_cell_length_b 11.737490
_cell_length_c 7.662430
_cell_angle_alpha 128.582105
_cell_angle_beta 66.082865
_cell_angle_gamma 75.999573
_cell_volume 714.336852
_symmetry_space_group_name_H-M "P -1"
_symmetry_group_IT_number 2
_symmetry_cell_setting 'triclinic'
loop_
_space_group_symop_operation_xyz
x,y,z
-x,-y,-z
loop_
_atom_site_type_symbol
_atom_site_label
_atom_site_fract_x
_atom_site_fract_y
_atom_site_fract_z
Si Si1 0.416660 0.456906 0.192762
Si Si2 0.005879 0.104980 0.432356
Si Si3 0.013218 0.328071 0.905606
Si Si4 0.748517 0.090005 0.137878
Si Si5 0.139707 0.294917 0.111026
Si Si6 0.269681 0.509331 0.699881
Si Si7 0.732569 0.547258 0.979932
Si Si8 0.372843 0.702358 0.892035
O O1 0.352507 0.431601 0.381391
O O2 0.375848 0.421114 0.014936
O O3 0.570254 0.308443 0.979938
O O4 0.347280 0.690390 0.480816
O O5 0.866663 0.305630 0.656838
O O6 0.114766 0.965115 0.061678
O O7 0.000000 0.000000 0.500000
O O8 0.061250 0.185114 0.567076
O O9 0.873544 0.403397 0.141810
O O10 0.104618 0.242284 0.914942
O O11 0.000000 0.500000 0.000000
O O12 0.785568 0.900521 0.017284
O O13 0.678783 0.130091 0.047418
O O14 0.223108 0.349116 0.045572
O O15 0.000000 0.500000 0.500000
O O16 0.274937 0.669197 0.927437
O O17 0.314557 0.375018 0.708115
O O18 0.500000 0.500000 0.500000
#
# Coordination Sequence:
#
# PCOD9099061 Si02
#       8
#     2   2   2   2   2   2   2   2
#     4  10  22  40  65  85 111 158 203 248 294 327
#     4  11  22  35  54  86 122 148 194 239 292 355
#     4  11  20  36  54  82 122 161 180 227 298 356
#     4  10  20  37  59  83 117 151 192 244 290 349
#     4  12  22  37  53  86 126 157 189 227 290 370
#     4   9  18  36  58  83 117 148 193 239 289 336
#     4  11  22  37  57  89 121 154 192 239 292 357
#     4   8  18  40  61  83 112 152 199 252 292 326
#
# _framework density 22.398396999999999
#
# number of rings (size 3 to 8) (size 9 to 14) (size 15 to 20)
#    0.000    2.000    3.750    3.750    1.750    1.000 
#    0.000    0.625    0.000    8.250    0.000    0.000 
#    0.000    0.000    0.000    0.000    0.000    0.000 
#
# Total GULP energy -89173.787660 kJ/mol
# GULP energy per Si atom -5573.361729 kJ/mol
# Density = 2.234742 g / cm^3
# Si number density = 22.398397 Si / 1000 Ang^3
#
#
#
# Elastic Constant Matrix: (Units=GPa)
#
#
# Indices 1 2 3 4 5 6 
#
# 1 126.9595 47.0505 5.0843 15.5579 1.4681 -15.4964
# 2 47.0505 179.6999 15.3894 24.0146 -12.3026 4.9257
# 3 5.0843 15.3894 12.6423 2.1886 -4.9216 -0.7282
# 4 15.5579 24.0146 2.1886 28.8153 1.1933 -1.3057
# 5 1.4681 -12.3026 -4.9216 1.1933 22.9344 -3.3472
# 6 -15.4964 4.9257 -0.7282 -1.3057 -3.3472 46.1646
#
#
#
# Elastic Compliance Matrix: (Units=1/GPa)
#
#
# Indices 1 2 3 4 5 6 
#
# 1 0.009505 -0.002180 -0.000988 -0.003038 -0.001361 0.003223
# 2 -0.002180 0.007574 -0.006496 -0.004831 0.002830 -0.001574
# 3 -0.000988 -0.006496 0.094688 -0.001828 0.017441 0.003068
# 4 -0.003038 -0.004831 -0.001828 0.040722 -0.004869 0.000266
# 5 -0.001361 0.002830 0.017441 -0.004869 0.049639 0.002978
# 6 0.003223 -0.001574 0.003068 0.000266 0.002978 0.023183
#
#
# Mechanical properties :
#
#
# Convention : Reuss Voigt Hill
#
# Bulk Modulus (GPa) = 10.81781 50.48333 30.65057
# Shear Modulus (GPa) = 18.15199 36.36803 27.26001
#
# Velocity S-wave (km/s) = 2.84987 4.03387 3.49241
# Velocity P-wave (km/s) = 3.95843 6.65462 5.47509
#
# Compressibility (1/GPa) = 0.09244018
#
# Stress axis : x y z
#
# Youngs Moduli (GPa) = 105.20441 132.02494 10.56105
#
# Poissons Ratio (x) = 0.28778 0.01043
# Poissons Ratio (y) = 0.22932 0.06861
# Poissons Ratio (z) = 0.10390 0.85766
#
# Static dielectric constant tensor:
#      x y z
#    x 1.867320 -0.016330 -0.048800 
#    y -0.016330 1.910870 -0.051320 
#    z -0.048800 -0.051320 1.900560 
# 
# From -- ./inp_files/305882.got.cif
#   From: 2010.05.17/outbox.cif.g08.bks.cpg/sg2_153_cif.got.tgz:305882.got - 2010.06.03 11:33:40.
