data_PCOD9099302
_publ_section_title
;
Structure prediction by ZEFSAII (Michael W. Deem and Ramdas Pophale) SiO2 
 PCOD9099302
Probable space group: P -1
;
_chemical_formula_sum "Si O2"
_cell_formula_units_Z 12
_cell_length_a 11.422543
_cell_length_b 14.204961
_cell_length_c 10.297313
_cell_angle_alpha 149.088299
_cell_angle_beta 118.407647
_cell_angle_gamma 42.017544
_cell_volume 507.063238
_symmetry_space_group_name_H-M "P -1"
_symmetry_group_IT_number 2
_symmetry_cell_setting 'triclinic'
loop_
_space_group_symop_operation_xyz
x,y,z
-x,-y,-z
loop_
_atom_site_type_symbol
_atom_site_label
_atom_site_fract_x
_atom_site_fract_y
_atom_site_fract_z
Si Si1 0.194103 0.186866 0.548849
Si Si2 0.402498 0.338400 0.800677
Si Si3 0.523177 0.202145 0.411097
Si Si4 0.662961 0.387326 0.558608
Si Si5 0.077607 0.964599 0.357944
Si Si6 0.769871 0.625785 0.759911
O O1 0.253498 0.336280 0.773966
O O2 0.006477 0.371341 0.573025
O O3 0.402225 0.873004 0.256298
O O4 0.116070 0.141410 0.571950
O O5 0.477549 0.204061 0.537742
O O6 0.277558 0.647034 0.071664
O O7 0.584730 0.351206 0.597329
O O8 0.335691 0.338390 0.383684
O O9 0.698166 0.900850 0.085280
O O10 0.500000 0.500000 0.500000
O O11 0.685890 0.581579 0.780113
O O12 0.896036 0.094407 0.320233
O O13 0.000000 0.000000 0.500000
#
# Coordination Sequence:
#
# PCOD9099302 Si02
#       6
#     2   2   2   2   2   2
#     4  10  23  39  57  86 115 146 187 231 277 330
#     4  11  24  38  56  85 116 147 185 232 278 327
#     4  10  20  37  60  84 114 147 184 228 277 332
#     4   9  19  37  60  84 109 146 189 228 274 331
#     4  11  23  40  60  80 111 151 188 230 280 331
#     4   9  20  38  59  84 113 149 185 224 277 331
#
# _framework density 23.665686000000001
#
# number of rings (size 3 to 8) (size 9 to 14) (size 15 to 20)
#    0.000    2.000    0.000    2.500    0.000    8.667 
#    0.000    9.167    0.000    0.000    0.000    0.000 
#    0.000    0.000    0.000    0.000    0.000    0.000 
#
# Total GULP energy -66915.951845 kJ/mol
# GULP energy per Si atom -5576.329320 kJ/mol
# Density = 2.361182 g / cm^3
# Si number density = 23.665686 Si / 1000 Ang^3
#
#
#
# Elastic Constant Matrix: (Units=GPa)
#
#
# Indices 1 2 3 4 5 6 
#
# 1 117.9186 40.1261 1.7953 4.2340 17.0718 -9.0293
# 2 40.1261 156.4931 60.3841 38.8839 -17.2849 -40.4864
# 3 1.7953 60.3841 44.3231 20.1553 -8.3124 -5.5838
# 4 4.2340 38.8839 20.1553 33.7083 -1.3536 -8.2045
# 5 17.0718 -17.2849 -8.3124 -1.3536 32.5099 16.2721
# 6 -9.0293 -40.4864 -5.5838 -8.2045 16.2721 37.0231
#
#
#
# Elastic Compliance Matrix: (Units=1/GPa)
#
#
# Indices 1 2 3 4 5 6 
#
# 1 0.011904 -0.006807 0.006132 0.002517 -0.008547 0.000699
# 2 -0.006807 0.028299 -0.032657 -0.006561 -0.001882 0.023734
# 3 0.006132 -0.032657 0.071084 -0.012894 0.013135 -0.032126
# 4 0.002517 -0.006561 -0.012894 0.045619 -0.008988 0.005554
# 5 -0.008547 -0.001882 0.013135 -0.008988 0.050398 -0.026304
# 6 0.000699 0.023734 -0.032126 0.005554 -0.026304 0.061081
#
#
# Mechanical properties :
#
#
# Convention : Reuss Voigt Hill
#
# Bulk Modulus (GPa) = 22.41064 58.14953 40.28009
# Shear Modulus (GPa) = 14.28880 35.07689 24.68285
#
# Velocity S-wave (km/s) = 2.45985 3.85409 3.23302
# Velocity P-wave (km/s) = 4.19024 6.66558 5.56723
#
# Compressibility (1/GPa) = 0.04462165
#
# Stress axis : x y z
#
# Youngs Moduli (GPa) = 84.00521 35.33657 14.06791
#
# Poissons Ratio (x) = 0.24054 -0.08626
# Poissons Ratio (y) = 0.57184 0.45942
# Poissons Ratio (z) = -0.51512 1.15400
#
# Static dielectric constant tensor:
#      x y z
#    x 1.899670 -0.017670 0.011260 
#    y -0.017670 1.940760 0.052150 
#    z 0.011260 0.052150 1.865930 
# 
# From -- ./inp_files/116159.got.cif
#   From: 2010.05.17/outbox.cif.g08.bks.cpg/sg2_59_cif.got.tgz:116159.got - 2010.06.03 11:33:40.
