data_PCOD9099402
_publ_section_title
;
Structure prediction by ZEFSAII (Michael W. Deem and Ramdas Pophale) SiO2 
 PCOD9099402
Probable space group: P -1
;
_chemical_formula_sum "Si O2"
_cell_formula_units_Z 16
_cell_length_a 12.076858
_cell_length_b 15.718065
_cell_length_c 12.311484
_cell_angle_alpha 27.516057
_cell_angle_beta 123.138082
_cell_angle_gamma 132.148509
_cell_volume 792.436678
_symmetry_space_group_name_H-M "P -1"
_symmetry_group_IT_number 2
_symmetry_cell_setting 'triclinic'
loop_
_space_group_symop_operation_xyz
x,y,z
-x,-y,-z
loop_
_atom_site_type_symbol
_atom_site_label
_atom_site_fract_x
_atom_site_fract_y
_atom_site_fract_z
Si Si1 0.311901 0.267555 0.460137
Si Si2 0.246351 0.196482 0.875167
Si Si3 0.403853 0.655156 0.344979
Si Si4 0.959139 0.829895 0.016881
Si Si5 0.196530 0.858896 0.742945
Si Si6 0.549785 0.258951 0.985460
Si Si7 0.985125 0.794098 0.508831
Si Si8 0.104510 0.622394 0.192204
O O1 0.440774 0.236095 0.627901
O O2 0.386479 0.509387 0.191943
O O3 0.173596 0.232028 0.503721
O O4 0.246170 0.100824 0.517872
O O5 0.335458 0.406451 0.612852
O O6 0.372484 0.137826 0.050059
O O7 0.114646 0.002710 0.961171
O O8 0.168266 0.257151 0.861624
O O9 0.431972 0.706830 0.174376
O O10 0.268048 0.703935 0.244434
O O11 0.994394 0.666722 0.157457
O O12 0.924110 0.972847 0.753824
O O13 0.071612 0.764928 0.689822
O O14 0.342354 0.835226 0.818368
O O15 0.133625 0.744090 0.955071
O O16 0.956313 0.619500 0.600316
#
# Coordination Sequence:
#
# PCOD9099402 Si02
#       8
#     2   2   2   2   2   2   2   2
#     4  11  20  34  58  87 119 148 182 241 298 334
#     4  10  21  41  58  87 121 151 191 237 291 345
#     4  10  20  37  60  88 119 141 188 247 295 336
#     4  11  23  38  61  83 119 161 189 232 287 352
#     4  11  24  34  61  90 115 153 195 239 288 340
#     4  10  21  37  59  87 118 147 187 248 291 337
#     4  12  22  41  54  89 123 149 197 238 285 340
#     4  11  23  35  61  89 115 153 189 240 292 343
#
# _framework density 20.190887
#
# number of rings (size 3 to 8) (size 9 to 14) (size 15 to 20)
#    0.000    1.250    5.000    3.000    1.750    1.500 
#    0.000    0.625    0.000    3.750    0.000    0.000 
#    0.000    0.000    0.000    0.000    0.000    0.000 
#
# Total GULP energy -89385.283429 kJ/mol
# GULP energy per Si atom -5586.580214 kJ/mol
# Density = 2.014493 g / cm^3
# Si number density = 20.190887 Si / 1000 Ang^3
#
#
#
# Elastic Constant Matrix: (Units=GPa)
#
#
# Indices 1 2 3 4 5 6 
#
# 1 121.8792 44.5808 20.9759 11.1487 26.7087 1.2165
# 2 44.5808 68.6218 8.7703 6.2435 9.6367 0.4597
# 3 20.9759 8.7703 28.5857 0.0682 14.7536 -4.5704
# 4 11.1487 6.2435 0.0682 26.2269 -0.4755 10.8358
# 5 26.7087 9.6367 14.7536 -0.4755 21.8040 -11.7500
# 6 1.2165 0.4597 -4.5704 10.8358 -11.7500 21.3683
#
#
#
# Elastic Compliance Matrix: (Units=1/GPa)
#
#
# Indices 1 2 3 4 5 6 
#
# 1 0.016325 -0.007089 0.000986 0.000389 -0.025487 -0.014778
# 2 -0.007089 0.019253 -0.001567 -0.002423 0.002356 0.002178
# 3 0.000986 -0.001567 0.056854 0.006189 -0.048319 -0.017570
# 4 0.000389 -0.002423 0.006189 0.054228 -0.023449 -0.039039
# 5 -0.025487 0.002356 -0.048319 -0.023449 0.156065 0.088773
# 6 -0.014778 0.002178 -0.017570 -0.039039 0.088773 0.112446
#
#
# Mechanical properties :
#
#
# Convention : Reuss Voigt Hill
#
# Bulk Modulus (GPa) = 12.97137 40.86008 26.91572
# Shear Modulus (GPa) = 10.95988 23.53049 17.24519
#
# Velocity S-wave (km/s) = 2.33236 3.41750 2.92568
# Velocity P-wave (km/s) = 3.70021 5.98776 4.97719
#
# Compressibility (1/GPa) = 0.07709288
#
# Stress axis : x y z
#
# Youngs Moduli (GPa) = 61.25430 51.93871 17.58901
#
# Poissons Ratio (x) = 0.36820 -0.01735
# Poissons Ratio (y) = 0.43424 0.02756
# Poissons Ratio (z) = -0.06041 0.08138
#
# Static dielectric constant tensor:
#      x y z
#    x 1.727400 0.021040 0.013370 
#    y 0.021040 1.720420 0.001590 
#    z 0.013370 0.001590 1.761350 
# 
# From -- ./inp_files/425102.got.cif
#   From: 2010.05.17/outbox.cif.g08.bks.cpg/sg2_213_cif.got.tgz:425102.got - 2010.06.03 11:33:40.
