data_PCOD9099180
_publ_section_title
;
Structure prediction by ZEFSAII (Michael W. Deem and Ramdas Pophale) SiO2 
 PCOD9099180
Probable space group: P -1
;
_chemical_formula_sum "Si O2"
_cell_formula_units_Z 16
_cell_length_a 30.091534
_cell_length_b 9.575777
_cell_length_c 9.167438
_cell_angle_alpha 122.124433
_cell_angle_beta 145.632045
_cell_angle_gamma 34.098753
_cell_volume 733.611424
_symmetry_space_group_name_H-M "P -1"
_symmetry_group_IT_number 2
_symmetry_cell_setting 'triclinic'
loop_
_space_group_symop_operation_xyz
x,y,z
-x,-y,-z
loop_
_atom_site_type_symbol
_atom_site_label
_atom_site_fract_x
_atom_site_fract_y
_atom_site_fract_z
Si Si1 0.958142 0.321638 0.194319
Si Si2 0.169195 0.793791 0.281285
Si Si3 0.474684 0.361732 0.917688
Si Si4 0.104581 0.681863 0.660077
Si Si5 0.540395 0.104943 0.243853
Si Si6 0.582391 0.850542 0.790961
Si Si7 0.036011 0.221190 0.915658
Si Si8 0.159774 0.269639 0.111330
O O1 0.947567 0.313635 0.332070
O O2 0.865430 0.339470 0.871120
O O3 0.892001 0.606352 0.123151
O O4 0.103283 0.019024 0.354997
O O5 0.326705 0.556410 0.574773
O O6 0.098272 0.963616 0.030987
O O7 0.572984 0.050475 0.948430
O O8 0.500000 0.500000 0.000000
O O9 0.481128 0.339413 0.099207
O O10 0.088565 0.590878 0.427004
O O11 0.260697 0.460386 0.979530
O O12 0.000000 0.000000 0.500000
O O13 0.481686 0.174171 0.284922
O O14 0.698562 0.882146 0.560594
O O15 0.500000 0.000000 0.000000
O O16 0.500000 0.000000 0.500000
O O17 0.967435 0.440029 0.981511
O O18 0.155814 0.094538 0.071732
#
# Coordination Sequence:
#
# PCOD9099180 Si02
#       8
#     2   2   2   2   2   2   2   2
#     4  10  21  36  62  87 117 159 206 265 302 373
#     4  10  20  37  59  88 122 158 211 251 311 367
#     4  11  23  40  65  94 129 166 213 265 319 386
#     4  12  24  40  66  94 127 165 220 260 319 374
#     4  10  20  37  64  90 125 168 218 259 312 390
#     4  11  25  43  68  95 130 172 216 267 325 387
#     4  10  21  36  61  88 125 162 200 264 316 374
#     4  10  20  38  59  90 122 159 208 259 320 367
#
# _framework density 21.809909999999999
#
# number of rings (size 3 to 8) (size 9 to 14) (size 15 to 20)
#    0.000    1.500    1.250    5.250    1.750    2.500 
#    0.000    1.875    0.000    0.000    0.000    0.000 
#    0.000    0.000    0.000    0.000    0.000    0.000 
#
# Total GULP energy -89216.647531 kJ/mol
# GULP energy per Si atom -5576.040471 kJ/mol
# Density = 2.176027 g / cm^3
# Si number density = 21.809910 Si / 1000 Ang^3
#
#
#
# Elastic Constant Matrix: (Units=GPa)
#
#
# Indices 1 2 3 4 5 6 
#
# 1 167.6805 28.8126 47.4614 -17.6814 -24.8975 18.1211
# 2 28.8126 35.0969 9.9643 -12.6059 8.4536 8.8302
# 3 47.4614 9.9643 110.6437 -29.8596 -3.2478 2.1050
# 4 -17.6814 -12.6059 -29.8596 17.4264 -2.0812 1.2436
# 5 -24.8975 8.4536 -3.2478 -2.0812 48.7432 0.8224
# 6 18.1211 8.8302 2.1050 1.2436 0.8224 31.2147
#
#
#
# Elastic Compliance Matrix: (Units=1/GPa)
#
#
# Indices 1 2 3 4 5 6 
#
# 1 0.009346 -0.007626 -0.003287 -0.000735 0.005899 -0.003173
# 2 -0.007626 0.057410 0.013296 0.056390 -0.010310 -0.014685
# 3 -0.003287 0.013296 0.020626 0.041885 -0.000740 -0.004893
# 4 -0.000735 0.056390 0.041885 0.171039 0.000363 -0.025174
# 5 0.005899 -0.010310 -0.000740 0.000363 0.025303 -0.001139
# 6 -0.003173 -0.014685 -0.004893 -0.025174 -0.001139 0.039395
#
#
# Mechanical properties :
#
#
# Convention : Reuss Voigt Hill
#
# Bulk Modulus (GPa) = 10.85217 53.98864 32.42041
# Shear Modulus (GPa) = 14.32387 34.62239 24.47313
#
# Velocity S-wave (km/s) = 2.56551 3.98862 3.35343
# Velocity P-wave (km/s) = 3.70977 6.78381 5.46729
#
# Compressibility (1/GPa) = 0.09214744
#
# Stress axis : x y z
#
# Youngs Moduli (GPa) = 107.00024 17.41854 48.48344
#
# Poissons Ratio (x) = 0.13283 0.15937
# Poissons Ratio (y) = 0.81597 -0.64463
# Poissons Ratio (z) = 0.35171 -0.23159
#
# Static dielectric constant tensor:
#      x y z
#    x 1.854830 0.050810 -0.005180 
#    y 0.050810 1.982260 0.047000 
#    z -0.005180 0.047000 1.807730 
# 
# From -- ./inp_files/306676.got.cif
#   From: 2010.05.17/outbox.cif.g08.bks.cpg/sg2_154_cif.got.tgz:306676.got - 2010.06.03 11:33:40.
