data_PCOD9099618
_publ_section_title
;
Structure prediction by ZEFSAII (Michael W. Deem and Ramdas Pophale) SiO2 
 PCOD9099618
Probable space group: P -1
;
_chemical_formula_sum "Si O2"
_cell_formula_units_Z 12
_cell_length_a 21.550164
_cell_length_b 14.144074
_cell_length_c 23.902131
_cell_angle_alpha 24.618683
_cell_angle_beta 15.924867
_cell_angle_gamma 16.071139
_cell_volume 542.568330
_symmetry_space_group_name_H-M "P -1"
_symmetry_group_IT_number 2
_symmetry_cell_setting 'triclinic'
loop_
_space_group_symop_operation_xyz
x,y,z
-x,-y,-z
loop_
_atom_site_type_symbol
_atom_site_label
_atom_site_fract_x
_atom_site_fract_y
_atom_site_fract_z
Si Si1 0.106671 0.721012 0.730627
Si Si2 0.121042 0.404670 0.509782
Si Si3 0.401786 0.721911 0.681602
Si Si4 0.164599 0.292245 0.290714
Si Si5 0.552060 0.481104 0.133274
Si Si6 0.232460 0.471958 0.874108
O O1 0.500000 0.500000 0.500000
O O2 0.054573 0.740920 0.832328
O O3 0.811526 0.113475 0.752740
O O4 0.022502 0.533835 0.880877
O O5 0.434041 0.346221 0.275822
O O6 0.000000 0.500000 0.500000
O O7 0.847647 0.693327 0.639072
O O8 0.225000 0.075365 0.617348
O O9 0.259487 0.741926 0.853719
O O10 0.367849 0.540186 0.766140
O O11 0.790557 0.505201 0.476663
O O12 0.447808 0.906048 0.228000
O O13 0.249378 0.478714 0.094651
#
# Coordination Sequence:
#
# PCOD9099618 Si02
#       6
#     2   2   2   2   2   2
#     4  10  20  37  61  86 124 164 201 249 300 359
#     4  11  24  42  62  88 123 164 209 254 306 367
#     4  11  23  39  62  92 125 160 205 254 307 367
#     4  10  22  41  64  89 125 163 204 256 303 363
#     4  10  22  40  62  91 124 163 207 251 306 365
#     4  10  22  38  60  94 124 159 206 249 304 364
#
# _framework density 22.117028999999999
#
# number of rings (size 3 to 8) (size 9 to 14) (size 15 to 20)
#    0.000    1.667    0.000    5.500    0.000    7.333 
#    0.000    5.000    0.000    0.000    0.000    0.000 
#    0.000    0.000    0.000    0.000    0.000    0.000 
#
# Total GULP energy -67106.462463 kJ/mol
# GULP energy per Si atom -5592.205205 kJ/mol
# Density = 2.206669 g / cm^3
# Si number density = 22.117029 Si / 1000 Ang^3
#
#
#
# Elastic Constant Matrix: (Units=GPa)
#
#
# Indices 1 2 3 4 5 6 
#
# 1 181.2442 55.8222 55.0687 -36.2570 -19.4739 2.5039
# 2 55.8222 107.5647 33.7364 -18.6447 -3.5008 -6.6654
# 3 55.0687 33.7364 141.0308 -26.4803 -0.2365 12.7501
# 4 -36.2570 -18.6447 -26.4803 40.6840 -5.5145 2.3275
# 5 -19.4739 -3.5008 -0.2365 -5.5145 17.1456 -15.1571
# 6 2.5039 -6.6654 12.7501 2.3275 -15.1571 38.2428
#
#
#
# Elastic Compliance Matrix: (Units=1/GPa)
#
#
# Indices 1 2 3 4 5 6 
#
# 1 0.011353 -0.002010 -0.002787 0.010031 0.023070 0.008369
# 2 -0.002010 0.011910 -0.001954 0.002834 0.005247 0.004766
# 3 -0.002787 -0.001954 0.009665 0.002094 -0.009018 -0.007082
# 4 0.010031 0.002834 0.002094 0.040193 0.033872 0.010118
# 5 0.023070 0.005247 -0.009018 0.033872 0.148819 0.059332
# 6 0.008369 0.004766 -0.007082 0.010118 0.059332 0.051692
#
#
# Mechanical properties :
#
#
# Convention : Reuss Voigt Hill
#
# Bulk Modulus (GPa) = 51.47703 79.89936 65.68820
# Shear Modulus (GPa) = 17.02947 38.22864 27.62905
#
# Velocity S-wave (km/s) = 2.77785 4.16200 3.53827
# Velocity P-wave (km/s) = 5.79775 7.70068 6.81595
#
# Compressibility (1/GPa) = 0.01942614
#
# Stress axis : x y z
#
# Youngs Moduli (GPa) = 88.08336 83.96393 103.47008
#
# Poissons Ratio (x) = 0.16873 0.28834
# Poissons Ratio (y) = 0.17701 0.20222
# Poissons Ratio (z) = 0.24546 0.16409
#
# Static dielectric constant tensor:
#      x y z
#    x 1.766080 -0.000790 0.035190 
#    y -0.000790 1.850500 0.017850 
#    z 0.035190 0.017850 1.855710 
# 
# From -- ./inp_files/209845.got.cif
#   From: 2010.05.17/outbox.cif.g08.bks.cpg/sg2_105_cif.got.tgz:209845.got - 2010.06.03 11:33:40.
