data_PCOD9099444
_publ_section_title
;
Structure prediction by ZEFSAII (Michael W. Deem and Ramdas Pophale) SiO2 
 PCOD9099444
Probable space group: P -1
;
_chemical_formula_sum "Si O2"
_cell_formula_units_Z 16
_cell_length_a 8.714346
_cell_length_b 5.833134
_cell_length_c 14.926913
_cell_angle_alpha 96.311707
_cell_angle_beta 81.442517
_cell_angle_gamma 106.988673
_cell_volume 715.800786
_symmetry_space_group_name_H-M "P -1"
_symmetry_group_IT_number 2
_symmetry_cell_setting 'triclinic'
loop_
_space_group_symop_operation_xyz
x,y,z
-x,-y,-z
loop_
_atom_site_type_symbol
_atom_site_label
_atom_site_fract_x
_atom_site_fract_y
_atom_site_fract_z
Si Si1 0.954362 0.474243 0.105831
Si Si2 0.435890 0.143138 0.435972
Si Si3 0.059350 0.113539 0.746409
Si Si4 0.301866 0.963646 0.845183
Si Si5 0.329285 0.389243 0.613612
Si Si6 0.796940 0.700669 0.803547
Si Si7 0.582971 0.222590 0.713008
Si Si8 0.410459 0.215879 0.016173
O O1 0.074083 0.346872 0.138946
O O2 0.980588 0.722430 0.165210
O O3 0.769700 0.311587 0.130235
O O4 0.000000 0.500000 0.000000
O O5 0.338799 0.293129 0.507480
O O6 0.593571 0.325461 0.385272
O O7 0.500000 0.000000 0.500000
O O8 0.347914 0.952506 0.361945
O O9 0.152605 0.282929 0.666109
O O10 0.190915 0.999216 0.774415
O O11 0.898700 0.900786 0.735500
O O12 0.481349 0.068434 0.796235
O O13 0.288285 0.125071 0.939488
O O14 0.456347 0.307890 0.663734
O O15 0.709293 0.456040 0.750394
O O16 0.671771 0.783933 0.880666
O O17 0.500000 0.500000 0.000000
O O18 0.500000 0.000000 0.000000
#
# Coordination Sequence:
#
# PCOD9099444 Si02
#       8
#     2   2   2   2   2   2   2   2
#     4  11  23  38  62  83 123 170 219 264 320 377
#     4   9  18  35  63  92 121 151 199 258 314 392
#     4  10  22  39  60  85 125 163 215 263 319 385
#     4  10  22  38  59  88 118 165 216 266 313 383
#     4   9  19  37  63  91 117 160 205 255 321 387
#     4  11  25  41  57  93 124 167 214 270 322 381
#     4  10  20  37  60  89 124 155 212 258 327 369
#     4  12  27  42  64  94 132 170 222 276 331 382
#
# _framework density 22.352587
#
# number of rings (size 3 to 8) (size 9 to 14) (size 15 to 20)
#    0.000    1.750    1.250    2.250    5.250    5.000 
#    0.000    0.625    0.000    7.500    0.000    0.000 
#    0.000    0.000    0.000    0.000    0.000    0.000 
#
# Total GULP energy -89351.795387 kJ/mol
# GULP energy per Si atom -5584.487212 kJ/mol
# Density = 2.230171 g / cm^3
# Si number density = 22.352587 Si / 1000 Ang^3
#
#
#
# Elastic Constant Matrix: (Units=GPa)
#
#
# Indices 1 2 3 4 5 6 
#
# 1 56.0371 49.2950 31.0468 -8.3480 -2.1097 13.7560
# 2 49.2950 146.3063 66.6983 -2.1911 -7.4332 35.4038
# 3 31.0468 66.6983 118.7177 6.5829 -14.6885 26.1892
# 4 -8.3480 -2.1911 6.5829 50.2603 1.6459 2.8805
# 5 -2.1097 -7.4332 -14.6885 1.6459 23.7457 -5.3507
# 6 13.7560 35.4038 26.1892 2.8805 -5.3507 40.0446
#
#
#
# Elastic Compliance Matrix: (Units=1/GPa)
#
#
# Indices 1 2 3 4 5 6 
#
# 1 0.027065 -0.007389 -0.003205 0.004753 -0.002524 -0.001348
# 2 -0.007389 0.012527 -0.003829 0.000187 -0.000494 -0.006112
# 3 -0.003205 -0.003829 0.012955 -0.002421 0.006021 -0.003008
# 4 0.004753 0.000187 -0.002421 0.021231 -0.002970 -0.002139
# 5 -0.002524 -0.000494 0.006021 -0.002970 0.046519 0.003796
# 6 -0.001348 -0.006112 -0.003008 -0.002139 0.003796 0.033467
#
#
# Mechanical properties :
#
#
# Convention : Reuss Voigt Hill
#
# Bulk Modulus (GPa) = 42.19125 68.34905 55.27015
# Shear Modulus (GPa) = 26.24533 34.41152 30.32843
#
# Velocity S-wave (km/s) = 3.43031 3.92789 3.68750
# Velocity P-wave (km/s) = 5.88266 7.15647 6.55060
#
# Compressibility (1/GPa) = 0.02370160
#
# Stress axis : x y z
#
# Youngs Moduli (GPa) = 36.94839 79.83035 77.18831
#
# Poissons Ratio (x) = 0.58983 0.24742
# Poissons Ratio (y) = 0.27300 0.29552
# Poissons Ratio (z) = 0.11843 0.30563
#
# Static dielectric constant tensor:
#      x y z
#    x 1.890510 -0.021480 -0.003200 
#    y -0.021480 1.862830 -0.012210 
#    z -0.003200 -0.012210 1.818650 
# 
# From -- ./inp_files/45732.got.cif
#   From: 2010.05.17/outbox.cif.g08.bks.cpg/sg2_23_cif.got.tgz:45732.got - 2010.06.03 11:33:40.
