data_PCOD9099459
_publ_section_title
;
Structure prediction by ZEFSAII (Michael W. Deem and Ramdas Pophale) SiO2 
 PCOD9099459
Probable space group: P -1
;
_chemical_formula_sum "Si O2"
_cell_formula_units_Z 16
_cell_length_a 14.242793
_cell_length_b 11.864323
_cell_length_c 14.361200
_cell_angle_alpha 32.110033
_cell_angle_beta 135.548035
_cell_angle_gamma 114.407698
_cell_volume 774.779621
_symmetry_space_group_name_H-M "P -1"
_symmetry_group_IT_number 2
_symmetry_cell_setting 'triclinic'
loop_
_space_group_symop_operation_xyz
x,y,z
-x,-y,-z
loop_
_atom_site_type_symbol
_atom_site_label
_atom_site_fract_x
_atom_site_fract_y
_atom_site_fract_z
Si Si1 0.375892 0.430531 0.001372
Si Si2 0.321499 0.380691 0.647390
Si Si3 0.404822 0.673505 0.621855
Si Si4 0.824888 0.696895 0.707940
Si Si5 0.614719 0.120323 0.897418
Si Si6 0.829066 0.328209 0.832556
Si Si7 0.840323 0.082676 0.564031
Si Si8 0.512593 0.100574 0.632403
O O1 0.207438 0.646859 0.696906
O O2 0.500000 0.500000 0.000000
O O3 0.423537 0.415244 0.153259
O O4 0.422567 0.168514 0.176615
O O5 0.362770 0.465722 0.713757
O O6 0.192712 0.614413 0.333013
O O7 0.287257 0.160529 0.796852
O O8 0.476765 0.267718 0.771222
O O9 0.281342 0.865028 0.474655
O O10 0.398990 0.790659 0.436948
O O11 0.810980 0.583096 0.680947
O O12 0.813672 0.954371 0.544529
O O13 0.673887 0.732464 0.630601
O O14 0.000000 0.500000 0.000000
O O15 0.703847 0.265764 0.832750
O O16 0.544777 0.094906 0.768200
O O17 0.992286 0.100026 0.144764
#
# Coordination Sequence:
#
# PCOD9099459 Si02
#       8
#     2   2   2   2   2   2   2   2
#     4  10  20  37  60  90 120 160 209 253 298 364
#     4  11  23  39  66  92 123 162 211 258 304 371
#     4  11  22  37  62  95 121 165 210 252 310 365
#     4  10  21  37  64  88 119 165 200 254 318 355
#     4  11  23  40  64  96 119 167 212 253 308 366
#     4  11  22  44  63  91 131 163 204 254 318 368
#     4  10  23  41  62  90 127 165 201 260 313 361
#     4  12  20  39  66  90 123 163 215 253 305 372
#
# _framework density 20.651033999999999
#
# number of rings (size 3 to 8) (size 9 to 14) (size 15 to 20)
#    0.000    1.250    5.000    3.000    0.000    0.500 
#    2.250    1.250    0.000    4.500    0.000    0.000 
#    0.000    0.000    0.000    0.000    0.000    0.000 
#
# Total GULP energy -89073.581268 kJ/mol
# GULP energy per Si atom -5567.098829 kJ/mol
# Density = 2.060403 g / cm^3
# Si number density = 20.651034 Si / 1000 Ang^3
#
#
#
# Elastic Constant Matrix: (Units=GPa)
#
#
# Indices 1 2 3 4 5 6 
#
# 1 36.6050 8.1365 24.0084 1.4591 -8.5713 -2.1701
# 2 8.1365 102.0394 34.2711 -2.4277 1.2055 -15.2367
# 3 24.0084 34.2711 99.1605 4.5630 4.4668 -5.1069
# 4 1.4591 -2.4277 4.5630 30.0948 -2.5553 0.0741
# 5 -8.5713 1.2055 4.4668 -2.5553 20.6739 -0.7265
# 6 -2.1701 -15.2367 -5.1069 0.0741 -0.7265 26.2621
#
#
#
# Elastic Compliance Matrix: (Units=1/GPa)
#
#
# Indices 1 2 3 4 5 6 
#
# 1 0.038248 0.000486 -0.010209 0.001278 0.018261 0.001959
# 2 0.000486 0.012102 -0.004087 0.001625 0.000801 0.006284
# 3 -0.010209 -0.004087 0.014395 -0.002649 -0.007453 -0.000614
# 4 0.001278 0.001625 -0.002649 0.034143 0.005248 0.000582
# 5 0.018261 0.000801 -0.007453 0.005248 0.058228 0.002120
# 6 0.001959 0.006284 -0.000614 0.000582 0.002120 0.041823
#
#
# Mechanical properties :
#
#
# Convention : Reuss Voigt Hill
#
# Bulk Modulus (GPa) = 26.93677 41.18186 34.05931
# Shear Modulus (GPa) = 20.92630 26.83208 23.87919
#
# Velocity S-wave (km/s) = 3.18674 3.60850 3.40416
# Velocity P-wave (km/s) = 5.15873 6.11120 5.65506
#
# Compressibility (1/GPa) = 0.03712398
#
# Stress axis : x y z
#
# Youngs Moduli (GPa) = 26.14541 82.63294 69.46832
#
# Poissons Ratio (x) = -0.04017 0.70920
# Poissons Ratio (y) = -0.01271 0.28394
# Poissons Ratio (z) = 0.26692 0.33775
#
# Static dielectric constant tensor:
#      x y z
#    x 1.731850 -0.056370 -0.045110 
#    y -0.056370 1.841130 0.056570 
#    z -0.045110 0.056570 1.850260 
# 
# From -- ./inp_files/425082.got.cif
#   From: 2010.05.17/outbox.cif.g08.bks.cpg/sg2_213_cif.got.tgz:425082.got - 2010.06.03 11:33:40.
