data_PCOD9099050
_publ_section_title
;
Structure prediction by ZEFSAII (Michael W. Deem and Ramdas Pophale) SiO2 
 PCOD9099050
Probable space group: P -1
;
_chemical_formula_sum "Si O2"
_cell_formula_units_Z 14
_cell_length_a 16.850824
_cell_length_b 8.043376
_cell_length_c 10.930195
_cell_angle_alpha 40.806745
_cell_angle_beta 123.280228
_cell_angle_gamma 125.030622
_cell_volume 774.479520
_symmetry_space_group_name_H-M "P -1"
_symmetry_group_IT_number 2
_symmetry_cell_setting 'triclinic'
loop_
_space_group_symop_operation_xyz
x,y,z
-x,-y,-z
loop_
_atom_site_type_symbol
_atom_site_label
_atom_site_fract_x
_atom_site_fract_y
_atom_site_fract_z
Si Si1 0.453270 0.697745 0.423125
Si Si2 0.594628 0.264617 0.163996
Si Si3 0.858692 0.018689 0.941235
Si Si4 0.014645 0.359373 0.714168
Si Si5 0.790627 0.463666 0.083980
Si Si6 0.581601 0.619554 0.182565
Si Si7 0.724212 0.177081 0.942331
O O1 0.500000 0.500000 0.500000
O O2 0.426929 0.577006 0.602356
O O3 0.533717 0.986396 0.326715
O O4 0.356621 0.725810 0.255914
O O5 0.699574 0.277430 0.187428
O O6 0.608180 0.487190 0.155693
O O7 0.523894 0.327324 0.963703
O O8 0.914942 0.252328 0.767634
O O9 0.208593 0.232369 0.053758
O O10 0.799184 0.110316 0.946041
O O11 0.943846 0.894573 0.135148
O O12 0.103448 0.542757 0.769828
O O13 0.000000 0.500000 0.500000
O O14 0.776110 0.384272 0.975143
O O15 0.663034 0.902318 0.109595
#
# Coordination Sequence:
#
# PCOD9099050 Si02
#       7
#     2   2   2   2   2   2   2
#     4  11  23  37  54  90 126 157 204 244 284 344
#     4  10  20  37  59  82 119 163 195 242 292 348
#     4   9  21  41  61  84 120 152 193 245 299 353
#     4   9  20  43  63  87 118 149 192 253 298 352
#     4  10  20  39  61  86 116 157 193 242 302 347
#     4  10  20  38  56  84 122 158 200 241 290 340
#     4  11  22  39  62  88 122 159 197 243 290 355
#
# _framework density 18.076657000000001
#
# number of rings (size 3 to 8) (size 9 to 14) (size 15 to 20)
#    0.857    1.143    1.429    2.143    0.000    5.143 
#   10.286    0.714    0.000    0.000    0.000    0.000 
#    0.000    0.000    0.000    0.000    0.000    0.000 
#
# Total GULP energy -78061.745895 kJ/mol
# GULP energy per Si atom -5575.838992 kJ/mol
# Density = 1.803551 g / cm^3
# Si number density = 18.076657 Si / 1000 Ang^3
#
#
#
# Elastic Constant Matrix: (Units=GPa)
#
#
# Indices 1 2 3 4 5 6 
#
# 1 99.7321 56.9570 35.3573 7.1691 -13.9957 4.0274
# 2 56.9570 91.9605 39.0664 11.3957 -18.6574 -0.6061
# 3 35.3573 39.0664 96.9146 -6.3582 -30.7308 14.8143
# 4 7.1691 11.3957 -6.3582 11.8478 -2.7821 -0.3677
# 5 -13.9957 -18.6574 -30.7308 -2.7821 26.8472 -8.0088
# 6 4.0274 -0.6061 14.8143 -0.3677 -8.0088 24.8890
#
#
#
# Elastic Compliance Matrix: (Units=1/GPa)
#
#
# Indices 1 2 3 4 5 6 
#
# 1 0.016073 -0.008680 -0.002917 -0.003434 -0.001863 -0.001726
# 2 -0.008680 0.022335 -0.007301 -0.019303 0.002690 0.006874
# 3 -0.002917 -0.007301 0.023901 0.026466 0.021534 -0.006612
# 4 -0.003434 -0.019303 0.026466 0.125309 0.026496 -0.005290
# 5 -0.001863 0.002690 0.021534 0.026496 0.068521 0.009990
# 6 -0.001726 0.006874 -0.006612 -0.005290 0.009990 0.047697
#
#
# Mechanical properties :
#
#
# Convention : Reuss Voigt Hill
#
# Bulk Modulus (GPa) = 40.79437 61.26320 51.02878
# Shear Modulus (GPa) = 14.29378 23.19856 18.74617
#
# Velocity S-wave (km/s) = 2.81505 3.58626 3.22380
# Velocity P-wave (km/s) = 5.76042 7.14932 6.49212
#
# Compressibility (1/GPa) = 0.02451319
#
# Stress axis : x y z
#
# Youngs Moduli (GPa) = 62.21551 44.77337 41.83936
#
# Poissons Ratio (x) = 0.38861 0.12206
# Poissons Ratio (y) = 0.54000 0.30546
# Poissons Ratio (z) = 0.18151 0.32688
#
# Static dielectric constant tensor:
#      x y z
#    x 1.615570 0.008520 0.009220 
#    y 0.008520 1.642710 -0.016740 
#    z 0.009220 -0.016740 1.605670 
# 
# From -- ./inp_files/269760.got.cif
#   From: 2010.05.17/outbox.cif.g08.bks.cpg/sg2_135_cif.got.tgz:269760.got - 2010.06.03 11:33:40.
