data_PCOD9099990
_publ_section_title
;
Structure prediction by ZEFSAII (Michael W. Deem and Ramdas Pophale) SiO2 
 PCOD9099990
Probable space group: P -1
;
_chemical_formula_sum "Si O2"
_cell_formula_units_Z 16
_cell_length_a 11.829712
_cell_length_b 12.336627
_cell_length_c 18.710958
_cell_angle_alpha 152.024476
_cell_angle_beta 147.654683
_cell_angle_gamma 43.261832
_cell_volume 683.583324
_symmetry_space_group_name_H-M "P -1"
_symmetry_group_IT_number 2
_symmetry_cell_setting 'triclinic'
loop_
_space_group_symop_operation_xyz
x,y,z
-x,-y,-z
loop_
_atom_site_type_symbol
_atom_site_label
_atom_site_fract_x
_atom_site_fract_y
_atom_site_fract_z
Si Si1 0.699653 0.840284 0.396812
Si Si2 0.784144 0.576877 0.895181
Si Si3 0.581339 0.466458 0.212829
Si Si4 0.175283 0.979589 0.909438
Si Si5 0.729003 0.561278 0.106118
Si Si6 0.851674 0.214925 0.605970
Si Si7 0.563730 0.770896 0.677984
Si Si8 0.253484 0.979996 0.213808
O O1 0.724402 0.691671 0.393851
O O2 0.665027 0.666279 0.208848
O O3 0.485259 0.973152 0.369593
O O4 0.877696 0.026938 0.572452
O O5 0.583590 0.505732 0.795590
O O6 0.804488 0.848492 0.046816
O O7 0.772157 0.437426 0.733585
O O8 0.000000 0.500000 0.000000
O O9 0.429207 0.415069 0.031911
O O10 0.730256 0.265187 0.193865
O O11 0.324105 0.105770 0.123235
O O12 0.938151 0.963699 0.805172
O O13 0.943111 0.706360 0.281708
O O14 0.784712 0.292176 0.987659
O O15 0.658881 0.124331 0.399620
O O16 0.500000 0.500000 0.500000
O O17 0.714023 0.843925 0.732844
#
# Coordination Sequence:
#
# PCOD9099990 Si02
#       8
#     2   2   2   2   2   2   2   2
#     4  10  22  38  64  96 127 160 209 266 313 363
#     4  12  23  44  68  86 123 173 219 248 303 387
#     4  11  23  39  64  95 124 168 211 258 305 371
#     4  12  23  41  64  94 127 166 212 257 312 370
#     4  11  19  41  64  96 126 163 216 253 309 379
#     4  11  22  40  66  96 124 166 208 257 321 368
#     4  11  21  36  61  98 129 157 202 265 320 355
#     4  10  20  37  62  89 128 170 200 247 311 385
#
# _framework density 23.406072000000002
#
# number of rings (size 3 to 8) (size 9 to 14) (size 15 to 20)
#    0.000    1.000    3.750    5.625    0.000    1.500 
#    0.000    0.000    0.000    3.750    0.000    0.000 
#    0.000    0.000    0.000    0.000    0.000    0.000 
#
# Total GULP energy -89494.586034 kJ/mol
# GULP energy per Si atom -5593.411627 kJ/mol
# Density = 2.335280 g / cm^3
# Si number density = 23.406072 Si / 1000 Ang^3
#
#
#
# Elastic Constant Matrix: (Units=GPa)
#
#
# Indices 1 2 3 4 5 6 
#
# 1 119.0951 57.6068 29.8508 -4.4226 32.5444 -13.1634
# 2 57.6068 131.0956 24.7376 28.7124 10.1688 7.5161
# 3 29.8508 24.7376 62.9352 7.4046 19.7636 6.8067
# 4 -4.4226 28.7124 7.4046 33.3400 16.2413 7.4540
# 5 32.5444 10.1688 19.7636 16.2413 44.6055 6.5678
# 6 -13.1634 7.5161 6.8067 7.4540 6.5678 43.0690
#
#
#
# Elastic Compliance Matrix: (Units=1/GPa)
#
#
# Indices 1 2 3 4 5 6 
#
# 1 0.025452 -0.015304 -0.002357 0.027232 -0.025423 0.009986
# 2 -0.015304 0.019349 -0.002337 -0.025599 0.017995 -0.005999
# 3 -0.002357 -0.002337 0.020189 0.001071 -0.006690 -0.002669
# 4 0.027232 -0.025599 0.001071 0.074813 -0.042657 0.006178
# 5 -0.025423 0.017995 -0.006690 -0.042657 0.057005 -0.011163
# 6 0.009986 -0.005999 -0.002669 0.006178 -0.011163 0.028372
#
#
# Mechanical properties :
#
#
# Convention : Reuss Voigt Hill
#
# Bulk Modulus (GPa) = 40.00938 59.72403 49.86671
# Shear Modulus (GPa) = 18.28094 37.59830 27.93962
#
# Velocity S-wave (km/s) = 2.79773 4.01228 3.45873
# Velocity P-wave (km/s) = 5.25044 6.85830 6.10751
#
# Compressibility (1/GPa) = 0.02499414
#
# Stress axis : x y z
#
# Youngs Moduli (GPa) = 39.28897 51.68237 49.53126
#
# Poissons Ratio (x) = 0.79097 0.11675
# Poissons Ratio (y) = 0.60130 0.11573
# Poissons Ratio (z) = 0.09261 0.12076
#
# Static dielectric constant tensor:
#      x y z
#    x 1.841780 0.030900 -0.015270 
#    y 0.030900 1.906460 0.026220 
#    z -0.015270 0.026220 2.004550 
# 
# From -- ./inp_files/381770.got.cif
#   From: 2010.05.17/outbox.cif.g08.bks.cpg/sg2_191_cif.got.tgz:381770.got - 2010.06.03 11:33:40.
