data_PCOD9099801
_publ_section_title
;
Structure prediction by ZEFSAII (Michael W. Deem and Ramdas Pophale) SiO2 
 PCOD9099801
Probable space group: P -1
;
_chemical_formula_sum "Si O2"
_cell_formula_units_Z 14
_cell_length_a 25.508195
_cell_length_b 9.232017
_cell_length_c 9.813672
_cell_angle_alpha 50.877590
_cell_angle_beta 32.081309
_cell_angle_gamma 30.171815
_cell_volume 570.546547
_symmetry_space_group_name_H-M "P -1"
_symmetry_group_IT_number 2
_symmetry_cell_setting 'triclinic'
loop_
_space_group_symop_operation_xyz
x,y,z
-x,-y,-z
loop_
_atom_site_type_symbol
_atom_site_label
_atom_site_fract_x
_atom_site_fract_y
_atom_site_fract_z
Si Si1 0.072194 0.384595 0.609906
Si Si2 0.711506 0.522848 0.711702
Si Si3 0.658276 0.203587 0.442029
Si Si4 0.217449 0.334472 0.043771
Si Si5 0.427236 0.664495 0.914600
Si Si6 0.961059 0.763595 0.865284
Si Si7 0.428812 0.226041 0.831966
O O1 0.942935 0.411770 0.850188
O O2 0.968958 0.701492 0.725593
O O3 0.147615 0.342048 0.329425
O O4 0.223129 0.101363 0.541607
O O5 0.887536 0.327699 0.389231
O O6 0.564515 0.854372 0.760707
O O7 0.688112 0.339163 0.857379
O O8 0.680184 0.621547 0.880777
O O9 0.558794 0.463026 0.622546
O O10 0.535680 0.252329 0.600183
O O11 0.789695 0.089604 0.113489
O O12 0.316930 0.359786 0.866839
O O13 0.340728 0.995529 0.910981
O O14 0.500000 0.500000 0.000000
O O15 0.000000 0.500000 0.000000
#
# Coordination Sequence:
#
# PCOD9099801 Si02
#       7
#     2   2   2   2   2   2   2
#     4  10  19  33  56  86 105 142 175 235 264 315
#     4  10  17  30  55  80 106 134 194 214 255 313
#     4  10  20  36  62  79 105 142 194 213 263 320
#     4  11  20  33  57  83 118 130 178 229 288 293
#     4  11  20  33  55  85 110 142 175 230 267 323
#     4  10  18  34  57  80 104 145 186 222 252 329
#     4  10  16  31  57  83  99 139 187 223 243 325
#
# _framework density 24.537873999999999
#
# number of rings (size 3 to 8) (size 9 to 14) (size 15 to 20)
#    0.000    1.714    7.143    0.857    0.000    0.000 
#    0.000    2.857    3.143    0.000    0.000    0.000 
#    0.000    0.000    0.000    0.000    0.000    0.000 
#
# Total GULP energy -78310.283395 kJ/mol
# GULP energy per Si atom -5593.591671 kJ/mol
# Density = 2.448202 g / cm^3
# Si number density = 24.537874 Si / 1000 Ang^3
#
#
#
# Elastic Constant Matrix: (Units=GPa)
#
#
# Indices 1 2 3 4 5 6 
#
# 1 103.7128 30.4250 64.4360 21.8693 -22.3936 25.2190
# 2 30.4250 78.4427 51.3980 6.6935 1.0425 17.5973
# 3 64.4360 51.3980 207.8234 21.1878 -10.2739 24.1518
# 4 21.8693 6.6935 21.1878 27.9920 16.6721 4.8372
# 5 -22.3936 1.0425 -10.2739 16.6721 50.1886 1.2089
# 6 25.2190 17.5973 24.1518 4.8372 1.2089 37.0786
#
#
#
# Elastic Compliance Matrix: (Units=1/GPa)
#
#
# Indices 1 2 3 4 5 6 
#
# 1 0.024321 -0.003940 -0.001612 -0.026737 0.019745 -0.010778
# 2 -0.003940 0.016865 -0.003196 0.004610 -0.004205 -0.003706
# 3 -0.001612 -0.003196 0.006788 -0.004166 0.002153 -0.001335
# 4 -0.026737 0.004610 -0.004166 0.080826 -0.039956 0.009469
# 5 0.019745 -0.004205 0.002153 -0.039956 0.042753 -0.009018
# 6 -0.010778 -0.003706 -0.001335 0.009469 -0.009018 0.035988
#
#
# Mechanical properties :
#
#
# Convention : Reuss Voigt Hill
#
# Bulk Modulus (GPa) = 32.81120 75.83298 54.32209
# Shear Modulus (GPa) = 21.25871 39.29984 30.27927
#
# Velocity S-wave (km/s) = 2.94660 4.00634 3.51662
# Velocity P-wave (km/s) = 4.99773 7.23689 6.21892
#
# Compressibility (1/GPa) = 0.03047740
#
# Stress axis : x y z
#
# Youngs Moduli (GPa) = 41.11599 59.29524 147.31008
#
# Poissons Ratio (x) = 0.23365 0.23744
# Poissons Ratio (y) = 0.16201 0.47086
# Poissons Ratio (z) = 0.06627 0.18953
#
# Static dielectric constant tensor:
#      x y z
#    x 1.997180 -0.012680 -0.026440 
#    y -0.012680 2.008640 -0.014500 
#    z -0.026440 -0.014500 1.952570 
# 
# From -- ./inp_files/259900.got.cif
#   From: 2010.05.17/outbox.cif.g08.bks.cpg/sg2_130_cif.got.tgz:259900.got - 2010.06.03 11:33:40.
