data_PCOD9099149
_publ_section_title
;
Structure prediction by ZEFSAII (Michael W. Deem and Ramdas Pophale) SiO2 
 PCOD9099149
Probable space group: P -1
;
_chemical_formula_sum "Si O2"
_cell_formula_units_Z 16
_cell_length_a 8.759688
_cell_length_b 13.581538
_cell_length_c 9.567169
_cell_angle_alpha 115.440118
_cell_angle_beta 91.786474
_cell_angle_gamma 44.485093
_cell_volume 648.499703
_symmetry_space_group_name_H-M "P -1"
_symmetry_group_IT_number 2
_symmetry_cell_setting 'triclinic'
loop_
_space_group_symop_operation_xyz
x,y,z
-x,-y,-z
loop_
_atom_site_type_symbol
_atom_site_label
_atom_site_fract_x
_atom_site_fract_y
_atom_site_fract_z
Si Si1 0.271583 0.069199 0.109004
Si Si2 0.084249 0.626727 0.087172
Si Si3 0.459579 0.284367 0.057483
Si Si4 0.045952 0.397492 0.219438
Si Si5 0.808696 0.867297 0.501081
Si Si6 0.102438 0.902880 0.592848
Si Si7 0.447347 0.201946 0.513784
Si Si8 0.878455 0.184899 0.973207
O O1 0.084222 0.273526 0.245163
O O2 0.111365 0.086226 0.008322
O O3 0.500000 0.000000 0.000000
O O4 0.403979 0.902005 0.099374
O O5 0.301444 0.429805 0.022396
O O6 0.181638 0.681926 0.049791
O O7 0.921707 0.748736 0.291138
O O8 0.939066 0.651045 0.971502
O O9 0.269083 0.356262 0.215860
O O10 0.649913 0.269728 0.104280
O O11 0.790866 0.596279 0.343993
O O12 0.666420 0.852106 0.575396
O O13 0.031196 0.813853 0.540631
O O14 0.607008 0.064326 0.561303
O O15 0.365418 0.815592 0.561331
O O16 0.000000 0.000000 0.500000
O O17 0.948650 0.047018 0.793222
#
# Coordination Sequence:
#
# PCOD9099149 Si02
#       8
#     2   2   2   2   2   2   2   2
#     4   9  22  44  61  89 122 170 207 267 313 380
#     4  11  21  36  58 102 123 159 212 265 313 378
#     4  11  22  36  63  90 132 156 206 264 319 370
#     4  10  22  37  64  95 122 163 218 258 321 366
#     4  10  21  35  56  90 133 166 202 250 330 368
#     4  10  21  37  58  92 131 169 203 256 315 382
#     4  10  20  37  59  86 132 168 198 260 317 375
#     4  11  22  39  62  94 127 163 211 258 324 373
#
# _framework density 24.672332000000001
#
# number of rings (size 3 to 8) (size 9 to 14) (size 15 to 20)
#    0.000    1.750    3.750    1.125    3.500    3.000 
#    2.250    0.000    0.000    6.000    0.000    0.000 
#    0.000    0.000    0.000    0.000    0.000    0.000 
#
# Total GULP energy -89243.164730 kJ/mol
# GULP energy per Si atom -5577.697796 kJ/mol
# Density = 2.461618 g / cm^3
# Si number density = 24.672332 Si / 1000 Ang^3
#
#
#
# Elastic Constant Matrix: (Units=GPa)
#
#
# Indices 1 2 3 4 5 6 
#
# 1 236.7766 47.4749 37.1422 18.3883 -5.7662 -12.8103
# 2 47.4749 158.8880 52.3926 31.2298 7.5861 9.9052
# 3 37.1422 52.3926 45.7322 24.2131 4.7636 6.6325
# 4 18.3883 31.2298 24.2131 41.1755 -5.7590 8.7938
# 5 -5.7662 7.5861 4.7636 -5.7590 21.2953 -0.6692
# 6 -12.8103 9.9052 6.6325 8.7938 -0.6692 29.0342
#
#
#
# Elastic Compliance Matrix: (Units=1/GPa)
#
#
# Indices 1 2 3 4 5 6 
#
# 1 0.005300 -0.000426 -0.004890 0.000489 0.002924 0.003520
# 2 -0.000426 0.010259 -0.010175 -0.001693 -0.001980 -0.000897
# 3 -0.004890 -0.010175 0.050900 -0.021219 -0.014957 -0.004232
# 4 0.000489 -0.001693 -0.021219 0.041540 0.016510 -0.006560
# 5 0.002924 -0.001980 -0.014957 0.016510 0.056319 0.001680
# 6 0.003520 -0.000897 -0.004232 -0.006560 0.001680 0.039293
#
#
# Mechanical properties :
#
#
# Convention : Reuss Voigt Hill
#
# Bulk Modulus (GPa) = 28.18630 79.49067 53.83849
# Shear Modulus (GPa) = 20.29061 38.59348 29.44205
#
# Velocity S-wave (km/s) = 2.87087 3.95934 3.45820
# Velocity P-wave (km/s) = 4.73690 7.29317 6.14933
#
# Compressibility (1/GPa) = 0.03547823
#
# Stress axis : x y z
#
# Youngs Moduli (GPa) = 188.69565 97.47173 19.64619
#
# Poissons Ratio (x) = 0.04155 0.09607
# Poissons Ratio (y) = 0.08043 0.19989
# Poissons Ratio (z) = 0.92268 0.99173
#
# Static dielectric constant tensor:
#      x y z
#    x 0.864590 0.403540 -1.140390 
#    y 0.403540 1.831950 0.312400 
#    z -1.140390 0.312400 0.948590 
# 
# From -- ./inp_files/399443.got.cif
#   From: 2010.05.17/outbox.cif.g08.bks.cpg/sg2_200_cif.got.tgz:399443.got - 2010.06.03 11:33:40.
