data_PCOD9099701
_publ_section_title
;
Structure prediction by ZEFSAII (Michael W. Deem and Ramdas Pophale) SiO2 
 PCOD9099701
Probable space group: P -1
;
_chemical_formula_sum "Si O2"
_cell_formula_units_Z 14
_cell_length_a 11.441501
_cell_length_b 12.021512
_cell_length_c 8.407491
_cell_angle_alpha 66.986545
_cell_angle_beta 123.768400
_cell_angle_gamma 140.900624
_cell_volume 604.460515
_symmetry_space_group_name_H-M "P -1"
_symmetry_group_IT_number 2
_symmetry_cell_setting 'triclinic'
loop_
_space_group_symop_operation_xyz
x,y,z
-x,-y,-z
loop_
_atom_site_type_symbol
_atom_site_label
_atom_site_fract_x
_atom_site_fract_y
_atom_site_fract_z
Si Si1 0.725199 0.676461 0.634262
Si Si2 0.000322 0.297289 0.788459
Si Si3 0.819195 0.481772 0.904081
Si Si4 0.658131 0.880003 0.328431
Si Si5 0.690688 0.698988 0.972236
Si Si6 0.663914 0.111783 0.417810
Si Si7 0.327850 0.043361 0.053245
O O1 0.500000 0.500000 0.500000
O O2 0.847946 0.627313 0.750722
O O3 0.769953 0.824755 0.486243
O O4 0.710339 0.703626 0.793639
O O5 0.877630 0.285600 0.562139
O O6 0.830366 0.143045 0.871679
O O7 0.161329 0.472281 0.919405
O O8 0.112453 0.247520 0.839065
O O9 0.590106 0.295278 0.786283
O O10 0.000000 0.500000 0.000000
O O11 0.689440 0.996602 0.424828
O O12 0.730411 0.977206 0.161378
O O13 0.676847 0.827558 0.943971
O O14 0.500000 0.500000 0.000000
O O15 0.553896 0.128025 0.198250
O O16 0.500000 0.000000 0.500000
#
# Coordination Sequence:
#
# PCOD9099701 Si02
#       7
#     2   2   2   2   2   2   2
#     4   9  19  36  59  86 118 159 201 247 304 365
#     4  10  22  41  63  92 122 161 209 261 315 367
#     4  10  20  37  61  89 121 159 204 254 304 362
#     4  11  22  41  62  89 127 168 208 251 311 378
#     4  11  22  41  63  89 124 164 207 260 316 375
#     4  10  21  39  63  91 125 166 206 256 312 366
#     4  11  22  39  63  90 124 167 209 259 311 371
#
# _framework density 23.161148000000001
#
# number of rings (size 3 to 8) (size 9 to 14) (size 15 to 20)
#    0.000    1.714    0.000    6.857    0.000    2.286 
#    0.000   17.857    0.000    0.000    0.000    0.000 
#    0.000    0.000    0.000    0.000    0.000    0.000 
#
# Total GULP energy -78261.511370 kJ/mol
# GULP energy per Si atom -5590.107955 kJ/mol
# Density = 2.310843 g / cm^3
# Si number density = 23.161148 Si / 1000 Ang^3
#
#
#
# Elastic Constant Matrix: (Units=GPa)
#
#
# Indices 1 2 3 4 5 6 
#
# 1 62.3013 24.1139 29.8427 -7.3948 22.3737 -22.1091
# 2 24.1139 69.5558 26.0218 3.2651 -1.8815 1.4314
# 3 29.8427 26.0218 120.7277 0.6435 24.1310 5.6584
# 4 -7.3948 3.2651 0.6435 39.4522 -0.7482 -3.1532
# 5 22.3737 -1.8815 24.1310 -0.7482 44.9360 0.3639
# 6 -22.1091 1.4314 5.6584 -3.1532 0.3639 35.0072
#
#
#
# Elastic Compliance Matrix: (Units=1/GPa)
#
#
# Indices 1 2 3 4 5 6 
#
# 1 0.043093 -0.014721 -0.005061 0.011397 -0.019407 0.029864
# 2 -0.014721 0.021037 -0.002267 -0.005112 0.009427 -0.010349
# 3 -0.005061 -0.002267 0.010950 -0.001401 -0.003439 -0.004964
# 4 0.011397 -0.005112 -0.001401 0.028660 -0.004742 0.010264
# 5 -0.019407 0.009427 -0.003439 -0.004742 0.034183 -0.012869
# 6 0.029864 -0.010349 -0.004964 0.010264 -0.012869 0.049710
#
#
# Mechanical properties :
#
#
# Convention : Reuss Voigt Hill
#
# Bulk Modulus (GPa) = 32.27664 45.83796 39.05730
# Shear Modulus (GPa) = 20.65623 35.38618 28.02121
#
# Velocity S-wave (km/s) = 2.98962 3.91298 3.48204
# Velocity P-wave (km/s) = 5.08754 6.34422 5.75031
#
# Compressibility (1/GPa) = 0.03098216
#
# Stress axis : x y z
#
# Youngs Moduli (GPa) = 23.20564 47.53611 91.32289
#
# Poissons Ratio (x) = 0.69978 0.46214
# Poissons Ratio (y) = 0.34161 0.20705
# Poissons Ratio (z) = 0.11743 0.10778
#
# Static dielectric constant tensor:
#      x y z
#    x 1.926050 0.046370 0.008630 
#    y 0.046370 1.897430 0.003520 
#    z 0.008630 0.003520 1.881030 
# 
# From -- ./inp_files/205278.got.cif
#   From: 2010.05.17/outbox.cif.g08.bks.cpg/sg2_103_cif.got.tgz:205278.got - 2010.06.03 11:33:40.
