data_PCOD9099590
_publ_section_title
;
Structure prediction by ZEFSAII (Michael W. Deem and Ramdas Pophale) SiO2 
 PCOD9099590
Probable space group: P -1
;
_chemical_formula_sum "Si O2"
_cell_formula_units_Z 16
_cell_length_a 11.302535
_cell_length_b 14.441052
_cell_length_c 11.140353
_cell_angle_alpha 119.289012
_cell_angle_beta 24.407814
_cell_angle_gamma 123.821035
_cell_volume 623.413286
_symmetry_space_group_name_H-M "P -1"
_symmetry_group_IT_number 2
_symmetry_cell_setting 'triclinic'
loop_
_space_group_symop_operation_xyz
x,y,z
-x,-y,-z
loop_
_atom_site_type_symbol
_atom_site_label
_atom_site_fract_x
_atom_site_fract_y
_atom_site_fract_z
Si Si1 0.800268 0.061171 0.500540
Si Si2 0.616508 0.917805 0.919319
Si Si3 0.072245 0.316823 0.350508
Si Si4 0.340940 0.662777 0.054370
Si Si5 0.607604 0.396272 0.292429
Si Si6 0.288209 0.072553 0.712697
Si Si7 0.716621 0.309223 0.448922
Si Si8 0.171267 0.334688 0.838965
O O1 0.474993 0.058007 0.845541
O O2 0.940671 0.180532 0.380318
O O3 0.778637 0.948724 0.379383
O O4 0.034615 0.069509 0.396699
O O5 0.438597 0.787693 0.987641
O O6 0.500000 0.000000 0.000000
O O7 0.939541 0.361495 0.385930
O O8 0.425102 0.345495 0.063847
O O9 0.959946 0.353733 0.603557
O O10 0.351388 0.593834 0.882590
O O11 0.500000 0.500000 0.500000
O O12 0.924700 0.388402 0.043734
O O13 0.323216 0.298965 0.554362
O O14 0.463331 0.198499 0.658865
O O15 0.500000 0.000000 0.500000
O O16 0.000000 0.000000 0.000000
O O17 0.934072 0.275117 0.128040
O O18 0.495991 0.373852 0.636910
#
# Coordination Sequence:
#
# PCOD9099590 Si02
#       8
#     2   2   2   2   2   2   2   2
#     4  10  21  35  51  79 111 159 213 250 289 351
#     4  10  21  36  54  78 120 160 199 255 303 357
#     4  10  20  37  61  85 127 165 209 255 304 376
#     4  10  22  37  63  93 116 164 218 258 313 384
#     4  11  23  45  72  95 125 156 211 274 323 397
#     4  12  23  34  56  86 121 168 218 258 298 349
#     4  11  22  39  61  92 134 169 209 266 318 377
#     4  10  24  40  64  97 125 163 201 256 338 384
#
# _framework density 25.665157000000001
#
# number of rings (size 3 to 8) (size 9 to 14) (size 15 to 20)
#    0.000    1.500    1.250    3.750    3.500    3.000 
#    0.000    0.000    0.000   15.000    0.000    0.000 
#    0.000    0.000    0.000    0.000    0.000    0.000 
#
# Total GULP energy -89118.123503 kJ/mol
# GULP energy per Si atom -5569.882719 kJ/mol
# Density = 2.560674 g / cm^3
# Si number density = 25.665157 Si / 1000 Ang^3
#
#
#
# Elastic Constant Matrix: (Units=GPa)
#
#
# Indices 1 2 3 4 5 6 
#
# 1 69.7823 14.1276 -1.3349 11.5884 -26.6225 -13.0632
# 2 14.1276 22.9995 3.0134 9.0767 -13.5070 -4.4771
# 3 -1.3349 3.0134 156.8620 -8.4653 -18.5091 -3.3835
# 4 11.5884 9.0767 -8.4653 29.0548 -6.2785 -0.0220
# 5 -26.6225 -13.5070 -18.5091 -6.2785 58.2017 15.6165
# 6 -13.0632 -4.4771 -3.3835 -0.0220 15.6165 33.5323
#
#
#
# Elastic Compliance Matrix: (Units=1/GPa)
#
#
# Indices 1 2 3 4 5 6 
#
# 1 0.019372 -0.005885 0.000870 -0.004280 0.006255 0.003933
# 2 -0.005885 0.058147 -0.000887 -0.014212 0.008623 0.001356
# 3 0.000870 -0.000887 0.006851 0.002518 0.002740 -0.000363
# 4 -0.004280 -0.014212 0.002518 0.041519 0.001034 -0.003765
# 5 0.006255 0.008623 0.002740 0.001034 0.025130 -0.007838
# 6 0.003933 0.001356 -0.000363 -0.003765 -0.007838 0.035146
#
#
# Mechanical properties :
#
#
# Convention : Reuss Voigt Hill
#
# Bulk Modulus (GPa) = 13.78092 31.25066 22.51579
# Shear Modulus (GPa) = 22.50651 39.74695 31.12673
#
# Velocity S-wave (km/s) = 2.96451 3.93959 3.48631
# Velocity P-wave (km/s) = 4.13508 5.73555 4.99977
#
# Compressibility (1/GPa) = 0.07256410
#
# Stress axis : x y z
#
# Youngs Moduli (GPa) = 51.62194 17.19774 145.96842
#
# Poissons Ratio (x) = 0.10121 -0.12697
# Poissons Ratio (y) = 0.30381 0.12952
# Poissons Ratio (z) = -0.04490 0.01526
#
# Static dielectric constant tensor:
#      x y z
#    x 2.070430 -0.118870 0.160200 
#    y -0.118870 2.190550 0.003610 
#    z 0.160200 0.003610 1.962360 
# 
# From -- ./inp_files/437345.got.cif
#   From: 2010.05.17/outbox.cif.g08.bks.cpg/sg2_219_cif.got.tgz:437345.got - 2010.06.03 11:33:40.
