data_PCOD9099442
_publ_section_title
;
Structure prediction by ZEFSAII (Michael W. Deem and Ramdas Pophale) SiO2 
 PCOD9099442
Probable space group: P -1
;
_chemical_formula_sum "Si O2"
_cell_formula_units_Z 16
_cell_length_a 11.766613
_cell_length_b 7.807652
_cell_length_c 8.890003
_cell_angle_alpha 89.516467
_cell_angle_beta 121.441466
_cell_angle_gamma 91.172154
_cell_volume 696.656692
_symmetry_space_group_name_H-M "P -1"
_symmetry_group_IT_number 2
_symmetry_cell_setting 'triclinic'
loop_
_space_group_symop_operation_xyz
x,y,z
-x,-y,-z
loop_
_atom_site_type_symbol
_atom_site_label
_atom_site_fract_x
_atom_site_fract_y
_atom_site_fract_z
Si Si1 0.913255 0.417687 0.575600
Si Si2 0.697002 0.027954 0.708532
Si Si3 0.375320 0.250827 0.116060
Si Si4 0.110130 0.448668 0.951758
Si Si5 0.868932 0.167311 0.083261
Si Si6 0.643196 0.216289 0.381334
Si Si7 0.274756 0.072348 0.770951
Si Si8 0.158889 0.216887 0.399873
O O1 0.792934 0.289961 0.454995
O O2 0.842206 0.579024 0.603681
O O3 0.000000 0.500000 0.500000
O O4 0.021855 0.347407 0.767524
O O5 0.637052 0.168597 0.554841
O O6 0.618177 0.928405 0.785401
O O7 0.730380 0.877475 0.616650
O O8 0.821551 0.110859 0.885186
O O9 0.519571 0.333804 0.249822
O O10 0.241888 0.344335 0.080232
O O11 0.352751 0.212554 0.924574
O O12 0.160742 0.631525 0.919956
O O13 0.000000 0.500000 0.000000
O O14 0.797352 0.047480 0.155701
O O15 0.023744 0.155503 0.226755
O O16 0.636689 0.051972 0.267632
O O17 0.173794 0.156876 0.582628
#
# Coordination Sequence:
#
# PCOD9099442 Si02
#       8
#     2   2   2   2   2   2   2   2
#     4  11  23  41  61  90 127 163 204 256 308 366
#     4  10  22  38  61  91 121 159 208 257 303 362
#     4  11  23  42  64  90 124 166 208 254 308 367
#     4  11  23  41  61  90 127 163 204 256 308 366
#     4  10  20  37  60  89 122 160 202 253 308 363
#     4  11  23  42  64  90 124 166 208 254 308 367
#     4  10  22  38  61  91 121 159 208 257 303 362
#     4  10  20  37  60  89 122 160 202 253 308 363
#
# _framework density 22.966835
#
# number of rings (size 3 to 8) (size 9 to 14) (size 15 to 20)
#    0.000    1.500    0.000    6.000    0.000    6.000 
#    0.000   16.250    0.000    0.000    0.000    0.000 
#    0.000    0.000    0.000    0.000    0.000    0.000 
#
# Total GULP energy -89322.473448 kJ/mol
# GULP energy per Si atom -5582.654591 kJ/mol
# Density = 2.291456 g / cm^3
# Si number density = 22.966835 Si / 1000 Ang^3
#
#
#
# Elastic Constant Matrix: (Units=GPa)
#
#
# Indices 1 2 3 4 5 6 
#
# 1 54.3978 15.0369 27.3240 -3.9436 12.5102 -18.8687
# 2 15.0369 49.3571 21.5902 -7.1799 4.2620 -7.2525
# 3 27.3240 21.5902 139.1355 0.2150 5.7413 -11.7932
# 4 -3.9436 -7.1799 0.2150 25.8276 -11.1373 -6.7852
# 5 12.5102 4.2620 5.7413 -11.1373 30.7399 -3.1801
# 6 -18.8687 -7.2525 -11.7932 -6.7852 -3.1801 23.8988
#
#
#
# Elastic Compliance Matrix: (Units=1/GPa)
#
#
# Indices 1 2 3 4 5 6 
#
# 1 0.030906 -0.002945 -0.003405 0.007130 -0.006573 0.022977
# 2 -0.002945 0.024468 -0.002766 0.009113 0.002310 0.006630
# 3 -0.003405 -0.002766 0.008310 -0.001455 -0.000297 0.000121
# 4 0.007130 0.009113 -0.001455 0.057957 0.019875 0.026777
# 5 -0.006573 0.002310 -0.000297 0.019875 0.042836 0.006707
# 6 0.022977 0.006630 0.000121 0.026777 0.006707 0.070550
#
#
# Mechanical properties :
#
#
# Convention : Reuss Voigt Hill
#
# Bulk Modulus (GPa) = 22.00120 41.19919 31.60019
# Shear Modulus (GPa) = 18.62822 28.02254 23.32538
#
# Velocity S-wave (km/s) = 2.85106 3.49683 3.19032
# Velocity P-wave (km/s) = 4.52088 5.85502 5.23066
#
# Compressibility (1/GPa) = 0.04545206
#
# Stress axis : x y z
#
# Youngs Moduli (GPa) = 32.35625 40.86968 120.33989
#
# Poissons Ratio (x) = 0.12037 0.40972
# Poissons Ratio (y) = 0.09530 0.33284
# Poissons Ratio (z) = 0.11016 0.11304
#
# Static dielectric constant tensor:
#      x y z
#    x 1.911550 0.012330 0.022810 
#    y 0.012330 1.897140 -0.001580 
#    z 0.022810 -0.001580 1.922660 
# 
# From -- ./inp_files/244189.got.cif
#   From: 2010.05.17/outbox.cif.g08.bks.cpg/sg2_123_cif.got.tgz:244189.got - 2010.06.03 11:33:40.
