data_PCOD9099161
_publ_section_title
;
Structure prediction by ZEFSAII (Michael W. Deem and Ramdas Pophale) SiO2 
 PCOD9099161
Probable space group: P -1
;
_chemical_formula_sum "Si O2"
_cell_formula_units_Z 16
_cell_length_a 12.464421
_cell_length_b 7.135221
_cell_length_c 14.402010
_cell_angle_alpha 47.034038
_cell_angle_beta 132.983927
_cell_angle_gamma 113.746986
_cell_volume 681.051990
_symmetry_space_group_name_H-M "P -1"
_symmetry_group_IT_number 2
_symmetry_cell_setting 'triclinic'
loop_
_space_group_symop_operation_xyz
x,y,z
-x,-y,-z
loop_
_atom_site_type_symbol
_atom_site_label
_atom_site_fract_x
_atom_site_fract_y
_atom_site_fract_z
Si Si1 0.251255 0.524203 0.870853
Si Si2 0.196132 0.696329 0.987380
Si Si3 0.031473 0.726275 0.166589
Si Si4 0.330433 0.545465 0.493967
Si Si5 0.117756 0.272533 0.216170
Si Si6 0.415604 0.186413 0.496267
Si Si7 0.457401 0.716913 0.801205
Si Si8 0.507934 0.761273 0.155900
O O1 0.229993 0.672384 0.906359
O O2 0.297576 0.721844 0.753931
O O3 0.112999 0.362983 0.837585
O O4 0.404490 0.335375 0.030062
O O5 0.033382 0.848191 0.851714
O O6 0.172992 0.418091 0.110125
O O7 0.341700 0.777416 0.094223
O O8 0.168912 0.697794 0.329937
O O9 0.071752 0.501225 0.187657
O O10 0.000000 0.000000 0.000000
O O11 0.363619 0.423856 0.453094
O O12 0.461615 0.723641 0.529479
O O13 0.365431 0.309173 0.667890
O O14 0.262896 0.105367 0.394339
O O15 0.486648 0.965360 0.678624
O O16 0.468129 0.485957 0.812819
O O17 0.500000 0.000000 0.000000
#
# Coordination Sequence:
#
# PCOD9099161 Si02
#       8
#     2   2   2   2   2   2   2   2
#     4   9  20  37  57  85 110 154 205 234 288 357
#     4   9  18  37  58  83 112 149 196 239 294 344
#     4  10  20  37  59  87 122 157 193 244 297 355
#     4  10  22  38  60  93 119 154 196 245 303 348
#     4   9  18  36  59  87 113 146 196 243 295 343
#     4  10  20  38  62  86 120 150 199 249 294 356
#     4  10  22  39  62  84 115 160 202 242 296 350
#     4  11  24  40  59  87 124 159 195 246 296 353
#
# _framework density 23.493067
#
# number of rings (size 3 to 8) (size 9 to 14) (size 15 to 20)
#    0.000    2.250    1.250    0.750    5.250    1.500 
#    9.000    2.500    0.000    0.000    0.000    0.000 
#    0.000    0.000    0.000    0.000    0.000    0.000 
#
# Total GULP energy -89224.982871 kJ/mol
# GULP energy per Si atom -5576.561429 kJ/mol
# Density = 2.343960 g / cm^3
# Si number density = 23.493067 Si / 1000 Ang^3
#
#
#
# Elastic Constant Matrix: (Units=GPa)
#
#
# Indices 1 2 3 4 5 6 
#
# 1 114.6690 31.1882 44.6315 1.2849 5.1588 22.1244
# 2 31.1882 57.3716 16.4330 7.1435 11.8959 12.4868
# 3 44.6315 16.4330 134.2153 19.1709 14.9137 31.6740
# 4 1.2849 7.1435 19.1709 38.9317 8.5154 3.3451
# 5 5.1588 11.8959 14.9137 8.5154 35.1477 1.7442
# 6 22.1244 12.4868 31.6740 3.3451 1.7442 37.1573
#
#
#
# Elastic Compliance Matrix: (Units=1/GPa)
#
#
# Indices 1 2 3 4 5 6 
#
# 1 0.011859 -0.005423 -0.003005 0.002115 0.001002 -0.002914
# 2 -0.005423 0.022794 0.001318 -0.002790 -0.006555 -0.004996
# 3 -0.003005 0.001318 0.011031 -0.004208 -0.003293 -0.007523
# 4 0.002115 -0.002790 -0.004208 0.029151 -0.004686 0.000861
# 5 0.001002 -0.006555 -0.003293 -0.004686 0.032892 0.003291
# 6 -0.002914 -0.004996 -0.007523 0.000861 0.003291 0.036508
#
#
# Mechanical properties :
#
#
# Convention : Reuss Voigt Hill
#
# Bulk Modulus (GPa) = 31.78130 54.52902 43.15516
# Shear Modulus (GPa) = 29.59575 36.51422 33.05498
#
# Velocity S-wave (km/s) = 3.55317 3.94668 3.75508
# Velocity P-wave (km/s) = 5.51277 6.63547 6.10000
#
# Compressibility (1/GPa) = 0.03146504
#
# Stress axis : x y z
#
# Youngs Moduli (GPa) = 84.32522 43.87054 90.65278
#
# Poissons Ratio (x) = 0.23790 0.27243
# Poissons Ratio (y) = 0.45727 -0.11950
# Poissons Ratio (z) = 0.25341 -0.05783
#
# Static dielectric constant tensor:
#      x y z
#    x 1.930870 -0.017540 0.012900 
#    y -0.017540 2.002360 0.049570 
#    z 0.012900 0.049570 1.933110 
# 
# From -- ./inp_files/399137.got.cif
#   From: 2010.05.17/outbox.cif.g08.bks.cpg/sg2_200_cif.got.tgz:399137.got - 2010.06.03 11:33:40.
