data_PCOD9099261
_publ_section_title
;
Structure prediction by ZEFSAII (Michael W. Deem and Ramdas Pophale) SiO2 
 PCOD9099261
Probable space group: P -1
;
_chemical_formula_sum "Si O2"
_cell_formula_units_Z 16
_cell_length_a 5.766288
_cell_length_b 9.706264
_cell_length_c 13.443953
_cell_angle_alpha 113.025524
_cell_angle_beta 98.955755
_cell_angle_gamma 88.816354
_cell_volume 683.386724
_symmetry_space_group_name_H-M "P -1"
_symmetry_group_IT_number 2
_symmetry_cell_setting 'triclinic'
loop_
_space_group_symop_operation_xyz
x,y,z
-x,-y,-z
loop_
_atom_site_type_symbol
_atom_site_label
_atom_site_fract_x
_atom_site_fract_y
_atom_site_fract_z
Si Si1 0.609700 0.548804 0.418995
Si Si2 0.114023 0.340870 0.983075
Si Si3 0.557003 0.048903 0.238660
Si Si4 0.985885 0.662088 0.364459
Si Si5 0.689010 0.544358 0.785370
Si Si6 0.380817 0.858660 0.507903
Si Si7 0.027642 0.995146 0.120428
Si Si8 0.416682 0.293825 0.811391
O O1 0.500000 0.500000 0.500000
O O2 0.878649 0.595821 0.440211
O O3 0.534339 0.431553 0.293168
O O4 0.504143 0.710707 0.436179
O O5 0.194494 0.333653 0.100949
O O6 0.342102 0.340311 0.929104
O O7 0.000000 0.500000 0.000000
O O8 0.972295 0.184729 0.905080
O O9 0.287604 0.070477 0.186915
O O10 0.533705 0.878237 0.228238
O O11 0.789354 0.052742 0.179723
O O12 0.605860 0.137224 0.370332
O O13 0.802323 0.688126 0.272064
O O14 0.129209 0.524498 0.295896
O O15 0.118795 0.818954 0.441491
O O16 0.613934 0.407193 0.814464
O O17 0.500000 0.000000 0.500000
O O18 0.000000 0.000000 0.000000
#
# Coordination Sequence:
#
# PCOD9099261 Si02
#       8
#     2   2   2   2   2   2   2   2
#     4  10  24  43  62  92 135 175 225 283 339 406
#     4  11  21  38  69  98 127 171 221 278 342 401
#     4  11  25  44  71 100 135 187 227 281 345 414
#     4  10  21  40  63  96 138 173 219 285 338 404
#     4  10  20  37  59  97 126 170 217 273 340 400
#     4  11  25  40  69 100 136 177 233 281 348 414
#     4  11  27  49  68  98 142 179 229 286 340 411
#     4  10  21  37  65  97 142 166 220 286 341 402
#
# _framework density 23.412806
#
# number of rings (size 3 to 8) (size 9 to 14) (size 15 to 20)
#    0.000    1.500    1.250    3.750    7.000    5.000 
#    2.250    0.000    0.000    0.000    0.000    0.000 
#    0.000    0.000    0.000    0.000    0.000    0.000 
#
# Total GULP energy -89214.633173 kJ/mol
# GULP energy per Si atom -5575.914573 kJ/mol
# Density = 2.335952 g / cm^3
# Si number density = 23.412806 Si / 1000 Ang^3
#
#
#
# Elastic Constant Matrix: (Units=GPa)
#
#
# Indices 1 2 3 4 5 6 
#
# 1 90.5500 14.9962 40.1397 -1.0841 4.7724 26.1995
# 2 14.9962 53.3288 7.8709 -10.9286 0.4726 12.7438
# 3 40.1397 7.8709 135.9150 5.2920 3.9292 18.6470
# 4 -1.0841 -10.9286 5.2920 32.7990 4.8670 -1.5570
# 5 4.7724 0.4726 3.9292 4.8670 42.2364 -3.2893
# 6 26.1995 12.7438 18.6470 -1.5570 -3.2893 35.2597
#
#
#
# Elastic Compliance Matrix: (Units=1/GPa)
#
#
# Indices 1 2 3 4 5 6 
#
# 1 0.015580 -0.001535 -0.003153 0.000391 -0.002239 -0.009546
# 2 -0.001535 0.022305 -0.000171 0.007304 -0.001419 -0.006641
# 3 -0.003153 -0.000171 0.008690 -0.001607 -0.000444 -0.002303
# 4 0.000391 0.007304 -0.001607 0.033734 -0.003938 -0.000959
# 5 -0.002239 -0.001419 -0.000444 -0.003938 0.024795 0.004550
# 6 -0.009546 -0.006641 -0.002303 -0.000959 0.004550 0.039455
#
#
# Mechanical properties :
#
#
# Convention : Reuss Voigt Hill
#
# Bulk Modulus (GPa) = 27.13125 45.08970 36.11047
# Shear Modulus (GPa) = 30.01904 36.51149 33.26526
#
# Velocity S-wave (km/s) = 3.58462 3.95329 3.77346
# Velocity P-wave (km/s) = 5.36153 6.33549 5.86875
#
# Compressibility (1/GPa) = 0.03685787
#
# Stress axis : x y z
#
# Youngs Moduli (GPa) = 64.18360 44.83373 115.07334
#
# Poissons Ratio (x) = 0.06880 0.36286
# Poissons Ratio (y) = 0.09849 0.01965
# Poissons Ratio (z) = 0.20239 0.00766
#
# Static dielectric constant tensor:
#      x y z
#    x 2.475630 -0.018520 0.093360 
#    y -0.018520 1.993560 0.073440 
#    z 0.093360 0.073440 2.009860 
# 
# From -- ./inp_files/365264.got.cif
#   From: 2010.05.17/outbox.cif.g08.bks.cpg/sg2_183_cif.got.tgz:365264.got - 2010.06.03 11:33:40.
