data_PCOD9099211
_publ_section_title
;
Structure prediction by ZEFSAII (Michael W. Deem and Ramdas Pophale) SiO2 
 PCOD9099211
Probable space group: P -1
;
_chemical_formula_sum "Si O2"
_cell_formula_units_Z 14
_cell_length_a 5.351763
_cell_length_b 15.189823
_cell_length_c 9.221969
_cell_angle_alpha 108.303027
_cell_angle_beta 128.342571
_cell_angle_gamma 75.672337
_cell_volume 556.838495
_symmetry_space_group_name_H-M "P -1"
_symmetry_group_IT_number 2
_symmetry_cell_setting 'triclinic'
loop_
_space_group_symop_operation_xyz
x,y,z
-x,-y,-z
loop_
_atom_site_type_symbol
_atom_site_label
_atom_site_fract_x
_atom_site_fract_y
_atom_site_fract_z
Si Si1 0.219041 0.523056 0.227327
Si Si2 0.764010 0.198668 0.369341
Si Si3 0.774507 0.256435 0.097001
Si Si4 0.184338 0.301714 0.731510
Si Si5 0.069868 0.109994 0.674505
Si Si6 0.686297 0.633239 0.582736
Si Si7 0.828836 0.076961 0.876523
O O1 0.541084 0.579937 0.366750
O O2 0.318627 0.433477 0.312427
O O3 0.999125 0.599102 0.277120
O O4 0.000000 0.500000 0.000000
O O5 0.664452 0.198238 0.167255
O O6 0.524765 0.272647 0.404099
O O7 0.111811 0.245211 0.530847
O O8 0.842168 0.107347 0.448074
O O9 0.953949 0.174752 0.026853
O O10 0.954705 0.338852 0.274440
O O11 0.533374 0.305076 0.920299
O O12 0.051364 0.223207 0.752488
O O13 0.443610 0.085379 0.762319
O O14 0.928391 0.063714 0.739116
O O15 0.000000 0.000000 0.000000
#
# Coordination Sequence:
#
# PCOD9099211 Si02
#       7
#     2   2   2   2   2   2   2
#     4  10  20  37  59  89 131 176 222 284 330 393
#     4   9  21  40  62  93 129 175 226 268 334 412
#     4  11  23  38  69  91 127 181 226 274 348 399
#     4   8  20  39  60  91 132 173 229 269 339 397
#     4   9  22  42  70  92 142 177 219 274 346 406
#     4  10  23  36  60  93 129 170 231 280 327 397
#     4  11  24  44  71 104 135 174 226 283 342 412
#
# _framework density 25.141938
#
# number of rings (size 3 to 8) (size 9 to 14) (size 15 to 20)
#    0.857    1.429    0.000    1.286    8.000    1.714 
#    0.000   11.429    0.000    0.000    0.000    0.000 
#    0.000    0.000    0.000    0.000    0.000    0.000 
#
# Total GULP energy -78024.905597 kJ/mol
# GULP energy per Si atom -5573.207543 kJ/mol
# Density = 2.508471 g / cm^3
# Si number density = 25.141938 Si / 1000 Ang^3
#
#
#
# Elastic Constant Matrix: (Units=GPa)
#
#
# Indices 1 2 3 4 5 6 
#
# 1 86.7356 37.6790 18.5387 -15.3628 -13.5109 -2.8619
# 2 37.6790 77.3056 31.4710 -19.3056 12.7182 -17.2392
# 3 18.5387 31.4710 129.9914 -2.0438 6.6404 -0.2079
# 4 -15.3628 -19.3056 -2.0438 49.1023 -3.4768 14.0658
# 5 -13.5109 12.7182 6.6404 -3.4768 35.7789 0.7314
# 6 -2.8619 -17.2392 -0.2079 14.0658 0.7314 20.9907
#
#
#
# Elastic Compliance Matrix: (Units=1/GPa)
#
#
# Indices 1 2 3 4 5 6 
#
# 1 0.019825 -0.013017 -0.000271 0.005455 0.012941 -0.012096
# 2 -0.013017 0.028227 -0.004201 -0.000564 -0.014679 0.022256
# 3 -0.000271 -0.004201 0.008747 -0.000515 -0.000220 -0.003048
# 4 0.005455 -0.000564 -0.000515 0.027457 0.005398 -0.018312
# 5 0.012941 -0.014679 -0.000220 0.005398 0.038932 -0.015268
# 6 -0.012096 0.022256 -0.003048 -0.018312 -0.015268 0.077042
#
#
# Mechanical properties :
#
#
# Convention : Reuss Voigt Hill
#
# Bulk Modulus (GPa) = 45.82432 52.15667 48.99049
# Shear Modulus (GPa) = 20.62032 34.93064 27.77548
#
# Velocity S-wave (km/s) = 2.86694 3.73143 3.32738
# Velocity P-wave (km/s) = 5.40601 6.27333 5.85575
#
# Compressibility (1/GPa) = 0.02182248
#
# Stress axis : x y z
#
# Youngs Moduli (GPa) = 50.44247 35.42654 114.32855
#
# Poissons Ratio (x) = 0.46113 0.03093
# Poissons Ratio (y) = 0.65659 0.48029
# Poissons Ratio (z) = 0.01365 0.14882
#
# Static dielectric constant tensor:
#      x y z
#    x 2.100460 0.114290 0.093010 
#    y 0.114290 2.049280 0.036860 
#    z 0.093010 0.036860 2.122310 
# 
# From -- ./inp_files/137872.got.cif
#   From: 2010.05.17/outbox.cif.g08.bks.cpg/sg2_69_cif.got.tgz:137872.got - 2010.06.03 11:33:40.
