data_PCOD9099607
_publ_section_title
;
Structure prediction by ZEFSAII (Michael W. Deem and Ramdas Pophale) SiO2 
 PCOD9099607
Probable space group: P -1
;
_chemical_formula_sum "Si O2"
_cell_formula_units_Z 14
_cell_length_a 9.976902
_cell_length_b 7.428677
_cell_length_c 19.873086
_cell_angle_alpha 37.459135
_cell_angle_beta 134.127638
_cell_angle_gamma 140.900318
_cell_volume 552.461353
_symmetry_space_group_name_H-M "P -1"
_symmetry_group_IT_number 2
_symmetry_cell_setting 'triclinic'
loop_
_space_group_symop_operation_xyz
x,y,z
-x,-y,-z
loop_
_atom_site_type_symbol
_atom_site_label
_atom_site_fract_x
_atom_site_fract_y
_atom_site_fract_z
Si Si1 0.227213 0.220695 0.052216
Si Si2 0.561875 0.046462 0.168905
Si Si3 0.444249 0.638640 0.117750
Si Si4 0.600017 0.910310 0.497008
Si Si5 0.833387 0.593891 0.283961
Si Si6 0.855922 0.605522 0.544535
Si Si7 0.035726 0.011740 0.655752
O O1 0.367768 0.035283 0.146780
O O2 0.233146 0.327617 0.101021
O O3 0.343748 0.595679 0.945549
O O4 0.000000 0.000000 0.000000
O O5 0.462705 0.715947 0.181182
O O6 0.775462 0.074074 0.270175
O O7 0.647378 0.601836 0.175549
O O8 0.500000 0.000000 0.000000
O O9 0.398291 0.607420 0.477072
O O10 0.500000 0.000000 0.500000
O O11 0.705738 0.238378 0.387223
O O12 0.778667 0.806892 0.610817
O O13 0.931645 0.905803 0.278734
O O14 0.035852 0.588173 0.325405
O O15 0.892631 0.644675 0.464976
O O16 0.000000 0.000000 0.500000
#
# Coordination Sequence:
#
# PCOD9099607 Si02
#       7
#     2   2   2   2   2   2   2
#     4  10  21  40  62  88 119 155 202 251 303 358
#     4   9  21  40  60  87 121 157 197 252 301 359
#     4   9  20  41  64  87 123 160 197 249 309 358
#     4  11  19  38  62  85 119 161 201 243 296 361
#     4  10  20  38  60  88 118 157 206 242 294 368
#     4  11  23  36  56  87 122 158 193 250 302 346
#     4  10  20  37  61  86 117 158 204 239 296 368
#
# _framework density 25.341139999999999
#
# number of rings (size 3 to 8) (size 9 to 14) (size 15 to 20)
#    0.000    2.000    2.857    0.857    2.000    4.000 
#    2.571    0.000    0.000    0.000    0.000    0.000 
#    0.000    0.000    0.000    0.000    0.000    0.000 
#
# Total GULP energy -78120.467915 kJ/mol
# GULP energy per Si atom -5580.033423 kJ/mol
# Density = 2.528346 g / cm^3
# Si number density = 25.341140 Si / 1000 Ang^3
#
#
#
# Elastic Constant Matrix: (Units=GPa)
#
#
# Indices 1 2 3 4 5 6 
#
# 1 77.2573 45.7600 30.4000 14.2046 32.3400 -10.2751
# 2 45.7600 186.1136 48.9747 48.8115 24.3923 -16.9645
# 3 30.4000 48.9747 154.9822 31.2883 43.6399 7.8552
# 4 14.2046 48.8115 31.2883 41.9414 11.8232 -4.9609
# 5 32.3400 24.3923 43.6399 11.8232 45.2249 1.6503
# 6 -10.2751 -16.9645 7.8552 -4.9609 1.6503 32.4511
#
#
#
# Elastic Compliance Matrix: (Units=1/GPa)
#
#
# Indices 1 2 3 4 5 6 
#
# 1 0.021275 -0.003160 0.000376 0.000924 -0.014328 0.005863
# 2 -0.003160 0.008695 -0.000642 -0.008367 0.000289 0.002406
# 3 0.000376 -0.000642 0.010036 -0.004903 -0.008216 -0.002977
# 4 0.000924 -0.008367 -0.004903 0.037657 -0.001369 0.002932
# 5 -0.014328 0.000289 -0.008216 -0.001369 0.040658 -0.004674
# 6 0.005863 0.002406 -0.002977 0.002932 -0.004674 0.035337
#
#
# Mechanical properties :
#
#
# Convention : Reuss Voigt Hill
#
# Bulk Modulus (GPa) = 30.16276 74.29138 52.22707
# Shear Modulus (GPa) = 29.14429 43.47139 36.30784
#
# Velocity S-wave (km/s) = 3.39496 4.14629 3.78929
# Velocity P-wave (km/s) = 5.22458 7.23204 6.30867
#
# Compressibility (1/GPa) = 0.03315346
#
# Stress axis : x y z
#
# Youngs Moduli (GPa) = 47.00381 115.01261 99.64416
#
# Poissons Ratio (x) = 0.36344 -0.03747
# Poissons Ratio (y) = 0.14853 0.06397
# Poissons Ratio (z) = -0.01768 0.07384
#
# Static dielectric constant tensor:
#      x y z
#    x 2.145080 -0.057450 0.004720 
#    y -0.057450 2.031760 0.053370 
#    z 0.004720 0.053370 2.012020 
# 
# From -- ./inp_files/45456.got.cif
#   From: 2010.05.17/outbox.cif.g08.bks.cpg/sg2_23_cif.got.tgz:45456.got - 2010.06.03 11:33:40.
