data_PCOD9099357
_publ_section_title
;
Structure prediction by ZEFSAII (Michael W. Deem and Ramdas Pophale) SiO2 
 PCOD9099357
Probable space group: P -1
;
_chemical_formula_sum "Si O2"
_cell_formula_units_Z 16
_cell_length_a 17.117223
_cell_length_b 23.813374
_cell_length_c 14.833654
_cell_angle_alpha 20.689843
_cell_angle_beta 149.221519
_cell_angle_gamma 159.975335
_cell_volume 721.651069
_symmetry_space_group_name_H-M "P -1"
_symmetry_group_IT_number 2
_symmetry_cell_setting 'triclinic'
loop_
_space_group_symop_operation_xyz
x,y,z
-x,-y,-z
loop_
_atom_site_type_symbol
_atom_site_label
_atom_site_fract_x
_atom_site_fract_y
_atom_site_fract_z
Si Si1 0.836646 0.565110 0.504189
Si Si2 0.050329 0.861625 0.932757
Si Si3 0.362257 0.056568 0.773008
Si Si4 0.026327 0.407985 0.012176
Si Si5 0.277725 0.361641 0.424784
Si Si6 0.212112 0.851228 0.291762
Si Si7 0.367116 0.287729 0.886015
Si Si8 0.346651 0.627193 0.821616
O O1 0.574042 0.341116 0.544643
O O2 0.836646 0.743529 0.274138
O O3 0.999087 0.668170 0.424696
O O4 0.905760 0.486619 0.765198
O O5 0.223423 0.971788 0.855075
O O6 0.093023 0.076801 0.681547
O O7 0.126915 0.809474 0.169033
O O8 0.801094 0.610455 0.027794
O O9 0.168827 0.877653 0.774359
O O10 0.500000 0.000000 0.000000
O O11 0.158772 0.442929 0.178514
O O12 0.199160 0.543982 0.892661
O O13 0.500000 0.500000 0.500000
O O14 0.400805 0.448240 0.319053
O O15 0.364746 0.812482 0.513850
O O16 0.330833 0.105734 0.060873
O O17 0.417298 0.262343 0.073697
#
# Coordination Sequence:
#
# PCOD9099357 Si02
#       8
#     2   2   2   2   2   2   2   2
#     4  10  20  37  60  86 120 161 199 238 297 359
#     4  11  21  37  65  88 119 156 199 252 297 347
#     4   9  18  35  61  90 115 154 196 243 291 349
#     4   8  19  35  59  88 117 151 201 246 289 357
#     4  11  21  37  61  92 120 151 200 253 300 345
#     4  11  22  39  59  86 126 156 200 247 300 348
#     4  11  21  37  63  86 119 161 204 243 292 360
#     4   9  21  36  60  90 111 157 208 246 287 357
#
# _framework density 22.171379999999999
#
# number of rings (size 3 to 8) (size 9 to 14) (size 15 to 20)
#    0.000    2.000    2.500    1.875    1.750    1.500 
#    0.000    1.250    5.500    0.000    0.000    0.000 
#    0.000    0.000    0.000    0.000    0.000    0.000 
#
# Total GULP energy -89175.515140 kJ/mol
# GULP energy per Si atom -5573.469696 kJ/mol
# Density = 2.212092 g / cm^3
# Si number density = 22.171380 Si / 1000 Ang^3
#
#
#
# Elastic Constant Matrix: (Units=GPa)
#
#
# Indices 1 2 3 4 5 6 
#
# 1 12.2906 14.2521 17.2985 3.2020 3.5626 -3.7210
# 2 14.2521 94.9276 51.2352 27.1920 11.6888 -12.9824
# 3 17.2985 51.2352 125.9229 26.7918 11.1523 -6.1476
# 4 3.2020 27.1920 26.7918 42.6183 -1.6857 -3.3135
# 5 3.5626 11.6888 11.1523 -1.6857 22.5959 0.3068
# 6 -3.7210 -12.9824 -6.1476 -3.3135 0.3068 24.5606
#
#
#
# Elastic Compliance Matrix: (Units=1/GPa)
#
#
# Indices 1 2 3 4 5 6 
#
# 1 0.112739 -0.010263 -0.011500 0.005801 -0.006488 0.009640
# 2 -0.010263 0.017860 -0.003169 -0.008430 -0.006767 0.006039
# 3 -0.011500 -0.003169 0.012051 -0.004882 -0.002846 -0.001024
# 4 0.005801 -0.008430 -0.004882 0.031754 0.008233 -0.000618
# 5 -0.006488 -0.006767 -0.002846 0.008233 0.050863 -0.004797
# 6 0.009640 0.006039 -0.001024 -0.000618 -0.004797 0.045089
#
#
# Mechanical properties :
#
#
# Convention : Reuss Voigt Hill
#
# Bulk Modulus (GPa) = 10.77767 44.30141 27.53954
# Shear Modulus (GPa) = 14.23893 27.97863 21.10878
#
# Velocity S-wave (km/s) = 2.53696 3.55621 3.08892
# Velocity P-wave (km/s) = 3.66786 6.07346 5.01698
#
# Compressibility (1/GPa) = 0.09278443
#
# Stress axis : x y z
#
# Youngs Moduli (GPa) = 8.87004 55.99207 82.97760
#
# Poissons Ratio (x) = 0.57467 0.95428
# Poissons Ratio (y) = 0.09104 0.26295
# Poissons Ratio (z) = 0.10201 0.17744
#
# Static dielectric constant tensor:
#      x y z
#    x 1.817430 -0.008600 0.037720 
#    y -0.008600 1.893030 -0.000390 
#    z 0.037720 -0.000390 1.925140 
# 
# From -- ./inp_files/223203.got.cif
#   From: 2010.05.17/outbox.cif.g08.bks.cpg/sg2_112_cif.got.tgz:223203.got - 2010.06.03 11:33:40.
