data_PCOD9099439
_publ_section_title
;
Structure prediction by ZEFSAII (Michael W. Deem and Ramdas Pophale) SiO2 
 PCOD9099439
Probable space group: P -1
;
_chemical_formula_sum "Si O2"
_cell_formula_units_Z 14
_cell_length_a 9.539938
_cell_length_b 19.207653
_cell_length_c 8.933556
_cell_angle_alpha 136.375272
_cell_angle_beta 58.194522
_cell_angle_gamma 141.833300
_cell_volume 694.510408
_symmetry_space_group_name_H-M "P -1"
_symmetry_group_IT_number 2
_symmetry_cell_setting 'triclinic'
loop_
_space_group_symop_operation_xyz
x,y,z
-x,-y,-z
loop_
_atom_site_type_symbol
_atom_site_label
_atom_site_fract_x
_atom_site_fract_y
_atom_site_fract_z
Si Si1 0.506895 0.899746 0.249366
Si Si2 0.155887 0.865245 0.766358
Si Si3 0.968681 0.598714 0.609461
Si Si4 0.256263 0.348839 0.938460
Si Si5 0.361057 0.538715 0.694135
Si Si6 0.995386 0.290634 0.707367
Si Si7 0.248896 0.184637 0.933784
O O1 0.692819 0.908046 0.240469
O O2 0.241231 0.755301 0.181905
O O3 0.500000 0.000000 0.500000
O O4 0.609179 0.976766 0.151744
O O5 0.158619 0.757458 0.681532
O O6 0.051233 0.792841 0.548463
O O7 0.985776 0.870312 0.953811
O O8 0.800082 0.506863 0.423730
O O9 0.000000 0.500000 0.500000
O O10 0.856738 0.620343 0.834121
O O11 0.098907 0.274301 0.764132
O O12 0.282650 0.255064 0.866792
O O13 0.500000 0.500000 0.000000
O O14 0.500000 0.500000 0.500000
O O15 0.197958 0.450217 0.789833
O O16 0.554297 0.697256 0.878218
#
# Coordination Sequence:
#
# PCOD9099439 Si02
#       7
#     2   2   2   2   2   2   2
#     4  10  23  40  59  85 117 159 201 244 283 345
#     4   9  20  42  62  79 119 161 200 226 286 368
#     4  10  22  36  59  87 121 147 190 245 297 344
#     4  11  21  35  56  93 121 145 190 247 295 344
#     4  11  18  38  60  88 117 156 194 237 295 360
#     4  10  20  37  60  89 121 146 192 248 295 334
#     4  11  21  37  65  83 116 162 198 233 294 356
#
# _framework density 20.158086999999998
#
# number of rings (size 3 to 8) (size 9 to 14) (size 15 to 20)
#    0.000    1.714    5.714    0.429    2.000    4.000 
#    0.000    5.714    3.143    0.000    0.000    0.000 
#    0.000    0.000    0.000    0.000    0.000    0.000 
#
# Total GULP energy -77957.444288 kJ/mol
# GULP energy per Si atom -5568.388878 kJ/mol
# Density = 2.011221 g / cm^3
# Si number density = 20.158087 Si / 1000 Ang^3
#
#
#
# Elastic Constant Matrix: (Units=GPa)
#
#
# Indices 1 2 3 4 5 6 
#
# 1 122.3380 45.4239 15.9534 -7.8218 -21.4693 -35.8422
# 2 45.4239 135.1264 9.1896 -27.0802 -20.8250 -3.9889
# 3 15.9534 9.1896 38.1169 -6.8356 -8.8372 -17.1868
# 4 -7.8218 -27.0802 -6.8356 18.0481 -6.9013 -0.8095
# 5 -21.4693 -20.8250 -8.8372 -6.9013 37.8987 2.8303
# 6 -35.8422 -3.9889 -17.1868 -0.8095 2.8303 35.1490
#
#
#
# Elastic Compliance Matrix: (Units=1/GPa)
#
#
# Indices 1 2 3 4 5 6 
#
# 1 0.016022 -0.000828 0.007217 0.013638 0.011356 0.019173
# 2 -0.000828 0.016710 0.008442 0.034471 0.016613 0.004636
# 3 0.007217 0.008442 0.049842 0.046184 0.026398 0.031627
# 4 0.013638 0.034471 0.046184 0.156371 0.063005 0.038930
# 5 0.011356 0.016613 0.026398 0.063005 0.057846 0.023166
# 6 0.019173 0.004636 0.031627 0.038930 0.023166 0.063023
#
#
# Mechanical properties :
#
#
# Convention : Reuss Voigt Hill
#
# Bulk Modulus (GPa) = 8.90969 48.52390 28.71679
# Shear Modulus (GPa) = 13.60306 33.22013 23.41159
#
# Velocity S-wave (km/s) = 2.60055 4.06394 3.41163
# Velocity P-wave (km/s) = 3.66696 6.79299 5.45854
#
# Compressibility (1/GPa) = 0.11223739
#
# Stress axis : x y z
#
# Youngs Moduli (GPa) = 62.41274 59.84451 20.06338
#
# Poissons Ratio (x) = 0.04952 -0.14480
# Poissons Ratio (y) = 0.05165 -0.16937
# Poissons Ratio (z) = -0.45045 -0.50519
#
# Static dielectric constant tensor:
#      x y z
#    x 1.755420 -0.023660 -0.047530 
#    y -0.023660 1.823130 0.037520 
#    z -0.047530 0.037520 1.792670 
# 
# From -- ./inp_files/169168.got.cif
#   From: 2010.05.17/outbox.cif.g08.bks.cpg/sg2_85_cif.got.tgz:169168.got - 2010.06.03 11:33:40.
