data_PCOD9099470
_publ_section_title
;
Structure prediction by ZEFSAII (Michael W. Deem and Ramdas Pophale) SiO2 
 PCOD9099470
Probable space group: P -1
;
_chemical_formula_sum "Si O2"
_cell_formula_units_Z 16
_cell_length_a 6.559822
_cell_length_b 8.366772
_cell_length_c 13.904486
_cell_angle_alpha 74.054052
_cell_angle_beta 75.334219
_cell_angle_gamma 82.148137
_cell_volume 708.022594
_symmetry_space_group_name_H-M "P -1"
_symmetry_group_IT_number 2
_symmetry_cell_setting 'triclinic'
loop_
_space_group_symop_operation_xyz
x,y,z
-x,-y,-z
loop_
_atom_site_type_symbol
_atom_site_label
_atom_site_fract_x
_atom_site_fract_y
_atom_site_fract_z
Si Si1 0.459656 0.097276 0.588389
Si Si2 0.737420 0.441594 0.011521
Si Si3 0.735459 0.249527 0.685083
Si Si4 0.392901 0.536728 0.681786
Si Si5 0.143098 0.408666 0.577746
Si Si6 0.625416 0.180659 0.218644
Si Si7 0.472812 0.047453 0.886202
Si Si8 0.876562 0.682022 0.108653
O O1 0.667025 0.134768 0.621868
O O2 0.332569 0.272907 0.551552
O O3 0.500000 0.000000 0.500000
O O4 0.323282 0.985968 0.695799
O O5 0.761001 0.297760 0.115658
O O6 0.814877 0.608566 0.023727
O O7 0.500000 0.500000 0.000000
O O8 0.873788 0.365255 0.918244
O O9 0.601061 0.422924 0.653148
O O10 0.631501 0.175246 0.804528
O O11 0.973830 0.291940 0.666226
O O12 0.246200 0.551990 0.603361
O O13 0.454682 0.692595 0.709738
O O14 0.244532 0.428081 0.783804
O O15 0.000000 0.500000 0.500000
O O16 0.485460 0.110167 0.162510
O O17 0.232472 0.133517 0.892705
O O18 0.500000 0.000000 0.000000
#
# Coordination Sequence:
#
# PCOD9099470 Si02
#       8
#     2   2   2   2   2   2   2   2
#     4  10  24  44  65  91 135 167 205 274 329 375
#     4  10  20  37  60  90 124 165 215 258 306 379
#     4   9  22  43  64  92 129 167 212 259 321 389
#     4   9  21  41  63  90 129 165 208 264 317 378
#     4  11  25  42  67  96 119 171 224 262 324 387
#     4  10  22  39  61  93 127 171 208 260 328 372
#     4  10  20  38  64  95 129 170 209 259 323 387
#     4   9  20  37  57  87 126 164 206 253 312 383
#
# _framework density 22.598147000000001
#
# number of rings (size 3 to 8) (size 9 to 14) (size 15 to 20)
#    0.000    2.250    0.000    1.500    3.500    7.000 
#    0.000    3.750    0.000    0.000    0.000    0.000 
#    0.000    0.000    0.000    0.000    0.000    0.000 
#
# Total GULP energy -89085.904260 kJ/mol
# GULP energy per Si atom -5567.869016 kJ/mol
# Density = 2.254671 g / cm^3
# Si number density = 22.598147 Si / 1000 Ang^3
#
#
#
# Elastic Constant Matrix: (Units=GPa)
#
#
# Indices 1 2 3 4 5 6 
#
# 1 90.4581 31.9716 26.9275 18.8006 -5.5873 2.1014
# 2 31.9716 98.6762 34.2058 16.5924 15.4097 17.0351
# 3 26.9275 34.2058 112.1729 1.9493 7.0647 -0.9460
# 4 18.8006 16.5924 1.9493 42.1249 5.7356 6.0236
# 5 -5.5873 15.4097 7.0647 5.7356 37.8001 7.3166
# 6 2.1014 17.0351 -0.9460 6.0236 7.3166 27.0226
#
#
#
# Elastic Compliance Matrix: (Units=1/GPa)
#
#
# Indices 1 2 3 4 5 6 
#
# 1 0.014635 -0.003862 -0.002532 -0.005721 0.004853 0.001169
# 2 -0.003862 0.014911 -0.003378 -0.002341 -0.004200 -0.007559
# 3 -0.002532 -0.003378 0.010658 0.001815 -0.001803 0.002783
# 4 -0.005721 -0.002341 0.001815 0.028120 -0.003871 -0.003236
# 5 0.004853 -0.004200 -0.001803 -0.003871 0.030830 -0.005278
# 6 0.001169 -0.007559 0.002783 -0.003236 -0.005278 0.043928
#
#
# Mechanical properties :
#
#
# Convention : Reuss Voigt Hill
#
# Bulk Modulus (GPa) = 48.40260 54.16856 51.28558
# Shear Modulus (GPa) = 29.49609 35.26966 32.38287
#
# Velocity S-wave (km/s) = 3.61674 3.95490 3.78959
# Velocity P-wave (km/s) = 6.23750 6.69905 6.47239
#
# Compressibility (1/GPa) = 0.02066005
#
# Stress axis : x y z
#
# Youngs Moduli (GPa) = 68.32861 67.06510 93.82338
#
# Poissons Ratio (x) = 0.25899 0.23756
# Poissons Ratio (y) = 0.26387 0.31698
# Poissons Ratio (z) = 0.17301 0.22658
#
# Static dielectric constant tensor:
#      x y z
#    x 1.899810 0.041090 -0.040450 
#    y 0.041090 1.868500 -0.020050 
#    z -0.040450 -0.020050 1.930960 
# 
# From -- ./inp_files/288667.got.cif
#   From: 2010.05.17/outbox.cif.g08.bks.cpg/sg2_145_cif.got.tgz:288667.got - 2010.06.03 11:33:40.
