data_PCOD9099501
_publ_section_title
;
Structure prediction by ZEFSAII (Michael W. Deem and Ramdas Pophale) SiO2 
 PCOD9099501
Probable space group: P -1
;
_chemical_formula_sum "Si O2"
_cell_formula_units_Z 14
_cell_length_a 10.547462
_cell_length_b 12.272069
_cell_length_c 4.984935
_cell_angle_alpha 82.990866
_cell_angle_beta 89.001085
_cell_angle_gamma 121.467372
_cell_volume 543.727106
_symmetry_space_group_name_H-M "P -1"
_symmetry_group_IT_number 2
_symmetry_cell_setting 'triclinic'
loop_
_space_group_symop_operation_xyz
x,y,z
-x,-y,-z
loop_
_atom_site_type_symbol
_atom_site_label
_atom_site_fract_x
_atom_site_fract_y
_atom_site_fract_z
Si Si1 0.376086 0.318224 0.567196
Si Si2 0.835571 0.596450 0.695815
Si Si3 0.162894 0.792497 0.777212
Si Si4 0.653277 0.921164 0.512309
Si Si5 0.499170 0.700886 0.936771
Si Si6 0.855187 0.460540 0.206755
Si Si7 0.610246 0.142492 0.823669
O O1 0.273926 0.363849 0.434388
O O2 0.511471 0.353535 0.344434
O O3 0.513727 0.120022 0.563217
O O4 0.441397 0.363195 0.843911
O O5 0.770131 0.501767 0.985978
O O6 0.985903 0.721203 0.768956
O O7 0.875687 0.533922 0.463047
O O8 0.244908 0.927185 0.575237
O O9 0.199366 0.687929 0.684300
O O10 0.228257 0.821130 0.070115
O O11 0.631179 0.853349 0.818676
O O12 0.706044 0.838038 0.371679
O O13 0.395420 0.737871 0.087203
O O14 0.000000 0.500000 0.000000
O O15 0.500000 0.000000 0.000000
#
# Coordination Sequence:
#
# PCOD9099501 Si02
#       7
#     2   2   2   2   2   2   2
#     4   9  19  37  62  81 116 158 194 232 291 345
#     4  11  22  42  61  86 117 157 197 244 284 343
#     4  10  20  37  60  92 118 153 188 246 293 353
#     4   8  19  37  58  90 118 152 187 236 294 349
#     4   9  18  38  55  86 116 156 186 234 286 349
#     4  10  22  42  57  85 119 156 199 238 289 340
#     4   9  18  36  58  88 122 151 191 233 299 351
#
# _framework density 25.748208999999999
#
# number of rings (size 3 to 8) (size 9 to 14) (size 15 to 20)
#    0.857    1.714    0.000    2.571    0.000    2.857 
#   30.857    0.714    0.000   12.000    0.000    0.000 
#    0.000    0.000    0.000    0.000    0.000    0.000 
#
# Total GULP energy -78001.614735 kJ/mol
# GULP energy per Si atom -5571.543910 kJ/mol
# Density = 2.568961 g / cm^3
# Si number density = 25.748209 Si / 1000 Ang^3
#
#
#
# Elastic Constant Matrix: (Units=GPa)
#
#
# Indices 1 2 3 4 5 6 
#
# 1 68.5776 32.7619 27.6057 -3.9271 22.0665 -15.3473
# 2 32.7619 164.9152 29.4492 -4.1149 9.3809 2.7244
# 3 27.6057 29.4492 163.2179 -4.2497 24.0476 -13.9967
# 4 -3.9271 -4.1149 -4.2497 36.4032 -8.3316 7.1721
# 5 22.0665 9.3809 24.0476 -8.3316 46.0399 -6.1095
# 6 -15.3473 2.7244 -13.9967 7.1721 -6.1095 38.7646
#
#
#
# Elastic Compliance Matrix: (Units=1/GPa)
#
#
# Indices 1 2 3 4 5 6 
#
# 1 0.020856 -0.003644 -0.001120 -0.001528 -0.007999 0.007131
# 2 -0.003644 0.006974 -0.000915 0.000897 0.000657 -0.002326
# 3 -0.001120 -0.000915 0.007035 -0.000394 -0.002785 0.001795
# 4 -0.001528 0.000897 -0.000394 0.029670 0.005402 -0.005449
# 5 -0.007999 0.000657 -0.002785 0.005402 0.027740 -0.000846
# 6 0.007131 -0.002326 0.001795 -0.005449 -0.000846 0.030306
#
#
# Mechanical properties :
#
#
# Convention : Reuss Voigt Hill
#
# Bulk Modulus (GPa) = 42.53882 64.03827 53.28854
# Shear Modulus (GPa) = 35.26690 44.70114 39.98402
#
# Velocity S-wave (km/s) = 3.70494 4.17116 3.94494
# Velocity P-wave (km/s) = 5.90415 6.93708 6.44135
#
# Compressibility (1/GPa) = 0.02350794
#
# Stress axis : x y z
#
# Youngs Moduli (GPa) = 47.94802 143.37980 142.14238
#
# Poissons Ratio (x) = 0.52251 0.15915
# Poissons Ratio (y) = 0.17473 0.13005
# Poissons Ratio (z) = 0.05369 0.13118
#
# Static dielectric constant tensor:
#      x y z
#    x 2.227420 0.085970 -0.042160 
#    y 0.085970 2.150990 0.016240 
#    z -0.042160 0.016240 2.194550 
# 
# From -- ./inp_files/70700.got.cif
#   From: 2010.05.17/outbox.cif.g08.bks.cpg/sg2_36_cif.got.tgz:70700.got - 2010.06.03 11:33:40.
