data_PCOD9099396
_publ_section_title
;
Structure prediction by ZEFSAII (Michael W. Deem and Ramdas Pophale) SiO2 
 PCOD9099396
Probable space group: P -1
;
_chemical_formula_sum "Si O2"
_cell_formula_units_Z 14
_cell_length_a 9.592998
_cell_length_b 9.840212
_cell_length_c 9.718718
_cell_angle_alpha 53.454737
_cell_angle_beta 70.056819
_cell_angle_gamma 96.939030
_cell_volume 625.877679
_symmetry_space_group_name_H-M "P -1"
_symmetry_group_IT_number 2
_symmetry_cell_setting 'triclinic'
loop_
_space_group_symop_operation_xyz
x,y,z
-x,-y,-z
loop_
_atom_site_type_symbol
_atom_site_label
_atom_site_fract_x
_atom_site_fract_y
_atom_site_fract_z
Si Si1 0.414673 0.011017 0.162779
Si Si2 0.555256 0.420630 0.900058
Si Si3 0.799388 0.726036 0.457901
Si Si4 0.928150 0.705138 0.150133
Si Si5 0.064173 0.850018 0.746446
Si Si6 0.272440 0.809079 0.912231
Si Si7 0.929574 0.310702 0.445788
O O1 0.242126 0.844266 0.347527
O O2 0.548161 0.025746 0.226468
O O3 0.500000 0.000000 0.000000
O O4 0.415804 0.215383 0.036583
O O5 0.626744 0.571772 0.664377
O O6 0.500000 0.500000 0.000000
O O7 0.701561 0.366976 0.934979
O O8 0.819010 0.743941 0.276378
O O9 0.852557 0.927146 0.390864
O O10 0.935905 0.656946 0.502221
O O11 0.906919 0.493518 0.299356
O O12 0.918508 0.758268 0.962625
O O13 0.125617 0.826183 0.036521
O O14 0.201444 0.785393 0.797501
O O15 0.022957 0.778556 0.650019
#
# Coordination Sequence:
#
# PCOD9099396 Si02
#       7
#     2   2   2   2   2   2   2
#     4  10  20  37  60  88 115 149 200 241 286 343
#     4  10  21  39  59  87 117 154 196 239 285 353
#     4  12  21  38  65  89 114 157 202 235 295 345
#     4  10  21  40  61  86 118 156 193 244 291 349
#     4  10  23  38  59  88 123 150 195 244 294 343
#     4   8  21  40  60  78 124 155 189 234 301 336
#     4  12  21  36  65  88 115 156 200 242 287 344
#
# _framework density 22.368589
#
# number of rings (size 3 to 8) (size 9 to 14) (size 15 to 20)
#    1.714    0.000    1.429    4.286    0.000    0.571 
#    0.000    0.000    0.000    1.714    0.000    0.000 
#    0.000    0.000    0.000    0.000    0.000    0.000 
#
# Total GULP energy -78057.877996 kJ/mol
# GULP energy per Si atom -5575.562714 kJ/mol
# Density = 2.231768 g / cm^3
# Si number density = 22.368589 Si / 1000 Ang^3
#
#
#
# Elastic Constant Matrix: (Units=GPa)
#
#
# Indices 1 2 3 4 5 6 
#
# 1 28.1372 -4.8395 27.8174 7.6877 -1.9422 6.9419
# 2 -4.8395 52.4545 -4.4150 -9.6569 8.6086 -9.0991
# 3 27.8174 -4.4150 103.0124 -11.9006 -8.9724 -4.0712
# 4 7.6877 -9.6569 -11.9006 49.3853 4.7392 5.0072
# 5 -1.9422 8.6086 -8.9724 4.7392 27.8048 -1.9880
# 6 6.9419 -9.0991 -4.0712 5.0072 -1.9880 18.8011
#
#
#
# Elastic Compliance Matrix: (Units=1/GPa)
#
#
# Indices 1 2 3 4 5 6 
#
# 1 0.065058 -0.002456 -0.020267 -0.012733 -0.000946 -0.026307
# 2 -0.002456 0.022810 0.002038 0.004923 -0.006673 0.010370
# 3 -0.020267 0.002038 0.016673 0.006188 0.003048 0.010754
# 4 -0.012733 0.004923 0.006188 0.024995 -0.004585 0.001282
# 5 -0.000946 -0.006673 0.003048 -0.004585 0.039961 0.003226
# 6 -0.026307 0.010370 0.010754 0.001282 0.003226 0.070249
#
#
# Mechanical properties :
#
#
# Convention : Reuss Voigt Hill
#
# Bulk Modulus (GPa) = 15.82987 24.52555 20.17771
# Shear Modulus (GPa) = 16.54688 30.20098 23.37393
#
# Velocity S-wave (km/s) = 2.72276 3.67843 3.23607
# Velocity P-wave (km/s) = 4.12029 5.38787 4.79614
#
# Compressibility (1/GPa) = 0.06317170
#
# Stress axis : x y z
#
# Youngs Moduli (GPa) = 15.37088 43.84136 59.97689
#
# Poissons Ratio (x) = 0.10767 1.21553
# Poissons Ratio (y) = 0.03775 -0.12224
# Poissons Ratio (z) = 0.31152 -0.08935
#
# Static dielectric constant tensor:
#      x y z
#    x 1.875290 0.011190 0.025850 
#    y 0.011190 1.835470 -0.005440 
#    z 0.025850 -0.005440 1.840700 
# 
# From -- ./inp_files/414197.got.cif
#   From: 2010.05.17/outbox.cif.g08.bks.cpg/sg2_208_cif.got.tgz:414197.got - 2010.06.03 11:33:40.
