data_PCOD9099150
_publ_section_title
;
Structure prediction by ZEFSAII (Michael W. Deem and Ramdas Pophale) SiO2 
 PCOD9099150
Probable space group: P -1
;
_chemical_formula_sum "Si O2"
_cell_formula_units_Z 12
_cell_length_a 9.366560
_cell_length_b 9.318468
_cell_length_c 12.153169
_cell_angle_alpha 50.557517
_cell_angle_beta 140.237955
_cell_angle_gamma 122.401441
_cell_volume 521.521076
_symmetry_space_group_name_H-M "P -1"
_symmetry_group_IT_number 2
_symmetry_cell_setting 'triclinic'
loop_
_space_group_symop_operation_xyz
x,y,z
-x,-y,-z
loop_
_atom_site_type_symbol
_atom_site_label
_atom_site_fract_x
_atom_site_fract_y
_atom_site_fract_z
Si Si1 0.691497 0.329428 0.815904
Si Si2 0.245867 0.663935 0.690130
Si Si3 0.667631 0.811874 0.744849
Si Si4 0.301090 0.809856 0.347682
Si Si5 0.890591 0.429848 0.101535
Si Si6 0.773272 0.581959 0.403041
O O1 0.687670 0.195393 0.774296
O O2 0.440589 0.355986 0.691812
O O3 0.841533 0.516951 0.769707
O O4 0.813088 0.294015 0.020987
O O5 0.461309 0.797054 0.717634
O O6 0.215698 0.636263 0.814577
O O7 0.279170 0.480992 0.723018
O O8 0.000555 0.715881 0.481667
O O9 0.540340 0.812609 0.552166
O O10 0.803028 0.008207 0.756905
O O11 0.796016 0.630420 0.924698
O O12 0.179388 0.613562 0.413870
#
# Coordination Sequence:
#
# PCOD9099150 Si02
#       6
#     2   2   2   2   2   2
#     4  11  22  35  60  89 112 152 188 240 277 333
#     4  10  20  37  59  87 110 152 192 233 276 340
#     4  10  22  37  60  87 115 149 189 236 285 336
#     4  10  20  39  58  85 115 151 192 231 279 342
#     4  11  22  35  61  87 115 149 192 235 281 334
#     4  10  20  37  64  82 109 154 198 228 273 342
#
# _framework density 23.009616999999999
#
# number of rings (size 3 to 8) (size 9 to 14) (size 15 to 20)
#    0.000    1.667    5.000    1.000    0.000    0.667 
#    0.000    1.667    0.000    0.000    0.000    0.000 
#    0.000    0.000    0.000    0.000    0.000    0.000 
#
# Total GULP energy -66919.479220 kJ/mol
# GULP energy per Si atom -5576.623268 kJ/mol
# Density = 2.295725 g / cm^3
# Si number density = 23.009617 Si / 1000 Ang^3
#
#
#
# Elastic Constant Matrix: (Units=GPa)
#
#
# Indices 1 2 3 4 5 6 
#
# 1 141.2957 22.3125 41.7682 21.2237 -11.1032 -15.9117
# 2 22.3125 47.8981 8.6985 21.0365 -13.0830 -20.6243
# 3 41.7682 8.6985 38.9421 19.9607 -13.4638 -14.1084
# 4 21.2237 21.0365 19.9607 23.1204 -12.1029 -12.8508
# 5 -11.1032 -13.0830 -13.4638 -12.1029 50.4856 24.3041
# 6 -15.9117 -20.6243 -14.1084 -12.8508 24.3041 33.6458
#
#
#
# Elastic Compliance Matrix: (Units=1/GPa)
#
#
# Indices 1 2 3 4 5 6 
#
# 1 0.011323 -0.006979 -0.015628 0.008035 -0.000615 -0.001963
# 2 -0.006979 0.053656 0.033594 -0.060576 -0.004724 0.023952
# 3 -0.015628 0.033594 0.080076 -0.075373 -0.000163 0.018109
# 4 0.008035 -0.060576 -0.075373 0.153684 0.008914 -0.012679
# 5 -0.000615 -0.004724 -0.000163 0.008914 0.031383 -0.022519
# 6 -0.001963 0.023952 0.018109 -0.012679 -0.022519 0.062493
#
#
# Mechanical properties :
#
#
# Convention : Reuss Voigt Hill
#
# Bulk Modulus (GPa) = 5.98697 41.52158 23.75428
# Shear Modulus (GPa) = 11.72841 31.80746 21.76794
#
# Velocity S-wave (km/s) = 2.26014 3.72204 3.07911
# Velocity P-wave (km/s) = 3.06897 6.04615 4.79450
#
# Compressibility (1/GPa) = 0.16702941
#
# Stress axis : x y z
#
# Youngs Moduli (GPa) = 88.31693 18.63739 12.48818
#
# Poissons Ratio (x) = 0.13006 0.19517
# Poissons Ratio (y) = 0.61632 -0.41953
# Poissons Ratio (z) = 1.38022 -0.62611
#
# Static dielectric constant tensor:
#      x y z
#    x 1.878760 0.000090 0.010330 
#    y 0.000090 1.884800 0.033370 
#    z 0.010330 0.033370 1.943090 
# 
# From -- ./inp_files/146587.got.cif
#   From: 2010.05.17/outbox.cif.g08.bks.cpg/sg2_74_cif.got.tgz:146587.got - 2010.06.03 11:33:40.
