data_PCOD9099583
_publ_section_title
;
Structure prediction by ZEFSAII (Michael W. Deem and Ramdas Pophale) SiO2 
 PCOD9099583
Probable space group: P -1
;
_chemical_formula_sum "Si O2"
_cell_formula_units_Z 12
_cell_length_a 10.686463
_cell_length_b 18.831206
_cell_length_c 7.307590
_cell_angle_alpha 134.813974
_cell_angle_beta 73.934747
_cell_angle_gamma 142.959107
_cell_volume 467.128515
_symmetry_space_group_name_H-M "P -1"
_symmetry_group_IT_number 2
_symmetry_cell_setting 'triclinic'
loop_
_space_group_symop_operation_xyz
x,y,z
-x,-y,-z
loop_
_atom_site_type_symbol
_atom_site_label
_atom_site_fract_x
_atom_site_fract_y
_atom_site_fract_z
Si Si1 0.895771 0.677529 0.706547
Si Si2 0.735063 0.247185 0.299544
Si Si3 0.429415 0.163875 0.525038
Si Si4 0.118273 0.017553 0.715431
Si Si5 0.448801 0.852035 0.200789
Si Si6 0.655167 0.664994 0.512935
O O1 0.753947 0.627441 0.491787
O O2 0.672116 0.540150 0.709804
O O3 0.986109 0.625463 0.537410
O O4 0.162952 0.921917 0.111433
O O5 0.644588 0.292280 0.505178
O O6 0.733719 0.265475 0.117926
O O7 0.500000 0.000000 0.000000
O O8 0.256390 0.124124 0.652141
O O9 0.620121 0.243605 0.751204
O O10 0.269027 0.017719 0.724113
O O11 0.222345 0.174747 0.093713
O O12 0.794466 0.782958 0.476171
O O13 0.500000 0.000000 0.500000
#
# Coordination Sequence:
#
# PCOD9099583 Si02
#       6
#     2   2   2   2   2   2
#     4  10  20  34  55  83 107 143 180 225 265 319
#     4  10  16  31  56  82 103 134 181 224 267 315
#     4   9  20  32  58  83  99 144 183 222 268 321
#     4   9  20  36  55  78 109 146 179 221 269 323
#     4  10  17  32  56  83 101 135 185 226 259 320
#     4  10  21  36  53  77 117 145 177 221 265 322
#
# _framework density 25.688860999999999
#
# number of rings (size 3 to 8) (size 9 to 14) (size 15 to 20)
#    1.000    1.333    3.333    2.000    0.000    1.333 
#    0.000    1.667    0.000    0.000    0.000    0.000 
#    0.000    0.000    0.000    0.000    0.000    0.000 
#
# Total GULP energy -66802.214596 kJ/mol
# GULP energy per Si atom -5566.851216 kJ/mol
# Density = 2.563039 g / cm^3
# Si number density = 25.688861 Si / 1000 Ang^3
#
#
#
# Elastic Constant Matrix: (Units=GPa)
#
#
# Indices 1 2 3 4 5 6 
#
# 1 99.7808 60.9192 13.1538 -0.4519 11.5901 17.5762
# 2 60.9192 143.5653 39.2285 -3.9206 17.8025 20.6838
# 3 13.1538 39.2285 49.4592 -10.1366 8.9450 -3.8022
# 4 -0.4519 -3.9206 -10.1366 34.1874 3.3709 6.7309
# 5 11.5901 17.8025 8.9450 3.3709 23.0333 -0.5033
# 6 17.5762 20.6838 -3.8022 6.7309 -0.5033 43.7742
#
#
#
# Elastic Compliance Matrix: (Units=1/GPa)
#
#
# Indices 1 2 3 4 5 6 
#
# 1 0.014143 -0.005359 0.001071 0.000880 -0.003589 -0.003230
# 2 -0.005359 0.012648 -0.008177 0.000264 -0.004043 -0.004622
# 3 0.001071 -0.008177 0.029545 0.007560 -0.006695 0.004761
# 4 0.000880 0.000264 0.007560 0.033374 -0.008577 -0.005052
# 5 -0.003589 -0.004043 -0.006695 -0.008577 0.052304 0.004690
# 6 -0.003230 -0.004622 0.004761 -0.005052 0.004690 0.027569
#
#
# Mechanical properties :
#
#
# Convention : Reuss Voigt Hill
#
# Bulk Modulus (GPa) = 31.84136 57.71203 44.77670
# Shear Modulus (GPa) = 24.39220 32.16590 28.27905
#
# Velocity S-wave (km/s) = 3.08478 3.54239 3.32147
# Velocity P-wave (km/s) = 5.01096 6.26466 5.67255
#
# Compressibility (1/GPa) = 0.03140569
#
# Stress axis : x y z
#
# Youngs Moduli (GPa) = 70.70813 79.06209 33.84619
#
# Poissons Ratio (x) = 0.42371 -0.03623
# Poissons Ratio (y) = 0.37894 0.27675
# Poissons Ratio (z) = -0.07570 0.64646
#
# Static dielectric constant tensor:
#      x y z
#    x 2.073760 0.000240 0.018450 
#    y 0.000240 2.098770 0.099320 
#    z 0.018450 0.099320 2.001900 
# 
# From -- ./inp_files/284376.got.cif
#   From: 2010.05.17/outbox.cif.g08.bks.cpg/sg2_143_cif.got.tgz:284376.got - 2010.06.03 11:33:40.
