data_PCOD9099900
_publ_section_title
;
Structure prediction by ZEFSAII (Michael W. Deem and Ramdas Pophale) SiO2 
 PCOD9099900
Probable space group: P -1
;
_chemical_formula_sum "Si O2"
_cell_formula_units_Z 14
_cell_length_a 12.144737
_cell_length_b 14.218890
_cell_length_c 9.027853
_cell_angle_alpha 120.890933
_cell_angle_beta 101.134513
_cell_angle_gamma 30.215114
_cell_volume 548.376827
_symmetry_space_group_name_H-M "P -1"
_symmetry_group_IT_number 2
_symmetry_cell_setting 'triclinic'
loop_
_space_group_symop_operation_xyz
x,y,z
-x,-y,-z
loop_
_atom_site_type_symbol
_atom_site_label
_atom_site_fract_x
_atom_site_fract_y
_atom_site_fract_z
Si Si1 0.601892 0.750034 0.503704
Si Si2 0.071562 0.851321 0.563519
Si Si3 0.166758 0.015736 0.807030
Si Si4 0.450919 0.582766 0.222046
Si Si5 0.638575 0.846395 0.065847
Si Si6 0.210513 0.457967 0.929128
Si Si7 0.960895 0.251676 0.237393
O O1 0.590465 0.737917 0.315514
O O2 0.890389 0.442592 0.371837
O O3 0.407972 0.850839 0.641199
O O4 0.525509 0.940338 0.679491
O O5 0.324566 0.607521 0.324717
O O6 0.015595 0.814978 0.647255
O O7 0.133156 0.915697 0.704371
O O8 0.798512 0.111535 0.611794
O O9 0.907653 0.314651 0.922498
O O10 0.188490 0.026313 0.994171
O O11 0.710108 0.406278 0.222641
O O12 0.500000 0.500000 0.000000
O O13 0.670280 0.695186 0.012606
O O14 0.941689 0.625247 0.961270
O O15 0.500000 0.000000 0.000000
#
# Coordination Sequence:
#
# PCOD9099900 Si02
#       7
#     2   2   2   2   2   2   2
#     4  10  21  39  62  87 121 158 193 238 307 356
#     4  11  23  39  58  87 120 164 207 243 293 346
#     4  10  20  37  62  86 118 159 203 237 294 355
#     4  11  23  37  58  86 115 159 211 247 290 341
#     4  10  21  42  66  91 114 148 198 245 296 360
#     4   9  21  41  63  89 119 155 188 245 303 353
#     4  11  22  40  60  84 122 164 200 249 292 344
#
# _framework density 25.529888
#
# number of rings (size 3 to 8) (size 9 to 14) (size 15 to 20)
#    0.000    1.714    2.857    1.286    0.000    0.571 
#    5.143    8.571    0.000    0.000    0.000    0.000 
#    0.000    0.000    0.000    0.000    0.000    0.000 
#
# Total GULP energy -78306.166078 kJ/mol
# GULP energy per Si atom -5593.297577 kJ/mol
# Density = 2.547178 g / cm^3
# Si number density = 25.529888 Si / 1000 Ang^3
#
#
#
# Elastic Constant Matrix: (Units=GPa)
#
#
# Indices 1 2 3 4 5 6 
#
# 1 67.3553 29.7355 17.5414 -2.3967 -17.0035 10.2996
# 2 29.7355 121.5888 13.2036 -19.3981 -21.6851 12.8356
# 3 17.5414 13.2036 142.5369 -6.8920 -24.3578 5.3501
# 4 -2.3967 -19.3981 -6.8920 21.6839 16.0086 -6.6486
# 5 -17.0035 -21.6851 -24.3578 16.0086 28.7150 -2.6364
# 6 10.2996 12.8356 5.3501 -6.6486 -2.6364 55.0830
#
#
#
# Elastic Compliance Matrix: (Units=1/GPa)
#
#
# Indices 1 2 3 4 5 6 
#
# 1 0.021240 -0.004082 0.000261 -0.015928 0.018220 -0.004096
# 2 -0.004082 0.010804 0.000140 0.008085 0.001286 -0.000730
# 3 0.000261 0.000140 0.008501 -0.004934 0.010129 -0.001018
# 4 -0.015928 0.008085 -0.004934 0.098713 -0.061576 0.010541
# 5 0.018220 0.001286 0.010129 -0.061576 0.088783 -0.007873
# 6 -0.004096 -0.000730 -0.001018 0.010541 -0.007873 0.020085
#
#
# Mechanical properties :
#
#
# Convention : Reuss Voigt Hill
#
# Bulk Modulus (GPa) = 30.13601 50.27132 40.20366
# Shear Modulus (GPa) = 18.75832 39.16308 28.96070
#
# Velocity S-wave (km/s) = 2.71358 3.92089 3.37172
# Velocity P-wave (km/s) = 4.65273 6.34285 5.56236
#
# Compressibility (1/GPa) = 0.03318289
#
# Stress axis : x y z
#
# Youngs Moduli (GPa) = 47.08136 92.55961 117.63167
#
# Poissons Ratio (x) = 0.37783 -0.03075
# Poissons Ratio (y) = 0.19219 -0.01643
# Poissons Ratio (z) = -0.01231 -0.01292
#
# Static dielectric constant tensor:
#      x y z
#    x 2.065480 -0.021130 -0.013290 
#    y -0.021130 2.027220 0.011330 
#    z -0.013290 0.011330 2.088180 
# 
# From -- ./inp_files/315586.got.cif
#   From: 2010.05.17/outbox.cif.g08.bks.cpg/sg2_158_cif.got.tgz:315586.got - 2010.06.03 11:33:40.
