data_PCOD9099332
_publ_section_title
;
Structure prediction by ZEFSAII (Michael W. Deem and Ramdas Pophale) SiO2 
 PCOD9099332
Probable space group: P -1
;
_chemical_formula_sum "Si O2"
_cell_formula_units_Z 16
_cell_length_a 8.083759
_cell_length_b 14.592308
_cell_length_c 15.135167
_cell_angle_alpha 153.647690
_cell_angle_beta 121.422129
_cell_angle_gamma 72.051463
_cell_volume 613.817082
_symmetry_space_group_name_H-M "P -1"
_symmetry_group_IT_number 2
_symmetry_cell_setting 'triclinic'
loop_
_space_group_symop_operation_xyz
x,y,z
-x,-y,-z
loop_
_atom_site_type_symbol
_atom_site_label
_atom_site_fract_x
_atom_site_fract_y
_atom_site_fract_z
Si Si1 0.952339 0.236429 0.744257
Si Si2 0.036238 0.877305 0.149697
Si Si3 0.530151 0.219812 0.554668
Si Si4 0.365775 0.111643 0.235138
Si Si5 0.189903 0.630989 0.869427
Si Si6 0.611279 0.891250 0.043808
Si Si7 0.623272 0.705034 0.082545
Si Si8 0.803503 0.555084 0.468053
O O1 0.972421 0.151692 0.773475
O O2 0.710302 0.130521 0.550115
O O3 0.000000 0.500000 0.000000
O O4 0.155935 0.222795 0.739799
O O5 0.845772 0.939169 0.115276
O O6 0.283573 0.050541 0.355049
O O7 0.009327 0.640944 0.890792
O O8 0.532625 0.254927 0.481095
O O9 0.583892 0.453001 0.820779
O O10 0.206688 0.234505 0.299583
O O11 0.511943 0.077172 0.169578
O O12 0.239792 0.852756 0.012123
O O13 0.391412 0.668323 0.021231
O O14 0.172192 0.438419 0.627558
O O15 0.635448 0.848561 0.119676
O O16 0.424145 0.654090 0.756681
O O17 0.000000 0.500000 0.500000
#
# Coordination Sequence:
#
# PCOD9099332 Si02
#       8
#     2   2   2   2   2   2   2   2
#     4   9  18  31  53  78 113 149 193 236 261 316
#     4  10  20  35  50  81 121 145 183 229 279 325
#     4  10  16  31  55  78 108 150 188 231 274 319
#     4   9  17  34  58  79 107 145 188 220 271 330
#     4   9  19  34  57  80 115 147 179 231 277 326
#     4   9  19  35  53  82 111 145 182 224 271 332
#     4   8  15  33  51  74 108 144 189 225 263 319
#     4  10  19  36  63  86 106 140 187 227 272 339
#
# _framework density 26.066399000000001
#
# number of rings (size 3 to 8) (size 9 to 14) (size 15 to 20)
#    0.000    3.000    2.500    0.375    0.000    2.000 
#    2.250   14.375    0.000    3.750    0.000    0.000 
#    0.000    0.000    0.000    0.000    0.000    0.000 
#
# Total GULP energy -89143.314124 kJ/mol
# GULP energy per Si atom -5571.457133 kJ/mol
# Density = 2.600707 g / cm^3
# Si number density = 26.066399 Si / 1000 Ang^3
#
#
#
# Elastic Constant Matrix: (Units=GPa)
#
#
# Indices 1 2 3 4 5 6 
#
# 1 124.6716 51.1770 42.7545 6.3973 -9.4575 -59.7689
# 2 51.1770 96.5866 24.7093 -2.5983 2.8941 -62.1183
# 3 42.7545 24.7093 96.4371 -0.5745 8.4824 -27.3314
# 4 6.3973 -2.5983 -0.5745 32.6127 -17.9370 -5.5286
# 5 -9.4575 2.8941 8.4824 -17.9370 37.5818 0.2547
# 6 -59.7689 -62.1183 -27.3314 -5.5286 0.2547 69.9052
#
#
#
# Elastic Compliance Matrix: (Units=1/GPa)
#
#
# Indices 1 2 3 4 5 6 
#
# 1 0.015316 0.000727 -0.003962 0.002185 0.005652 0.012344
# 2 0.000727 0.025291 -0.000205 0.006542 0.001244 0.023528
# 3 -0.003962 -0.000205 0.012970 -0.001255 -0.004517 0.001419
# 4 0.002185 0.006542 -0.001255 0.044305 0.021403 0.010617
# 5 0.005652 0.001244 -0.004517 0.021403 0.039131 0.005722
# 6 0.012344 0.023528 0.001419 0.010617 0.005722 0.047140
#
#
# Mechanical properties :
#
#
# Convention : Reuss Voigt Hill
#
# Bulk Modulus (GPa) = 21.41448 61.66410 41.53929
# Shear Modulus (GPa) = 24.20141 41.29025 32.74583
#
# Velocity S-wave (km/s) = 3.05036 3.98432 3.54820
# Velocity P-wave (km/s) = 4.54306 6.69883 5.72336
#
# Compressibility (1/GPa) = 0.04669738
#
# Stress axis : x y z
#
# Youngs Moduli (GPa) = 65.29128 39.53949 77.09843
#
# Poissons Ratio (x) = -0.02873 0.30547
# Poissons Ratio (y) = -0.04744 0.01578
# Poissons Ratio (z) = 0.25869 0.00809
#
# Static dielectric constant tensor:
#      x y z
#    x 2.337020 0.008310 -0.123080 
#    y 0.008310 2.107910 -0.011390 
#    z -0.123080 -0.011390 2.323600 
# 
# From -- ./inp_files/591728.got.cif
#   From: 2010.05.17/outbox.cif.g08.bks.cpg/sg2_296_cif.got.tgz:591728.got - 2010.06.03 11:33:40.
