data_PCOD9099102
_publ_section_title
;
Structure prediction by ZEFSAII (Michael W. Deem and Ramdas Pophale) SiO2 
 PCOD9099102
Probable space group: P -1
;
_chemical_formula_sum "Si O2"
_cell_formula_units_Z 14
_cell_length_a 5.997588
_cell_length_b 17.448767
_cell_length_c 18.617098
_cell_angle_alpha 163.075908
_cell_angle_beta 82.095292
_cell_angle_gamma 104.135987
_cell_volume 517.115980
_symmetry_space_group_name_H-M "P -1"
_symmetry_group_IT_number 2
_symmetry_cell_setting 'triclinic'
loop_
_space_group_symop_operation_xyz
x,y,z
-x,-y,-z
loop_
_atom_site_type_symbol
_atom_site_label
_atom_site_fract_x
_atom_site_fract_y
_atom_site_fract_z
Si Si1 0.740310 0.416941 0.865071
Si Si2 0.688740 0.872264 0.189097
Si Si3 0.830367 0.545610 0.228404
Si Si4 0.500574 0.242505 0.289280
Si Si5 0.376380 0.048750 0.440730
Si Si6 0.990497 0.191880 0.006461
Si Si7 0.738658 0.859330 0.924342
O O1 0.481836 0.226767 0.667541
O O2 0.960778 0.418149 0.806503
O O3 0.744484 0.271615 0.810345
O O4 0.731710 0.722786 0.125845
O O5 0.613573 0.118931 0.443427
O O6 0.434264 0.674334 0.984082
O O7 0.898609 0.910769 0.158245
O O8 0.798431 0.842557 0.497555
O O9 0.890945 0.423837 0.189732
O O10 0.416401 0.409431 0.369584
O O11 0.500000 0.000000 0.000000
O O12 0.245782 0.064896 0.181141
O O13 0.702980 0.129728 0.209714
O O14 0.201616 0.304626 0.158130
O O15 0.000000 0.000000 0.000000
#
# Coordination Sequence:
#
# PCOD9099102 Si02
#       7
#     2   2   2   2   2   2   2
#     4   9  20  37  58  83 116 153 199 250 288 335
#     4  10  21  37  56  84 119 155 195 241 292 340
#     4  10  21  37  56  83 119 155 195 239 288 343
#     4  10  21  41  66  90 111 146 196 236 283 347
#     4  10  20  37  59  85 115 155 201 242 288 340
#     4  10  21  40  57  82 125 155 182 237 294 344
#     4   9  20  40  63  86 116 147 183 233 288 342
#
# _framework density 27.073232000000001
#
# number of rings (size 3 to 8) (size 9 to 14) (size 15 to 20)
#    0.000    2.286    0.000    1.714    0.000    5.143 
#    0.000   34.286    0.000    0.000    0.000    0.000 
#    0.000    0.000    0.000    0.000    0.000    0.000 
#
# Total GULP energy -78062.417985 kJ/mol
# GULP energy per Si atom -5575.886999 kJ/mol
# Density = 2.701161 g / cm^3
# Si number density = 27.073232 Si / 1000 Ang^3
#
#
#
# Elastic Constant Matrix: (Units=GPa)
#
#
# Indices 1 2 3 4 5 6 
#
# 1 111.3426 63.7766 125.5051 1.4810 -16.2195 8.7338
# 2 63.7766 165.2271 78.6806 14.5174 -19.4608 -6.2483
# 3 125.5051 78.6806 125.3109 13.8617 -20.2268 -30.5398
# 4 1.4810 14.5174 13.8617 36.8857 -7.2907 -3.6338
# 5 -16.2195 -19.4608 -20.2268 -7.2907 76.7905 -1.3050
# 6 8.7338 -6.2483 -30.5398 -3.6338 -1.3050 68.4753
#
#
#
# Elastic Compliance Matrix: (Units=1/GPa)
#
#
# Indices 1 2 3 4 5 6 
#
# 1 -0.020665 -0.003867 0.027549 -0.006288 0.001557 0.014266
# 2 -0.003867 0.008220 -0.000662 -0.002579 0.000861 0.000827
# 3 0.027549 -0.000662 -0.023245 0.006534 -0.000083 -0.013596
# 4 -0.006288 -0.002579 0.006534 0.026880 0.002376 0.004953
# 5 0.001557 0.000861 -0.000083 0.002376 0.013777 0.000232
# 6 0.014266 0.000827 -0.013596 0.004953 0.000232 0.007063
#
#
# Mechanical properties :
#
#
# Convention : Reuss Voigt Hill
#
# Bulk Modulus (GPa) = 96.63155 104.20056 100.41606
# Shear Modulus (GPa) = -163.61504 45.35821 -59.12841
#
# Velocity S-wave (km/s) = -7.78238 4.09759 -4.67842
# Velocity P-wave (km/s) = 6.70700 7.80762 2.82623
#
# Compressibility (1/GPa) = 0.01034859
#
# Stress axis : x y z
#
# Youngs Moduli (GPa) = -48.39055 121.66189 -43.02029
#
# Poissons Ratio (x) = 0.47041 1.18515
# Poissons Ratio (y) = -0.18710 -0.02850
# Poissons Ratio (z) = 1.33309 0.08059
#
# Static dielectric constant tensor:
#      x y z
#    x 1.954310 0.040540 0.217240 
#    y 0.040540 2.023860 -0.108480 
#    z 0.217240 -0.108480 2.253640 
# 
# From -- ./inp_files/42099.got.cif
#   From: 2010.05.17/outbox.cif.g08.bks.cpg/sg2_22_cif.got.tgz:42099.got - 2010.06.03 11:33:40.
