data_PCOD9099186
_publ_section_title
;
Structure prediction by ZEFSAII (Michael W. Deem and Ramdas Pophale) SiO2 
 PCOD9099186
Probable space group: P -1
;
_chemical_formula_sum "Si O2"
_cell_formula_units_Z 16
_cell_length_a 19.968777
_cell_length_b 10.934273
_cell_length_c 8.122945
_cell_angle_alpha 95.690477
_cell_angle_beta 129.565480
_cell_angle_gamma 44.436870
_cell_volume 720.033241
_symmetry_space_group_name_H-M "P -1"
_symmetry_group_IT_number 2
_symmetry_cell_setting 'triclinic'
loop_
_space_group_symop_operation_xyz
x,y,z
-x,-y,-z
loop_
_atom_site_type_symbol
_atom_site_label
_atom_site_fract_x
_atom_site_fract_y
_atom_site_fract_z
Si Si1 0.438866 0.035604 0.173276
Si Si2 0.425274 0.285824 0.396614
Si Si3 0.111044 0.753467 0.835317
Si Si4 0.946463 0.155694 0.787987
Si Si5 0.877274 0.897487 0.719089
Si Si6 0.339281 0.066613 0.699170
Si Si7 0.457628 0.634200 0.607400
Si Si8 0.334037 0.494742 0.844517
O O1 0.482919 0.858953 0.314042
O O2 0.381151 0.208131 0.234100
O O3 0.603203 0.898679 0.333896
O O4 0.313462 0.162137 0.846921
O O5 0.537108 0.234557 0.446299
O O6 0.256430 0.562074 0.172331
O O7 0.199491 0.611807 0.784949
O O8 0.051908 0.965540 0.780008
O O9 0.963711 0.845727 0.683015
O O10 0.763254 0.374001 0.459005
O O11 0.001914 0.221196 0.953266
O O12 0.000000 0.000000 0.000000
O O13 0.807109 0.846025 0.572488
O O14 0.717482 0.169188 0.556687
O O15 0.507105 0.784205 0.955397
O O16 0.500000 0.500000 0.500000
O O17 0.592382 0.473555 0.942587
#
# Coordination Sequence:
#
# PCOD9099186 Si02
#       8
#     2   2   2   2   2   2   2   2
#     4  10  20  39  68  82 118 161 220 243 304 363
#     4  10  20  39  65  89 114 169 204 244 311 375
#     4  10  20  37  59  88 126 158 199 247 315 373
#     4  10  22  37  60  86 128 167 199 244 315 382
#     4  10  20  38  57  93 124 149 201 264 301 355
#     4  10  21  40  64  86 116 156 214 261 296 356
#     4  10  20  40  65  93 126 158 211 258 300 366
#     4  10  20  40  61  89 117 176 198 239 318 377
#
# _framework density 22.221195000000002
#
# number of rings (size 3 to 8) (size 9 to 14) (size 15 to 20)
#    0.000    2.000    3.750    1.875    3.500    0.000 
#    6.750    6.250    0.000    0.000    0.000    0.000 
#    0.000    0.000    0.000    0.000    0.000    0.000 
#
# Total GULP energy -89160.549944 kJ/mol
# GULP energy per Si atom -5572.534372 kJ/mol
# Density = 2.217062 g / cm^3
# Si number density = 22.221195 Si / 1000 Ang^3
#
#
#
# Elastic Constant Matrix: (Units=GPa)
#
#
# Indices 1 2 3 4 5 6 
#
# 1 67.8741 -6.3318 31.6811 2.4463 11.3295 -4.4737
# 2 -6.3318 46.6051 3.7719 13.8055 2.8557 -3.1495
# 3 31.6811 3.7719 112.1943 20.1196 -2.0547 5.6689
# 4 2.4463 13.8055 20.1196 43.8089 4.0858 6.0614
# 5 11.3295 2.8557 -2.0547 4.0858 36.8667 -0.7955
# 6 -4.4737 -3.1495 5.6689 6.0614 -0.7955 31.4117
#
#
#
# Elastic Compliance Matrix: (Units=1/GPa)
#
#
# Indices 1 2 3 4 5 6 
#
# 1 0.019160 0.003564 -0.005954 0.000609 -0.006480 0.003879
# 2 0.003564 0.024858 -0.000646 -0.008187 -0.002049 0.004645
# 3 -0.005954 -0.000646 0.011636 -0.004811 0.003018 -0.002008
# 4 0.000609 -0.008187 -0.004811 0.028629 -0.003112 -0.005469
# 5 -0.006480 -0.002049 0.003018 -0.003112 0.029781 -0.000318
# 6 0.003879 0.004645 -0.002008 -0.005469 -0.000318 0.034263
#
#
# Mechanical properties :
#
#
# Convention : Reuss Voigt Hill
#
# Bulk Modulus (GPa) = 20.16897 31.65731 25.91314
# Shear Modulus (GPa) = 29.25227 35.58759 32.41993
#
# Velocity S-wave (km/s) = 3.63218 4.00624 3.82378
# Velocity P-wave (km/s) = 5.16589 5.97305 5.58407
#
# Compressibility (1/GPa) = 0.04958112
#
# Stress axis : x y z
#
# Youngs Moduli (GPa) = 52.19185 40.22840 85.94257
#
# Poissons Ratio (x) = -0.14336 0.51171
# Poissons Ratio (y) = -0.18600 0.05552
# Poissons Ratio (z) = 0.31075 0.02599
#
# Static dielectric constant tensor:
#      x y z
#    x 1.875980 -0.013010 -0.005190 
#    y -0.013010 1.953210 0.037930 
#    z -0.005190 0.037930 1.861880 
# 
# From -- ./inp_files/344668.got.cif
#   From: 2010.05.17/outbox.cif.g08.bks.cpg/sg2_173_cif.got.tgz:344668.got - 2010.06.03 11:33:40.
