data_PCOD9099168
_publ_section_title
;
Structure prediction by ZEFSAII (Michael W. Deem and Ramdas Pophale) SiO2 
 PCOD9099168
Probable space group: P -1
;
_chemical_formula_sum "Si O2"
_cell_formula_units_Z 16
_cell_length_a 12.682959
_cell_length_b 9.565680
_cell_length_c 18.271414
_cell_angle_alpha 42.775525
_cell_angle_beta 51.790027
_cell_angle_gamma 87.345367
_cell_volume 763.166393
_symmetry_space_group_name_H-M "P -1"
_symmetry_group_IT_number 2
_symmetry_cell_setting 'triclinic'
loop_
_space_group_symop_operation_xyz
x,y,z
-x,-y,-z
loop_
_atom_site_type_symbol
_atom_site_label
_atom_site_fract_x
_atom_site_fract_y
_atom_site_fract_z
Si Si1 0.290391 0.489986 0.587309
Si Si2 0.875925 0.478746 0.000404
Si Si3 0.260154 0.745356 0.371826
Si Si4 0.090248 0.912268 0.614081
Si Si5 0.454075 0.010410 0.432375
Si Si6 0.735934 0.254870 0.932203
Si Si7 0.263198 0.058678 0.836749
Si Si8 0.884906 0.586095 0.594758
O O1 0.197337 0.536466 0.550014
O O2 0.172575 0.158612 0.801102
O O3 0.488860 0.634996 0.400609
O O4 0.371312 0.719084 0.533057
O O5 0.670148 0.328796 0.181269
O O6 0.813520 0.226862 0.066854
O O7 0.000000 0.500000 0.000000
O O8 0.001498 0.794615 0.780177
O O9 0.190555 0.553165 0.400931
O O10 0.125599 0.795459 0.416198
O O11 0.510594 0.057715 0.137534
O O12 0.916571 0.610690 0.751524
O O13 0.287375 0.993793 0.500981
O O14 0.138533 0.200807 0.461744
O O15 0.500000 0.000000 0.500000
O O16 0.753490 0.304088 0.819224
O O17 0.772762 0.063621 0.018701
#
# Coordination Sequence:
#
# PCOD9099168 Si02
#       8
#     2   2   2   2   2   2   2   2
#     4   9  18  36  61  87 120 160 200 242 310 370
#     4  10  20  37  59  87 129 153 196 249 296 365
#     4  10  23  42  64  89 124 163 207 259 311 357
#     4  11  24  39  63  92 121 167 206 250 313 365
#     4  11  22  38  61  91 128 161 198 254 310 368
#     4  10  21  41  63  90 127 160 204 258 304 364
#     4   8  18  34  61  88 116 161 193 242 308 360
#     4  11  24  41  64  91 121 163 214 256 303 370
#
# _framework density 20.965284
#
# number of rings (size 3 to 8) (size 9 to 14) (size 15 to 20)
#    0.000    2.000    1.250    2.250    1.750    3.500 
#    0.000    8.125    2.750    0.000    0.000    0.000 
#    0.000    0.000    0.000    0.000    0.000    0.000 
#
# Total GULP energy -89302.101128 kJ/mol
# GULP energy per Si atom -5581.381320 kJ/mol
# Density = 2.091757 g / cm^3
# Si number density = 20.965284 Si / 1000 Ang^3
#
#
#
# Elastic Constant Matrix: (Units=GPa)
#
#
# Indices 1 2 3 4 5 6 
#
# 1 130.0391 39.8204 46.3786 1.8606 9.2021 2.5928
# 2 39.8204 49.6348 27.7768 12.6620 9.9378 -3.3686
# 3 46.3786 27.7768 91.1027 17.8786 13.2088 -6.9809
# 4 1.8606 12.6620 17.8786 22.7364 -3.9784 5.1731
# 5 9.2021 9.9378 13.2088 -3.9784 47.4489 12.6025
# 6 2.5928 -3.3686 -6.9809 5.1731 12.6025 34.9212
#
#
#
# Elastic Compliance Matrix: (Units=1/GPa)
#
#
# Indices 1 2 3 4 5 6 
#
# 1 0.013475 -0.011746 -0.007260 0.013707 0.004986 -0.007415
# 2 -0.011746 0.038723 0.002524 -0.027914 -0.012533 0.013770
# 3 -0.007260 0.002524 0.020292 -0.021036 -0.009563 0.011406
# 4 0.013707 -0.027914 -0.021036 0.085817 0.024021 -0.029297
# 5 0.004986 -0.012533 -0.009563 0.024021 0.032386 -0.018737
# 6 -0.007415 0.013770 0.011406 -0.029297 -0.018737 0.043897
#
#
# Mechanical properties :
#
#
# Convention : Reuss Voigt Hill
#
# Bulk Modulus (GPa) = 25.30004 55.41426 40.35715
# Shear Modulus (GPa) = 17.81076 31.47466 24.64271
#
# Velocity S-wave (km/s) = 2.91784 3.87883 3.43214
# Velocity P-wave (km/s) = 4.84206 6.82270 5.91586
#
# Compressibility (1/GPa) = 0.03952562
#
# Stress axis : x y z
#
# Youngs Moduli (GPa) = 74.21228 25.82418 49.28134
#
# Poissons Ratio (x) = 0.30333 0.35776
# Poissons Ratio (y) = 0.87171 -0.12436
# Poissons Ratio (z) = 0.53875 -0.06517
#
# Static dielectric constant tensor:
#      x y z
#    x 1.810560 0.014730 -0.001020 
#    y 0.014730 1.738890 0.029390 
#    z -0.001020 0.029390 1.774910 
# 
# From -- ./inp_files/566430.got.cif
#   From: 2010.05.17/outbox.cif.g08.bks.cpg/sg2_284_cif.got.tgz:566430.got - 2010.06.03 11:33:40.
