data_PCOD9099408
_publ_section_title
;
Structure prediction by ZEFSAII (Michael W. Deem and Ramdas Pophale) SiO2 
 PCOD9099408
Probable space group: P -1
;
_chemical_formula_sum "Si O2"
_cell_formula_units_Z 16
_cell_length_a 7.537727
_cell_length_b 10.972918
_cell_length_c 10.540105
_cell_angle_alpha 103.164127
_cell_angle_beta 56.163237
_cell_angle_gamma 79.945782
_cell_volume 654.312011
_symmetry_space_group_name_H-M "P -1"
_symmetry_group_IT_number 2
_symmetry_cell_setting 'triclinic'
loop_
_space_group_symop_operation_xyz
x,y,z
-x,-y,-z
loop_
_atom_site_type_symbol
_atom_site_label
_atom_site_fract_x
_atom_site_fract_y
_atom_site_fract_z
Si Si1 0.994178 0.541058 0.658300
Si Si2 0.129938 0.606809 0.113229
Si Si3 0.299915 0.321922 0.832636
Si Si4 0.624427 0.038118 0.702436
Si Si5 0.503413 0.666279 0.861794
Si Si6 0.348943 0.608294 0.424771
Si Si7 0.913993 0.103202 0.394134
Si Si8 0.753241 0.097139 0.174681
O O1 0.227058 0.571363 0.586894
O O2 0.000000 0.500000 0.500000
O O3 0.751963 0.667018 0.801860
O O4 0.972347 0.422653 0.723390
O O5 0.213922 0.459315 0.978724
O O6 0.339405 0.656674 0.038849
O O7 0.923506 0.703141 0.132195
O O8 0.433901 0.346455 0.661394
O O9 0.470081 0.195583 0.809475
O O10 0.443066 0.966110 0.750441
O O11 0.814589 0.980077 0.722382
O O12 0.779386 0.027436 0.511617
O O13 0.571726 0.522353 0.727935
O O14 0.359872 0.778863 0.847046
O O15 0.148448 0.746490 0.488049
O O16 0.813551 0.130223 0.299684
O O17 0.000000 0.000000 0.000000
#
# Coordination Sequence:
#
# PCOD9099408 Si02
#       8
#     2   2   2   2   2   2   2   2
#     4  10  21  35  58  92 125 156 197 257 317 372
#     4  10  20  37  60  88 120 161 209 254 311 372
#     4   9  20  37  61  87 120 163 207 257 306 371
#     4  10  22  44  66  94 127 167 216 258 318 378
#     4  10  22  40  59  88 127 164 206 256 312 372
#     4   9  20  38  60  90 117 155 208 255 310 361
#     4  10  23  43  69  93 126 169 212 267 315 372
#     4  12  26  41  62  96 133 170 212 257 313 382
#
# _framework density 24.453166
#
# number of rings (size 3 to 8) (size 9 to 14) (size 15 to 20)
#    0.000    2.000    0.000    2.250    0.000   10.500 
#    0.000   16.250    0.000    0.000    0.000    0.000 
#    0.000    0.000    0.000    0.000    0.000    0.000 
#
# Total GULP energy -89343.370379 kJ/mol
# GULP energy per Si atom -5583.960649 kJ/mol
# Density = 2.439751 g / cm^3
# Si number density = 24.453166 Si / 1000 Ang^3
#
#
#
# Elastic Constant Matrix: (Units=GPa)
#
#
# Indices 1 2 3 4 5 6 
#
# 1 100.3827 49.7070 47.3171 6.4874 -20.1389 -2.3447
# 2 49.7070 127.4876 32.8626 -3.8893 -9.7923 -10.7924
# 3 47.3171 32.8626 101.8297 -14.5565 -20.0638 11.7744
# 4 6.4874 -3.8893 -14.5565 39.4343 -7.0312 -13.5534
# 5 -20.1389 -9.7923 -20.0638 -7.0312 30.1402 -8.4857
# 6 -2.3447 -10.7924 11.7744 -13.5534 -8.4857 32.5512
#
#
#
# Elastic Compliance Matrix: (Units=1/GPa)
#
#
# Indices 1 2 3 4 5 6 
#
# 1 0.016187 -0.004408 -0.005829 -0.003822 0.005044 0.001537
# 2 -0.004408 0.010612 -0.001048 0.003772 0.002304 0.005751
# 3 -0.005829 -0.001048 0.015568 0.007483 0.007500 -0.001328
# 4 -0.003822 0.003772 0.007483 0.038967 0.018157 0.019227
# 5 0.005044 0.002304 0.007500 0.018157 0.052026 0.019537
# 6 0.001537 0.005751 -0.001328 0.019227 0.019537 0.046317
#
#
# Mechanical properties :
#
#
# Convention : Reuss Voigt Hill
#
# Bulk Modulus (GPa) = 50.51425 65.49702 58.00564
# Shear Modulus (GPa) = 23.94100 33.74604 28.84352
#
# Velocity S-wave (km/s) = 3.13238 3.71890 3.43817
# Velocity P-wave (km/s) = 5.81247 6.72927 6.28760
#
# Compressibility (1/GPa) = 0.01979639
#
# Stress axis : x y z
#
# Youngs Moduli (GPa) = 61.77758 94.23673 64.23323
#
# Poissons Ratio (x) = 0.41537 0.37443
# Poissons Ratio (y) = 0.27230 0.06733
# Poissons Ratio (z) = 0.36012 0.09879
#
# Static dielectric constant tensor:
#      x y z
#    x 2.004050 0.003680 -0.007340 
#    y 0.003680 1.940520 -0.011520 
#    z -0.007340 -0.011520 2.024090 
# 
# From -- ./inp_files/387219.got.cif
#   From: 2010.05.17/outbox.cif.g08.bks.cpg/sg2_194_cif.got.tgz:387219.got - 2010.06.03 11:33:40.
