data_PCOD9099741
_publ_section_title
;
Structure prediction by ZEFSAII (Michael W. Deem and Ramdas Pophale) SiO2 
 PCOD9099741
Probable space group: P -1
;
_chemical_formula_sum "Si O2"
_cell_formula_units_Z 14
_cell_length_a 11.979342
_cell_length_b 8.810043
_cell_length_c 8.414389
_cell_angle_alpha 118.753877
_cell_angle_beta 103.731444
_cell_angle_gamma 47.975979
_cell_volume 573.442893
_symmetry_space_group_name_H-M "P -1"
_symmetry_group_IT_number 2
_symmetry_cell_setting 'triclinic'
loop_
_space_group_symop_operation_xyz
x,y,z
-x,-y,-z
loop_
_atom_site_type_symbol
_atom_site_label
_atom_site_fract_x
_atom_site_fract_y
_atom_site_fract_z
Si Si1 0.140127 0.728926 0.776821
Si Si2 0.319222 0.164851 0.185164
Si Si3 0.657718 0.937510 0.195548
Si Si4 0.821052 0.684833 0.430995
Si Si5 0.129001 0.982346 0.383780
Si Si6 0.678695 0.316116 0.439769
Si Si7 0.345094 0.754104 0.073890
O O1 0.094710 0.576607 0.718256
O O2 0.283904 0.586781 0.636332
O O3 0.209195 0.776057 0.962649
O O4 0.005583 0.946538 0.739573
O O5 0.228875 0.274783 0.378115
O O6 0.475525 0.116436 0.213691
O O7 0.265429 0.235615 0.017516
O O8 0.363589 0.917852 0.077059
O O9 0.691542 0.820490 0.320211
O O10 0.709814 0.085627 0.288651
O O11 0.909221 0.778483 0.471188
O O12 0.188580 0.788656 0.436351
O O13 0.287812 0.851581 0.278973
O O14 0.500000 0.500000 0.500000
O O15 0.500000 0.500000 0.000000
#
# Coordination Sequence:
#
# PCOD9099741 Si02
#       7
#     2   2   2   2   2   2   2
#     4  12  22  41  63  92 130 161 209 264 316 376
#     4  10  20  37  61  90 127 164 208 262 318 374
#     4  10  20  37  61  90 127 164 208 262 318 374
#     4  10  22  40  62  87 126 169 213 253 316 385
#     4  10  24  41  64  89 126 172 203 255 328 381
#     4  11  22  39  64  95 124 162 214 264 314 374
#     4  11  22  39  64  95 124 162 214 264 314 374
#
# _framework density 24.41394
#
# number of rings (size 3 to 8) (size 9 to 14) (size 15 to 20)
#    0.000    1.429    1.429    4.286    0.000    2.286 
#    2.571    0.000    0.000    3.429    0.000    0.000 
#    0.000    0.000    0.000    0.000    0.000    0.000 
#
# Total GULP energy -77985.710397 kJ/mol
# GULP energy per Si atom -5570.407886 kJ/mol
# Density = 2.435837 g / cm^3
# Si number density = 24.413940 Si / 1000 Ang^3
#
#
#
# Elastic Constant Matrix: (Units=GPa)
#
#
# Indices 1 2 3 4 5 6 
#
# 1 66.9566 8.2026 17.8053 4.6497 1.5890 5.4525
# 2 8.2026 60.0299 33.0088 -12.1133 9.4150 -11.7765
# 3 17.8053 33.0088 78.1792 -17.5112 1.6151 2.8835
# 4 4.6497 -12.1133 -17.5112 25.9367 2.5710 9.5976
# 5 1.5890 9.4150 1.6151 2.5710 40.3104 -8.1036
# 6 5.4525 -11.7765 2.8835 9.5976 -8.1036 32.9934
#
#
#
# Elastic Compliance Matrix: (Units=1/GPa)
#
#
# Indices 1 2 3 4 5 6 
#
# 1 0.016865 -0.001172 -0.004758 -0.006451 0.000029 -0.000906
# 2 -0.001172 0.025052 -0.009984 0.002470 -0.003887 0.008335
# 3 -0.004758 -0.009984 0.021645 0.014274 -0.001085 -0.009088
# 4 -0.006451 0.002470 0.014274 0.058064 -0.008260 -0.018219
# 5 0.000029 -0.003887 -0.001085 -0.008260 0.027884 0.007954
# 6 -0.000906 0.008335 -0.009088 -0.018219 0.007954 0.041482
#
#
# Mechanical properties :
#
#
# Convention : Reuss Voigt Hill
#
# Bulk Modulus (GPa) = 31.51292 35.91100 33.71196
# Shear Modulus (GPa) = 21.42268 29.59135 25.50702
#
# Velocity S-wave (km/s) = 2.96544 3.48525 3.23580
# Velocity P-wave (km/s) = 4.96597 5.56212 5.27248
#
# Compressibility (1/GPa) = 0.03173301
#
# Stress axis : x y z
#
# Youngs Moduli (GPa) = 59.29432 39.91737 46.19947
#
# Poissons Ratio (x) = 0.04678 0.21983
# Poissons Ratio (y) = 0.06949 0.46127
# Poissons Ratio (z) = 0.28214 0.39854
#
# Static dielectric constant tensor:
#      x y z
#    x 1.963640 0.032630 -0.065560 
#    y 0.032630 1.980840 -0.065970 
#    z -0.065560 -0.065970 2.135090 
# 
# From -- ./inp_files/156814.got.cif
#   From: 2010.05.17/outbox.cif.g08.bks.cpg/sg2_79_cif.got.tgz:156814.got - 2010.06.03 11:33:40.
