data_PCOD9099236
_publ_section_title
;
Structure prediction by ZEFSAII (Michael W. Deem and Ramdas Pophale) SiO2 
 PCOD9099236
Probable space group: P -1
;
_chemical_formula_sum "Si O2"
_cell_formula_units_Z 16
_cell_length_a 17.369138
_cell_length_b 9.164960
_cell_length_c 7.865705
_cell_angle_alpha 49.535492
_cell_angle_beta 54.849339
_cell_angle_gamma 88.470452
_cell_volume 646.511645
_symmetry_space_group_name_H-M "P -1"
_symmetry_group_IT_number 2
_symmetry_cell_setting 'triclinic'
loop_
_space_group_symop_operation_xyz
x,y,z
-x,-y,-z
loop_
_atom_site_type_symbol
_atom_site_label
_atom_site_fract_x
_atom_site_fract_y
_atom_site_fract_z
Si Si1 0.658936 0.662886 0.602076
Si Si2 0.438857 0.741265 0.406461
Si Si3 0.907446 0.436414 0.951789
Si Si4 0.368146 0.794140 0.100313
Si Si5 0.440861 0.406738 0.870608
Si Si6 0.161378 0.814281 0.399644
Si Si7 0.110745 0.998195 0.827312
Si Si8 0.127169 0.167093 0.297374
O O1 0.640695 0.413550 0.831396
O O2 0.567632 0.615202 0.612252
O O3 0.791830 0.841815 0.282676
O O4 0.622403 0.720703 0.781220
O O5 0.364779 0.738043 0.349656
O O6 0.384821 0.521137 0.760974
O O7 0.537802 0.739201 0.177226
O O8 0.507313 0.973585 0.252233
O O9 0.849109 0.579218 0.914259
O O10 0.039695 0.640983 0.600275
O O11 0.870040 0.308490 0.280039
O O12 0.891976 0.235762 0.001122
O O13 0.263268 0.813429 0.186230
O O14 0.192023 0.073202 0.182983
O O15 0.137109 0.101107 0.525937
O O16 0.000000 0.000000 0.000000
O O17 0.000000 0.000000 0.500000
#
# Coordination Sequence:
#
# PCOD9099236 Si02
#       8
#     2   2   2   2   2   2   2   2
#     4  10  22  39  60  86 131 165 195 260 315 369
#     4   9  20  38  64  90 113 156 213 262 301 372
#     4   9  19  37  57  87 119 166 206 245 298 360
#     4  10  20  37  59  92 122 158 200 259 318 361
#     4   9  20  42  61  86 119 162 214 254 309 369
#     4   9  18  35  60  86 125 152 200 261 300 352
#     4  11  23  39  59  91 133 165 198 254 316 368
#     4   9  20  39  60  87 116 166 215 255 291 361
#
# _framework density 24.748200000000001
#
# number of rings (size 3 to 8) (size 9 to 14) (size 15 to 20)
#    0.000    2.500    0.000    1.500    3.500    2.000 
#   11.250    0.000    0.000    0.000    0.000    0.000 
#    0.000    0.000    0.000    0.000    0.000    0.000 
#
# Total GULP energy -89324.795395 kJ/mol
# GULP energy per Si atom -5582.799712 kJ/mol
# Density = 2.469187 g / cm^3
# Si number density = 24.748200 Si / 1000 Ang^3
#
#
#
# Elastic Constant Matrix: (Units=GPa)
#
#
# Indices 1 2 3 4 5 6 
#
# 1 106.2892 18.2709 21.3344 -10.3036 -4.9045 -22.7478
# 2 18.2709 101.1484 31.7234 -28.4633 9.0557 -19.5277
# 3 21.3344 31.7234 50.7934 -15.0963 1.2753 -4.7868
# 4 -10.3036 -28.4633 -15.0963 43.9087 -6.7392 8.8577
# 5 -4.9045 9.0557 1.2753 -6.7392 41.8055 -1.5217
# 6 -22.7478 -19.5277 -4.7868 8.8577 -1.5217 40.5438
#
#
#
# Elastic Compliance Matrix: (Units=1/GPa)
#
#
# Indices 1 2 3 4 5 6 
#
# 1 0.011690 0.000501 -0.004526 0.000521 0.001711 0.006217
# 2 0.000501 0.014910 -0.007209 0.005971 -0.001798 0.005239
# 3 -0.004526 -0.007209 0.027036 0.004439 0.000785 -0.003760
# 4 0.000521 0.005971 0.004439 0.029317 0.003264 -0.002590
# 5 0.001711 -0.001798 0.000785 0.003264 0.025028 0.000413
# 6 0.006217 0.005239 -0.003760 -0.002590 0.000413 0.030814
#
#
# Mechanical properties :
#
#
# Convention : Reuss Voigt Hill
#
# Bulk Modulus (GPa) = 32.08242 44.54316 38.31279
# Shear Modulus (GPa) = 29.12887 37.71175 33.42031
#
# Velocity S-wave (km/s) = 3.43448 3.90785 3.67878
# Velocity P-wave (km/s) = 5.35903 6.19672 5.79303
#
# Compressibility (1/GPa) = 0.03116972
#
# Stress axis : x y z
#
# Youngs Moduli (GPa) = 85.53998 67.07094 36.98758
#
# Poissons Ratio (x) = -0.03362 0.16739
# Poissons Ratio (y) = -0.04287 0.26664
# Poissons Ratio (z) = 0.38712 0.48350
#
# Static dielectric constant tensor:
#      x y z
#    x 1.981270 -0.010210 -0.020330 
#    y -0.010210 1.943630 -0.002300 
#    z -0.020330 -0.002300 2.074450 
# 
# From -- ./inp_files/327083.got.cif
#   From: 2010.05.17/outbox.cif.g08.bks.cpg/sg2_164_cif.got.tgz:327083.got - 2010.06.03 11:33:40.
