data_PCOD9099465
_publ_section_title
;
Structure prediction by ZEFSAII (Michael W. Deem and Ramdas Pophale) SiO2 
 PCOD9099465
Probable space group: P -1
;
_chemical_formula_sum "Si O2"
_cell_formula_units_Z 16
_cell_length_a 10.971559
_cell_length_b 16.806090
_cell_length_c 9.474558
_cell_angle_alpha 117.845186
_cell_angle_beta 108.699877
_cell_angle_gamma 30.176528
_cell_volume 762.762872
_symmetry_space_group_name_H-M "P -1"
_symmetry_group_IT_number 2
_symmetry_cell_setting 'triclinic'
loop_
_space_group_symop_operation_xyz
x,y,z
-x,-y,-z
loop_
_atom_site_type_symbol
_atom_site_label
_atom_site_fract_x
_atom_site_fract_y
_atom_site_fract_z
Si Si1 0.679781 0.708813 0.183212
Si Si2 0.779104 0.576494 0.809694
Si Si3 0.882794 0.241430 0.333921
Si Si4 0.996387 0.859352 0.282090
Si Si5 0.219184 0.913851 0.333449
Si Si6 0.506773 0.088967 0.163171
Si Si7 0.630971 0.936567 0.647315
Si Si8 0.626067 0.471559 0.695087
O O1 0.497312 0.767897 0.270907
O O2 0.929001 0.595330 0.253552
O O3 0.526988 0.883754 0.207963
O O4 0.750158 0.605297 0.991584
O O5 0.649133 0.737259 0.818047
O O6 0.659806 0.551571 0.713568
O O7 0.726156 0.345153 0.505895
O O8 0.661694 0.372322 0.247665
O O9 0.086503 0.198606 0.367179
O O10 0.043715 0.055657 0.259664
O O11 0.159114 0.846735 0.283930
O O12 0.176970 0.668652 0.226640
O O13 0.852709 0.983274 0.470917
O O14 0.787421 0.954487 0.174548
O O15 0.405944 0.122813 0.309094
O O16 0.500000 0.000000 0.000000
O O17 0.500000 0.000000 0.500000
#
# Coordination Sequence:
#
# PCOD9099465 Si02
#       8
#     2   2   2   2   2   2   2   2
#     4  10  21  39  60  88 120 164 204 250 307 368
#     4  11  23  38  59  86 127 163 202 251 308 370
#     4   9  19  36  61  89 119 154 207 252 300 363
#     4  10  21  38  65  88 124 161 205 258 313 362
#     4   9  19  40  63  91 116 158 209 258 304 366
#     4  12  24  40  59  92 124 162 207 255 305 375
#     4  11  21  41  66  90 121 164 209 253 307 364
#     4  10  20  37  60  90 123 162 198 254 312 360
#
# _framework density 20.976372999999999
#
# number of rings (size 3 to 8) (size 9 to 14) (size 15 to 20)
#    0.000    1.750    1.250    4.500    1.750    2.000 
#    2.250    6.875    0.000    0.000    0.000    0.000 
#    0.000    0.000    0.000    0.000    0.000    0.000 
#
# Total GULP energy -89289.742534 kJ/mol
# GULP energy per Si atom -5580.608908 kJ/mol
# Density = 2.092863 g / cm^3
# Si number density = 20.976373 Si / 1000 Ang^3
#
#
#
# Elastic Constant Matrix: (Units=GPa)
#
#
# Indices 1 2 3 4 5 6 
#
# 1 147.4712 73.4285 26.5576 0.7431 -6.1822 -12.7361
# 2 73.4285 128.9998 12.1031 1.7970 6.2749 -24.1828
# 3 26.5576 12.1031 34.0865 -0.3534 2.2026 -4.8480
# 4 0.7431 1.7970 -0.3534 20.7176 0.1270 -0.5713
# 5 -6.1822 6.2749 2.2026 0.1270 21.8694 1.5028
# 6 -12.7361 -24.1828 -4.8480 -0.5713 1.5028 45.4576
#
#
#
# Elastic Compliance Matrix: (Units=1/GPa)
#
#
# Indices 1 2 3 4 5 6 
#
# 1 0.011338 -0.006274 -0.007140 -0.000051 0.005801 -0.001115
# 2 -0.006274 0.012447 0.001583 -0.000648 -0.005859 0.005218
# 3 -0.007140 0.001583 0.035147 0.000834 -0.006210 0.002806
# 4 -0.000051 -0.000648 0.000834 0.048351 -0.000217 0.000345
# 5 0.005801 -0.005859 -0.006210 -0.000217 0.049936 -0.003808
# 6 -0.001115 0.005218 0.002806 0.000345 -0.003808 0.024892
#
#
# Mechanical properties :
#
#
# Convention : Reuss Voigt Hill
#
# Bulk Modulus (GPa) = 28.35309 59.41510 43.88410
# Shear Modulus (GPa) = 22.98534 30.84013 26.91274
#
# Velocity S-wave (km/s) = 3.31384 3.83852 3.58579
# Velocity P-wave (km/s) = 5.30924 6.93051 6.17333
#
# Compressibility (1/GPa) = 0.03526952
#
# Stress axis : x y z
#
# Youngs Moduli (GPa) = 88.19807 80.33937 28.45196
#
# Poissons Ratio (x) = 0.50409 0.20315
# Poissons Ratio (y) = 0.55340 -0.04504
# Poissons Ratio (z) = 0.62973 -0.12718
#
# Static dielectric constant tensor:
#      x y z
#    x 1.742020 -0.016350 0.008090 
#    y -0.016350 1.775690 -0.034700 
#    z 0.008090 -0.034700 1.823970 
# 
# From -- ./inp_files/278293.got.cif
#   From: 2010.05.17/outbox.cif.g08.bks.cpg/sg2_140_cif.got.tgz:278293.got - 2010.06.03 11:33:40.
