data_PCOD9099411
_publ_section_title
;
Structure prediction by ZEFSAII (Michael W. Deem and Ramdas Pophale) SiO2 
 PCOD9099411
Probable space group: P -1
;
_chemical_formula_sum "Si O2"
_cell_formula_units_Z 14
_cell_length_a 7.669948
_cell_length_b 6.567189
_cell_length_c 20.783518
_cell_angle_alpha 79.173451
_cell_angle_beta 51.356869
_cell_angle_gamma 114.326519
_cell_volume 581.390182
_symmetry_space_group_name_H-M "P -1"
_symmetry_group_IT_number 2
_symmetry_cell_setting 'triclinic'
loop_
_space_group_symop_operation_xyz
x,y,z
-x,-y,-z
loop_
_atom_site_type_symbol
_atom_site_label
_atom_site_fract_x
_atom_site_fract_y
_atom_site_fract_z
Si Si1 0.248920 0.915921 0.326321
Si Si2 0.370247 0.599456 0.249303
Si Si3 0.242428 0.465858 0.894219
Si Si4 0.844887 0.331139 0.834407
Si Si5 0.216764 0.070891 0.588104
Si Si6 0.365947 0.689197 0.984898
Si Si7 0.496581 0.885314 0.611347
O O1 0.321180 0.720938 0.311850
O O2 0.923660 0.788797 0.379378
O O3 0.531786 0.211430 0.206285
O O4 0.254283 0.958766 0.398778
O O5 0.687668 0.687820 0.156522
O O6 0.300889 0.688349 0.197035
O O7 0.101673 0.257456 0.331905
O O8 0.343099 0.510434 0.943101
O O9 0.889453 0.305628 0.980306
O O10 0.206711 0.579412 0.726483
O O11 0.695544 0.009911 0.897909
O O12 0.754160 0.424500 0.908729
O O13 0.405852 0.162761 0.473841
O O14 0.387995 0.049273 0.605644
#
# Coordination Sequence:
#
# PCOD9099411 Si02
#       7
#     2   2   2   2   2   2   2
#     4  11  20  41  64  91 125 166 195 260 308 361
#     4  10  22  39  61  90 123 156 206 253 306 366
#     4  10  21  39  61  88 121 160 208 255 297 373
#     4  10  20  37  60  88 121 159 202 252 303 370
#     4   9  22  41  64  92 126 156 208 256 297 377
#     4  10  20  38  61  87 120 161 208 251 307 359
#     4  10  20  41  65  92 125 162 204 250 314 361
#
# _framework density 24.080214000000002
#
# number of rings (size 3 to 8) (size 9 to 14) (size 15 to 20)
#    0.000    2.000    2.857    0.429    0.000    1.714 
#    2.571    7.857    0.000    0.000    0.000    0.000 
#    0.000    0.000    0.000    0.000    0.000    0.000 
#
# Total GULP energy -78184.366649 kJ/mol
# GULP energy per Si atom -5584.597618 kJ/mol
# Density = 2.402541 g / cm^3
# Si number density = 24.080214 Si / 1000 Ang^3
#
#
#
# Elastic Constant Matrix: (Units=GPa)
#
#
# Indices 1 2 3 4 5 6 
#
# 1 -9.5327 40.1238 48.1945 5.5834 -69.0360 62.0752
# 2 40.1238 35.7165 0.2574 21.5415 13.3157 -20.5993
# 3 48.1945 0.2574 87.9685 8.0216 30.7234 -20.2661
# 4 5.5834 21.5415 8.0216 19.0192 -7.3440 0.3445
# 5 -69.0360 13.3157 30.7234 -7.3440 -12.1814 56.1541
# 6 62.0752 -20.5993 -20.2661 0.3445 56.1541 -9.8912
#
#
#
# Elastic Compliance Matrix: (Units=1/GPa)
#
#
# Indices 1 2 3 4 5 6 
#
# 1 0.009262 0.002234 0.000267 -0.008548 -0.007882 0.007883
# 2 0.002234 0.042392 -0.003182 -0.043061 0.010631 -0.008891
# 3 0.000267 -0.003182 0.009829 -0.000014 0.001380 -0.003997
# 4 -0.008548 -0.043061 -0.000014 0.101769 -0.004869 0.011963
# 5 -0.007882 0.010631 0.001380 -0.004869 0.014433 0.007336
# 6 0.007883 -0.008891 -0.003997 0.011963 0.007336 0.017143
#
#
# Mechanical properties :
#
#
# Convention : Reuss Voigt Hill
#
# Bulk Modulus (GPa) = 16.63319 32.36708 24.50013
# Shear Modulus (GPa) = 23.12336 1.09441 12.10889
#
# Velocity S-wave (km/s) = 3.10217 0.67489 2.24488
# Velocity P-wave (km/s) = 4.44452 3.75204 4.11288
#
# Compressibility (1/GPa) = 0.06012077
#
# Stress axis : x y z
#
# Youngs Moduli (GPa) = 107.96374 23.58929 101.74022
#
# Poissons Ratio (x) = -0.05269 -0.02721
# Poissons Ratio (y) = -0.24115 0.32378
# Poissons Ratio (z) = -0.02888 0.07507
#
# Static dielectric constant tensor:
#      x y z
#    x 1.932110 -0.058600 0.001580 
#    y -0.058600 2.036210 0.011410 
#    z 0.001580 0.011410 1.905370 
# 
# From -- ./inp_files/342455.got.cif
#   From: 2010.05.17/outbox.cif.g08.bks.cpg/sg2_172_cif.got.tgz:342455.got - 2010.06.03 11:33:40.
