data_PCOD9099154
_publ_section_title
;
Structure prediction by ZEFSAII (Michael W. Deem and Ramdas Pophale) SiO2 
 PCOD9099154
Probable space group: P -1
;
_chemical_formula_sum "Si O2"
_cell_formula_units_Z 16
_cell_length_a 8.251562
_cell_length_b 9.305316
_cell_length_c 25.783316
_cell_angle_alpha 127.650749
_cell_angle_beta 31.031784
_cell_angle_gamma 113.010804
_cell_volume 764.266179
_symmetry_space_group_name_H-M "P -1"
_symmetry_group_IT_number 2
_symmetry_cell_setting 'triclinic'
loop_
_space_group_symop_operation_xyz
x,y,z
-x,-y,-z
loop_
_atom_site_type_symbol
_atom_site_label
_atom_site_fract_x
_atom_site_fract_y
_atom_site_fract_z
Si Si1 0.311488 0.689127 0.784658
Si Si2 0.672235 0.321855 0.337851
Si Si3 0.430211 0.212992 0.090388
Si Si4 0.425205 0.328274 0.010735
Si Si5 0.237183 0.744675 0.547560
Si Si6 0.565109 0.916992 0.576806
Si Si7 0.458686 0.072094 0.161460
Si Si8 0.761904 0.273365 0.583013
O O1 0.429030 0.710176 0.699207
O O2 0.276984 0.892368 0.863940
O O3 0.579745 0.498302 0.692058
O O4 0.965777 0.646001 0.871126
O O5 0.411501 0.524575 0.469282
O O6 0.688456 0.144651 0.330690
O O7 0.041373 0.328451 0.231400
O O8 0.539121 0.177045 0.111473
O O9 0.560241 0.310754 0.029174
O O10 0.500000 0.000000 0.000000
O O11 0.550686 0.132855 0.899955
O O12 0.500000 0.500000 0.000000
O O13 0.487757 0.849562 0.526097
O O14 0.195995 0.751670 0.497435
O O15 0.885896 0.827931 0.691237
O O16 0.911242 0.803441 0.486981
O O17 0.546256 0.136841 0.627564
#
# Coordination Sequence:
#
# PCOD9099154 Si02
#       8
#     2   2   2   2   2   2   2   2
#     4  10  22  40  63  85 124 156 202 253 303 359
#     4  10  20  37  59  87 118 161 200 248 294 361
#     4   9  20  37  58  85 113 153 202 245 290 356
#     4  10  23  42  62  86 118 156 201 253 310 360
#     4  11  22  37  62  90 124 162 210 244 308 371
#     4  11  21  37  58  88 128 162 206 243 309 361
#     4  11  21  38  64  89 114 160 207 245 301 370
#     4  10  24  38  55  94 129 163 193 259 308 360
#
# _framework density 20.935113999999999
#
# number of rings (size 3 to 8) (size 9 to 14) (size 15 to 20)
#    0.000    1.750    1.250    2.625    3.500    2.000 
#    2.250    1.875    0.000    0.000    0.000    0.000 
#    0.000    0.000    0.000    0.000    0.000    0.000 
#
# Total GULP energy -89089.863495 kJ/mol
# GULP energy per Si atom -5568.116468 kJ/mol
# Density = 2.088747 g / cm^3
# Si number density = 20.935114 Si / 1000 Ang^3
#
#
#
# Elastic Constant Matrix: (Units=GPa)
#
#
# Indices 1 2 3 4 5 6 
#
# 1 70.5503 21.6168 12.6960 4.7285 2.1590 3.2068
# 2 21.6168 113.8105 30.6067 -4.7215 14.2589 -8.8563
# 3 12.6960 30.6067 83.6555 9.6690 7.0407 -5.6757
# 4 4.7285 -4.7215 9.6690 21.0801 -2.9708 1.9234
# 5 2.1590 14.2589 7.0407 -2.9708 24.9514 -0.1703
# 6 3.2068 -8.8563 -5.6757 1.9234 -0.1703 35.6714
#
#
#
# Elastic Compliance Matrix: (Units=1/GPa)
#
#
# Indices 1 2 3 4 5 6 
#
# 1 0.015610 -0.003030 -0.001022 -0.003483 0.000240 -0.002129
# 2 -0.003030 0.011247 -0.003568 0.003971 -0.004670 0.002261
# 3 -0.001022 -0.003568 0.014710 -0.007912 -0.002952 0.001959
# 4 -0.003483 0.003971 -0.007912 0.053936 0.006667 -0.002836
# 5 0.000240 -0.004670 -0.002952 0.006667 0.044341 -0.001799
# 6 -0.002129 0.002261 0.001959 -0.002836 -0.001799 0.029242
#
#
# Mechanical properties :
#
#
# Convention : Reuss Voigt Hill
#
# Bulk Modulus (GPa) = 37.98460 44.20614 41.09537
# Shear Modulus (GPa) = 25.89302 29.88037 27.88670
#
# Velocity S-wave (km/s) = 3.52066 3.78204 3.65369
# Velocity P-wave (km/s) = 5.89153 6.34298 6.12142
#
# Compressibility (1/GPa) = 0.02632646
#
# Stress axis : x y z
#
# Youngs Moduli (GPa) = 64.06309 88.91034 67.98063
#
# Poissons Ratio (x) = 0.26941 0.06951
# Poissons Ratio (y) = 0.19412 0.24253
# Poissons Ratio (z) = 0.06550 0.31720
#
# Static dielectric constant tensor:
#      x y z
#    x 1.866060 0.006010 -0.026270 
#    y 0.006010 1.742520 -0.005930 
#    z -0.026270 -0.005930 1.788910 
# 
# From -- ./inp_files/237109.got.cif
#   From: 2010.05.17/outbox.cif.g08.bks.cpg/sg2_119_cif.got.tgz:237109.got - 2010.06.03 11:33:40.
