data_PCOD9099889
_publ_section_title
;
Structure prediction by ZEFSAII (Michael W. Deem and Ramdas Pophale) SiO2 
 PCOD9099889
Probable space group: P -1
;
_chemical_formula_sum "Si O2"
_cell_formula_units_Z 16
_cell_length_a 20.523748
_cell_length_b 9.147466
_cell_length_c 27.645960
_cell_angle_alpha 28.577098
_cell_angle_beta 161.213577
_cell_angle_gamma 143.779500
_cell_volume 789.241316
_symmetry_space_group_name_H-M "P -1"
_symmetry_group_IT_number 2
_symmetry_cell_setting 'triclinic'
loop_
_space_group_symop_operation_xyz
x,y,z
-x,-y,-z
loop_
_atom_site_type_symbol
_atom_site_label
_atom_site_fract_x
_atom_site_fract_y
_atom_site_fract_z
Si Si1 0.696017 0.323439 0.600425
Si Si2 0.669229 0.662642 0.966302
Si Si3 0.866043 0.611843 0.939622
Si Si4 0.979995 0.649079 0.635217
Si Si5 0.699287 0.332556 0.819028
Si Si6 0.004151 0.648596 0.537622
Si Si7 0.668996 0.688533 0.205942
Si Si8 0.008519 0.647113 0.127023
O O1 0.464925 0.418919 0.394967
O O2 0.836204 0.439208 0.623009
O O3 0.742595 0.958443 0.748912
O O4 0.771955 0.468718 0.661092
O O5 0.475570 0.566414 0.831869
O O6 0.845597 0.650775 0.053588
O O7 0.625395 0.008929 0.853982
O O8 0.784525 0.453492 0.151182
O O9 0.734603 0.401186 0.879429
O O10 0.930378 0.477735 0.076098
O O11 0.080931 0.652934 0.054146
O O12 0.963725 0.598232 0.580893
O O13 0.926048 0.008622 0.509913
O O14 0.170681 0.385355 0.705097
O O15 0.807003 0.669084 0.357270
O O16 0.500000 0.000000 0.000000
O O17 0.000000 0.000000 0.000000
#
# Coordination Sequence:
#
# PCOD9099889 Si02
#       8
#     2   2   2   2   2   2   2   2
#     4  10  20  37  62  85 123 157 201 249 301 363
#     4  11  21  40  63  86 123 162 201 250 308 364
#     4  10  21  39  56  87 122 159 201 255 294 359
#     4  10  20  42  63  92 123 162 201 253 306 373
#     4  11  21  36  60  84 117 165 200 247 305 352
#     4  10  23  42  66  88 127 158 202 258 310 365
#     4  11  23  43  63  92 122 159 204 257 311 364
#     4   9  18  39  59  82 124 155 195 252 294 352
#
# _framework density 20.272632999999999
#
# number of rings (size 3 to 8) (size 9 to 14) (size 15 to 20)
#    0.000    1.750    5.000    1.125    0.000    2.000 
#    4.500    0.000    0.000    0.000    0.000    0.000 
#    0.000    0.000    0.000    0.000    0.000    0.000 
#
# Total GULP energy -89132.607883 kJ/mol
# GULP energy per Si atom -5570.787993 kJ/mol
# Density = 2.022649 g / cm^3
# Si number density = 20.272633 Si / 1000 Ang^3
#
#
#
# Elastic Constant Matrix: (Units=GPa)
#
#
# Indices 1 2 3 4 5 6 
#
# 1 95.6640 28.4936 17.5106 28.1693 -16.5497 -31.1321
# 2 28.4936 112.4742 28.2905 12.3099 -8.4496 -36.5315
# 3 17.5106 28.2905 101.2399 4.4504 0.6813 -32.9558
# 4 28.1693 12.3099 4.4504 50.6883 -0.4533 -2.8976
# 5 -16.5497 -8.4496 0.6813 -0.4533 28.0721 11.3797
# 6 -31.1321 -36.5315 -32.9558 -2.8976 11.3797 37.4893
#
#
#
# Elastic Compliance Matrix: (Units=1/GPa)
#
#
# Indices 1 2 3 4 5 6 
#
# 1 0.018852 0.001653 0.002266 -0.010058 0.004451 0.017129
# 2 0.001653 0.013584 0.001251 -0.003432 -0.001463 0.015888
# 3 0.002266 0.001251 0.015153 -0.001912 -0.006025 0.018102
# 4 -0.010058 -0.003432 -0.001912 0.025686 -0.002148 -0.010741
# 5 0.004451 -0.001463 -0.006025 -0.002148 0.044713 -0.016764
# 6 0.017129 0.015888 0.018102 -0.010741 -0.016764 0.076552
#
#
# Mechanical properties :
#
#
# Convention : Reuss Voigt Hill
#
# Bulk Modulus (GPa) = 17.26281 50.88525 34.07403
# Shear Modulus (GPa) = 24.56860 38.92217 31.74539
#
# Velocity S-wave (km/s) = 3.48503 4.38646 3.96147
# Velocity P-wave (km/s) = 4.97269 7.12809 6.14562
#
# Compressibility (1/GPa) = 0.05792801
#
# Stress axis : x y z
#
# Youngs Moduli (GPa) = 53.04356 73.61854 65.99197
#
# Poissons Ratio (x) = -0.12169 -0.14951
# Poissons Ratio (y) = -0.08768 -0.08254
# Poissons Ratio (z) = -0.12017 -0.09208
#
# Static dielectric constant tensor:
#      x y z
#    x 1.766960 -0.039280 -0.011090 
#    y -0.039280 1.759090 0.000680 
#    z -0.011090 0.000680 1.756620 
# 
# From -- ./inp_files/620683.got.cif
#   From: 2010.05.17/outbox.cif.g08.bks.cpg/sg2_311_cif.got.tgz:620683.got - 2010.06.03 11:33:40.
