data_PCOD9100150
_publ_section_title
;
Structure prediction by ZEFSAII (Michael W. Deem and Ramdas Pophale) SiO2 
 PCOD9100150
Probable space group: P -1
;
_chemical_formula_sum "Si O2"
_cell_formula_units_Z 14
_cell_length_a 18.893066
_cell_length_b 13.172268
_cell_length_c 12.312540
_cell_angle_alpha 37.606455
_cell_angle_beta 27.101179
_cell_angle_gamma 26.077647
_cell_volume 613.214605
_symmetry_space_group_name_H-M "P -1"
_symmetry_group_IT_number 2
_symmetry_cell_setting 'triclinic'
loop_
_space_group_symop_operation_xyz
x,y,z
-x,-y,-z
loop_
_atom_site_type_symbol
_atom_site_label
_atom_site_fract_x
_atom_site_fract_y
_atom_site_fract_z
Si Si1 0.184488 0.893698 0.748595
Si Si2 0.337602 0.137820 0.706148
Si Si3 0.127822 0.678891 0.817120
Si Si4 0.648610 0.488343 0.564461
Si Si5 0.334198 0.268333 0.022530
Si Si6 0.007873 0.635386 0.464918
Si Si7 0.529382 0.700862 0.954034
O O1 0.144981 0.816709 0.760216
O O2 0.410902 0.681452 0.672368
O O3 0.155040 0.103985 0.574614
O O4 0.000000 0.000000 0.000000
O O5 0.500000 0.000000 0.500000
O O6 0.310176 0.354708 0.583369
O O7 0.437218 0.943010 0.828554
O O8 0.105071 0.229369 0.927445
O O9 0.180017 0.680711 0.620394
O O10 0.308827 0.413729 0.835403
O O11 0.627376 0.343434 0.794758
O O12 0.098791 0.362258 0.285261
O O13 0.402810 0.313122 0.001273
O O14 0.500000 0.000000 0.000000
O O15 0.000000 0.500000 0.500000
O O16 0.256427 0.504619 0.234289
#
# Coordination Sequence:
#
# PCOD9100150 Si02
#       7
#     2   2   2   2   2   2   2
#     4  12  21  41  71 104 138 181 234 294 340 414
#     4  12  28  50  71 100 144 191 235 294 358 421
#     4  12  26  45  69 108 144 183 231 292 362 413
#     4  12  25  46  73 102 146 183 237 292 356 425
#     4  11  22  41  70 104 139 179 230 292 350 419
#     4  10  20  37  62  98 134 174 229 282 339 403
#     4  11  24  45  71 100 139 185 238 285 349 424
#
# _framework density 22.830506
#
# number of rings (size 3 to 8) (size 9 to 14) (size 15 to 20)
#    0.000    0.571    2.857    6.857    2.000    1.143 
#    2.571    0.000    0.000    0.000    0.000    0.000 
#    0.000    0.000    0.000    0.000    0.000    0.000 
#
# Total GULP energy -78331.664385 kJ/mol
# GULP energy per Si atom -5595.118885 kJ/mol
# Density = 2.277854 g / cm^3
# Si number density = 22.830506 Si / 1000 Ang^3
#
#
#
# Elastic Constant Matrix: (Units=GPa)
#
#
# Indices 1 2 3 4 5 6 
#
# 1 44.2464 16.6351 12.9937 -3.2480 -13.0542 10.5964
# 2 16.6351 93.3507 34.4095 -5.9462 -8.4021 20.0130
# 3 12.9937 34.4095 102.1830 -9.3993 2.0960 13.7420
# 4 -3.2480 -5.9462 -9.3993 50.8908 0.6898 4.3544
# 5 -13.0542 -8.4021 2.0960 0.6898 36.6727 -5.4388
# 6 10.5964 20.0130 13.7420 4.3544 -5.4388 42.4010
#
#
#
# Elastic Compliance Matrix: (Units=1/GPa)
#
#
# Indices 1 2 3 4 5 6 
#
# 1 0.027849 -0.002370 -0.002251 0.001316 0.008865 -0.004110
# 2 -0.002370 0.013687 -0.003623 0.001146 0.001798 -0.004581
# 3 -0.002251 -0.003623 0.011794 0.001825 -0.002648 -0.002077
# 4 0.001316 0.001146 0.001825 0.020517 -0.000294 -0.003606
# 5 0.008865 0.001798 -0.002648 -0.000294 0.031265 0.001834
# 6 -0.004110 -0.004581 -0.002077 -0.003606 0.001834 0.028052
#
#
# Mechanical properties :
#
#
# Convention : Reuss Voigt Hill
#
# Bulk Modulus (GPa) = 27.14340 40.87296 34.00818
# Shear Modulus (GPa) = 30.87677 37.70904 34.29291
#
# Velocity S-wave (km/s) = 3.68154 4.06851 3.87985
# Velocity P-wave (km/s) = 5.47599 6.32551 5.91602
#
# Compressibility (1/GPa) = 0.03684137
#
# Stress axis : x y z
#
# Youngs Moduli (GPa) = 35.90777 73.06191 84.78783
#
# Poissons Ratio (x) = 0.17317 0.19088
# Poissons Ratio (y) = 0.08511 0.30719
# Poissons Ratio (z) = 0.08084 0.26471
#
# Static dielectric constant tensor:
#      x y z
#    x 1.864490 -0.027380 -0.003970 
#    y -0.027380 1.831740 -0.004060 
#    z -0.003970 -0.004060 1.905740 
# 
# From -- ./inp_files/159384.got.cif
#   From: 2010.05.17/outbox.cif.g08.bks.cpg/sg2_80_cif.got.tgz:159384.got - 2010.06.03 11:33:40.
