data_PCOD9100940
_publ_section_title
;
Structure prediction by ZEFSAII (Michael W. Deem and Ramdas Pophale) SiO2 
 PCOD9100940
Probable space group: P -1
;
_chemical_formula_sum "Si O2"
_cell_formula_units_Z 16
_cell_length_a 19.646609
_cell_length_b 5.532368
_cell_length_c 26.696912
_cell_angle_alpha 86.406086
_cell_angle_beta 161.766655
_cell_angle_gamma 83.022937
_cell_volume 738.378004
_symmetry_space_group_name_H-M "P -1"
_symmetry_group_IT_number 2
_symmetry_cell_setting 'triclinic'
loop_
_space_group_symop_operation_xyz
x,y,z
-x,-y,-z
loop_
_atom_site_type_symbol
_atom_site_label
_atom_site_fract_x
_atom_site_fract_y
_atom_site_fract_z
Si Si1 0.049395 0.242165 0.255612
Si Si2 0.864821 0.140337 0.482906
Si Si3 0.300431 0.034138 0.534765
Si Si4 0.623582 0.249510 0.905187
Si Si5 0.236946 0.153354 0.676137
Si Si6 0.736000 0.418761 0.797807
Si Si7 0.777446 0.000312 0.912934
Si Si8 0.657596 0.454680 0.560389
O O1 0.178535 0.402007 0.321464
O O2 0.086910 0.252987 0.341326
O O3 0.185362 0.893873 0.340525
O O4 0.757800 0.380751 0.027684
O O5 0.837787 0.050943 0.520301
O O6 0.631257 0.486066 0.306744
O O7 0.150834 0.059984 0.666361
O O8 0.791806 0.990264 0.391542
O O9 0.533961 0.754264 0.669617
O O10 0.478214 0.107890 0.689451
O O11 0.514606 0.116188 0.868439
O O12 0.806152 0.022415 0.991636
O O13 0.000000 0.500000 0.500000
O O14 0.557816 0.365794 0.637181
O O15 0.819731 0.219669 0.908527
O O16 0.994885 0.320261 0.947302
O O17 0.500000 0.500000 0.500000
#
# Coordination Sequence:
#
# PCOD9100940 Si02
#       8
#     2   2   2   2   2   2   2   2
#     4  11  26  40  64  93 133 169 215 263 330 379
#     4  10  20  37  67  91 123 160 213 261 325 381
#     4  11  21  40  61  92 126 173 207 270 316 385
#     4  11  22  38  64  96 124 168 214 269 316 384
#     4   9  20  38  62  95 121 155 209 268 319 385
#     4  10  22  36  56  88 122 166 220 263 299 372
#     4  11  20  36  59  86 122 165 218 260 310 362
#     4  11  23  43  60  87 129 180 218 266 318 378
#
# _framework density 21.669118000000001
#
# number of rings (size 3 to 8) (size 9 to 14) (size 15 to 20)
#    0.000    1.500    3.750    1.500    1.750    1.000 
#    2.250    0.625    0.000    6.750    0.000    0.000 
#    0.000    0.000    0.000    0.000    0.000    0.000 
#
# Total GULP energy -89281.082513 kJ/mol
# GULP energy per Si atom -5580.067657 kJ/mol
# Density = 2.161980 g / cm^3
# Si number density = 21.669118 Si / 1000 Ang^3
#
#
#
# Elastic Constant Matrix: (Units=GPa)
#
#
# Indices 1 2 3 4 5 6 
#
# 1 122.9433 34.9763 58.4989 18.9656 9.1833 13.9857
# 2 34.9763 81.1477 24.4720 19.4646 9.6750 3.0450
# 3 58.4989 24.4720 73.5801 35.7417 1.1435 5.6262
# 4 18.9656 19.4646 35.7417 45.7636 4.2679 8.3678
# 5 9.1833 9.6750 1.1435 4.2679 27.2111 5.9196
# 6 13.9857 3.0450 5.6262 8.3678 5.9196 35.4764
#
#
#
# Elastic Compliance Matrix: (Units=1/GPa)
#
#
# Indices 1 2 3 4 5 6 
#
# 1 0.015738 -0.003604 -0.014591 0.007613 -0.003571 -0.004781
# 2 -0.003604 0.015468 0.000160 -0.005202 -0.003897 0.001945
# 3 -0.014591 0.000160 0.036206 -0.023701 0.006068 0.004574
# 4 0.007613 -0.005202 -0.023701 0.041262 -0.004503 -0.007777
# 5 -0.003571 -0.003897 0.006068 -0.004503 0.040875 -0.004978
# 6 -0.004781 0.001945 0.004574 -0.007777 -0.004978 0.031845
#
#
# Mechanical properties :
#
#
# Convention : Reuss Voigt Hill
#
# Bulk Modulus (GPa) = 31.90575 57.06284 44.48430
# Shear Modulus (GPa) = 21.93839 32.33847 27.13843
#
# Velocity S-wave (km/s) = 3.18532 3.86732 3.54277
# Velocity P-wave (km/s) = 5.31830 6.80679 6.10806
#
# Compressibility (1/GPa) = 0.03134231
#
# Stress axis : x y z
#
# Youngs Moduli (GPa) = 63.54125 64.64935 27.61955
#
# Poissons Ratio (x) = 0.23301 0.40298
# Poissons Ratio (y) = 0.22902 -0.00442
# Poissons Ratio (z) = 0.92710 -0.01034
#
# Static dielectric constant tensor:
#      x y z
#    x 1.786400 0.008540 0.028660 
#    y 0.008540 1.846160 -0.027880 
#    z 0.028660 -0.027880 1.903160 
# 
# From -- ./inp_files/37252.got.cif
#   From: 2010.05.17/outbox.cif.g08.bks.cpg/sg2_19_cif.got.tgz:37252.got - 2010.06.03 11:33:40.
