data_PCOD9100665
_publ_section_title
;
Structure prediction by ZEFSAII (Michael W. Deem and Ramdas Pophale) SiO2 
 PCOD9100665
Probable space group: P -1
;
_chemical_formula_sum "Si O2"
_cell_formula_units_Z 16
_cell_length_a 7.587140
_cell_length_b 14.861319
_cell_length_c 7.324044
_cell_angle_alpha 81.571766
_cell_angle_beta 58.643878
_cell_angle_gamma 97.393161
_cell_volume 676.751335
_symmetry_space_group_name_H-M "P -1"
_symmetry_group_IT_number 2
_symmetry_cell_setting 'triclinic'
loop_
_space_group_symop_operation_xyz
x,y,z
-x,-y,-z
loop_
_atom_site_type_symbol
_atom_site_label
_atom_site_fract_x
_atom_site_fract_y
_atom_site_fract_z
Si Si1 0.980991 0.890920 0.578034
Si Si2 0.867733 0.898544 0.055775
Si Si3 0.999089 0.276879 0.997519
Si Si4 0.199249 0.506200 0.157372
Si Si5 0.296982 0.703919 0.138751
Si Si6 0.084602 0.302909 0.373673
Si Si7 0.444045 0.900251 0.172032
Si Si8 0.261453 0.473563 0.711726
O O1 0.220000 0.886965 0.396845
O O2 0.899089 0.885512 0.828836
O O3 0.841524 0.793127 0.594713
O O4 0.000000 0.000000 0.500000
O O5 0.963863 0.815190 0.096573
O O6 0.626050 0.898429 0.221994
O O7 0.000000 0.000000 0.000000
O O8 0.000641 0.283484 0.214181
O O9 0.781929 0.290324 0.026987
O O10 0.188046 0.361392 0.803885
O O11 0.336834 0.599804 0.153896
O O12 0.227291 0.408778 0.256451
O O13 0.940933 0.501804 0.295218
O O14 0.253727 0.510169 0.911928
O O15 0.438968 0.806102 0.084211
O O16 0.099595 0.693869 0.386311
O O17 0.500000 0.000000 0.000000
O O18 0.500000 0.500000 0.500000
#
# Coordination Sequence:
#
# PCOD9100665 Si02
#       8
#     2   2   2   2   2   2   2   2
#     4  10  21  39  62  89 122 161 200 253 313 361
#     4  11  23  40  64  89 124 158 204 263 306 368
#     4   9  20  38  58  91 124 163 204 254 311 363
#     4   9  18  36  57  89 121 163 206 252 303 367
#     4  10  20  37  65  89 124 165 208 251 314 370
#     4   9  19  35  63  87 124 161 205 254 310 360
#     4  11  22  39  63  91 121 164 205 253 316 368
#     4   9  18  34  59  86 126 162 201 253 303 361
#
# _framework density 23.642363
#
# number of rings (size 3 to 8) (size 9 to 14) (size 15 to 20)
#    0.000    2.250    1.250    1.875    1.750    2.500 
#    0.000   10.000    0.000   10.500    0.000    0.000 
#    0.000    0.000    0.000    0.000    0.000    0.000 
#
# Total GULP energy -89112.313595 kJ/mol
# GULP energy per Si atom -5569.519600 kJ/mol
# Density = 2.358855 g / cm^3
# Si number density = 23.642363 Si / 1000 Ang^3
#
#
#
# Elastic Constant Matrix: (Units=GPa)
#
#
# Indices 1 2 3 4 5 6 
#
# 1 39.1405 16.7558 18.5978 -2.5607 -16.4775 3.7246
# 2 16.7558 243.1666 15.9183 -23.5555 -10.1585 1.5079
# 3 18.5978 15.9183 86.9583 4.3008 -16.1924 -4.5045
# 4 -2.5607 -23.5555 4.3008 35.0051 -6.4051 1.2560
# 5 -16.4775 -10.1585 -16.1924 -6.4051 33.6106 -0.0379
# 6 3.7246 1.5079 -4.5045 1.2560 -0.0379 31.3214
#
#
#
# Elastic Compliance Matrix: (Units=1/GPa)
#
#
# Indices 1 2 3 4 5 6 
#
# 1 0.035958 -0.000884 -0.005104 0.005776 0.015997 -0.005180
# 2 -0.000884 0.004593 -0.000591 0.003350 0.001308 -0.000334
# 3 -0.005104 -0.000591 0.013584 -0.001895 0.003506 0.002669
# 4 0.005776 0.003350 -0.001895 0.033260 0.009267 -0.002443
# 5 0.015997 0.001308 0.003506 0.009267 0.041443 -0.001783
# 6 -0.005180 -0.000334 0.002669 -0.002443 -0.001783 0.033039
#
#
# Mechanical properties :
#
#
# Convention : Reuss Voigt Hill
#
# Bulk Modulus (GPa) = 24.40339 52.42325 38.41332
# Shear Modulus (GPa) = 26.49792 41.18697 33.84245
#
# Velocity S-wave (km/s) = 3.35144 4.17836 3.78753
# Velocity P-wave (km/s) = 5.03195 6.74535 5.95064
#
# Compressibility (1/GPa) = 0.04097791
#
# Stress axis : x y z
#
# Youngs Moduli (GPa) = 27.81054 217.71002 73.61461
#
# Poissons Ratio (x) = 0.19239 0.37571
# Poissons Ratio (y) = 0.02458 0.04352
# Poissons Ratio (z) = 0.14194 0.12871
#
# Static dielectric constant tensor:
#      x y z
#    x 2.945520 1.518100 -0.017270 
#    y 1.518100 5.455560 -0.300830 
#    z -0.017270 -0.300830 1.902020 
# 
# From -- ./inp_files/201285.got.cif
#   From: 2010.05.17/outbox.cif.g08.bks.cpg/sg2_101_cif.got.tgz:201285.got - 2010.06.03 11:33:40.
