data_PCOD9100845
_publ_section_title
;
Structure prediction by ZEFSAII (Michael W. Deem and Ramdas Pophale) SiO2 
 PCOD9100845
Probable space group: P -1
;
_chemical_formula_sum "Si O2"
_cell_formula_units_Z 16
_cell_length_a 7.940044
_cell_length_b 17.119161
_cell_length_c 13.055734
_cell_angle_alpha 154.521837
_cell_angle_beta 59.177521
_cell_angle_gamma 126.043955
_cell_volume 616.344726
_symmetry_space_group_name_H-M "P -1"
_symmetry_group_IT_number 2
_symmetry_cell_setting 'triclinic'
loop_
_space_group_symop_operation_xyz
x,y,z
-x,-y,-z
loop_
_atom_site_type_symbol
_atom_site_label
_atom_site_fract_x
_atom_site_fract_y
_atom_site_fract_z
Si Si1 0.250201 0.239933 0.278704
Si Si2 0.263059 0.433665 0.913945
Si Si3 0.273776 0.603815 0.603741
Si Si4 0.374547 0.076469 0.844000
Si Si5 0.561290 0.264633 0.495471
Si Si6 0.189712 0.964473 0.144951
Si Si7 0.229598 0.781733 0.220365
Si Si8 0.777929 0.840507 0.227830
O O1 0.166111 0.405694 0.462817
O O2 0.484465 0.333869 0.361900
O O3 0.131592 0.100646 0.241343
O O4 0.273605 0.126861 0.036239
O O5 0.398347 0.353216 0.699482
O O6 0.299215 0.365385 0.935645
O O7 0.016301 0.317854 0.836447
O O8 0.291634 0.652245 0.133808
O O9 0.283188 0.591823 0.463400
O O10 0.190094 0.772018 0.861604
O O11 0.622878 0.202508 0.905490
O O12 0.292110 0.145411 0.848945
O O13 0.343646 0.848891 0.588830
O O14 0.419221 0.084469 0.256368
O O15 0.028032 0.914725 0.228660
O O16 0.278528 0.999935 0.500596
#
# Coordination Sequence:
#
# PCOD9100845 Si02
#       8
#     2   2   2   2   2   2   2   2
#     4  10  21  38  62  93 119 156 207 256 301 359
#     4  11  24  42  68  93 120 158 211 262 298 358
#     4  10  20  37  66  92 115 157 208 260 300 347
#     4  12  23  41  64  90 130 167 198 247 318 369
#     4  11  19  40  66  90 120 159 207 255 305 357
#     4  11  21  40  63  88 121 159 211 251 299 356
#     4  11  24  43  66  92 121 161 211 254 306 359
#     4  12  26  41  60  93 130 167 199 249 309 373
#
# _framework density 25.959499000000001
#
# number of rings (size 3 to 8) (size 9 to 14) (size 15 to 20)
#    0.000    1.000    5.000    3.000    0.000    2.000 
#    2.250    0.625    0.000    0.000    0.000    0.000 
#    0.000    0.000    0.000    0.000    0.000    0.000 
#
# Total GULP energy -89678.934180 kJ/mol
# GULP energy per Si atom -5604.933386 kJ/mol
# Density = 2.590041 g / cm^3
# Si number density = 25.959499 Si / 1000 Ang^3
#
#
#
# Elastic Constant Matrix: (Units=GPa)
#
#
# Indices 1 2 3 4 5 6 
#
# 1 73.3385 9.5820 14.5599 15.3191 -5.4688 -22.1658
# 2 9.5820 175.3655 40.4999 36.9714 -13.9366 -25.0669
# 3 14.5599 40.4999 52.3253 19.7323 -14.8656 3.4823
# 4 15.3191 36.9714 19.7323 44.9370 -12.7353 -4.5664
# 5 -5.4688 -13.9366 -14.8656 -12.7353 25.4510 9.7247
# 6 -22.1658 -25.0669 3.4823 -4.5664 9.7247 38.9418
#
#
#
# Elastic Compliance Matrix: (Units=1/GPa)
#
#
# Indices 1 2 3 4 5 6 
#
# 1 0.021208 0.004540 -0.010509 -0.007236 -0.009375 0.017426
# 2 0.004540 0.009885 -0.008910 -0.006411 -0.006036 0.010499
# 3 -0.010509 -0.008910 0.036930 -0.001253 0.021669 -0.020578
# 4 -0.007236 -0.006411 -0.001253 0.033738 0.014018 -0.007678
# 5 -0.009375 -0.006036 0.021669 0.014018 0.063320 -0.025328
# 6 0.017426 0.010499 -0.020578 -0.007678 -0.025328 0.049621
#
#
# Mechanical properties :
#
#
# Convention : Reuss Voigt Hill
#
# Bulk Modulus (GPa) = 26.13420 47.81254 36.97337
# Shear Modulus (GPa) = 19.43893 37.62513 28.53203
#
# Velocity S-wave (km/s) = 2.73942 3.81120 3.31886
# Velocity P-wave (km/s) = 4.48275 6.15021 5.38146
#
# Compressibility (1/GPa) = 0.03826403
#
# Stress axis : x y z
#
# Youngs Moduli (GPa) = 47.15200 101.16584 27.07835
#
# Poissons Ratio (x) = -0.45927 0.28458
# Poissons Ratio (y) = -0.21406 0.24126
# Poissons Ratio (z) = 0.49554 0.90136
#
# Static dielectric constant tensor:
#      x y z
#    x 2.124080 -0.026210 0.017330 
#    y -0.026210 2.004020 0.039700 
#    z 0.017330 0.039700 1.974300 
# 
# From -- ./inp_files/242170.got.cif
#   From: 2010.05.17/outbox.cif.g08.bks.cpg/sg2_122_cif.got.tgz:242170.got - 2010.06.03 11:33:40.
