data_PCOD9100511
_publ_section_title
;
Structure prediction by ZEFSAII (Michael W. Deem and Ramdas Pophale) SiO2 
 PCOD9100511
Probable space group: P -1
;
_chemical_formula_sum "Si O2"
_cell_formula_units_Z 16
_cell_length_a 11.095221
_cell_length_b 7.054222
_cell_length_c 11.376934
_cell_angle_alpha 88.977134
_cell_angle_beta 113.557691
_cell_angle_gamma 65.305441
_cell_volume 723.099951
_symmetry_space_group_name_H-M "P -1"
_symmetry_group_IT_number 2
_symmetry_cell_setting 'triclinic'
loop_
_space_group_symop_operation_xyz
x,y,z
-x,-y,-z
loop_
_atom_site_type_symbol
_atom_site_label
_atom_site_fract_x
_atom_site_fract_y
_atom_site_fract_z
Si Si1 0.731025 0.428397 0.104282
Si Si2 0.181987 0.138321 0.092646
Si Si3 0.008620 0.456630 0.846475
Si Si4 0.447769 0.735154 0.129727
Si Si5 0.839227 0.445135 0.568195
Si Si6 0.946644 0.201978 0.388931
Si Si7 0.483938 0.321467 0.572790
Si Si8 0.797570 0.051806 0.663082
O O1 0.596916 0.636231 0.110624
O O2 0.816177 0.252758 0.242469
O O3 0.856639 0.483027 0.101140
O O4 0.659651 0.341895 0.978362
O O5 0.135536 0.357216 0.147162
O O6 0.346690 0.991075 0.107776
O O7 0.157233 0.992663 0.182109
O O8 0.068030 0.233306 0.940609
O O9 0.968563 0.433651 0.699702
O O10 0.495043 0.644161 0.281169
O O11 0.886170 0.398201 0.452247
O O12 0.679210 0.649872 0.510336
O O13 0.811071 0.252911 0.613620
O O14 0.000000 0.000000 0.500000
O O15 0.091940 0.144919 0.369478
O O16 0.500000 0.500000 0.500000
O O17 0.626594 0.104052 0.595113
#
# Coordination Sequence:
#
# PCOD9100511 Si02
#       8
#     2   2   2   2   2   2   2   2
#     4  11  23  43  65  92 122 158 214 252 307 361
#     4  10  23  41  61  88 127 158 212 245 308 365
#     4  11  25  39  61  93 126 164 196 257 313 370
#     4  10  23  42  68  86 118 167 208 261 292 362
#     4  10  21  38  63  90 127 157 199 252 312 361
#     4  10  20  37  64  92 121 155 209 256 295 365
#     4   9  18  37  60  90 119 152 202 247 302 354
#     4   9  19  38  63  87 118 161 207 252 288 362
#
# _framework density 22.126954000000001
#
# number of rings (size 3 to 8) (size 9 to 14) (size 15 to 20)
#    0.000    2.000    2.500    0.000    3.500    8.000 
#    0.000    3.750    0.000    0.000    0.000    0.000 
#    0.000    0.000    0.000    0.000    0.000    0.000 
#
# Total GULP energy -89183.873057 kJ/mol
# GULP energy per Si atom -5573.992066 kJ/mol
# Density = 2.207659 g / cm^3
# Si number density = 22.126954 Si / 1000 Ang^3
#
#
#
# Elastic Constant Matrix: (Units=GPa)
#
#
# Indices 1 2 3 4 5 6 
#
# 1 85.3571 37.9588 34.7689 -2.9653 9.1004 -28.6353
# 2 37.9588 68.5883 22.3208 -16.8418 -1.7922 -38.8425
# 3 34.7689 22.3208 142.0609 -0.4765 5.8295 -5.8769
# 4 -2.9653 -16.8418 -0.4765 26.2849 -3.7212 3.5859
# 5 9.1004 -1.7922 5.8295 -3.7212 27.8699 -0.7205
# 6 -28.6353 -38.8425 -5.8769 3.5859 -0.7205 36.8897
#
#
#
# Elastic Compliance Matrix: (Units=1/GPa)
#
#
# Indices 1 2 3 4 5 6 
#
# 1 0.018874 -0.005782 -0.003127 -0.003635 -0.006151 0.008298
# 2 -0.005782 0.056379 -0.005716 0.030079 0.012051 0.051277
# 3 -0.003127 -0.005716 0.008481 -0.003175 -0.001720 -0.006820
# 4 -0.003635 0.030079 -0.003175 0.055353 0.011776 0.023194
# 5 -0.006151 0.012051 -0.001720 0.011776 0.040785 0.007292
# 6 0.008298 0.051277 -0.006820 0.023194 0.007292 0.084341
#
#
# Mechanical properties :
#
#
# Convention : Reuss Voigt Hill
#
# Bulk Modulus (GPa) = 18.35399 54.01146 36.18273
# Shear Modulus (GPa) = 16.04499 31.60609 23.82554
#
# Velocity S-wave (km/s) = 2.69575 3.78352 3.28497
# Velocity P-wave (km/s) = 4.24291 6.59920 5.54760
#
# Compressibility (1/GPa) = 0.05448407
#
# Stress axis : x y z
#
# Youngs Moduli (GPa) = 52.98352 17.73708 117.91728
#
# Poissons Ratio (x) = 0.10255 0.36877
# Poissons Ratio (y) = 0.30633 0.67398
# Poissons Ratio (z) = 0.16570 0.10138
#
# Static dielectric constant tensor:
#      x y z
#    x 1.815220 -0.024910 -0.001070 
#    y -0.024910 1.860160 -0.034210 
#    z -0.001070 -0.034210 1.835460 
# 
# From -- ./inp_files/416888.got.cif
#   From: 2010.05.17/outbox.cif.g08.bks.cpg/sg2_209_cif.got.tgz:416888.got - 2010.06.03 11:33:40.
