data_PCOD9100864
_publ_section_title
;
Structure prediction by ZEFSAII (Michael W. Deem and Ramdas Pophale) SiO2 
 PCOD9100864
Probable space group: P -1
;
_chemical_formula_sum "Si O2"
_cell_formula_units_Z 16
_cell_length_a 14.105839
_cell_length_b 10.934031
_cell_length_c 8.697394
_cell_angle_alpha 97.704679
_cell_angle_beta 145.603203
_cell_angle_gamma 68.650262
_cell_volume 669.601396
_symmetry_space_group_name_H-M "P -1"
_symmetry_group_IT_number 2
_symmetry_cell_setting 'triclinic'
loop_
_space_group_symop_operation_xyz
x,y,z
-x,-y,-z
loop_
_atom_site_type_symbol
_atom_site_label
_atom_site_fract_x
_atom_site_fract_y
_atom_site_fract_z
Si Si1 0.812342 0.985824 0.191056
Si Si2 0.585636 0.593670 0.698956
Si Si3 0.696925 0.815526 0.219671
Si Si4 0.924489 0.580180 0.254783
Si Si5 0.080324 0.154018 0.196637
Si Si6 0.282605 0.887618 0.223442
Si Si7 0.510972 0.365482 0.080743
Si Si8 0.079771 0.725135 0.307976
O O1 0.688104 0.959434 0.155124
O O2 0.915994 0.856304 0.192245
O O3 0.000000 0.000000 0.500000
O O4 0.686023 0.098505 0.913938
O O5 0.500000 0.500000 0.500000
O O6 0.452484 0.750088 0.494874
O O7 0.586546 0.572001 0.878450
O O8 0.805261 0.546741 0.962699
O O9 0.781074 0.725540 0.163375
O O10 0.835023 0.795716 0.543490
O O11 0.567816 0.742625 0.092839
O O12 0.000000 0.500000 0.500000
O O13 0.088933 0.592868 0.385651
O O14 0.241358 0.017622 0.303788
O O15 0.916080 0.119876 0.035838
O O16 0.976415 0.263646 0.941697
O O17 0.727362 0.270035 0.400966
O O18 0.500000 0.500000 0.000000
#
# Coordination Sequence:
#
# PCOD9100864 Si02
#       8
#     2   2   2   2   2   2   2   2
#     4  10  20  37  66  94 127 173 216 273 339 400
#     4  11  25  43  67  97 133 175 224 283 332 400
#     4  10  22  40  66 100 127 170 233 273 336 395
#     4  10  23  42  63  92 131 173 228 273 327 406
#     4  10  20  39  70  95 132 175 217 278 336 402
#     4  10  21  40  67  97 136 172 218 273 348 394
#     4  11  24  44  62  93 135 177 224 284 329 389
#     4  10  21  40  63  87 127 175 217 270 337 388
#
# _framework density 23.894812000000002
#
# number of rings (size 3 to 8) (size 9 to 14) (size 15 to 20)
#    0.000    1.750    2.500    1.500    1.750    2.000 
#    0.000   18.750    0.000    0.000    0.000    0.000 
#    0.000    0.000    0.000    0.000    0.000    0.000 
#
# Total GULP energy -89087.308574 kJ/mol
# GULP energy per Si atom -5567.956786 kJ/mol
# Density = 2.384043 g / cm^3
# Si number density = 23.894812 Si / 1000 Ang^3
#
#
#
# Elastic Constant Matrix: (Units=GPa)
#
#
# Indices 1 2 3 4 5 6 
#
# 1 101.2616 26.7175 42.4087 13.2297 -17.8400 38.9574
# 2 26.7175 77.6617 48.6804 10.7909 -3.7328 15.4052
# 3 42.4087 48.6804 148.4888 31.9146 -11.6504 20.9870
# 4 13.2297 10.7909 31.9146 47.1623 7.0005 -3.5816
# 5 -17.8400 -3.7328 -11.6504 7.0005 34.0277 -4.9850
# 6 38.9574 15.4052 20.9870 -3.5816 -4.9850 35.5029
#
#
#
# Elastic Compliance Matrix: (Units=1/GPa)
#
#
# Indices 1 2 3 4 5 6 
#
# 1 0.022081 -0.001331 0.000202 -0.009280 0.009995 -0.023304
# 2 -0.001331 0.016942 -0.004673 -0.000468 -0.000825 -0.003292
# 3 0.000202 -0.004673 0.010744 -0.007219 0.004068 -0.004703
# 4 -0.009280 -0.000468 -0.007219 0.031745 -0.011541 0.016235
# 5 0.009995 -0.000825 0.004068 -0.011541 0.036988 -0.008985
# 6 -0.023304 -0.003292 -0.004703 0.016235 -0.008985 0.058323
#
#
# Mechanical properties :
#
#
# Convention : Reuss Voigt Hill
#
# Bulk Modulus (GPa) = 26.20270 62.55836 44.38053
# Shear Modulus (GPa) = 24.85759 37.31226 31.08493
#
# Velocity S-wave (km/s) = 3.22886 3.95590 3.61072
# Velocity P-wave (km/s) = 4.98902 6.86317 5.99972
#
# Compressibility (1/GPa) = 0.03816401
#
# Stress axis : x y z
#
# Youngs Moduli (GPa) = 45.28882 59.02619 93.07409
#
# Poissons Ratio (x) = 0.07854 -0.01884
# Poissons Ratio (y) = 0.06026 0.43492
# Poissons Ratio (z) = -0.00917 0.27582
#
# Static dielectric constant tensor:
#      x y z
#    x 2.007930 0.082960 0.124460 
#    y 0.082960 2.096530 -0.014930 
#    z 0.124460 -0.014930 2.009050 
# 
# From -- ./inp_files/307846.got.cif
#   From: 2010.05.17/outbox.cif.g08.bks.cpg/sg2_154_cif.got.tgz:307846.got - 2010.06.03 11:33:40.
