data_PCOD9100026
_publ_section_title
;
Structure prediction by ZEFSAII (Michael W. Deem and Ramdas Pophale) SiO2 
 PCOD9100026
Probable space group: P -1
;
_chemical_formula_sum "Si O2"
_cell_formula_units_Z 14
_cell_length_a 21.096524
_cell_length_b 17.295636
_cell_length_c 5.188880
_cell_angle_alpha 108.761124
_cell_angle_beta 63.521135
_cell_angle_gamma 159.843253
_cell_volume 554.385594
_symmetry_space_group_name_H-M "P -1"
_symmetry_group_IT_number 2
_symmetry_cell_setting 'triclinic'
loop_
_space_group_symop_operation_xyz
x,y,z
-x,-y,-z
loop_
_atom_site_type_symbol
_atom_site_label
_atom_site_fract_x
_atom_site_fract_y
_atom_site_fract_z
Si Si1 0.950986 0.592357 0.631430
Si Si2 0.713300 0.770362 0.308832
Si Si3 0.105585 0.704792 0.968250
Si Si4 0.375962 0.894484 0.364356
Si Si5 0.644268 0.403789 0.962438
Si Si6 0.125943 0.206325 0.258500
Si Si7 0.488304 0.676683 0.385500
O O1 0.829698 0.376936 0.607267
O O2 0.788104 0.483963 0.721860
O O3 0.987493 0.639620 0.921834
O O4 0.122056 0.764308 0.283136
O O5 0.500000 0.500000 0.500000
O O6 0.656556 0.795858 0.313494
O O7 0.813434 0.818084 0.969079
O O8 0.882579 0.956308 0.428982
O O9 0.292789 0.888596 0.630584
O O10 0.000000 0.500000 0.000000
O O11 0.500000 0.000000 0.500000
O O12 0.500000 0.000000 0.000000
O O13 0.792957 0.643424 0.945539
O O14 0.482111 0.251436 0.870882
O O15 0.550205 0.298038 0.300199
O O16 0.274465 0.394835 0.422255
#
# Coordination Sequence:
#
# PCOD9100026 Si02
#       7
#     2   2   2   2   2   2   2
#     4  11  21  39  65  85 124 174 203 249 325 378
#     4  11  19  41  66  95 121 172 209 279 321 374
#     4  10  20  37  62  91 115 161 214 249 301 379
#     4  11  21  36  59  94 125 151 205 270 305 356
#     4  10  22  42  59  88 125 170 209 260 320 391
#     4   9  23  38  63  95 127 159 226 261 323 386
#     4  10  21  41  60  92 129 163 216 266 324 374
#
# _framework density 25.25318
#
# number of rings (size 3 to 8) (size 9 to 14) (size 15 to 20)
#    0.857    0.857    1.429    5.571    0.000    0.571 
#    5.143    4.286    0.000    0.000    0.000    0.000 
#    0.000    0.000    0.000    0.000    0.000    0.000 
#
# Total GULP energy -77997.191281 kJ/mol
# GULP energy per Si atom -5571.227949 kJ/mol
# Density = 2.519570 g / cm^3
# Si number density = 25.253180 Si / 1000 Ang^3
#
#
#
# Elastic Constant Matrix: (Units=GPa)
#
#
# Indices 1 2 3 4 5 6 
#
# 1 95.7558 7.3260 57.7239 -4.0231 -4.7296 24.6217
# 2 7.3260 82.0732 39.6039 -4.7843 4.1451 13.5357
# 3 57.7239 39.6039 172.8434 9.0852 12.7036 18.5876
# 4 -4.0231 -4.7843 9.0852 28.5882 4.3747 2.4599
# 5 -4.7296 4.1451 12.7036 4.3747 49.0630 -3.2621
# 6 24.6217 13.5357 18.5876 2.4599 -3.2621 38.5623
#
#
#
# Elastic Compliance Matrix: (Units=1/GPa)
#
#
# Indices 1 2 3 4 5 6 
#
# 1 0.016075 0.002858 -0.005462 0.004975 0.001693 -0.008808
# 2 0.002858 0.015101 -0.004013 0.004799 -0.000759 -0.005561
# 3 -0.005462 -0.004013 0.008812 -0.003987 -0.002065 0.000728
# 4 0.004975 0.004799 -0.003987 0.038650 -0.002714 -0.005634
# 5 0.001693 -0.000759 -0.002065 -0.002714 0.021531 0.002175
# 6 -0.008808 -0.005561 0.000728 -0.005634 0.002175 0.033701
#
#
# Mechanical properties :
#
#
# Convention : Reuss Voigt Hill
#
# Bulk Modulus (GPa) = 37.37780 62.21998 49.79889
# Shear Modulus (GPa) = 32.04695 39.64394 35.84544
#
# Velocity S-wave (km/s) = 3.56620 3.96644 3.77164
# Velocity P-wave (km/s) = 5.63830 6.75787 6.22332
#
# Compressibility (1/GPa) = 0.02675385
#
# Stress axis : x y z
#
# Youngs Moduli (GPa) = 62.20967 66.22138 113.47797
#
# Poissons Ratio (x) = -0.18926 0.61981
# Poissons Ratio (y) = -0.17779 0.45538
# Poissons Ratio (z) = 0.33979 0.26574
#
# Static dielectric constant tensor:
#      x y z
#    x 2.092340 0.080740 0.022890 
#    y 0.080740 2.155580 -0.053600 
#    z 0.022890 -0.053600 2.048270 
# 
# From -- ./inp_files/124927.got.cif
#   From: 2010.05.17/outbox.cif.g08.bks.cpg/sg2_63_cif.got.tgz:124927.got - 2010.06.03 11:33:40.
