data_PCOD9100666
_publ_section_title
;
Structure prediction by ZEFSAII (Michael W. Deem and Ramdas Pophale) SiO2 
 PCOD9100666
Probable space group: P -1
;
_chemical_formula_sum "Si O2"
_cell_formula_units_Z 16
_cell_length_a 14.033869
_cell_length_b 9.287712
_cell_length_c 8.859870
_cell_angle_alpha 76.331404
_cell_angle_beta 48.943892
_cell_angle_gamma 101.360600
_cell_volume 741.990414
_symmetry_space_group_name_H-M "P -1"
_symmetry_group_IT_number 2
_symmetry_cell_setting 'triclinic'
loop_
_space_group_symop_operation_xyz
x,y,z
-x,-y,-z
loop_
_atom_site_type_symbol
_atom_site_label
_atom_site_fract_x
_atom_site_fract_y
_atom_site_fract_z
Si Si1 0.318343 0.770485 0.384461
Si Si2 0.527336 0.926984 0.641679
Si Si3 0.630934 0.373545 0.944329
Si Si4 0.570789 0.454103 0.575498
Si Si5 0.943850 0.004321 0.809414
Si Si6 0.342626 0.292805 0.115282
Si Si7 0.771977 0.837022 0.321756
Si Si8 0.112348 0.897385 0.456646
O O1 0.439483 0.953166 0.274961
O O2 0.338958 0.646831 0.511904
O O3 0.177542 0.791104 0.497313
O O4 0.333986 0.696955 0.225468
O O5 0.500000 0.000000 0.500000
O O6 0.388306 0.747533 0.866596
O O7 0.670849 0.912947 0.463163
O O8 0.465813 0.332962 0.100968
O O9 0.716025 0.573484 0.833856
O O10 0.500000 0.500000 0.500000
O O11 0.683149 0.636077 0.477031
O O12 0.436086 0.342546 0.852512
O O13 0.918982 0.123311 0.685741
O O14 0.818715 0.899620 0.085151
O O15 0.086068 0.101221 0.739610
O O16 0.977661 0.883371 0.695164
O O17 0.231882 0.096544 0.289366
#
# Coordination Sequence:
#
# PCOD9100666 Si02
#       8
#     2   2   2   2   2   2   2   2
#     4  11  24  36  61  92 132 161 207 271 311 381
#     4  12  23  38  63  96 134 161 204 269 327 388
#     4  10  21  36  58  95 126 166 194 252 343 375
#     4  11  23  39  63  99 131 167 200 263 342 385
#     4  10  24  41  71  84 120 182 223 255 296 377
#     4  10  20  37  65  89 127 163 205 264 316 388
#     4  11  22  45  65  90 130 170 217 250 321 384
#     4  11  22  43  65  92 119 167 232 256 307 367
#
# _framework density 21.56362
#
# number of rings (size 3 to 8) (size 9 to 14) (size 15 to 20)
#    0.000    1.250    3.750    1.875    7.000    0.000 
#    0.000    1.250    0.000    0.000    0.000    0.000 
#    0.000    0.000    0.000    0.000    0.000    0.000 
#
# Total GULP energy -89249.862612 kJ/mol
# GULP energy per Si atom -5578.116413 kJ/mol
# Density = 2.151454 g / cm^3
# Si number density = 21.563620 Si / 1000 Ang^3
#
#
#
# Elastic Constant Matrix: (Units=GPa)
#
#
# Indices 1 2 3 4 5 6 
#
# 1 93.3715 27.6093 13.6949 -4.0749 21.4046 -21.1366
# 2 27.6093 101.8818 16.6335 0.4483 -6.8719 -15.0858
# 3 13.6949 16.6335 88.7038 8.1961 20.3750 -4.8529
# 4 -4.0749 0.4483 8.1961 19.5572 -2.7214 3.1718
# 5 21.4046 -6.8719 20.3750 -2.7214 33.6559 -8.7246
# 6 -21.1366 -15.0858 -4.8529 3.1718 -8.7246 37.0271
#
#
#
# Elastic Compliance Matrix: (Units=1/GPa)
#
#
# Indices 1 2 3 4 5 6 
#
# 1 0.015160 -0.004219 0.000877 0.000770 -0.009757 0.004685
# 2 -0.004219 0.012752 -0.003562 0.000827 0.008620 0.004280
# 3 0.000877 -0.003562 0.015019 -0.007432 -0.011236 -0.000993
# 4 0.000770 0.000827 -0.007432 0.055995 0.007894 -0.003134
# 5 -0.009757 0.008620 -0.011236 0.007894 0.046892 0.006842
# 6 0.004685 0.004280 -0.000993 -0.003134 0.006842 0.033176
#
#
# Mechanical properties :
#
#
# Convention : Reuss Voigt Hill
#
# Bulk Modulus (GPa) = 34.33780 44.42584 39.38182
# Shear Modulus (GPa) = 24.69019 33.11599 28.90309
#
# Velocity S-wave (km/s) = 3.38745 3.92310 3.66507
# Velocity P-wave (km/s) = 5.59091 6.41622 6.01773
#
# Compressibility (1/GPa) = 0.02912242
#
# Stress axis : x y z
#
# Youngs Moduli (GPa) = 65.96454 78.42065 66.58110
#
# Poissons Ratio (x) = 0.33087 -0.05839
# Poissons Ratio (y) = 0.27832 0.23716
# Poissons Ratio (z) = -0.05785 0.27933
#
# Static dielectric constant tensor:
#      x y z
#    x 1.858600 -0.003130 0.040460 
#    y -0.003130 1.864590 -0.000810 
#    z 0.040460 -0.000810 1.809330 
# 
# From -- ./inp_files/244646.got.cif
#   From: 2010.05.17/outbox.cif.g08.bks.cpg/sg2_123_cif.got.tgz:244646.got - 2010.06.03 11:33:40.
