data_PCOD9100921
_publ_section_title
;
Structure prediction by ZEFSAII (Michael W. Deem and Ramdas Pophale) SiO2 
 PCOD9100921
Probable space group: P -1
;
_chemical_formula_sum "Si O2"
_cell_formula_units_Z 14
_cell_length_a 5.101854
_cell_length_b 9.468447
_cell_length_c 20.659334
_cell_angle_alpha 47.162048
_cell_angle_beta 52.682207
_cell_angle_gamma 56.820160
_cell_volume 566.163782
_symmetry_space_group_name_H-M "P -1"
_symmetry_group_IT_number 2
_symmetry_cell_setting 'triclinic'
loop_
_space_group_symop_operation_xyz
x,y,z
-x,-y,-z
loop_
_atom_site_type_symbol
_atom_site_label
_atom_site_fract_x
_atom_site_fract_y
_atom_site_fract_z
Si Si1 0.227585 0.176686 0.261741
Si Si2 0.714148 0.368858 0.451163
Si Si3 0.148203 0.179220 0.555528
Si Si4 0.630518 0.006444 0.138283
Si Si5 0.428073 0.571646 0.779462
Si Si6 0.378384 0.811288 0.048950
Si Si7 0.637088 0.354182 0.686908
O O1 0.378700 0.269273 0.270852
O O2 0.958827 0.337516 0.211151
O O3 0.007977 0.014268 0.359369
O O4 0.556489 0.090666 0.194742
O O5 0.500000 0.500000 0.500000
O O6 0.048634 0.267514 0.471871
O O7 0.671324 0.523517 0.349716
O O8 0.528172 0.197380 0.508039
O O9 0.944311 0.312773 0.603123
O O10 0.375565 0.862386 0.218286
O O11 0.987814 0.860302 0.113860
O O12 0.584278 0.173107 0.038567
O O13 0.441231 0.397187 0.883612
O O14 0.618620 0.474536 0.717377
O O15 0.500000 0.000000 0.000000
#
# Coordination Sequence:
#
# PCOD9100921 Si02
#       7
#     2   2   2   2   2   2   2
#     4  11  27  45  66  99 141 181 216 265 345 399
#     4  10  20  37  67 102 126 166 228 282 316 378
#     4  10  22  42  66  95 134 173 222 274 325 390
#     4  10  24  45  69  96 134 177 219 280 332 397
#     4  12  26  43  66 100 137 176 222 275 328 406
#     4  11  24  44  71  99 129 167 233 279 330 387
#     4  10  21  41  67  95 127 175 225 271 326 387
#
# _framework density 24.727824999999999
#
# number of rings (size 3 to 8) (size 9 to 14) (size 15 to 20)
#    0.000    1.429    1.429    3.429    4.000    9.143 
#    0.000    4.286    0.000    0.000    0.000    0.000 
#    0.000    0.000    0.000    0.000    0.000    0.000 
#
# Total GULP energy -78281.773140 kJ/mol
# GULP energy per Si atom -5591.555224 kJ/mol
# Density = 2.467154 g / cm^3
# Si number density = 24.727825 Si / 1000 Ang^3
#
#
#
# Elastic Constant Matrix: (Units=GPa)
#
#
# Indices 1 2 3 4 5 6 
#
# 1 95.5717 14.0791 10.6720 10.0873 7.1486 25.3684
# 2 14.0791 88.0698 27.0471 17.0783 9.9592 33.7593
# 3 10.6720 27.0471 129.3506 -1.8989 18.2604 1.2626
# 4 10.0873 17.0783 -1.8989 24.2027 -0.1293 3.4920
# 5 7.1486 9.9592 18.2604 -0.1293 34.3616 0.4949
# 6 25.3684 33.7593 1.2626 3.4920 0.4949 41.2820
#
#
#
# Elastic Compliance Matrix: (Units=1/GPa)
#
#
# Indices 1 2 3 4 5 6 
#
# 1 0.014116 0.004561 -0.001658 -0.007565 -0.003238 -0.011675
# 2 0.004561 0.023595 -0.004625 -0.015977 -0.005094 -0.020544
# 3 -0.001658 -0.004625 0.009321 0.004061 -0.003313 0.004212
# 4 -0.007565 -0.015977 0.004061 0.054215 0.004064 0.012955
# 5 -0.003238 -0.005094 -0.003313 0.004064 0.032949 0.005518
# 6 -0.011675 -0.020544 0.004212 0.012955 0.005518 0.046908
#
#
# Mechanical properties :
#
#
# Convention : Reuss Voigt Hill
#
# Bulk Modulus (GPa) = 22.94202 46.28763 34.61483
# Shear Modulus (GPa) = 25.11568 37.38217 31.24892
#
# Velocity S-wave (km/s) = 3.19044 3.89233 3.55873
# Velocity P-wave (km/s) = 4.78224 6.24178 5.56011
#
# Compressibility (1/GPa) = 0.04358815
#
# Stress axis : x y z
#
# Youngs Moduli (GPa) = 70.84016 42.38146 107.28415
#
# Poissons Ratio (x) = -0.19331 0.17792
# Poissons Ratio (y) = -0.32311 0.49618
# Poissons Ratio (z) = 0.11748 0.19601
#
# Static dielectric constant tensor:
#      x y z
#    x 2.042210 -0.023520 -0.071930 
#    y -0.023520 1.996410 -0.037330 
#    z -0.071930 -0.037330 2.114750 
# 
# From -- ./inp_files/582226.got.cif
#   From: 2010.05.17/outbox.cif.g08.bks.cpg/sg2_292_cif.got.tgz:582226.got - 2010.06.03 11:33:40.
