data_PCOD9100459
_publ_section_title
;
Structure prediction by ZEFSAII (Michael W. Deem and Ramdas Pophale) SiO2 
 PCOD9100459
Probable space group: P -1
;
_chemical_formula_sum "Si O2"
_cell_formula_units_Z 16
_cell_length_a 11.088314
_cell_length_b 8.529926
_cell_length_c 21.907306
_cell_angle_alpha 137.543129
_cell_angle_beta 38.227776
_cell_angle_gamma 114.208234
_cell_volume 791.024281
_symmetry_space_group_name_H-M "P -1"
_symmetry_group_IT_number 2
_symmetry_cell_setting 'triclinic'
loop_
_space_group_symop_operation_xyz
x,y,z
-x,-y,-z
loop_
_atom_site_type_symbol
_atom_site_label
_atom_site_fract_x
_atom_site_fract_y
_atom_site_fract_z
Si Si1 0.256508 0.629485 0.928657
Si Si2 0.926088 0.780862 0.451457
Si Si3 0.041446 0.344716 0.375706
Si Si4 0.098290 0.909586 0.742723
Si Si5 0.505403 0.020148 0.076670
Si Si6 0.575173 0.947886 0.270504
Si Si7 0.932375 0.588303 0.810327
Si Si8 0.058057 0.221736 0.013549
O O1 0.404923 0.765281 0.884679
O O2 0.388776 0.339901 0.810147
O O3 0.088856 0.647995 0.947921
O O4 0.104573 0.816281 0.094942
O O5 0.048042 0.544783 0.379773
O O6 0.992309 0.681199 0.328312
O O7 0.672313 0.874427 0.585943
O O8 0.000000 0.000000 0.500000
O O9 0.891622 0.227501 0.365894
O O10 0.000000 0.500000 0.500000
O O11 0.270888 0.112693 0.222730
O O12 0.038996 0.744416 0.771349
O O13 0.303430 0.948929 0.697943
O O14 0.500000 0.000000 0.000000
O O15 0.680184 0.754985 0.953776
O O16 0.703631 0.912792 0.145999
O O17 0.984165 0.583802 0.858967
O O18 0.000000 0.000000 0.000000
#
# Coordination Sequence:
#
# PCOD9100459 Si02
#       8
#     2   2   2   2   2   2   2   2
#     4  10  20  37  64  89 122 158 199 248 301 364
#     4  11  25  45  58  84 130 165 196 248 310 365
#     4  11  24  39  61  90 120 155 208 257 292 356
#     4   9  18  39  61  87 119 158 197 249 298 359
#     4  11  18  38  66  82 116 167 206 238 308 353
#     4  11  23  38  64  92 123 163 196 246 319 358
#     4  10  21  38  63  88 118 156 205 250 290 363
#     4  11  19  39  63  97 118 146 210 259 291 356
#
# _framework density 20.226937
#
# number of rings (size 3 to 8) (size 9 to 14) (size 15 to 20)
#    0.000    1.500    7.500    2.250    1.750    2.000 
#    6.750    1.250    0.000    0.000    0.000    0.000 
#    0.000    0.000    0.000    0.000    0.000    0.000 
#
# Total GULP energy -89271.615160 kJ/mol
# GULP energy per Si atom -5579.475947 kJ/mol
# Density = 2.018090 g / cm^3
# Si number density = 20.226937 Si / 1000 Ang^3
#
#
#
# Elastic Constant Matrix: (Units=GPa)
#
#
# Indices 1 2 3 4 5 6 
#
# 1 102.5588 9.8836 44.5565 -13.7711 39.6383 12.0300
# 2 9.8836 22.6582 18.8547 0.4073 5.7032 10.2017
# 3 44.5565 18.8547 92.2049 -9.0544 18.7422 6.8534
# 4 -13.7711 0.4073 -9.0544 27.1601 0.7710 1.6341
# 5 39.6383 5.7032 18.7422 0.7710 52.2922 -2.9945
# 6 12.0300 10.2017 6.8534 1.6341 -2.9945 31.1996
#
#
#
# Elastic Compliance Matrix: (Units=1/GPa)
#
#
# Indices 1 2 3 4 5 6 
#
# 1 0.019533 0.003855 -0.005866 0.008840 -0.013786 -0.009290
# 2 0.003855 0.063266 -0.012129 -0.001644 -0.006599 -0.020056
# 3 -0.005866 -0.012129 0.016197 0.002452 0.000074 0.002549
# 4 0.008840 -0.001644 0.002452 0.042770 -0.008401 -0.006456
# 5 -0.013786 -0.006599 0.000074 -0.008401 0.031013 0.010874
# 6 -0.009290 -0.020056 0.002549 -0.006456 0.010874 0.043014
#
#
# Mechanical properties :
#
#
# Convention : Reuss Voigt Hill
#
# Bulk Modulus (GPa) = 14.14135 40.44572 27.29354
# Shear Modulus (GPa) = 18.68149 31.73886 25.21018
#
# Velocity S-wave (km/s) = 3.04237 3.96553 3.53422
# Velocity P-wave (km/s) = 4.39862 6.40364 5.49338
#
# Compressibility (1/GPa) = 0.07071459
#
# Stress axis : x y z
#
# Youngs Moduli (GPa) = 51.19672 15.80616 61.74125
#
# Poissons Ratio (x) = -0.06093 0.36219
# Poissons Ratio (y) = -0.19736 0.74888
# Poissons Ratio (z) = 0.30033 0.19172
#
# Static dielectric constant tensor:
#      x y z
#    x 1.768330 0.033960 0.022760 
#    y 0.033960 1.734040 -0.001570 
#    z 0.022760 -0.001570 1.717350 
# 
# From -- ./inp_files/610026.got.cif
#   From: 2010.05.17/outbox.cif.g08.bks.cpg/sg2_306_cif.got.tgz:610026.got - 2010.06.03 11:33:40.
