data_PCOD9100198
_publ_section_title
;
Structure prediction by ZEFSAII (Michael W. Deem and Ramdas Pophale) SiO2 
 PCOD9100198
Probable space group: P -1
;
_chemical_formula_sum "Si O2"
_cell_formula_units_Z 16
_cell_length_a 13.391852
_cell_length_b 8.123955
_cell_length_c 8.500890
_cell_angle_alpha 60.286945
_cell_angle_beta 95.267725
_cell_angle_gamma 116.444658
_cell_volume 709.250813
_symmetry_space_group_name_H-M "P -1"
_symmetry_group_IT_number 2
_symmetry_cell_setting 'triclinic'
loop_
_space_group_symop_operation_xyz
x,y,z
-x,-y,-z
loop_
_atom_site_type_symbol
_atom_site_label
_atom_site_fract_x
_atom_site_fract_y
_atom_site_fract_z
Si Si1 0.740054 0.227921 0.519307
Si Si2 0.675033 0.637135 0.011098
Si Si3 0.092088 0.601360 0.100147
Si Si4 0.072016 0.376335 0.516645
Si Si5 0.304451 0.785431 0.826480
Si Si6 0.463928 0.483081 0.259625
Si Si7 0.885905 0.057520 0.817325
Si Si8 0.476138 0.794155 0.357533
O O1 0.809204 0.483125 0.446242
O O2 0.747082 0.180515 0.360514
O O3 0.798571 0.119985 0.684110
O O4 0.613537 0.152193 0.593861
O O5 0.622045 0.643794 0.831037
O O6 0.805344 0.812541 0.962962
O O7 0.666362 0.403656 0.124565
O O8 0.586810 0.635976 0.128389
O O9 0.085069 0.424188 0.310419
O O10 0.075524 0.786457 0.100685
O O11 0.214247 0.710797 0.986518
O O12 0.000000 0.500000 0.000000
O O13 0.000000 0.500000 0.500000
O O14 0.996077 0.137774 0.682915
O O15 0.417631 0.994033 0.785098
O O16 0.423992 0.629482 0.284159
O O17 0.480267 0.323177 0.455817
#
# Coordination Sequence:
#
# PCOD9100198 Si02
#       8
#     2   2   2   2   2   2   2   2
#     4  10  20  37  63  87 116 159 203 237 294 360
#     4  11  24  39  58  91 125 154 195 251 295 351
#     4  10  20  38  63  92 117 152 202 250 291 351
#     4   8  18  37  60  84 113 156 193 238 292 354
#     4  12  23  36  63  93 119 155 205 243 293 352
#     4  10  24  41  57  84 128 157 198 243 303 348
#     4  10  21  40  64  84 122 162 194 240 307 350
#     4  11  23  40  62  86 118 165 200 241 295 362
#
# _framework density 22.559016
#
# number of rings (size 3 to 8) (size 9 to 14) (size 15 to 20)
#    0.000    2.000    1.250    4.125    7.000    0.500 
#    0.000    3.125    0.000    0.000    0.000    0.000 
#    0.000    0.000    0.000    0.000    0.000    0.000 
#
# Total GULP energy -89439.219418 kJ/mol
# GULP energy per Si atom -5589.951214 kJ/mol
# Density = 2.250767 g / cm^3
# Si number density = 22.559016 Si / 1000 Ang^3
#
#
#
# Elastic Constant Matrix: (Units=GPa)
#
#
# Indices 1 2 3 4 5 6 
#
# 1 36.7479 9.9989 29.8066 -0.5184 -16.6907 18.0754
# 2 9.9989 77.1124 29.6847 -14.1609 -16.0154 15.2559
# 3 29.8066 29.6847 79.3684 2.8062 -38.7945 1.3078
# 4 -0.5184 -14.1609 2.8062 25.2224 0.7482 -11.7649
# 5 -16.6907 -16.0154 -38.7945 0.7482 37.2100 -9.4045
# 6 18.0754 15.2559 1.3078 -11.7649 -9.4045 27.3217
#
#
#
# Elastic Compliance Matrix: (Units=1/GPa)
#
#
# Indices 1 2 3 4 5 6 
#
# 1 0.100489 0.016194 -0.055574 -0.025599 -0.029115 -0.093908
# 2 0.016194 0.021223 -0.017559 0.003825 -0.007732 -0.022738
# 3 -0.055574 -0.017559 0.062473 0.010982 0.048889 0.065138
# 4 -0.025599 0.003825 0.010982 0.060341 0.011582 0.044244
# 5 -0.029115 -0.007732 0.048889 0.011582 0.074319 0.051808
# 6 -0.093908 -0.022738 0.065138 0.044244 0.051808 0.145191
#
#
# Mechanical properties :
#
#
# Convention : Reuss Voigt Hill
#
# Bulk Modulus (GPa) = 14.22356 36.91213 25.56785
# Shear Modulus (GPa) = 8.31464 26.20007 17.25736
#
# Velocity S-wave (km/s) = 1.92191 3.41163 2.76884
# Velocity P-wave (km/s) = 3.35316 5.64951 4.64546
#
# Compressibility (1/GPa) = 0.07030588
#
# Stress axis : x y z
#
# Youngs Moduli (GPa) = 9.95136 47.11932 16.00702
#
# Poissons Ratio (x) = -0.76306 0.88957
# Poissons Ratio (y) = -0.16115 0.28107
# Poissons Ratio (z) = 0.55304 0.82738
#
# Static dielectric constant tensor:
#      x y z
#    x 1.821660 0.015480 0.008600 
#    y 0.015480 1.861050 -0.024280 
#    z 0.008600 -0.024280 1.908620 
# 
# From -- ./inp_files/297670.got.cif
#   From: 2010.05.17/outbox.cif.g08.bks.cpg/sg2_149_cif.got.tgz:297670.got - 2010.06.03 11:33:40.
