data_PCOD9100452
_publ_section_title
;
Structure prediction by ZEFSAII (Michael W. Deem and Ramdas Pophale) SiO2 
 PCOD9100452
Probable space group: P -1
;
_chemical_formula_sum "Si O2"
_cell_formula_units_Z 16
_cell_length_a 27.189647
_cell_length_b 5.640206
_cell_length_c 12.665876
_cell_angle_alpha 44.447075
_cell_angle_beta 151.950733
_cell_angle_gamma 130.273683
_cell_volume 638.791234
_symmetry_space_group_name_H-M "P -1"
_symmetry_group_IT_number 2
_symmetry_cell_setting 'triclinic'
loop_
_space_group_symop_operation_xyz
x,y,z
-x,-y,-z
loop_
_atom_site_type_symbol
_atom_site_label
_atom_site_fract_x
_atom_site_fract_y
_atom_site_fract_z
Si Si1 0.759736 0.462708 0.511272
Si Si2 0.309941 0.602258 0.359957
Si Si3 0.963029 0.119708 0.007143
Si Si4 0.307647 0.425532 0.874025
Si Si5 0.505652 0.856609 0.173385
Si Si6 0.579135 0.816602 0.532357
Si Si7 0.870877 0.213575 0.455557
Si Si8 0.233067 0.662212 0.989391
O O1 0.718195 0.440815 0.557873
O O2 0.684777 0.445407 0.273809
O O3 0.815733 0.836730 0.485034
O O4 0.840055 0.164017 0.750316
O O5 0.382281 0.306460 0.559111
O O6 0.214000 0.643307 0.085426
O O7 0.393461 0.919498 0.408373
O O8 0.011932 0.848184 0.264268
O O9 0.000000 0.500000 0.000000
O O10 0.000000 0.000000 0.000000
O O11 0.197815 0.548703 0.676060
O O12 0.402496 0.603928 0.062125
O O13 0.298410 0.020695 0.984273
O O14 0.520987 0.032659 0.260868
O O15 0.500000 0.000000 0.000000
O O16 0.500000 0.500000 0.500000
O O17 0.692322 0.645464 0.792510
O O18 0.856233 0.327751 0.271036
#
# Coordination Sequence:
#
# PCOD9100452 Si02
#       8
#     2   2   2   2   2   2   2   2
#     4  10  22  37  60  91 118 158 198 258 321 372
#     4  11  23  39  56  83 128 161 199 252 314 370
#     4  10  20  40  65 100 127 161 209 266 320 383
#     4  11  20  36  60  83 115 156 206 255 303 368
#     4  11  23  35  54  86 118 155 200 251 308 367
#     4  11  22  38  56  79 116 164 209 249 297 364
#     4  10  20  37  64  89 117 152 206 260 306 376
#     4  10  22  37  56  84 114 159 206 246 305 368
#
# _framework density 25.047308999999998
#
# number of rings (size 3 to 8) (size 9 to 14) (size 15 to 20)
#    0.000    1.500    1.250    4.500    0.000    7.000 
#    0.000    0.625    0.000    3.000    0.000    0.000 
#    0.000    0.000    0.000    0.000    0.000    0.000 
#
# Total GULP energy -89307.381930 kJ/mol
# GULP energy per Si atom -5581.711371 kJ/mol
# Density = 2.499030 g / cm^3
# Si number density = 25.047309 Si / 1000 Ang^3
#
#
#
# Elastic Constant Matrix: (Units=GPa)
#
#
# Indices 1 2 3 4 5 6 
#
# 1 49.5632 4.4126 31.0626 6.1892 -16.7667 -10.0306
# 2 4.4126 57.2399 12.7033 -5.9446 -9.2850 2.3652
# 3 31.0626 12.7033 185.5024 13.1769 -41.7785 -15.3486
# 4 6.1892 -5.9446 13.1769 27.2069 -16.1189 -7.2286
# 5 -16.7667 -9.2850 -41.7785 -16.1189 52.6797 -1.7331
# 6 -10.0306 2.3652 -15.3486 -7.2286 -1.7331 28.7831
#
#
#
# Elastic Compliance Matrix: (Units=1/GPa)
#
#
# Indices 1 2 3 4 5 6 
#
# 1 0.025475 -0.000538 -0.002001 0.001643 0.007216 0.008702
# 2 -0.000538 0.019267 -0.000617 0.007683 0.005090 0.000136
# 3 -0.002001 -0.000617 0.007232 0.001048 0.005436 0.003801
# 4 0.001643 0.007683 0.001048 0.053050 0.019433 0.014993
# 5 0.007216 0.005090 0.005436 0.019433 0.032823 0.011852
# 6 0.008702 0.000136 0.003801 0.014993 0.011852 0.044270
#
#
# Mechanical properties :
#
#
# Convention : Reuss Voigt Hill
#
# Bulk Modulus (GPa) = 21.90014 43.18470 32.54242
# Shear Modulus (GPa) = 24.55190 38.00909 31.28050
#
# Velocity S-wave (km/s) = 3.13424 3.89973 3.53775
# Velocity P-wave (km/s) = 4.67552 6.12828 5.45052
#
# Compressibility (1/GPa) = 0.04566182
#
# Stress axis : x y z
#
# Youngs Moduli (GPa) = 39.25417 51.90261 138.26830
#
# Poissons Ratio (x) = 0.02794 0.27661
# Poissons Ratio (y) = 0.02113 0.08536
# Poissons Ratio (z) = 0.07853 0.03204
#
# Static dielectric constant tensor:
#      x y z
#    x 1.839960 0.083450 0.025710 
#    y 0.083450 2.025100 0.007170 
#    z 0.025710 0.007170 1.965130 
# 
# From -- ./inp_files/38529.got.cif
#   From: 2010.05.17/outbox.cif.g08.bks.cpg/sg2_20_cif.got.tgz:38529.got - 2010.06.03 11:33:40.
