data_PCOD9100461
_publ_section_title
;
Structure prediction by ZEFSAII (Michael W. Deem and Ramdas Pophale) SiO2 
 PCOD9100461
Probable space group: P -1
;
_chemical_formula_sum "Si O2"
_cell_formula_units_Z 16
_cell_length_a 18.664629
_cell_length_b 12.556441
_cell_length_c 9.417957
_cell_angle_alpha 78.963030
_cell_angle_beta 140.790464
_cell_angle_gamma 131.496624
_cell_volume 766.304430
_symmetry_space_group_name_H-M "P -1"
_symmetry_group_IT_number 2
_symmetry_cell_setting 'triclinic'
loop_
_space_group_symop_operation_xyz
x,y,z
-x,-y,-z
loop_
_atom_site_type_symbol
_atom_site_label
_atom_site_fract_x
_atom_site_fract_y
_atom_site_fract_z
Si Si1 0.054333 0.028311 0.740128
Si Si2 0.151166 0.526761 0.781193
Si Si3 0.116001 0.881479 0.531255
Si Si4 0.372732 0.110580 0.148471
Si Si5 0.559066 0.955654 0.213741
Si Si6 0.222650 0.868046 0.233483
Si Si7 0.033114 0.143932 0.084071
Si Si8 0.187157 0.491457 0.175564
O O1 0.917265 0.842093 0.676975
O O2 0.000000 0.000000 0.500000
O O3 0.009703 0.112444 0.706362
O O4 0.271621 0.142765 0.043478
O O5 0.000000 0.500000 0.500000
O O6 0.048706 0.335945 0.617040
O O7 0.372689 0.727030 0.009456
O O8 0.165299 0.524261 0.975616
O O9 0.240691 0.936181 0.575813
O O10 0.281938 0.029993 0.871920
O O11 0.610355 0.307602 0.489333
O O12 0.289453 0.943621 0.157473
O O13 0.612090 0.046186 0.426720
O O14 0.500000 0.000000 0.000000
O O15 0.175995 0.953792 0.198628
O O16 0.009950 0.641431 0.995496
O O17 0.181383 0.353680 0.195049
O O18 0.000000 0.000000 0.000000
#
# Coordination Sequence:
#
# PCOD9100461 Si02
#       8
#     2   2   2   2   2   2   2   2
#     4   9  19  39  59  86 129 165 191 250 306 360
#     4  12  23  41  66  91 122 163 211 261 313 362
#     4  11  23  42  62  93 127 158 213 257 299 376
#     4  10  21  40  63  91 128 166 198 250 312 367
#     4  12  22  40  66  88 119 164 206 261 316 356
#     4   9  19  36  60  85 124 157 197 253 309 353
#     4   9  17  33  58  82 121 154 200 250 294 351
#     4  10  20  37  64  89 122 168 204 255 309 367
#
# _framework density 20.879431
#
# number of rings (size 3 to 8) (size 9 to 14) (size 15 to 20)
#    0.750    1.000    3.750    1.500    0.000    1.000 
#    4.500    5.625    0.000    3.000    0.000    0.000 
#    0.000    0.000    0.000    0.000    0.000    0.000 
#
# Total GULP energy -89068.434981 kJ/mol
# GULP energy per Si atom -5566.777186 kJ/mol
# Density = 2.083191 g / cm^3
# Si number density = 20.879431 Si / 1000 Ang^3
#
#
#
# Elastic Constant Matrix: (Units=GPa)
#
#
# Indices 1 2 3 4 5 6 
#
# 1 33.7702 18.2557 3.6038 -2.1470 0.4157 5.1170
# 2 18.2557 143.9665 52.1611 -8.1110 -3.3707 14.7180
# 3 3.6038 52.1611 108.6449 -0.1839 -14.0037 9.4787
# 4 -2.1470 -8.1110 -0.1839 50.3849 10.0817 -0.7120
# 5 0.4157 -3.3707 -14.0037 10.0817 25.3741 -4.4184
# 6 5.1170 14.7180 9.4787 -0.7120 -4.4184 24.7834
#
#
#
# Elastic Compliance Matrix: (Units=1/GPa)
#
#
# Indices 1 2 3 4 5 6 
#
# 1 0.032496 -0.003965 0.001038 0.001034 -0.001774 -0.005038
# 2 -0.003965 0.009446 -0.004409 0.001771 -0.002424 -0.003486
# 3 0.001038 -0.004409 0.012252 -0.001988 0.006751 -0.001136
# 4 0.001034 0.001771 -0.001988 0.022139 -0.009962 -0.001645
# 5 -0.001774 -0.002424 0.006751 -0.009962 0.048110 0.007515
# 6 -0.005038 -0.003486 -0.001136 -0.001645 0.007515 0.045187
#
#
# Mechanical properties :
#
#
# Convention : Reuss Voigt Hill
#
# Bulk Modulus (GPa) = 25.30178 48.26920 36.78549
# Shear Modulus (GPa) = 25.31974 34.26588 29.79281
#
# Velocity S-wave (km/s) = 3.48611 4.05548 3.78153
# Velocity P-wave (km/s) = 5.32431 6.71547 6.05994
#
# Compressibility (1/GPa) = 0.03952292
#
# Stress axis : x y z
#
# Youngs Moduli (GPa) = 30.77339 105.86955 81.61648
#
# Poissons Ratio (x) = 0.41978 -0.08475
# Poissons Ratio (y) = 0.12202 0.35982
# Poissons Ratio (z) = -0.03195 0.46675
#
# Static dielectric constant tensor:
#      x y z
#    x 1.870580 -0.024460 -0.005320 
#    y -0.024460 1.780690 -0.062960 
#    z -0.005320 -0.062960 1.769040 
# 
# From -- ./inp_files/347210.got.cif
#   From: 2010.05.17/outbox.cif.g08.bks.cpg/sg2_174_cif.got.tgz:347210.got - 2010.06.03 11:33:40.
