data_PCOD9100757
_publ_section_title
;
Structure prediction by ZEFSAII (Michael W. Deem and Ramdas Pophale) SiO2 
 PCOD9100757
Probable space group: P -1
;
_chemical_formula_sum "Si O2"
_cell_formula_units_Z 16
_cell_length_a 8.362270
_cell_length_b 14.524896
_cell_length_c 12.378092
_cell_angle_alpha 150.481523
_cell_angle_beta 109.833699
_cell_angle_gamma 82.397765
_cell_volume 652.329024
_symmetry_space_group_name_H-M "P -1"
_symmetry_group_IT_number 2
_symmetry_cell_setting 'triclinic'
loop_
_space_group_symop_operation_xyz
x,y,z
-x,-y,-z
loop_
_atom_site_type_symbol
_atom_site_label
_atom_site_fract_x
_atom_site_fract_y
_atom_site_fract_z
Si Si1 0.904529 0.593247 0.199989
Si Si2 0.485843 0.596161 0.812883
Si Si3 0.129017 0.150408 0.943655
Si Si4 0.464494 0.004515 0.676264
Si Si5 0.170517 0.477146 0.454585
Si Si6 0.751866 0.215110 0.397821
Si Si7 0.108713 0.821869 0.281859
Si Si8 0.420359 0.333080 0.719025
O O1 0.785610 0.674506 0.333517
O O2 0.097187 0.624644 0.330643
O O3 0.951598 0.721703 0.232396
O O4 0.820632 0.359355 0.916367
O O5 0.673642 0.713146 0.917144
O O6 0.325710 0.480851 0.577993
O O7 0.517089 0.443064 0.746653
O O8 0.433571 0.763394 0.039193
O O9 0.094446 0.276005 0.162151
O O10 0.982832 0.119436 0.782557
O O11 0.157916 0.948348 0.779039
O O12 0.411058 0.900912 0.676637
O O13 0.275098 0.979601 0.545784
O O14 0.562379 0.883582 0.504035
O O15 0.269050 0.663972 0.587388
O O16 0.000000 0.500000 0.500000
O O17 0.500000 0.500000 0.000000
#
# Coordination Sequence:
#
# PCOD9100757 Si02
#       8
#     2   2   2   2   2   2   2   2
#     4  10  20  37  65  95 131 171 214 261 327 381
#     4  11  27  43  65  99 129 174 217 268 321 388
#     4  11  24  43  70  95 129 172 225 263 324 386
#     4  10  24  43  65  97 135 168 218 265 321 389
#     4  12  26  45  68  93 133 168 220 275 325 382
#     4  10  23  43  68  93 122 178 217 266 322 390
#     4  10  20  41  67  95 131 176 213 265 315 392
#     4  12  23  39  64  96 133 172 206 268 329 377
#
# _framework density 24.527498000000001
#
# number of rings (size 3 to 8) (size 9 to 14) (size 15 to 20)
#    0.000    1.250    2.500    2.625    1.750   10.500 
#    0.000    0.000    0.000    0.000    0.000    0.000 
#    0.000    0.000    0.000    0.000    0.000    0.000 
#
# Total GULP energy -89598.958972 kJ/mol
# GULP energy per Si atom -5599.934936 kJ/mol
# Density = 2.447167 g / cm^3
# Si number density = 24.527498 Si / 1000 Ang^3
#
#
#
# Elastic Constant Matrix: (Units=GPa)
#
#
# Indices 1 2 3 4 5 6 
#
# 1 69.7574 -12.2673 6.4466 1.5432 -23.5377 0.3461
# 2 -12.2673 72.2992 27.6282 -8.5747 -10.4586 -3.8486
# 3 6.4466 27.6282 88.9249 -2.1357 -34.6801 -0.8748
# 4 1.5432 -8.5747 -2.1357 32.9082 -11.5671 -1.4022
# 5 -23.5377 -10.4586 -34.6801 -11.5671 50.3500 4.9586
# 6 0.3461 -3.8486 -0.8748 -1.4022 4.9586 25.2887
#
#
#
# Elastic Compliance Matrix: (Units=1/GPa)
#
#
# Indices 1 2 3 4 5 6 
#
# 1 0.019172 0.004743 0.002216 0.004896 0.012766 -0.001696
# 2 0.004743 0.017548 -0.003996 0.005656 0.004217 0.001954
# 3 0.002216 -0.003996 0.017798 0.004756 0.013800 -0.002465
# 4 0.004896 0.005656 0.004756 0.037323 0.015311 0.000026
# 5 0.012766 0.004217 0.013800 0.015311 0.040330 -0.006115
# 6 -0.001696 0.001954 -0.002465 0.000026 -0.006115 0.040979
#
#
# Mechanical properties :
#
#
# Convention : Reuss Voigt Hill
#
# Bulk Modulus (GPa) = 16.54400 30.51073 23.52736
# Shear Modulus (GPa) = 26.68467 35.65433 31.16950
#
# Velocity S-wave (km/s) = 3.30199 3.81681 3.56869
# Velocity P-wave (km/s) = 4.61489 5.64716 5.15692
#
# Compressibility (1/GPa) = 0.06044488
#
# Stress axis : x y z
#
# Youngs Moduli (GPa) = 52.15828 56.98587 56.18478
#
# Poissons Ratio (x) = -0.27030 -0.12450
# Poissons Ratio (y) = -0.24740 0.22453
# Poissons Ratio (z) = -0.11558 0.22774
#
# Static dielectric constant tensor:
#      x y z
#    x 2.022240 -0.021560 -0.018560 
#    y -0.021560 1.967390 0.030320 
#    z -0.018560 0.030320 1.972320 
# 
# From -- ./inp_files/399927.got.cif
#   From: 2010.05.17/outbox.cif.g08.bks.cpg/sg2_200_cif.got.tgz:399927.got - 2010.06.03 11:33:40.
