data_PCOD9100186
_publ_section_title
;
Structure prediction by ZEFSAII (Michael W. Deem and Ramdas Pophale) SiO2 
 PCOD9100186
Probable space group: P -1
;
_chemical_formula_sum "Si O2"
_cell_formula_units_Z 16
_cell_length_a 11.917047
_cell_length_b 8.782013
_cell_length_c 9.952142
_cell_angle_alpha 54.633206
_cell_angle_beta 92.001600
_cell_angle_gamma 82.899268
_cell_volume 835.502070
_symmetry_space_group_name_H-M "P -1"
_symmetry_group_IT_number 2
_symmetry_cell_setting 'triclinic'
loop_
_space_group_symop_operation_xyz
x,y,z
-x,-y,-z
loop_
_atom_site_type_symbol
_atom_site_label
_atom_site_fract_x
_atom_site_fract_y
_atom_site_fract_z
Si Si1 0.842064 0.905847 0.015711
Si Si2 0.937649 0.718051 0.391208
Si Si3 0.415908 0.143884 0.014842
Si Si4 0.006397 0.109720 0.229965
Si Si5 0.582880 0.851293 0.666517
Si Si6 0.832987 0.716638 0.663245
Si Si7 0.456014 0.551113 0.120664
Si Si8 0.193885 0.706802 0.038082
O O1 0.713924 0.875857 0.000837
O O2 0.919708 0.852344 0.916637
O O3 0.841804 0.126519 0.939734
O O4 0.890055 0.783823 0.209319
O O5 0.842035 0.727680 0.497717
O O6 0.000000 0.500000 0.500000
O O7 0.008698 0.883618 0.351634
O O8 0.439337 0.122807 0.187412
O O9 0.448257 0.343962 0.868775
O O10 0.500000 0.000000 0.000000
O O11 0.061921 0.201659 0.308990
O O12 0.877547 0.213650 0.137638
O O13 0.716817 0.842045 0.649661
O O14 0.560686 0.647000 0.718637
O O15 0.500000 0.000000 0.500000
O O16 0.834718 0.498048 0.819079
O O17 0.330643 0.679963 0.042992
O O18 0.500000 0.500000 0.000000
#
# Coordination Sequence:
#
# PCOD9100186 Si02
#       8
#     2   2   2   2   2   2   2   2
#     4  11  22  40  64  89 119 160 199 248 298 358
#     4  11  24  41  58  89 127 159 193 246 306 360
#     4  11  21  40  65  90 117 154 213 245 287 364
#     4  11  22  40  64  90 116 159 207 245 299 358
#     4  10  23  41  62  87 126 158 194 250 309 349
#     4  11  22  40  60  89 123 154 201 252 300 355
#     4   9  20  38  59  87 119 157 200 242 294 352
#     4  10  20  37  63  86 118 159 196 247 301 354
#
# _framework density 19.150161000000001
#
# number of rings (size 3 to 8) (size 9 to 14) (size 15 to 20)
#    0.000    1.500    2.500    3.750    1.750    1.000 
#    2.250    0.625    0.000    0.000    0.000    0.000 
#    0.000    0.000    0.000    0.000    0.000    0.000 
#
# Total GULP energy -89251.032685 kJ/mol
# GULP energy per Si atom -5578.189543 kJ/mol
# Density = 1.910657 g / cm^3
# Si number density = 19.150161 Si / 1000 Ang^3
#
#
#
# Elastic Constant Matrix: (Units=GPa)
#
#
# Indices 1 2 3 4 5 6 
#
# 1 84.6959 24.9247 33.8209 -9.9216 2.3631 10.3137
# 2 24.9247 72.5150 41.8809 -5.5807 5.5594 2.7477
# 3 33.8209 41.8809 88.3648 -1.8254 6.2718 -6.7009
# 4 -9.9216 -5.5807 -1.8254 33.7105 -7.8028 -9.6278
# 5 2.3631 5.5594 6.2718 -7.8028 25.9642 2.6823
# 6 10.3137 2.7477 -6.7009 -9.6278 2.6823 45.6026
#
#
#
# Elastic Compliance Matrix: (Units=1/GPa)
#
#
# Indices 1 2 3 4 5 6 
#
# 1 0.015228 -0.001967 -0.005210 0.003252 0.001633 -0.003501
# 2 -0.001967 0.019698 -0.008579 0.001439 -0.001367 -0.001618
# 3 -0.005210 -0.008579 0.017868 -0.001457 -0.002875 0.004182
# 4 0.003252 0.001439 -0.001457 0.034626 0.009564 0.005711
# 5 0.001633 -0.001367 -0.002875 0.009564 0.042349 -0.001181
# 6 -0.003501 -0.001618 0.004182 0.005711 -0.001181 0.024708
#
#
# Mechanical properties :
#
#
# Convention : Reuss Voigt Hill
#
# Bulk Modulus (GPa) = 46.98974 49.64764 48.31869
# Shear Modulus (GPa) = 25.89551 30.71871 28.30711
#
# Velocity S-wave (km/s) = 3.68126 4.00946 3.84886
# Velocity P-wave (km/s) = 6.53144 6.88594 6.71103
#
# Compressibility (1/GPa) = 0.02128124
#
# Stress axis : x y z
#
# Youngs Moduli (GPa) = 65.66787 50.76633 55.96581
#
# Poissons Ratio (x) = 0.09987 0.29159
# Poissons Ratio (y) = 0.12919 0.48013
# Poissons Ratio (z) = 0.34214 0.43553
#
# Static dielectric constant tensor:
#      x y z
#    x 1.678680 0.017940 -0.017560 
#    y 0.017940 1.685860 -0.016410 
#    z -0.017560 -0.016410 1.648130 
# 
# From -- ./inp_files/181277.got.cif
#   From: 2010.05.17/outbox.cif.g08.bks.cpg/sg2_91_cif.got.tgz:181277.got - 2010.06.03 11:33:40.
