data_PCOD9100439
_publ_section_title
;
Structure prediction by ZEFSAII (Michael W. Deem and Ramdas Pophale) SiO2 
 PCOD9100439
Probable space group: P -1
;
_chemical_formula_sum "Si O2"
_cell_formula_units_Z 16
_cell_length_a 16.601194
_cell_length_b 12.610102
_cell_length_c 5.721897
_cell_angle_alpha 114.104861
_cell_angle_beta 91.473711
_cell_angle_gamma 44.920171
_cell_volume 704.612883
_symmetry_space_group_name_H-M "P -1"
_symmetry_group_IT_number 2
_symmetry_cell_setting 'triclinic'
loop_
_space_group_symop_operation_xyz
x,y,z
-x,-y,-z
loop_
_atom_site_type_symbol
_atom_site_label
_atom_site_fract_x
_atom_site_fract_y
_atom_site_fract_z
Si Si1 0.379282 0.491229 0.580121
Si Si2 0.173888 0.853728 0.195024
Si Si3 0.791890 0.738900 0.698043
Si Si4 0.602797 0.352654 0.685143
Si Si5 0.474839 0.961086 0.218197
Si Si6 0.703521 0.612461 0.768348
Si Si7 0.050112 0.771802 0.366251
Si Si8 0.000602 0.603827 0.904923
O O1 0.524138 0.343524 0.531308
O O2 0.376464 0.555925 0.386294
O O3 0.337911 0.403423 0.490132
O O4 0.276099 0.682930 0.879137
O O5 0.263501 0.823203 0.356215
O O6 0.101365 0.824555 0.272737
O O7 0.060272 0.065997 0.320366
O O8 0.741473 0.704604 0.856615
O O9 0.875721 0.562603 0.383451
O O10 0.884769 0.723306 0.822687
O O11 0.670140 0.916645 0.709681
O O12 0.500000 0.500000 0.000000
O O13 0.500000 0.000000 0.500000
O O14 0.577411 0.745569 0.030231
O O15 0.500000 0.000000 0.000000
O O16 0.827238 0.409817 0.663369
O O17 0.004367 0.720626 0.145357
O O18 0.000000 0.500000 0.000000
#
# Coordination Sequence:
#
# PCOD9100439 Si02
#       8
#     2   2   2   2   2   2   2   2
#     4  10  20  37  64  88 120 166 210 266 330 393
#     4  10  22  40  61  92 129 165 222 269 323 398
#     4  10  23  41  65  96 128 171 221 279 334 402
#     4   9  19  39  59  83 121 158 207 269 323 386
#     4  10  23  42  67  98 133 168 220 282 333 400
#     4  11  21  40  67  95 124 173 217 271 343 392
#     4  11  22  39  63  92 130 175 213 277 328 395
#     4  11  22  41  66  91 132 175 219 275 335 402
#
# _framework density 22.707502000000002
#
# number of rings (size 3 to 8) (size 9 to 14) (size 15 to 20)
#    0.000    1.750    2.500    1.500    1.750    2.500 
#    2.250    3.750    0.000    0.000    0.000    0.000 
#    0.000    0.000    0.000    0.000    0.000    0.000 
#
# Total GULP energy -89125.454999 kJ/mol
# GULP energy per Si atom -5570.340937 kJ/mol
# Density = 2.265582 g / cm^3
# Si number density = 22.707502 Si / 1000 Ang^3
#
#
#
# Elastic Constant Matrix: (Units=GPa)
#
#
# Indices 1 2 3 4 5 6 
#
# 1 74.8021 39.4206 19.6213 13.6888 -0.1165 -35.0315
# 2 39.4206 103.7701 37.1578 25.9209 5.0578 -36.2264
# 3 19.6213 37.1578 80.1739 17.1386 -2.8405 -21.9358
# 4 13.6888 25.9209 17.1386 34.5017 0.3870 -10.4265
# 5 -0.1165 5.0578 -2.8405 0.3870 26.5595 -10.1459
# 6 -35.0315 -36.2264 -21.9358 -10.4265 -10.1459 27.9263
#
#
#
# Elastic Compliance Matrix: (Units=1/GPa)
#
#
# Indices 1 2 3 4 5 6 
#
# 1 0.054282 0.010458 0.012819 -0.004669 0.039549 0.104353
# 2 0.010458 0.022150 0.001700 -0.008197 0.013304 0.044960
# 3 0.012819 0.001700 0.020900 -0.005175 0.016908 0.038913
# 4 -0.004669 -0.008197 -0.005175 0.037327 -0.002422 -0.007499
# 5 0.039549 0.013304 0.016908 -0.002422 0.078271 0.107684
# 6 0.104353 0.044960 0.038913 -0.007499 0.107684 0.291924
#
#
# Mechanical properties :
#
#
# Convention : Reuss Voigt Hill
#
# Bulk Modulus (GPa) = 6.78956 50.12728 28.45842
# Shear Modulus (GPa) = 9.92074 28.63392 19.27733
#
# Velocity S-wave (km/s) = 2.09246 3.55489 2.91682
# Velocity P-wave (km/s) = 2.97227 6.24282 4.88913
#
# Compressibility (1/GPa) = 0.14728491
#
# Stress axis : x y z
#
# Youngs Moduli (GPa) = 18.42240 45.14633 47.84704
#
# Poissons Ratio (x) = -0.47212 -0.61337
# Poissons Ratio (y) = -0.19265 -0.08132
# Poissons Ratio (z) = -0.23616 -0.07673
#
# Static dielectric constant tensor:
#      x y z
#    x 1.919060 0.006450 -0.027280 
#    y 0.006450 1.933410 -0.051410 
#    z -0.027280 -0.051410 1.960610 
# 
# From -- ./inp_files/77418.got.cif
#   From: 2010.05.17/outbox.cif.g08.bks.cpg/sg2_39_cif.got.tgz:77418.got - 2010.06.03 11:33:40.
