data_PCOD9100202
_publ_section_title
;
Structure prediction by ZEFSAII (Michael W. Deem and Ramdas Pophale) SiO2 
 PCOD9100202
Probable space group: P -1
;
_chemical_formula_sum "Si O2"
_cell_formula_units_Z 16
_cell_length_a 8.877014
_cell_length_b 11.746635
_cell_length_c 14.603732
_cell_angle_alpha 61.963766
_cell_angle_beta 116.664516
_cell_angle_gamma 140.708204
_cell_volume 841.282908
_symmetry_space_group_name_H-M "P -1"
_symmetry_group_IT_number 2
_symmetry_cell_setting 'triclinic'
loop_
_space_group_symop_operation_xyz
x,y,z
-x,-y,-z
loop_
_atom_site_type_symbol
_atom_site_label
_atom_site_fract_x
_atom_site_fract_y
_atom_site_fract_z
Si Si1 0.029175 0.427533 0.623603
Si Si2 0.923241 0.310058 0.345907
Si Si3 0.857258 0.558698 0.837320
Si Si4 0.233696 0.791296 0.015990
Si Si5 0.026165 0.866165 0.084255
Si Si6 0.239286 0.913003 0.437596
Si Si7 0.432666 0.511190 0.804536
Si Si8 0.394274 0.132531 0.239788
O O1 0.972325 0.495231 0.663719
O O2 0.289123 0.509038 0.685255
O O3 0.000000 0.500000 0.500000
O O4 0.857259 0.220194 0.624878
O O5 0.916094 0.203727 0.469360
O O6 0.645967 0.193034 0.291563
O O7 0.061431 0.353337 0.275034
O O8 0.777687 0.363958 0.893155
O O9 0.635422 0.524827 0.821839
O O10 0.082312 0.702630 0.913433
O O11 0.098436 0.810967 0.042856
O O12 0.500000 0.000000 0.000000
O O13 0.779586 0.679553 0.130295
O O14 0.233637 0.985215 0.172423
O O15 0.000000 0.000000 0.000000
O O16 0.500000 0.000000 0.500000
O O17 0.275916 0.066907 0.335526
O O18 0.544451 0.684903 0.831839
#
# Coordination Sequence:
#
# PCOD9100202 Si02
#       8
#     2   2   2   2   2   2   2   2
#     4   9  17  35  62  87 116 156 207 246 297 361
#     4   9  19  36  61  88 117 159 204 250 311 361
#     4  11  24  41  59  89 132 164 202 254 312 372
#     4  11  24  42  64  87 123 169 210 252 312 370
#     4  12  24  39  65  92 119 162 212 256 309 363
#     4   9  17  33  61  90 115 150 205 255 295 361
#     4  11  23  39  61  92 129 160 202 260 307 365
#     4  10  20  37  63  87 120 155 208 260 297 358
#
# _framework density 19.018571999999999
#
# number of rings (size 3 to 8) (size 9 to 14) (size 15 to 20)
#    0.000    1.750    1.250    4.500    0.000    4.000 
#    0.000    3.125    0.000    0.000    0.000    0.000 
#    0.000    0.000    0.000    0.000    0.000    0.000 
#
# Total GULP energy -89093.536144 kJ/mol
# GULP energy per Si atom -5568.346009 kJ/mol
# Density = 1.897528 g / cm^3
# Si number density = 19.018572 Si / 1000 Ang^3
#
#
#
# Elastic Constant Matrix: (Units=GPa)
#
#
# Indices 1 2 3 4 5 6 
#
# 1 71.1714 26.4687 7.6807 -3.8603 -13.5649 4.6504
# 2 26.4687 125.2526 34.3117 -2.8915 -17.2246 -1.7519
# 3 7.6807 34.3117 63.6247 -1.6539 -12.6916 -0.8220
# 4 -3.8603 -2.8915 -1.6539 30.5433 -3.5998 -1.7005
# 5 -13.5649 -17.2246 -12.6916 -3.5998 28.0014 -6.3305
# 6 4.6504 -1.7519 -0.8220 -1.7005 -6.3305 24.7290
#
#
#
# Elastic Compliance Matrix: (Units=1/GPa)
#
#
# Indices 1 2 3 4 5 6 
#
# 1 0.016492 -0.002765 0.000889 0.002586 0.006714 -0.001371
# 2 -0.002765 0.010337 -0.004476 0.000925 0.003581 0.002084
# 3 0.000889 -0.004476 0.019539 0.001719 0.007238 0.002136
# 4 0.002586 0.000925 0.001719 0.034408 0.007936 0.004034
# 5 0.006714 0.003581 0.007238 0.007936 0.048208 0.012118
# 6 -0.001371 0.002084 0.002136 0.004034 0.012118 0.044294
#
#
# Mechanical properties :
#
#
# Convention : Reuss Voigt Hill
#
# Bulk Modulus (GPa) = 29.70366 44.10784 36.90575
# Shear Modulus (GPa) = 25.35439 29.42724 27.39081
#
# Velocity S-wave (km/s) = 3.65518 3.93783 3.79913
# Velocity P-wave (km/s) = 5.78497 6.62704 6.22027
#
# Compressibility (1/GPa) = 0.03366589
#
# Stress axis : x y z
#
# Youngs Moduli (GPa) = 60.63379 96.73881 51.17839
#
# Poissons Ratio (x) = 0.26747 -0.04549
# Poissons Ratio (y) = 0.16765 0.22905
# Poissons Ratio (z) = -0.05390 0.43297
#
# Static dielectric constant tensor:
#      x y z
#    x 1.626830 -0.046890 0.012200 
#    y -0.046890 1.771510 0.030470 
#    z 0.012200 0.030470 1.584450 
# 
# From -- ./inp_files/497885.got.cif
#   From: 2010.05.17/outbox.cif.g08.bks.cpg/sg2_249_cif.got.tgz:497885.got - 2010.06.03 11:33:40.
