data_PCOD9100846
_publ_section_title
;
Structure prediction by ZEFSAII (Michael W. Deem and Ramdas Pophale) SiO2 
 PCOD9100846
Probable space group: P -1
;
_chemical_formula_sum "Si O2"
_cell_formula_units_Z 16
_cell_length_a 8.638629
_cell_length_b 11.649716
_cell_length_c 15.560442
_cell_angle_alpha 40.381443
_cell_angle_beta 77.057526
_cell_angle_gamma 57.319107
_cell_volume 801.959753
_symmetry_space_group_name_H-M "P -1"
_symmetry_group_IT_number 2
_symmetry_cell_setting 'triclinic'
loop_
_space_group_symop_operation_xyz
x,y,z
-x,-y,-z
loop_
_atom_site_type_symbol
_atom_site_label
_atom_site_fract_x
_atom_site_fract_y
_atom_site_fract_z
Si Si1 0.087544 0.965218 0.636018
Si Si2 0.297126 0.730028 0.908751
Si Si3 0.992424 0.407395 0.963560
Si Si4 0.735073 0.327941 0.581183
Si Si5 0.775107 0.639250 0.306995
Si Si6 0.821860 0.996690 0.062205
Si Si7 0.334219 0.936802 0.138400
Si Si8 0.011234 0.697774 0.676562
O O1 0.230731 0.883546 0.745700
O O2 0.099846 0.770158 0.696565
O O3 0.865736 0.137285 0.602548
O O4 0.121116 0.093071 0.487163
O O5 0.279194 0.850050 0.930280
O O6 0.500000 0.500000 0.000000
O O7 0.140879 0.675714 0.966271
O O8 0.915857 0.596435 0.795276
O O9 0.000000 0.500000 0.000000
O O10 0.201450 0.191183 0.034225
O O11 0.500000 0.500000 0.500000
O O12 0.810514 0.481497 0.472396
O O13 0.755811 0.189202 0.740852
O O14 0.544010 0.823168 0.220877
O O15 0.833110 0.488854 0.301293
O O16 0.882021 0.758322 0.219904
O O17 0.672076 0.073544 0.957415
O O18 0.000000 0.000000 0.000000
#
# Coordination Sequence:
#
# PCOD9100846 Si02
#       8
#     2   2   2   2   2   2   2   2
#     4  10  20  40  60  90 128 158 202 266 313 372
#     4  12  27  42  61  92 133 171 205 259 325 378
#     4  12  22  39  66  91 121 162 214 265 315 370
#     4   9  18  37  59  94 123 153 208 266 318 354
#     4  10  22  35  64  93 117 163 215 256 312 378
#     4  12  23  41  60  88 130 168 208 257 314 376
#     4  11  21  37  63  91 125 158 214 268 301 373
#     4  10  20  37  66  92 117 158 211 261 317 359
#
# _framework density 19.951125999999999
#
# number of rings (size 3 to 8) (size 9 to 14) (size 15 to 20)
#    0.000    1.250    5.000    0.375    3.500    0.000 
#    0.000    7.500    0.000    0.000    0.000    0.000 
#    0.000    0.000    0.000    0.000    0.000    0.000 
#
# Total GULP energy -89213.409961 kJ/mol
# GULP energy per Si atom -5575.838123 kJ/mol
# Density = 1.990572 g / cm^3
# Si number density = 19.951126 Si / 1000 Ang^3
#
#
#
# Elastic Constant Matrix: (Units=GPa)
#
#
# Indices 1 2 3 4 5 6 
#
# 1 29.9919 22.6085 18.1143 -7.3323 -10.9720 6.0395
# 2 22.6085 124.5943 30.4048 -8.8122 12.7979 26.9721
# 3 18.1143 30.4048 133.0878 19.8210 -24.7987 13.0156
# 4 -7.3323 -8.8122 19.8210 37.0581 -0.4164 0.4241
# 5 -10.9720 12.7979 -24.7987 -0.4164 36.9588 1.0368
# 6 6.0395 26.9721 13.0156 0.4241 1.0368 27.3955
#
#
#
# Elastic Compliance Matrix: (Units=1/GPa)
#
#
# Indices 1 2 3 4 5 6 
#
# 1 0.050711 -0.009107 -0.003086 0.009719 0.016290 -0.001514
# 2 -0.009107 0.013718 -0.003138 0.003146 -0.009251 -0.009706
# 3 -0.003086 -0.003138 0.011366 -0.007328 0.007765 -0.001811
# 4 0.009719 0.003146 -0.007328 0.033570 -0.002682 -0.002176
# 5 0.016290 -0.009251 0.007765 -0.002682 0.040267 0.000346
# 6 -0.001514 -0.009706 -0.001811 -0.002176 0.000346 0.047274
#
#
# Mechanical properties :
#
#
# Convention : Reuss Voigt Hill
#
# Bulk Modulus (GPa) = 22.15567 47.76992 34.96280
# Shear Modulus (GPa) = 20.60911 34.71890 27.66401
#
# Velocity S-wave (km/s) = 3.21749 4.17609 3.72773
# Velocity P-wave (km/s) = 4.99320 6.87375 6.00752
#
# Compressibility (1/GPa) = 0.04513518
#
# Stress axis : x y z
#
# Youngs Moduli (GPa) = 19.71946 72.89606 87.98184
#
# Poissons Ratio (x) = 0.66385 0.27149
# Poissons Ratio (y) = 0.17958 0.27605
# Poissons Ratio (z) = 0.06085 0.22871
#
# Static dielectric constant tensor:
#      x y z
#    x 1.680820 0.055350 -0.059940 
#    y 0.055350 1.515360 0.082400 
#    z -0.059940 0.082400 1.707760 
# 
# From -- ./inp_files/271622.got.cif
#   From: 2010.05.17/outbox.cif.g08.bks.cpg/sg2_136_cif.got.tgz:271622.got - 2010.06.03 11:33:40.
