data_PCOD9100547
_publ_section_title
;
Structure prediction by ZEFSAII (Michael W. Deem and Ramdas Pophale) SiO2 
 PCOD9100547
Probable space group: P -1
;
_chemical_formula_sum "Si O2"
_cell_formula_units_Z 14
_cell_length_a 8.554420
_cell_length_b 10.321569
_cell_length_c 11.022641
_cell_angle_alpha 134.502472
_cell_angle_beta 78.514262
_cell_angle_gamma 75.241296
_cell_volume 561.641416
_symmetry_space_group_name_H-M "P -1"
_symmetry_group_IT_number 2
_symmetry_cell_setting 'triclinic'
loop_
_space_group_symop_operation_xyz
x,y,z
-x,-y,-z
loop_
_atom_site_type_symbol
_atom_site_label
_atom_site_fract_x
_atom_site_fract_y
_atom_site_fract_z
Si Si1 0.909497 0.811073 0.755340
Si Si2 0.272886 0.986635 0.433333
Si Si3 0.113456 0.624049 0.909649
Si Si4 0.521818 0.772551 0.495825
Si Si5 0.096449 0.534670 0.326691
Si Si6 0.789001 0.108764 0.185015
Si Si7 0.174251 0.672400 0.195916
O O1 0.955920 0.759505 0.572148
O O2 0.843569 0.654422 0.707950
O O3 0.778853 0.031460 0.000379
O O4 0.120810 0.747641 0.727156
O O5 0.381079 0.882352 0.475188
O O6 0.280381 0.793128 0.231803
O O7 0.373380 0.097484 0.430924
O O8 0.049354 0.151759 0.615772
O O9 0.323599 0.482424 0.724319
O O10 0.006053 0.526481 0.797531
O O11 0.161908 0.566464 0.005879
O O12 0.959288 0.884856 0.084019
O O13 0.403191 0.800148 0.651546
O O14 0.251990 0.536831 0.220983
#
# Coordination Sequence:
#
# PCOD9100547 Si02
#       7
#     2   2   2   2   2   2   2
#     4   9  21  40  65  90 122 179 218 247 322 367
#     4  10  23  37  62  96 136 164 204 253 329 385
#     4  11  23  37  67  97 126 167 204 258 333 375
#     4  11  22  40  62 100 131 161 208 265 314 384
#     4  10  20  37  64  94 122 168 218 256 299 389
#     4  10  21  43  66  92 128 169 211 267 310 378
#     4  11  21  40  65  97 130 170 203 260 324 385
#
# _framework density 24.926938
#
# number of rings (size 3 to 8) (size 9 to 14) (size 15 to 20)
#    0.000    1.714    2.857    1.286    2.000    1.714 
#    0.000   11.429    0.000    0.000    0.000    0.000 
#    0.000    0.000    0.000    0.000    0.000    0.000 
#
# Total GULP energy -78065.354667 kJ/mol
# GULP energy per Si atom -5576.096762 kJ/mol
# Density = 2.487020 g / cm^3
# Si number density = 24.926938 Si / 1000 Ang^3
#
#
#
# Elastic Constant Matrix: (Units=GPa)
#
#
# Indices 1 2 3 4 5 6 
#
# 1 59.9604 9.6964 28.3871 -6.0887 3.7253 19.5940
# 2 9.6964 76.0342 35.2388 -8.3613 -5.9464 10.6996
# 3 28.3871 35.2388 146.3257 -45.0887 -2.0174 10.0173
# 4 -6.0887 -8.3613 -45.0887 40.1317 2.0674 5.6719
# 5 3.7253 -5.9464 -2.0174 2.0674 37.3856 -11.3449
# 6 19.5940 10.6996 10.0173 5.6719 -11.3449 27.9961
#
#
#
# Elastic Compliance Matrix: (Units=1/GPa)
#
#
# Indices 1 2 3 4 5 6 
#
# 1 0.026272 0.000708 -0.002132 0.005504 -0.009912 -0.023027
# 2 0.000708 0.015427 -0.003497 0.000042 0.000718 -0.004857
# 3 -0.002132 -0.003497 0.012827 0.014246 -0.002109 -0.005502
# 4 0.005504 0.000042 0.014246 0.045296 -0.008874 -0.021738
# 5 -0.009912 0.000718 -0.002109 -0.008874 0.035374 0.023550
# 6 -0.023027 -0.004857 -0.005502 -0.021738 0.023550 0.069608
#
#
# Mechanical properties :
#
#
# Convention : Reuss Voigt Hill
#
# Bulk Modulus (GPa) = 22.37935 47.66277 35.02106
# Shear Modulus (GPa) = 21.78273 35.03587 28.40930
#
# Velocity S-wave (km/s) = 2.95932 3.75312 3.37961
# Velocity P-wave (km/s) = 4.54690 6.15985 5.41378
#
# Compressibility (1/GPa) = 0.04468404
#
# Stress axis : x y z
#
# Youngs Moduli (GPa) = 38.06358 64.82231 77.96045
#
# Poissons Ratio (x) = -0.04589 0.16618
# Poissons Ratio (y) = -0.02694 0.27264
# Poissons Ratio (z) = 0.08114 0.22669
#
# Static dielectric constant tensor:
#      x y z
#    x 1.955100 -0.002610 0.015430 
#    y -0.002610 2.227370 0.055640 
#    z 0.015430 0.055640 1.977780 
# 
# From -- ./inp_files/258607.got.cif
#   From: 2010.05.17/outbox.cif.g08.bks.cpg/sg2_130_cif.got.tgz:258607.got - 2010.06.03 11:33:40.
