data_PCOD9100696
_publ_section_title
;
Structure prediction by ZEFSAII (Michael W. Deem and Ramdas Pophale) SiO2 
 PCOD9100696
Probable space group: P -1
;
_chemical_formula_sum "Si O2"
_cell_formula_units_Z 16
_cell_length_a 7.870996
_cell_length_b 9.361331
_cell_length_c 11.837244
_cell_angle_alpha 98.096483
_cell_angle_beta 96.436999
_cell_angle_gamma 46.232347
_cell_volume 623.452760
_symmetry_space_group_name_H-M "P -1"
_symmetry_group_IT_number 2
_symmetry_cell_setting 'triclinic'
loop_
_space_group_symop_operation_xyz
x,y,z
-x,-y,-z
loop_
_atom_site_type_symbol
_atom_site_label
_atom_site_fract_x
_atom_site_fract_y
_atom_site_fract_z
Si Si1 0.962788 0.984942 0.658076
Si Si2 0.186962 0.679404 0.974948
Si Si3 0.738859 0.077284 0.891027
Si Si4 0.817934 0.889341 0.444078
Si Si5 0.074157 0.467111 0.662911
Si Si6 0.634001 0.447382 0.279773
Si Si7 0.765749 0.517608 0.822567
Si Si8 0.402191 0.113968 0.260280
O O1 0.787665 0.991195 0.569984
O O2 0.208248 0.753811 0.657876
O O3 0.878668 0.049389 0.786734
O O4 0.008253 0.106794 0.611549
O O5 0.261856 0.603433 0.845126
O O6 0.337033 0.731655 0.033518
O O7 0.193427 0.552557 0.054582
O O8 0.919927 0.891762 0.966760
O O9 0.576060 0.047481 0.824281
O O10 0.923222 0.667737 0.438223
O O11 0.587984 0.015575 0.363139
O O12 0.011597 0.415945 0.769073
O O13 0.857346 0.705854 0.684852
O O14 0.309659 0.423969 0.660649
O O15 0.378006 0.527201 0.255783
O O16 0.596143 0.754306 0.814533
#
# Coordination Sequence:
#
# PCOD9100696 Si02
#       8
#     2   2   2   2   2   2   2   2
#     4  10  20  42  64  90 129 167 211 271 314 382
#     4  10  20  37  65  91 125 172 216 256 327 381
#     4  10  21  39  62  91 129 167 212 270 316 378
#     4  11  23  40  68  93 125 174 213 259 331 380
#     4  10  23  42  64  93 136 162 212 271 314 377
#     4  11  21  42  63  94 133 164 216 272 312 387
#     4  10  21  40  64  91 130 169 208 267 318 377
#     4  10  22  42  61  94 135 161 217 267 310 387
#
# _framework density 25.663533999999999
#
# number of rings (size 3 to 8) (size 9 to 14) (size 15 to 20)
#    0.750    1.000    3.750    1.125    1.750    3.000 
#    0.000    7.500    0.000    0.000    0.000    0.000 
#    0.000    0.000    0.000    0.000    0.000    0.000 
#
# Total GULP energy -89456.058137 kJ/mol
# GULP energy per Si atom -5591.003634 kJ/mol
# Density = 2.560512 g / cm^3
# Si number density = 25.663534 Si / 1000 Ang^3
#
#
#
# Elastic Constant Matrix: (Units=GPa)
#
#
# Indices 1 2 3 4 5 6 
#
# 1 76.5745 38.1860 15.3911 6.5426 4.8739 36.8348
# 2 38.1860 85.6174 28.7570 -7.8873 12.4528 18.2148
# 3 15.3911 28.7570 108.7851 -2.5042 16.1858 10.3348
# 4 6.5426 -7.8873 -2.5042 43.7116 8.1067 2.6992
# 5 4.8739 12.4528 16.1858 8.1067 43.7813 4.0036
# 6 36.8348 18.2148 10.3348 2.6992 4.0036 39.2052
#
#
#
# Elastic Compliance Matrix: (Units=1/GPa)
#
#
# Indices 1 2 3 4 5 6 
#
# 1 0.028602 -0.008689 -0.000043 -0.004872 0.002283 -0.022722
# 2 -0.008689 0.017309 -0.002732 0.004943 -0.003944 0.000904
# 3 -0.000043 -0.002732 0.010519 0.000773 -0.003141 -0.001196
# 4 -0.004872 0.004943 0.000773 0.025593 -0.005973 0.000925
# 5 0.002283 -0.003944 -0.003141 -0.005973 0.026135 -0.001742
# 6 -0.022722 0.000904 -0.001196 0.000925 -0.001742 0.046864
#
#
# Mechanical properties :
#
#
# Convention : Reuss Voigt Hill
#
# Bulk Modulus (GPa) = 29.84783 48.40503 39.12643
# Shear Modulus (GPa) = 26.43854 37.91582 32.17718
#
# Velocity S-wave (km/s) = 3.21315 3.84789 3.54476
# Velocity P-wave (km/s) = 5.04197 6.21643 5.65975
#
# Compressibility (1/GPa) = 0.03350327
#
# Stress axis : x y z
#
# Youngs Moduli (GPa) = 34.96291 57.77212 95.06316
#
# Poissons Ratio (x) = 0.50198 0.00408
# Poissons Ratio (y) = 0.30379 0.25968
# Poissons Ratio (z) = 0.00150 0.15781
#
# Static dielectric constant tensor:
#      x y z
#    x 2.052400 -0.017170 0.022350 
#    y -0.017170 2.067160 -0.008300 
#    z 0.022350 -0.008300 1.975340 
# 
# From -- ./inp_files/492995.got.cif
#   From: 2010.05.17/outbox.cif.g08.bks.cpg/sg2_247_cif.got.tgz:492995.got - 2010.06.03 11:33:40.
