data_PCOD9100339
_publ_section_title
;
Structure prediction by ZEFSAII (Michael W. Deem and Ramdas Pophale) SiO2 
 PCOD9100339
Probable space group: P -1
;
_chemical_formula_sum "Si O2"
_cell_formula_units_Z 12
_cell_length_a 17.427551
_cell_length_b 9.043863
_cell_length_c 5.073562
_cell_angle_alpha 69.983581
_cell_angle_beta 81.063060
_cell_angle_gamma 44.060752
_cell_volume 517.456495
_symmetry_space_group_name_H-M "P -1"
_symmetry_group_IT_number 2
_symmetry_cell_setting 'triclinic'
loop_
_space_group_symop_operation_xyz
x,y,z
-x,-y,-z
loop_
_atom_site_type_symbol
_atom_site_label
_atom_site_fract_x
_atom_site_fract_y
_atom_site_fract_z
Si Si1 0.356240 0.378796 0.812406
Si Si2 0.540194 0.340330 0.823859
Si Si3 0.917852 0.643586 0.698729
Si Si4 0.749919 0.623864 0.616206
Si Si5 0.238418 0.864479 0.356004
Si Si6 0.075261 0.873690 0.282534
O O1 0.482069 0.255130 0.881164
O O2 0.336972 0.285041 0.635826
O O3 0.296061 0.635137 0.621666
O O4 0.303015 0.387162 0.098860
O O5 0.500000 0.500000 0.500000
O O6 0.672765 0.153360 0.826668
O O7 0.500000 0.500000 0.000000
O O8 0.808445 0.692282 0.670998
O O9 0.000000 0.500000 0.500000
O O10 0.856089 0.901193 0.586451
O O11 0.000000 0.500000 0.000000
O O12 0.858437 0.383276 0.582689
O O13 0.168427 0.869256 0.181810
O O14 0.000000 0.000000 0.500000
O O15 0.000000 0.000000 0.000000
#
# Coordination Sequence:
#
# PCOD9100339 Si02
#       6
#     2   2   2   2   2   2
#     4  10  21  40  64  90 117 154 203 254 302 358
#     4  10  20  37  63  94 120 150 200 259 306 354
#     4  12  26  43  60  89 128 167 203 247 301 363
#     4  11  22  39  59  86 123 158 195 252 304 353
#     4  10  23  40  64  90 120 161 205 249 301 361
#     4  11  20  33  54  81 108 148 198 241 283 341
#
# _framework density 23.190356000000001
#
# number of rings (size 3 to 8) (size 9 to 14) (size 15 to 20)
#    0.000    1.333    0.000    8.000    0.000    6.667 
#    0.000    1.667    0.000    0.000    0.000    0.000 
#    0.000    0.000    0.000    0.000    0.000    0.000 
#
# Total GULP energy -66892.491396 kJ/mol
# GULP energy per Si atom -5574.374283 kJ/mol
# Density = 2.313757 g / cm^3
# Si number density = 23.190356 Si / 1000 Ang^3
#
#
#
# Elastic Constant Matrix: (Units=GPa)
#
#
# Indices 1 2 3 4 5 6 
#
# 1 156.0208 13.7849 44.7724 -2.2527 15.7514 -8.6329
# 2 13.7849 56.8815 14.0762 4.8956 2.9282 -4.6311
# 3 44.7724 14.0762 159.7395 28.0962 13.7332 -12.6658
# 4 -2.2527 4.8956 28.0962 22.3913 -5.1387 0.8189
# 5 15.7514 2.9282 13.7332 -5.1387 39.4475 6.9955
# 6 -8.6329 -4.6311 -12.6658 0.8189 6.9955 32.0727
#
#
#
# Elastic Compliance Matrix: (Units=1/GPa)
#
#
# Indices 1 2 3 4 5 6 
#
# 1 0.007507 -0.001349 -0.002355 0.003542 -0.001830 0.001204
# 2 -0.001349 0.018657 -0.000042 -0.004715 -0.001953 0.002861
# 3 -0.002355 -0.000042 0.010377 -0.014688 -0.005474 0.005027
# 4 0.003542 -0.004715 -0.014688 0.068259 0.014803 -0.010500
# 5 -0.001830 -0.001953 -0.005474 0.014803 0.031881 -0.010268
# 6 0.001204 0.002861 0.005027 -0.010500 -0.010268 0.036409
#
#
# Mechanical properties :
#
#
# Convention : Reuss Voigt Hill
#
# Bulk Modulus (GPa) = 34.42544 57.54542 45.98543
# Shear Modulus (GPa) = 26.27914 38.78284 32.53099
#
# Velocity S-wave (km/s) = 3.36994 4.09390 3.74943
# Velocity P-wave (km/s) = 5.47896 6.87131 6.21425
#
# Compressibility (1/GPa) = 0.02904829
#
# Stress axis : x y z
#
# Youngs Moduli (GPa) = 133.20924 53.59925 96.36958
#
# Poissons Ratio (x) = 0.07231 0.22699
# Poissons Ratio (y) = 0.17970 0.00403
# Poissons Ratio (z) = 0.31376 0.00224
#
# Static dielectric constant tensor:
#      x y z
#    x 2.090700 0.020830 0.055560 
#    y 0.020830 1.905040 -0.048180 
#    z 0.055560 -0.048180 1.810620 
# 
# From -- ./inp_files/90421.got.cif
#   From: 2010.05.17/outbox.cif.g08.bks.cpg/sg2_46_cif.got.tgz:90421.got - 2010.06.03 11:33:40.
