data_PCOD9100131
_publ_section_title
;
Structure prediction by ZEFSAII (Michael W. Deem and Ramdas Pophale) SiO2 
 PCOD9100131
Probable space group: P -1
;
_chemical_formula_sum "Si O2"
_cell_formula_units_Z 16
_cell_length_a 14.645589
_cell_length_b 10.470583
_cell_length_c 5.365498
_cell_angle_alpha 80.943248
_cell_angle_beta 106.711435
_cell_angle_gamma 62.218443
_cell_volume 654.666399
_symmetry_space_group_name_H-M "P -1"
_symmetry_group_IT_number 2
_symmetry_cell_setting 'triclinic'
loop_
_space_group_symop_operation_xyz
x,y,z
-x,-y,-z
loop_
_atom_site_type_symbol
_atom_site_label
_atom_site_fract_x
_atom_site_fract_y
_atom_site_fract_z
Si Si1 0.810089 0.133679 0.728134
Si Si2 0.766339 0.565098 0.194066
Si Si3 0.453491 0.392778 0.950528
Si Si4 0.382478 0.067652 0.032920
Si Si5 0.429936 0.784440 0.408161
Si Si6 0.008407 0.111296 0.666880
Si Si7 0.816838 0.881417 0.473880
Si Si8 0.127146 0.429022 0.209260
O O1 0.680525 0.229193 0.686649
O O2 0.885194 0.200804 0.674018
O O3 0.802912 0.030022 0.541748
O O4 0.894198 0.005133 0.031549
O O5 0.679104 0.750317 0.043103
O O6 0.846400 0.538802 0.501156
O O7 0.682343 0.508583 0.191288
O O8 0.822666 0.516887 0.983093
O O9 0.502911 0.283517 0.263797
O O10 0.500000 0.500000 0.000000
O O11 0.496774 0.303373 0.751160
O O12 0.289439 0.057451 0.805437
O O13 0.500000 0.000000 0.000000
O O14 0.401220 0.958171 0.312990
O O15 0.061796 0.197772 0.551014
O O16 0.000000 0.000000 0.500000
O O17 0.820439 0.754559 0.693405
O O18 0.000000 0.500000 0.000000
#
# Coordination Sequence:
#
# PCOD9100131 Si02
#       8
#     2   2   2   2   2   2   2   2
#     4  10  20  37  62  96 130 170 221 276 348 402
#     4  11  25  47  72 105 141 177 233 296 351 404
#     4  12  28  49  69  96 144 189 232 284 339 416
#     4  11  22  40  71 109 138 174 224 291 361 417
#     4  12  24  43  72 100 137 180 233 282 351 424
#     4   9  19  36  58  87 136 168 207 270 334 396
#     4  10  21  39  63  98 142 172 219 287 350 403
#     4  11  25  46  72  98 136 183 234 285 340 417
#
# _framework density 24.439926
#
# number of rings (size 3 to 8) (size 9 to 14) (size 15 to 20)
#    0.000    1.250    2.500    3.000    5.250    1.500 
#    2.250    2.500    0.000    0.000    0.000    0.000 
#    0.000    0.000    0.000    0.000    0.000    0.000 
#
# Total GULP energy -89487.114450 kJ/mol
# GULP energy per Si atom -5592.944653 kJ/mol
# Density = 2.438430 g / cm^3
# Si number density = 24.439926 Si / 1000 Ang^3
#
#
#
# Elastic Constant Matrix: (Units=GPa)
#
#
# Indices 1 2 3 4 5 6 
#
# 1 175.2882 -6.7006 51.2673 10.5386 1.3470 1.9343
# 2 -6.7006 33.6135 21.8691 0.7171 -3.1320 7.9830
# 3 51.2673 21.8691 140.4425 -3.3702 6.4072 -1.4936
# 4 10.5386 0.7171 -3.3702 22.5836 -5.1077 5.2212
# 5 1.3470 -3.1320 6.4072 -5.1077 35.9749 12.5905
# 6 1.9343 7.9830 -1.4936 5.2212 12.5905 33.0299
#
#
#
# Elastic Compliance Matrix: (Units=1/GPa)
#
#
# Indices 1 2 3 4 5 6 
#
# 1 0.007045 0.003975 -0.003315 -0.003497 0.000595 -0.001197
# 2 0.003975 0.040261 -0.008302 0.001215 0.010031 -0.014355
# 3 -0.003315 -0.008302 0.009857 0.001659 -0.003408 0.003683
# 4 -0.003497 0.001215 0.001659 0.051693 0.011707 -0.012648
# 5 0.000595 0.010031 -0.003408 0.011707 0.037480 -0.018751
# 6 -0.001197 -0.014355 0.003683 -0.012648 -0.018751 0.043128
#
#
# Mechanical properties :
#
#
# Convention : Reuss Voigt Hill
#
# Bulk Modulus (GPa) = 23.87649 53.57954 38.72802
# Shear Modulus (GPa) = 22.86161 37.17823 30.01992
#
# Velocity S-wave (km/s) = 3.06178 3.90450 3.50853
# Velocity P-wave (km/s) = 4.72123 6.50364 5.68275
#
# Compressibility (1/GPa) = 0.04188220
#
# Stress axis : x y z
#
# Youngs Moduli (GPa) = 141.94115 24.83767 101.44595
#
# Poissons Ratio (x) = -0.09874 0.33625
# Poissons Ratio (y) = -0.56426 0.84217
# Poissons Ratio (z) = 0.47048 0.20619
#
# Static dielectric constant tensor:
#      x y z
#    x 1.989320 -0.176040 -0.108220 
#    y -0.176040 2.059070 -0.239590 
#    z -0.108220 -0.239590 1.937280 
# 
# From -- ./inp_files/93421.got.cif
#   From: 2010.05.17/outbox.cif.g08.bks.cpg/sg2_47_cif.got.tgz:93421.got - 2010.06.03 11:33:40.
