data_PCOD9100787
_publ_section_title
;
Structure prediction by ZEFSAII (Michael W. Deem and Ramdas Pophale) SiO2 
 PCOD9100787
Probable space group: P -1
;
_chemical_formula_sum "Si O2"
_cell_formula_units_Z 14
_cell_length_a 10.213295
_cell_length_b 18.761850
_cell_length_c 9.558949
_cell_angle_alpha 144.419779
_cell_angle_beta 109.489264
_cell_angle_gamma 44.714333
_cell_volume 601.646463
_symmetry_space_group_name_H-M "P -1"
_symmetry_group_IT_number 2
_symmetry_cell_setting 'triclinic'
loop_
_space_group_symop_operation_xyz
x,y,z
-x,-y,-z
loop_
_atom_site_type_symbol
_atom_site_label
_atom_site_fract_x
_atom_site_fract_y
_atom_site_fract_z
Si Si1 0.591019 0.243606 0.584074
Si Si2 0.814195 0.030784 0.037888
Si Si3 0.536884 0.279403 0.096728
Si Si4 0.139398 0.709795 0.153147
Si Si5 0.318370 0.052178 0.672328
Si Si6 0.812883 0.322514 0.205340
Si Si7 0.778798 0.671097 0.094813
O O1 0.647326 0.203689 0.375003
O O2 0.334840 0.475595 0.900316
O O3 0.642017 0.072112 0.385702
O O4 0.763561 0.223783 0.677496
O O5 0.675577 0.088902 0.943846
O O6 0.000000 0.000000 0.000000
O O7 0.968085 0.825527 0.849359
O O8 0.712531 0.255061 0.058055
O O9 0.381782 0.460875 0.444183
O O10 0.363139 0.349708 0.032276
O O11 0.126997 0.689536 0.950922
O O12 0.875258 0.883845 0.388546
O O13 0.200605 0.269321 0.951061
O O14 0.583320 0.881322 0.447415
O O15 0.000000 0.500000 0.000000
#
# Coordination Sequence:
#
# PCOD9100787 Si02
#       7
#     2   2   2   2   2   2   2
#     4  11  22  38  64 100 138 165 211 265 326 385
#     4  10  21  36  61  98 135 166 203 255 328 391
#     4  10  22  41  63  95 131 168 210 263 322 386
#     4  11  22  37  64  99 132 171 206 270 324 383
#     4  11  24  42  66  92 127 168 222 267 318 380
#     4  10  20  37  65  99 130 162 207 261 331 386
#     4  11  26  47  67  91 124 175 227 270 316 378
#
# _framework density 23.269477999999999
#
# number of rings (size 3 to 8) (size 9 to 14) (size 15 to 20)
#    0.000    1.429    2.857    2.143    4.000    3.429 
#    0.000    1.429    0.000    0.000    0.000    0.000 
#    0.000    0.000    0.000    0.000    0.000    0.000 
#
# Total GULP energy -77971.835132 kJ/mol
# GULP energy per Si atom -5569.416795 kJ/mol
# Density = 2.321652 g / cm^3
# Si number density = 23.269478 Si / 1000 Ang^3
#
#
#
# Elastic Constant Matrix: (Units=GPa)
#
#
# Indices 1 2 3 4 5 6 
#
# 1 73.2008 44.6990 26.9045 17.6573 -1.2038 10.1442
# 2 44.6990 160.8328 34.4262 32.6814 -1.9599 0.6578
# 3 26.9045 34.4262 47.8142 17.4698 -6.3990 9.2360
# 4 17.6573 32.6814 17.4698 39.1669 -0.7015 -5.3741
# 5 -1.2038 -1.9599 -6.3990 -0.7015 23.5062 5.6538
# 6 10.1442 0.6578 9.2360 -5.3741 5.6538 34.8235
#
#
#
# Elastic Compliance Matrix: (Units=1/GPa)
#
#
# Indices 1 2 3 4 5 6 
#
# 1 0.019559 -0.003268 -0.006362 -0.003877 -0.000026 -0.004543
# 2 -0.003268 0.008640 -0.003154 -0.004192 -0.000693 0.001091
# 3 -0.006362 -0.003154 0.034359 -0.011097 0.011007 -0.010699
# 4 -0.003877 -0.004192 -0.011097 0.037104 -0.005034 0.010695
# 5 -0.000026 -0.000693 0.011007 -0.005034 0.048091 -0.011483
# 6 -0.004543 0.001091 -0.010699 0.010695 -0.011483 0.036372
#
#
# Mechanical properties :
#
#
# Convention : Reuss Voigt Hill
#
# Bulk Modulus (GPa) = 27.03417 54.87857 40.95637
# Shear Modulus (GPa) = 22.52021 31.22051 26.87036
#
# Velocity S-wave (km/s) = 3.11432 3.66689 3.40184
# Velocity P-wave (km/s) = 4.95733 6.44695 5.75058
#
# Compressibility (1/GPa) = 0.03699022
#
# Stress axis : x y z
#
# Youngs Moduli (GPa) = 51.12649 115.74269 29.10451
#
# Poissons Ratio (x) = 0.37826 0.18517
# Poissons Ratio (y) = 0.16709 0.09178
# Poissons Ratio (z) = 0.32528 0.36500
#
# Static dielectric constant tensor:
#      x y z
#    x 1.998690 0.040380 -0.031000 
#    y 0.040380 1.884710 0.027300 
#    z -0.031000 0.027300 1.952830 
# 
# From -- ./inp_files/405708.got.cif
#   From: 2010.05.17/outbox.cif.g08.bks.cpg/sg2_203_cif.got.tgz:405708.got - 2010.06.03 11:33:40.
