data_PCOD9100342
_publ_section_title
;
Structure prediction by ZEFSAII (Michael W. Deem and Ramdas Pophale) SiO2 
 PCOD9100342
Probable space group: P -1
;
_chemical_formula_sum "Si O2"
_cell_formula_units_Z 16
_cell_length_a 6.948212
_cell_length_b 19.238880
_cell_length_c 5.166212
_cell_angle_alpha 113.069015
_cell_angle_beta 109.911201
_cell_angle_gamma 69.751066
_cell_volume 579.058882
_symmetry_space_group_name_H-M "P -1"
_symmetry_group_IT_number 2
_symmetry_cell_setting 'triclinic'
loop_
_space_group_symop_operation_xyz
x,y,z
-x,-y,-z
loop_
_atom_site_type_symbol
_atom_site_label
_atom_site_fract_x
_atom_site_fract_y
_atom_site_fract_z
Si Si1 0.383080 0.063993 0.748519
Si Si2 0.128219 0.805331 0.703136
Si Si3 0.465963 0.815700 0.272000
Si Si4 0.208665 0.283155 0.359184
Si Si5 0.983594 0.436241 0.691259
Si Si6 0.382443 0.542584 0.761322
Si Si7 0.221595 0.942462 0.704991
Si Si8 0.131553 0.677400 0.132827
O O1 0.351983 0.147417 0.721075
O O2 0.500000 0.000000 0.500000
O O3 0.188734 0.032118 0.726956
O O4 0.558163 0.067114 0.049492
O O5 0.952737 0.770803 0.715529
O O6 0.082990 0.898034 0.751190
O O7 0.158041 0.757224 0.378916
O O8 0.342392 0.784408 0.941844
O O9 0.290052 0.888465 0.409229
O O10 0.575867 0.765484 0.490951
O O11 0.182953 0.368248 0.603248
O O12 0.108354 0.308604 0.068020
O O13 0.847941 0.468515 0.424016
O O14 0.852691 0.382174 0.707683
O O15 0.000000 0.500000 0.000000
O O16 0.500000 0.500000 0.500000
O O17 0.500000 0.500000 0.000000
O O18 0.307188 0.633997 0.943001
#
# Coordination Sequence:
#
# PCOD9100342 Si02
#       8
#     2   2   2   2   2   2   2   2
#     4   8  16  32  58  88 124 162 211 264 315 383
#     4  10  21  39  61  89 127 170 216 264 327 388
#     4  10  20  37  63  94 123 170 215 262 328 389
#     4  10  23  40  60  90 132 164 210 269 327 389
#     4  10  23  44  64  91 126 167 211 270 328 394
#     4  11  22  42  67  94 122 164 213 264 326 392
#     4   9  17  33  59  90 122 165 214 264 321 382
#     4  10  22  42  63  87 131 167 208 270 328 388
#
# _framework density 27.631041
#
# number of rings (size 3 to 8) (size 9 to 14) (size 15 to 20)
#    0.000    2.250    1.250    0.750    0.000    7.000 
#    2.250    0.625    0.000   30.750    0.000    0.000 
#    0.000    0.000    0.000    0.000    0.000    0.000 
#
# Total GULP energy -89315.419396 kJ/mol
# GULP energy per Si atom -5582.213712 kJ/mol
# Density = 2.756815 g / cm^3
# Si number density = 27.631041 Si / 1000 Ang^3
#
#
#
# Elastic Constant Matrix: (Units=GPa)
#
#
# Indices 1 2 3 4 5 6 
#
# 1 52.6917 9.9105 17.5127 1.7547 9.0047 -2.2788
# 2 9.9105 85.2336 45.1802 -18.9667 20.5440 -11.0998
# 3 17.5127 45.1802 196.8768 -12.2141 -10.3361 -14.6073
# 4 1.7547 -18.9667 -12.2141 55.5912 0.1899 13.9965
# 5 9.0047 20.5440 -10.3361 0.1899 42.7912 8.3229
# 6 -2.2788 -11.0998 -14.6073 13.9965 8.3229 42.0293
#
#
#
# Elastic Compliance Matrix: (Units=1/GPa)
#
#
# Indices 1 2 3 4 5 6 
#
# 1 0.020700 -0.000222 -0.002017 -0.001638 -0.005102 0.001918
# 2 -0.000222 0.017844 -0.004061 0.004254 -0.010280 0.003908
# 3 -0.002017 -0.004061 0.006415 0.000004 0.003869 0.000280
# 4 -0.001638 0.004254 0.000004 0.020958 -0.000659 -0.005813
# 5 -0.005102 -0.010280 0.003869 -0.000659 0.031819 -0.007728
# 6 0.001918 0.003908 0.000280 -0.005813 -0.007728 0.028493
#
#
# Mechanical properties :
#
#
# Convention : Reuss Voigt Hill
#
# Bulk Modulus (GPa) = 30.90450 53.33433 42.11942
# Shear Modulus (GPa) = 33.41856 45.56225 39.49040
#
# Velocity S-wave (km/s) = 3.48150 4.06513 3.78458
# Velocity P-wave (km/s) = 5.23164 6.43257 5.86294
#
# Compressibility (1/GPa) = 0.03235775
#
# Stress axis : x y z
#
# Youngs Moduli (GPa) = 48.30880 56.03978 155.88732
#
# Poissons Ratio (x) = 0.01246 0.31450
# Poissons Ratio (y) = 0.01074 0.63307
# Poissons Ratio (z) = 0.09746 0.22758
#
# Static dielectric constant tensor:
#      x y z
#    x 2.436550 0.040440 -0.011740 
#    y 0.040440 2.276170 -0.044830 
#    z -0.011740 -0.044830 2.138750 
# 
# From -- ./inp_files/53881.got.cif
#   From: 2010.05.17/outbox.cif.g08.bks.cpg/sg2_27_cif.got.tgz:53881.got - 2010.06.03 11:33:40.
