data_PCOD9100669
_publ_section_title
;
Structure prediction by ZEFSAII (Michael W. Deem and Ramdas Pophale) SiO2 
 PCOD9100669
Probable space group: P -1
;
_chemical_formula_sum "Si O2"
_cell_formula_units_Z 16
_cell_length_a 6.944924
_cell_length_b 10.374649
_cell_length_c 20.926928
_cell_angle_alpha 31.057247
_cell_angle_beta 62.178269
_cell_angle_gamma 49.178321
_cell_volume 571.602694
_symmetry_space_group_name_H-M "P -1"
_symmetry_group_IT_number 2
_symmetry_cell_setting 'triclinic'
loop_
_space_group_symop_operation_xyz
x,y,z
-x,-y,-z
loop_
_atom_site_type_symbol
_atom_site_label
_atom_site_fract_x
_atom_site_fract_y
_atom_site_fract_z
Si Si1 0.523464 0.216142 0.477632
Si Si2 0.814010 0.167294 0.018457
Si Si3 0.086417 0.151563 0.519732
Si Si4 0.328641 0.372833 0.860553
Si Si5 0.733360 0.740675 0.756411
Si Si6 0.913566 0.147359 0.687445
Si Si7 0.749655 0.928053 0.912502
Si Si8 0.708966 0.815765 0.281679
O O1 0.297684 0.234634 0.461961
O O2 0.346902 0.514010 0.420707
O O3 0.773735 0.120542 0.435769
O O4 0.643692 0.919331 0.628944
O O5 0.715883 0.974291 0.147847
O O6 0.641458 0.512169 0.876111
O O7 0.993916 0.172252 0.043157
O O8 0.000000 0.000000 0.000000
O O9 0.045095 0.050864 0.638106
O O10 0.832230 0.463015 0.403941
O O11 0.553372 0.297730 0.806496
O O12 0.047070 0.544100 0.799230
O O13 0.500000 0.000000 0.000000
O O14 0.282504 0.357947 0.950249
O O15 0.578509 0.997408 0.723737
O O16 0.823252 0.956106 0.818044
O O17 0.116406 0.159900 0.699432
#
# Coordination Sequence:
#
# PCOD9100669 Si02
#       8
#     2   2   2   2   2   2   2   2
#     4  10  19  28  48  76 102 141 161 197 257 307
#     4  10  19  29  47  76 104 125 158 214 259 302
#     4  10  18  31  46  72 112 135 161 196 259 309
#     4   7  16  34  53  71  89 134 179 206 241 296
#     4  11  17  31  51  74  98 131 175 204 249 301
#     4  10  16  32  50  71 106 129 163 209 249 303
#     4   7  16  32  52  70  95 134 169 202 250 297
#     4  10  18  30  46  72 103 130 164 208 250 305
#
# _framework density 27.991472000000002
#
# number of rings (size 3 to 8) (size 9 to 14) (size 15 to 20)
#    0.750    1.750    2.500    1.875    0.000    1.000 
#    0.000    0.625    0.000    1.500    6.500    0.000 
#    0.000    0.000    0.000    0.000    0.000    0.000 
#
# Total GULP energy -89109.416091 kJ/mol
# GULP energy per Si atom -5569.338506 kJ/mol
# Density = 2.792776 g / cm^3
# Si number density = 27.991472 Si / 1000 Ang^3
#
#
#
# Elastic Constant Matrix: (Units=GPa)
#
#
# Indices 1 2 3 4 5 6 
#
# 1 93.1761 13.1568 4.0366 2.3321 4.4727 -9.7899
# 2 13.1568 127.9132 55.8128 32.1790 2.9792 -6.7583
# 3 4.0366 55.8128 119.6142 4.3267 17.5292 1.6234
# 4 2.3321 32.1790 4.3267 49.0673 -5.4631 3.0814
# 5 4.4727 2.9792 17.5292 -5.4631 25.9776 4.4703
# 6 -9.7899 -6.7583 1.6234 3.0814 4.4703 33.0209
#
#
#
# Elastic Compliance Matrix: (Units=1/GPa)
#
#
# Indices 1 2 3 4 5 6 
#
# 1 0.011379 -0.001003 0.000474 -0.000470 -0.002879 0.003579
# 2 -0.001003 0.012497 -0.005605 -0.007820 0.000323 0.003222
# 3 0.000474 -0.005605 0.011921 0.001881 -0.006945 -0.000828
# 4 -0.000470 -0.007820 0.001881 0.026370 0.006136 -0.005124
# 5 -0.002879 0.000323 -0.006945 0.006136 0.046181 -0.007271
# 6 0.003579 0.003222 -0.000828 -0.005124 -0.007271 0.033507
#
#
# Mechanical properties :
#
#
# Convention : Reuss Voigt Hill
#
# Bulk Modulus (GPa) = 42.50138 54.07954 48.29046
# Shear Modulus (GPa) = 30.87063 39.45964 35.16514
#
# Velocity S-wave (km/s) = 3.32453 3.75867 3.54825
# Velocity P-wave (km/s) = 5.47297 6.18052 5.83747
#
# Compressibility (1/GPa) = 0.02352865
#
# Stress axis : x y z
#
# Youngs Moduli (GPa) = 87.87785 80.02064 83.88822
#
# Poissons Ratio (x) = 0.08026 -0.03979
# Poissons Ratio (y) = 0.08814 0.47023
# Poissons Ratio (z) = -0.04168 0.44855
#
# Static dielectric constant tensor:
#      x y z
#    x 2.114650 -0.049250 -0.112230 
#    y -0.049250 1.649140 -0.249920 
#    z -0.112230 -0.249920 2.168350 
# 
# From -- ./inp_files/474842.got.cif
#   From: 2010.05.17/outbox.cif.g08.bks.cpg/sg2_238_cif.got.tgz:474842.got - 2010.06.03 11:33:40.
