data_PCOD9100399
_publ_section_title
;
Structure prediction by ZEFSAII (Michael W. Deem and Ramdas Pophale) SiO2 
 PCOD9100399
Probable space group: P -1
;
_chemical_formula_sum "Si O2"
_cell_formula_units_Z 16
_cell_length_a 12.164842
_cell_length_b 11.510273
_cell_length_c 9.551889
_cell_angle_alpha 106.776416
_cell_angle_beta 49.546679
_cell_angle_gamma 129.602739
_cell_volume 766.117427
_symmetry_space_group_name_H-M "P -1"
_symmetry_group_IT_number 2
_symmetry_cell_setting 'triclinic'
loop_
_space_group_symop_operation_xyz
x,y,z
-x,-y,-z
loop_
_atom_site_type_symbol
_atom_site_label
_atom_site_fract_x
_atom_site_fract_y
_atom_site_fract_z
Si Si1 0.687481 0.168398 0.859692
Si Si2 0.748079 0.699522 0.161017
Si Si3 0.884145 0.121880 0.901566
Si Si4 0.205921 0.195867 0.148958
Si Si5 0.568222 0.782144 0.541705
Si Si6 0.321647 0.859873 0.680897
Si Si7 0.454546 0.642827 0.887759
Si Si8 0.150189 0.852075 0.559850
O O1 0.744482 0.163717 0.654388
O O2 0.847919 0.200054 0.837540
O O3 0.649638 0.290031 0.954465
O O4 0.500000 0.000000 0.000000
O O5 0.595925 0.690509 0.375135
O O6 0.677912 0.535031 0.105600
O O7 0.794799 0.800365 0.018248
O O8 0.921613 0.773789 0.145242
O O9 0.733663 0.078512 0.128470
O O10 0.849828 0.969433 0.819783
O O11 0.402685 0.321333 0.097887
O O12 0.055489 0.215153 0.328594
O O13 0.383131 0.763225 0.659000
O O14 0.563769 0.733576 0.686880
O O15 0.737976 0.963774 0.446326
O O16 0.162954 0.782818 0.668898
O O17 0.500000 0.000000 0.500000
#
# Coordination Sequence:
#
# PCOD9100399 Si02
#       8
#     2   2   2   2   2   2   2   2
#     4  12  23  43  68  97 131 173 217 268 324 382
#     4  12  27  44  65 100 134 175 214 265 335 388
#     4  12  22  42  71  94 131 169 226 273 311 383
#     4  12  24  43  68  98 131 173 219 272 321 384
#     4  11  22  42  68  95 130 171 218 268 325 382
#     4  10  20  37  64 100 128 159 216 278 317 370
#     4  12  27  45  65  95 140 174 212 266 334 395
#     4  11  22  39  68 103 125 164 224 275 317 377
#
# _framework density 20.884526000000001
#
# number of rings (size 3 to 8) (size 9 to 14) (size 15 to 20)
#    0.000    0.500    6.250    3.375    3.500    1.500 
#    0.000    0.625    0.000    0.000    0.000    0.000 
#    0.000    0.000    0.000    0.000    0.000    0.000 
#
# Total GULP energy -89488.058650 kJ/mol
# GULP energy per Si atom -5593.003666 kJ/mol
# Density = 2.083699 g / cm^3
# Si number density = 20.884526 Si / 1000 Ang^3
#
#
#
# Elastic Constant Matrix: (Units=GPa)
#
#
# Indices 1 2 3 4 5 6 
#
# 1 101.5036 21.6517 3.8557 -2.2297 -6.1669 -0.4100
# 2 21.6517 69.9623 -5.1887 26.3680 -11.7428 4.1549
# 3 3.8557 -5.1887 81.3060 24.1249 -8.9846 -8.6285
# 4 -2.2297 26.3680 24.1249 25.1708 -8.4481 -3.2817
# 5 -6.1669 -11.7428 -8.9846 -8.4481 35.7833 6.4507
# 6 -0.4100 4.1549 -8.6285 -3.2817 6.4507 20.4201
#
#
#
# Elastic Compliance Matrix: (Units=1/GPa)
#
#
# Indices 1 2 3 4 5 6 
#
# 1 0.014012 -0.014920 -0.008913 0.026146 0.000824 0.003493
# 2 -0.014920 0.056594 0.029811 -0.089448 0.005110 -0.015208
# 3 -0.008913 0.029811 0.033459 -0.063763 0.002140 -0.003030
# 4 0.026146 -0.089448 -0.063763 0.200677 0.002320 0.023300
# 5 0.000824 0.005110 0.002140 0.002320 0.032664 -0.010065
# 6 0.003493 -0.015208 -0.003030 0.023300 -0.010065 0.057780
#
#
# Mechanical properties :
#
#
# Convention : Reuss Voigt Hill
#
# Bulk Modulus (GPa) = 8.61923 32.60104 20.61014
# Shear Modulus (GPa) = 11.85104 31.77172 21.81138
#
# Velocity S-wave (km/s) = 2.38472 3.90462 3.23519
# Velocity P-wave (km/s) = 3.42324 5.99768 4.88317
#
# Compressibility (1/GPa) = 0.11601965
#
# Stress axis : x y z
#
# Youngs Moduli (GPa) = 71.36946 17.66959 29.88743
#
# Poissons Ratio (x) = 0.26364 0.26638
# Poissons Ratio (y) = 1.06486 -0.89096
# Poissons Ratio (z) = 0.63610 -0.52674
#
# Static dielectric constant tensor:
#      x y z
#    x 1.795520 0.002770 0.004760 
#    y 0.002770 1.732750 -0.019560 
#    z 0.004760 -0.019560 1.728780 
# 
# From -- ./inp_files/259433.got.cif
#   From: 2010.05.17/outbox.cif.g08.bks.cpg/sg2_130_cif.got.tgz:259433.got - 2010.06.03 11:33:40.
