data_PCOD9100361
_publ_section_title
;
Structure prediction by ZEFSAII (Michael W. Deem and Ramdas Pophale) SiO2 
 PCOD9100361
Probable space group: P -1
;
_chemical_formula_sum "Si O2"
_cell_formula_units_Z 16
_cell_length_a 13.517105
_cell_length_b 13.365272
_cell_length_c 8.655189
_cell_angle_alpha 89.142166
_cell_angle_beta 134.709947
_cell_angle_gamma 55.278470
_cell_volume 641.682424
_symmetry_space_group_name_H-M "P -1"
_symmetry_group_IT_number 2
_symmetry_cell_setting 'triclinic'
loop_
_space_group_symop_operation_xyz
x,y,z
-x,-y,-z
loop_
_atom_site_type_symbol
_atom_site_label
_atom_site_fract_x
_atom_site_fract_y
_atom_site_fract_z
Si Si1 0.806909 0.407302 0.377011
Si Si2 0.314574 0.835743 0.445718
Si Si3 0.730501 0.116362 0.947646
Si Si4 0.291590 0.062148 0.917927
Si Si5 0.170165 0.474967 0.340305
Si Si6 0.114612 0.541197 0.935471
Si Si7 0.248839 0.078231 0.530695
Si Si8 0.700897 0.237963 0.240835
O O1 0.787927 0.443309 0.534962
O O2 0.755210 0.323688 0.280577
O O3 0.590917 0.600726 0.070141
O O4 0.086549 0.265088 0.656693
O O5 0.218108 0.868530 0.165609
O O6 0.208519 0.849628 0.487738
O O7 0.280532 0.973714 0.441567
O O8 0.597976 0.638516 0.756270
O O9 0.437817 0.276362 0.617576
O O10 0.804844 0.958362 0.062176
O O11 0.776830 0.147014 0.160494
O O12 0.301750 0.002428 0.762664
O O13 0.538493 0.965259 0.243951
O O14 0.018121 0.481935 0.269219
O O15 0.047103 0.572583 0.041693
O O16 0.001775 0.713142 0.755171
#
# Coordination Sequence:
#
# PCOD9100361 Si02
#       8
#     2   2   2   2   2   2   2   2
#     4  10  22  39  69  85 122 175 210 264 319 366
#     4  11  23  40  67  95 128 171 208 258 320 374
#     4  10  21  40  61  89 132 161 205 263 314 369
#     4  11  22  38  59  96 125 164 207 260 319 374
#     4   9  19  38  59  94 126 164 207 257 314 383
#     4  10  20  37  63  95 132 163 204 259 318 381
#     4  11  23  38  63  99 132 162 209 260 314 397
#     4  10  22  46  62  91 123 167 224 260 308 376
#
# _framework density 24.934452
#
# number of rings (size 3 to 8) (size 9 to 14) (size 15 to 20)
#    0.000    1.750    2.500    1.500    1.750    1.000 
#    0.000   15.625    0.000    0.000    0.000    0.000 
#    0.000    0.000    0.000    0.000    0.000    0.000 
#
# Total GULP energy -89227.364691 kJ/mol
# GULP energy per Si atom -5576.710293 kJ/mol
# Density = 2.487770 g / cm^3
# Si number density = 24.934452 Si / 1000 Ang^3
#
#
#
# Elastic Constant Matrix: (Units=GPa)
#
#
# Indices 1 2 3 4 5 6 
#
# 1 103.7776 31.1379 32.6823 8.7637 -20.4295 -12.6937
# 2 31.1379 114.6778 50.5054 2.1029 -22.3035 -1.2776
# 3 32.6823 50.5054 107.6127 1.2563 -17.1147 -11.5485
# 4 8.7637 2.1029 1.2563 44.3842 -13.2592 1.7075
# 5 -20.4295 -22.3035 -17.1147 -13.2592 37.7594 1.3669
# 6 -12.6937 -1.2776 -11.5485 1.7075 1.3669 22.5895
#
#
#
# Elastic Compliance Matrix: (Units=1/GPa)
#
#
# Indices 1 2 3 4 5 6 
#
# 1 0.012320 -0.001715 -0.001617 -0.001255 0.004268 0.005836
# 2 -0.001715 0.012143 -0.004784 0.001419 0.004688 -0.003113
# 3 -0.001617 -0.004784 0.012934 0.000633 0.002194 0.005252
# 4 -0.001255 0.001419 0.000633 0.025657 0.009557 -0.002819
# 5 0.004268 0.004688 0.002194 0.009557 0.035880 0.000892
# 6 0.005836 -0.003113 0.005252 -0.002819 0.000892 0.050216
#
#
# Mechanical properties :
#
#
# Convention : Reuss Voigt Hill
#
# Bulk Modulus (GPa) = 47.24526 61.63546 54.44036
# Shear Modulus (GPa) = 28.99627 35.06279 32.02953
#
# Velocity S-wave (km/s) = 3.41383 3.75400 3.58795
# Velocity P-wave (km/s) = 5.87605 6.60020 6.24862
#
# Compressibility (1/GPa) = 0.02116615
#
# Stress axis : x y z
#
# Youngs Moduli (GPa) = 81.17081 82.34890 77.31581
#
# Poissons Ratio (x) = 0.14122 0.12502
# Poissons Ratio (y) = 0.13920 0.36984
# Poissons Ratio (z) = 0.13126 0.39392
#
# Static dielectric constant tensor:
#      x y z
#    x 2.070240 -0.022700 0.018280 
#    y -0.022700 2.002140 -0.001800 
#    z 0.018280 -0.001800 2.069240 
# 
# From -- ./inp_files/313453.got.cif
#   From: 2010.05.17/outbox.cif.g08.bks.cpg/sg2_157_cif.got.tgz:313453.got - 2010.06.03 11:33:40.
