data_PCOD9100126
_publ_section_title
;
Structure prediction by ZEFSAII (Michael W. Deem and Ramdas Pophale) SiO2 
 PCOD9100126
Probable space group: P -1
;
_chemical_formula_sum "Si O2"
_cell_formula_units_Z 14
_cell_length_a 21.271998
_cell_length_b 5.257542
_cell_length_c 10.209201
_cell_angle_alpha 68.611780
_cell_angle_beta 151.046560
_cell_angle_gamma 114.745783
_cell_volume 501.975990
_symmetry_space_group_name_H-M "P -1"
_symmetry_group_IT_number 2
_symmetry_cell_setting 'triclinic'
loop_
_space_group_symop_operation_xyz
x,y,z
-x,-y,-z
loop_
_atom_site_type_symbol
_atom_site_label
_atom_site_fract_x
_atom_site_fract_y
_atom_site_fract_z
Si Si1 0.314215 0.763081 0.260600
Si Si2 0.087821 0.303929 0.057004
Si Si3 0.169951 0.461130 0.441254
Si Si4 0.589373 0.096165 0.312146
Si Si5 0.466273 0.478013 0.175485
Si Si6 0.206563 0.542694 0.836106
Si Si7 0.992280 0.083879 0.671668
O O1 0.350651 0.958203 0.421608
O O2 0.442623 0.624263 0.527671
O O3 0.178193 0.566501 0.099845
O O4 0.277438 0.759524 0.040385
O O5 0.945536 0.368618 0.813709
O O6 0.060427 0.071503 0.939395
O O7 0.170063 0.281560 0.340892
O O8 0.305569 0.694194 0.626915
O O9 0.102995 0.218968 0.467635
O O10 0.475988 0.261610 0.117605
O O11 0.462571 0.204746 0.787260
O O12 0.323995 0.481903 0.973005
O O13 0.107658 0.705540 0.553497
O O14 0.116035 0.247207 0.779385
#
# Coordination Sequence:
#
# PCOD9100126 Si02
#       7
#     2   2   2   2   2   2   2
#     4   8  19  37  61  97 119 171 204 263 310 376
#     4   9  19  36  62  93 121 158 210 263 323 361
#     4  10  20  37  62  96 120 162 206 276 307 381
#     4   9  22  38  68  94 127 156 220 253 326 356
#     4  10  21  43  62 100 123 170 205 268 305 381
#     4  10  21  42  60  88 131 167 213 252 315 378
#     4  10  22  40  60  92 124 169 209 258 317 380
#
# _framework density 27.889778
#
# number of rings (size 3 to 8) (size 9 to 14) (size 15 to 20)
#    0.857    1.714    0.000    0.857    2.000    7.429 
#    7.714    5.000    0.000    0.000    0.000    0.000 
#    0.000    0.000    0.000    0.000    0.000    0.000 
#
# Total GULP energy -78168.089663 kJ/mol
# GULP energy per Si atom -5583.434976 kJ/mol
# Density = 2.782630 g / cm^3
# Si number density = 27.889778 Si / 1000 Ang^3
#
#
#
# Elastic Constant Matrix: (Units=GPa)
#
#
# Indices 1 2 3 4 5 6 
#
# 1 96.4228 35.1403 54.5852 8.2176 19.2315 3.1185
# 2 35.1403 103.8828 25.8113 11.1680 -1.8164 19.4610
# 3 54.5852 25.8113 105.2510 21.3654 10.2893 2.1352
# 4 8.2176 11.1680 21.3654 36.3568 -6.2382 -0.1809
# 5 19.2315 -1.8164 10.2893 -6.2382 75.7045 9.0783
# 6 3.1185 19.4610 2.1352 -0.1809 9.0783 39.0051
#
#
#
# Elastic Compliance Matrix: (Units=1/GPa)
#
#
# Indices 1 2 3 4 5 6 
#
# 1 0.016789 -0.004390 -0.007629 0.001453 -0.003463 0.002078
# 2 -0.004390 0.012718 -0.000439 -0.002335 0.002062 -0.006461
# 3 -0.007629 -0.000439 0.015080 -0.007127 -0.000726 0.000139
# 4 0.001453 -0.002335 -0.007127 0.032623 0.003128 0.000862
# 5 -0.003463 0.002062 -0.000726 0.003128 0.014997 -0.004188
# 6 0.002078 -0.006461 0.000139 0.000862 -0.004188 0.029666
#
#
# Mechanical properties :
#
#
# Convention : Reuss Voigt Hill
#
# Bulk Modulus (GPa) = 50.83522 59.62559 55.23041
# Shear Modulus (GPa) = 32.60575 42.88126 37.74351
#
# Velocity S-wave (km/s) = 3.42291 3.92538 3.68273
# Velocity P-wave (km/s) = 5.82138 6.47845 6.15868
#
# Compressibility (1/GPa) = 0.01967140
#
# Stress axis : x y z
#
# Youngs Moduli (GPa) = 59.56115 78.63082 66.31166
#
# Poissons Ratio (x) = 0.34517 0.50592
# Poissons Ratio (y) = 0.26146 0.02910
# Poissons Ratio (z) = 0.45442 0.03450
#
# Static dielectric constant tensor:
#      x y z
#    x 2.240160 -0.014440 -0.136250 
#    y -0.014440 2.134380 0.013330 
#    z -0.136250 0.013330 2.198960 
# 
# From -- ./inp_files/473168.got.cif
#   From: 2010.05.17/outbox.cif.g08.bks.cpg/sg2_237_cif.got.tgz:473168.got - 2010.06.03 11:33:40.
