data_PCOD9100472
_publ_section_title
;
Structure prediction by ZEFSAII (Michael W. Deem and Ramdas Pophale) SiO2 
 PCOD9100472
Probable space group: P -1
;
_chemical_formula_sum "Si O2"
_cell_formula_units_Z 16
_cell_length_a 9.734430
_cell_length_b 9.246831
_cell_length_c 10.538572
_cell_angle_alpha 130.890425
_cell_angle_beta 107.417496
_cell_angle_gamma 92.994505
_cell_volume 642.450075
_symmetry_space_group_name_H-M "P -1"
_symmetry_group_IT_number 2
_symmetry_cell_setting 'triclinic'
loop_
_space_group_symop_operation_xyz
x,y,z
-x,-y,-z
loop_
_atom_site_type_symbol
_atom_site_label
_atom_site_fract_x
_atom_site_fract_y
_atom_site_fract_z
Si Si1 0.810380 0.997715 0.168266
Si Si2 0.131309 0.675799 0.411036
Si Si3 0.517763 0.103081 0.878364
Si Si4 0.417627 0.309551 0.731240
Si Si5 0.859879 0.236934 0.078954
Si Si6 0.132358 0.718924 0.162964
Si Si7 0.478151 0.683225 0.520073
Si Si8 0.277408 0.404034 0.963998
O O1 0.872993 0.178928 0.391369
O O2 0.625619 0.941220 0.092228
O O3 0.876297 0.085195 0.102480
O O4 0.828334 0.786877 0.096277
O O5 0.133142 0.796716 0.348706
O O6 0.294291 0.637504 0.429185
O O7 0.991624 0.460029 0.253507
O O8 0.538422 0.887499 0.735084
O O9 0.454787 0.154684 0.752797
O O10 0.687059 0.244049 0.050134
O O11 0.433128 0.269921 0.564781
O O12 0.269731 0.334186 0.775378
O O13 0.544886 0.537071 0.912143
O O14 0.866944 0.159138 0.892955
O O15 0.263118 0.619345 0.117238
O O16 0.000000 0.500000 0.000000
O O17 0.500000 0.500000 0.500000
#
# Coordination Sequence:
#
# PCOD9100472 Si02
#       8
#     2   2   2   2   2   2   2   2
#     4  10  23  38  63  93 129 163 211 264 315 360
#     4  10  22  43  61  89 132 175 201 256 322 383
#     4  10  21  38  63  95 121 167 213 256 313 381
#     4  10  20  38  63  90 127 162 207 263 317 365
#     4  11  21  38  65  91 121 167 212 255 313 375
#     4  10  21  40  66  87 121 172 211 246 312 384
#     4  11  23  38  62  95 128 160 209 269 315 366
#     4  10  20  37  64  90 120 163 209 261 308 364
#
# _framework density 24.904658000000001
#
# number of rings (size 3 to 8) (size 9 to 14) (size 15 to 20)
#    0.000    1.750    2.500    1.125    1.750    4.000 
#    0.000    8.125    0.000    0.000    0.000    0.000 
#    0.000    0.000    0.000    0.000    0.000    0.000 
#
# Total GULP energy -89254.138763 kJ/mol
# GULP energy per Si atom -5578.383673 kJ/mol
# Density = 2.484797 g / cm^3
# Si number density = 24.904658 Si / 1000 Ang^3
#
#
#
# Elastic Constant Matrix: (Units=GPa)
#
#
# Indices 1 2 3 4 5 6 
#
# 1 66.0748 23.7584 22.5470 -6.7916 6.1304 24.4739
# 2 23.7584 198.1115 47.7491 -18.1887 -26.9983 26.9265
# 3 22.5470 47.7491 82.6143 -3.8075 3.6287 10.6803
# 4 -6.7916 -18.1887 -3.8075 39.7632 10.5938 -5.6034
# 5 6.1304 -26.9983 3.6287 10.5938 40.1665 4.0822
# 6 24.4739 26.9265 10.6803 -5.6034 4.0822 38.1944
#
#
#
# Elastic Compliance Matrix: (Units=1/GPa)
#
#
# Indices 1 2 3 4 5 6 
#
# 1 0.021415 -0.000082 -0.004049 0.002162 -0.002312 -0.011968
# 2 -0.000082 0.007471 -0.003908 0.000884 0.005621 -0.004592
# 3 -0.004049 -0.003908 0.015447 0.000160 -0.003593 0.001437
# 4 0.002162 0.000884 0.000160 0.028353 -0.007523 0.002910
# 5 -0.002312 0.005621 -0.003593 -0.007523 0.031945 -0.005994
# 6 -0.011968 -0.004592 0.001437 0.002910 -0.005994 0.037754
#
#
# Mechanical properties :
#
#
# Convention : Reuss Voigt Hill
#
# Bulk Modulus (GPa) = 35.39131 59.43440 47.41286
# Shear Modulus (GPa) = 29.78305 40.47456 35.12881
#
# Velocity S-wave (km/s) = 3.46191 4.03573 3.75978
# Velocity P-wave (km/s) = 5.49739 6.75520 6.15849
#
# Compressibility (1/GPa) = 0.02825552
#
# Stress axis : x y z
#
# Youngs Moduli (GPa) = 46.69618 133.85563 64.73584
#
# Poissons Ratio (x) = 0.01103 0.26209
# Poissons Ratio (y) = 0.00385 0.25298
# Poissons Ratio (z) = 0.18905 0.52309
#
# Static dielectric constant tensor:
#      x y z
#    x 3.228640 -0.168400 -0.039290 
#    y -0.168400 2.027650 -0.026100 
#    z -0.039290 -0.026100 1.994210 
# 
# From -- ./inp_files/415696.got.cif
#   From: 2010.05.17/outbox.cif.g08.bks.cpg/sg2_208_cif.got.tgz:415696.got - 2010.06.03 11:33:40.
