data_PCOD9100670
_publ_section_title
;
Structure prediction by ZEFSAII (Michael W. Deem and Ramdas Pophale) SiO2 
 PCOD9100670
Probable space group: P -1
;
_chemical_formula_sum "Si O2"
_cell_formula_units_Z 14
_cell_length_a 12.960527
_cell_length_b 9.212249
_cell_length_c 11.351706
_cell_angle_alpha 153.401618
_cell_angle_beta 103.735237
_cell_angle_gamma 79.858805
_cell_volume 587.430776
_symmetry_space_group_name_H-M "P -1"
_symmetry_group_IT_number 2
_symmetry_cell_setting 'triclinic'
loop_
_space_group_symop_operation_xyz
x,y,z
-x,-y,-z
loop_
_atom_site_type_symbol
_atom_site_label
_atom_site_fract_x
_atom_site_fract_y
_atom_site_fract_z
Si Si1 0.991651 0.810467 0.483451
Si Si2 0.463311 0.444274 0.295211
Si Si3 0.880236 0.436323 0.365371
Si Si4 0.452350 0.133909 0.703969
Si Si5 0.698853 0.812855 0.125438
Si Si6 0.681007 0.474126 0.479507
Si Si7 0.113486 0.242789 0.016384
O O1 0.891055 0.586763 0.346542
O O2 0.022137 0.075784 0.785296
O O3 0.075944 0.540573 0.294337
O O4 0.000000 0.000000 0.500000
O O5 0.581843 0.345582 0.275814
O O6 0.381753 0.336958 0.301011
O O7 0.477391 0.839575 0.584441
O O8 0.405353 0.336502 0.081318
O O9 0.783907 0.598532 0.523039
O O10 0.000000 0.500000 0.500000
O O11 0.857160 0.046056 0.096255
O O12 0.328211 0.170759 0.732191
O O13 0.500000 0.000000 0.500000
O O14 0.500000 0.500000 0.000000
O O15 0.794760 0.640976 0.968358
O O16 0.720418 0.177482 0.349471
#
# Coordination Sequence:
#
# PCOD9100670 Si02
#       7
#     2   2   2   2   2   2   2
#     4  11  23  43  65  96 133 167 211 277 332 380
#     4  10  20  37  65  89 132 161 214 265 322 369
#     4   9  20  40  66  94 128 166 224 264 322 385
#     4  11  22  39  59  87 126 171 213 252 307 383
#     4  10  21  37  66  90 124 168 215 260 316 386
#     4   9  20  38  60  98 121 166 208 275 320 376
#     4  10  23  40  70  92 125 171 223 262 322 391
#
# _framework density 23.832594
#
# number of rings (size 3 to 8) (size 9 to 14) (size 15 to 20)
#    0.000    2.000    1.429    1.286    8.000    0.000 
#    7.714    0.000    0.000    0.000    0.000    0.000 
#    0.000    0.000    0.000    0.000    0.000    0.000 
#
# Total GULP energy -77952.385042 kJ/mol
# GULP energy per Si atom -5568.027503 kJ/mol
# Density = 2.377835 g / cm^3
# Si number density = 23.832594 Si / 1000 Ang^3
#
#
#
# Elastic Constant Matrix: (Units=GPa)
#
#
# Indices 1 2 3 4 5 6 
#
# 1 172.0064 45.8572 33.6245 -8.1928 -20.3001 50.3651
# 2 45.8572 96.3617 20.8093 9.8502 3.4305 40.8994
# 3 33.6245 20.8093 104.0826 4.6124 -11.7913 4.8031
# 4 -8.1928 9.8502 4.6124 26.2184 3.9656 3.8758
# 5 -20.3001 3.4305 -11.7913 3.9656 28.4520 -9.5135
# 6 50.3651 40.8994 4.8031 3.8758 -9.5135 47.0664
#
#
#
# Elastic Compliance Matrix: (Units=1/GPa)
#
#
# Indices 1 2 3 4 5 6 
#
# 1 0.009781 -0.000539 -0.002586 0.004841 0.002047 -0.009719
# 2 -0.000539 0.019768 -0.003966 -0.002715 -0.010053 -0.018005
# 3 -0.002586 -0.003966 0.011778 -0.003286 0.006154 0.006526
# 4 0.004841 -0.002715 -0.003286 0.043239 -0.006037 -0.007266
# 5 0.002047 -0.010053 0.006154 -0.006037 0.046499 0.015813
# 6 -0.009719 -0.018005 0.006526 -0.007266 0.015813 0.050422
#
#
# Mechanical properties :
#
#
# Convention : Reuss Voigt Hill
#
# Bulk Modulus (GPa) = 36.83899 63.67030 50.25465
# Shear Modulus (GPa) = 24.42402 38.49135 31.45769
#
# Velocity S-wave (km/s) = 3.20475 4.02316 3.63704
# Velocity P-wave (km/s) = 5.40230 6.95375 6.22654
#
# Compressibility (1/GPa) = 0.02714515
#
# Stress axis : x y z
#
# Youngs Moduli (GPa) = 102.23895 50.58736 84.90554
#
# Poissons Ratio (x) = 0.02725 0.21958
# Poissons Ratio (y) = 0.05506 0.33673
# Poissons Ratio (z) = 0.26441 0.20063
#
# Static dielectric constant tensor:
#      x y z
#    x 2.114390 -0.013960 -0.111320 
#    y -0.013960 2.004250 0.012090 
#    z -0.111320 0.012090 2.066610 
# 
# From -- ./inp_files/420225.got.cif
#   From: 2010.05.17/outbox.cif.g08.bks.cpg/sg2_211_cif.got.tgz:420225.got - 2010.06.03 11:33:40.
