data_PCOD9100097
_publ_section_title
;
Structure prediction by ZEFSAII (Michael W. Deem and Ramdas Pophale) SiO2 
 PCOD9100097
Probable space group: P -1
;
_chemical_formula_sum "Si O2"
_cell_formula_units_Z 14
_cell_length_a 5.090481
_cell_length_b 9.477106
_cell_length_c 19.601141
_cell_angle_alpha 141.709494
_cell_angle_beta 94.731249
_cell_angle_gamma 88.047375
_cell_volume 583.234459
_symmetry_space_group_name_H-M "P -1"
_symmetry_group_IT_number 2
_symmetry_cell_setting 'triclinic'
loop_
_space_group_symop_operation_xyz
x,y,z
-x,-y,-z
loop_
_atom_site_type_symbol
_atom_site_label
_atom_site_fract_x
_atom_site_fract_y
_atom_site_fract_z
Si Si1 0.094679 0.259158 0.587298
Si Si2 0.643913 0.747732 0.087259
Si Si3 0.960680 0.183681 0.404627
Si Si4 0.384737 0.472277 0.282342
Si Si5 0.534423 0.614326 0.893485
Si Si6 0.554471 0.798047 0.679555
Si Si7 0.979004 0.674757 0.186766
O O1 0.394402 0.320304 0.637504
O O2 0.902907 0.427978 0.685100
O O3 0.052751 0.296694 0.519799
O O4 0.000000 0.000000 0.500000
O O5 0.918034 0.725502 0.124938
O O6 0.503647 0.948906 0.198762
O O7 0.500000 0.500000 0.000000
O O8 0.641160 0.783492 0.019576
O O9 0.927701 0.910680 0.312666
O O10 0.180736 0.208254 0.360470
O O11 0.688104 0.267021 0.400898
O O12 0.430707 0.316965 0.158235
O O13 0.431127 0.349678 0.308169
O O14 0.238008 0.519748 0.867912
O O15 0.729436 0.404378 0.825316
#
# Coordination Sequence:
#
# PCOD9100097 Si02
#       7
#     2   2   2   2   2   2   2
#     4  12  26  44  68  93 120 162 211 255 308 366
#     4   9  20  38  65  93 121 161 209 252 301 366
#     4  11  22  41  65  88 123 161 204 258 306 359
#     4  12  26  42  61  93 131 163 204 253 305 371
#     4  11  21  37  61  88 127 163 199 255 310 356
#     4  11  25  41  62  94 127 163 205 250 308 368
#     4  10  20  37  62  94 120 155 207 262 306 356
#
# _framework density 24.004065000000001
#
# number of rings (size 3 to 8) (size 9 to 14) (size 15 to 20)
#    0.000    1.143    0.000    7.714    0.000    7.429 
#    0.000    0.000    0.000   10.286    0.000    0.000 
#    0.000    0.000    0.000    0.000    0.000    0.000 
#
# Total GULP energy -78411.350291 kJ/mol
# GULP energy per Si atom -5600.810735 kJ/mol
# Density = 2.394943 g / cm^3
# Si number density = 24.004065 Si / 1000 Ang^3
#
#
#
# Elastic Constant Matrix: (Units=GPa)
#
#
# Indices 1 2 3 4 5 6 
#
# 1 89.4903 14.5661 -4.9780 -9.3587 1.7247 -2.4938
# 2 14.5661 72.2030 5.2918 -15.1381 -0.9285 4.7147
# 3 -4.9780 5.2918 97.6636 -36.3446 1.1431 9.2939
# 4 -9.3587 -15.1381 -36.3446 53.8420 -4.9371 -8.0468
# 5 1.7247 -0.9285 1.1431 -4.9371 23.8174 -11.9402
# 6 -2.4938 4.7147 9.2939 -8.0468 -11.9402 28.8464
#
#
#
# Elastic Compliance Matrix: (Units=1/GPa)
#
#
# Indices 1 2 3 4 5 6 
#
# 1 0.011944 -0.002030 0.001625 0.002931 0.000526 0.001876
# 2 -0.002030 0.015212 0.000809 0.004361 0.000946 -0.001314
# 3 0.001625 0.000809 0.014078 0.009819 0.000476 -0.001592
# 4 0.002931 0.004361 0.009819 0.029115 0.009814 0.008561
# 5 0.000526 0.000946 0.000476 0.009814 0.057083 0.026103
# 6 0.001876 -0.001314 -0.001592 0.008561 0.026103 0.048749
#
#
# Mechanical properties :
#
#
# Convention : Reuss Voigt Hill
#
# Bulk Modulus (GPa) = 23.78581 32.12405 27.95493
# Shear Modulus (GPa) = 26.40092 37.59964 32.00028
#
# Velocity S-wave (km/s) = 3.32000 3.96205 3.65515
# Velocity P-wave (km/s) = 4.96257 5.86023 5.42998
#
# Compressibility (1/GPa) = 0.04204188
#
# Stress axis : x y z
#
# Youngs Moduli (GPa) = 83.72547 65.73620 71.03279
#
# Poissons Ratio (x) = 0.13344 -0.11541
# Poissons Ratio (y) = 0.16995 -0.05747
# Poissons Ratio (z) = -0.13603 -0.05319
#
# Static dielectric constant tensor:
#      x y z
#    x 1.849130 0.019200 -0.002480 
#    y 0.019200 1.963780 -0.046460 
#    z -0.002480 -0.046460 1.944090 
# 
# From -- ./inp_files/118452.got.cif
#   From: 2010.05.17/outbox.cif.g08.bks.cpg/sg2_60_cif.got.tgz:118452.got - 2010.06.03 11:33:40.
