data_PCOD9100069
_publ_section_title
;
Structure prediction by ZEFSAII (Michael W. Deem and Ramdas Pophale) SiO2 
 PCOD9100069
Probable space group: P -1
;
_chemical_formula_sum "Si O2"
_cell_formula_units_Z 14
_cell_length_a 7.012828
_cell_length_b 14.814405
_cell_length_c 15.035476
_cell_angle_alpha 150.402408
_cell_angle_beta 77.097983
_cell_angle_gamma 118.397359
_cell_volume 610.149910
_symmetry_space_group_name_H-M "P -1"
_symmetry_group_IT_number 2
_symmetry_cell_setting 'triclinic'
loop_
_space_group_symop_operation_xyz
x,y,z
-x,-y,-z
loop_
_atom_site_type_symbol
_atom_site_label
_atom_site_fract_x
_atom_site_fract_y
_atom_site_fract_z
Si Si1 0.145251 0.734300 0.786309
Si Si2 0.828601 0.065905 0.291339
Si Si3 0.457246 0.884077 0.030038
Si Si4 0.186284 0.942791 0.409978
Si Si5 0.753693 0.573252 0.574798
Si Si6 0.742407 0.310512 0.661409
Si Si7 0.054319 0.827810 0.126439
O O1 0.229085 0.635253 0.618326
O O2 0.873418 0.654988 0.731482
O O3 0.331642 0.995938 0.964601
O O4 0.238013 0.684866 0.823092
O O5 0.782892 0.218503 0.487220
O O6 0.040566 0.226549 0.337142
O O7 0.593528 0.883484 0.101395
O O8 0.918689 0.945907 0.236591
O O9 0.297959 0.963493 0.156843
O O10 0.175611 0.779498 0.344919
O O11 0.130621 0.833689 0.224574
O O12 0.454640 0.173093 0.580653
O O13 0.000000 0.000000 0.500000
O O14 0.500000 0.500000 0.500000
O O15 0.878741 0.575111 0.890195
#
# Coordination Sequence:
#
# PCOD9100069 Si02
#       7
#     2   2   2   2   2   2   2
#     4   9  20  38  60  89 129 180 218 270 334 376
#     4  11  23  42  64  99 134 171 229 274 324 400
#     4  10  21  40  62  91 134 171 225 279 319 395
#     4  11  24  47  70  97 135 169 221 276 331 407
#     4  10  20  37  62  92 132 175 222 271 325 389
#     4  11  25  45  69  97 133 175 217 275 334 398
#     4  12  24  42  69 100 131 177 218 274 341 390
#
# _framework density 22.945181000000002
#
# number of rings (size 3 to 8) (size 9 to 14) (size 15 to 20)
#    0.000    1.429    2.857    2.143    0.000    2.857 
#    5.143    4.286    0.000    0.000    0.000    0.000 
#    0.000    0.000    0.000    0.000    0.000    0.000 
#
# Total GULP energy -77982.475149 kJ/mol
# GULP energy per Si atom -5570.176796 kJ/mol
# Density = 2.289296 g / cm^3
# Si number density = 22.945181 Si / 1000 Ang^3
#
#
#
# Elastic Constant Matrix: (Units=GPa)
#
#
# Indices 1 2 3 4 5 6 
#
# 1 173.5170 17.8702 33.2310 -0.1564 27.8483 -5.3493
# 2 17.8702 45.8882 21.3826 -5.6216 8.8379 -4.4786
# 3 33.2310 21.3826 73.3195 -5.2419 17.6074 -4.1858
# 4 -0.1564 -5.6216 -5.2419 34.3435 -8.5165 6.3285
# 5 27.8483 8.8379 17.6074 -8.5165 36.3515 -18.7807
# 6 -5.3493 -4.4786 -4.1858 6.3285 -18.7807 28.7196
#
#
#
# Elastic Compliance Matrix: (Units=1/GPa)
#
#
# Indices 1 2 3 4 5 6 
#
# 1 0.007103 -0.001271 -0.001641 -0.001427 -0.006119 -0.002801
# 2 -0.001271 0.025972 -0.006565 0.002761 -0.000532 0.001900
# 3 -0.001641 -0.006565 0.017969 0.000454 -0.007746 -0.003876
# 4 -0.001427 0.002761 0.000454 0.031672 0.006247 -0.002663
# 5 -0.006119 -0.000532 -0.007746 0.006247 0.053788 0.031446
# 6 -0.002801 0.001900 -0.003876 -0.002663 0.031446 0.055179
#
#
# Mechanical properties :
#
#
# Convention : Reuss Voigt Hill
#
# Bulk Modulus (GPa) = 31.16211 48.63247 39.89729
# Shear Modulus (GPa) = 22.59036 34.56565 28.57800
#
# Velocity S-wave (km/s) = 3.14114 3.88551 3.53298
# Velocity P-wave (km/s) = 5.17361 6.43200 5.83682
#
# Compressibility (1/GPa) = 0.03209026
#
# Stress axis : x y z
#
# Youngs Moduli (GPa) = 140.79057 38.50253 55.65262
#
# Poissons Ratio (x) = 0.04894 0.09133
# Poissons Ratio (y) = 0.17896 0.36534
# Poissons Ratio (z) = 0.23104 0.25275
#
# Static dielectric constant tensor:
#      x y z
#    x 1.856090 0.001930 0.061770 
#    y 0.001930 2.006110 0.012210 
#    z 0.061770 0.012210 1.968440 
# 
# From -- ./inp_files/44083.got.cif
#   From: 2010.05.17/outbox.cif.g08.bks.cpg/sg2_23_cif.got.tgz:44083.got - 2010.06.03 11:33:40.
