data_PCOD9100713
_publ_section_title
;
Structure prediction by ZEFSAII (Michael W. Deem and Ramdas Pophale) SiO2 
 PCOD9100713
Probable space group: P -1
;
_chemical_formula_sum "Si O2"
_cell_formula_units_Z 14
_cell_length_a 11.845468
_cell_length_b 9.490964
_cell_length_c 14.820696
_cell_angle_alpha 50.477291
_cell_angle_beta 151.834462
_cell_angle_gamma 125.834873
_cell_volume 605.308788
_symmetry_space_group_name_H-M "P -1"
_symmetry_group_IT_number 2
_symmetry_cell_setting 'triclinic'
loop_
_space_group_symop_operation_xyz
x,y,z
-x,-y,-z
loop_
_atom_site_type_symbol
_atom_site_label
_atom_site_fract_x
_atom_site_fract_y
_atom_site_fract_z
Si Si1 0.886040 0.849654 0.397350
Si Si2 0.709145 0.946990 0.517284
Si Si3 0.765740 0.306451 0.511511
Si Si4 0.998851 0.413993 0.131427
Si Si5 0.746161 0.231375 0.177817
Si Si6 0.349052 0.649253 0.385424
Si Si7 0.705461 0.598353 0.208014
O O1 0.676551 0.404018 0.317684
O O2 0.766662 0.729655 0.284054
O O3 0.992847 0.741943 0.600322
O O4 0.719196 0.012027 0.238561
O O5 0.844165 0.761648 0.700635
O O6 0.446814 0.856117 0.345251
O O7 0.722541 0.089595 0.550918
O O8 0.867887 0.054079 0.509649
O O9 0.908940 0.419711 0.805641
O O10 0.049973 0.370951 0.689035
O O11 0.644664 0.360713 0.497426
O O12 0.768873 0.322378 0.057939
O O13 0.000000 0.500000 0.000000
O O14 0.530570 0.328140 0.033050
O O15 0.500000 0.500000 0.500000
#
# Coordination Sequence:
#
# PCOD9100713 Si02
#       7
#     2   2   2   2   2   2   2
#     4   9  19  39  60  98 127 158 222 264 315 391
#     4   9  20  40  63  88 129 168 200 271 327 370
#     4  10  21  40  63  97 133 164 220 258 320 399
#     4  10  22  40  61  95 123 161 224 266 307 389
#     4  10  20  37  65  92 128 167 210 272 322 373
#     4  10  21  39  65  87 120 178 212 262 324 368
#     4  10  21  37  65  92 129 174 202 268 327 380
#
# _framework density 23.128691
#
# number of rings (size 3 to 8) (size 9 to 14) (size 15 to 20)
#    0.000    2.286    0.000    1.714    4.000    1.143 
#    7.714   12.143    0.000    0.000    0.000    0.000 
#    0.000    0.000    0.000    0.000    0.000    0.000 
#
# Total GULP energy -78049.849091 kJ/mol
# GULP energy per Si atom -5574.989221 kJ/mol
# Density = 2.307605 g / cm^3
# Si number density = 23.128691 Si / 1000 Ang^3
#
#
#
# Elastic Constant Matrix: (Units=GPa)
#
#
# Indices 1 2 3 4 5 6 
#
# 1 115.3194 32.4732 30.8309 -7.1433 -0.3127 -11.5147
# 2 32.4732 117.8623 16.2704 -23.2416 -3.0971 -7.7685
# 3 30.8309 16.2704 69.0851 -9.7437 5.8820 6.6426
# 4 -7.1433 -23.2416 -9.7437 21.4605 -3.8918 3.4208
# 5 -0.3127 -3.0971 5.8820 -3.8918 39.2277 -4.1115
# 6 -11.5147 -7.7685 6.6426 3.4208 -4.1115 37.2919
#
#
#
# Elastic Compliance Matrix: (Units=1/GPa)
#
#
# Indices 1 2 3 4 5 6 
#
# 1 0.010994 -0.002372 -0.005053 -0.001684 0.000916 0.004056
# 2 -0.002372 0.011653 -0.000273 0.011968 0.002223 0.000891
# 3 -0.005053 -0.000273 0.018565 0.006882 -0.002777 -0.005861
# 4 -0.001684 0.011968 0.006882 0.063882 0.005768 -0.004477
# 5 0.000916 0.002223 -0.002777 0.005768 0.027051 0.003694
# 6 0.004056 0.000891 -0.005861 -0.004477 0.003694 0.030115
#
#
# Mechanical properties :
#
#
# Convention : Reuss Voigt Hill
#
# Bulk Modulus (GPa) = 38.73657 51.26842 45.00250
# Shear Modulus (GPa) = 26.84418 34.44217 30.64317
#
# Velocity S-wave (km/s) = 3.41052 3.86314 3.64386
# Velocity P-wave (km/s) = 5.68274 6.48947 6.09945
#
# Compressibility (1/GPa) = 0.02581540
#
# Stress axis : x y z
#
# Youngs Moduli (GPa) = 90.96184 85.81683 53.86519
#
# Poissons Ratio (x) = 0.20357 0.27218
# Poissons Ratio (y) = 0.21577 0.01469
# Poissons Ratio (z) = 0.45963 0.02341
#
# Static dielectric constant tensor:
#      x y z
#    x 1.977080 0.058830 0.025780 
#    y 0.058830 1.962530 0.048400 
#    z 0.025780 0.048400 1.943470 
# 
# From -- ./inp_files/572214.got.cif
#   From: 2010.05.17/outbox.cif.g08.bks.cpg/sg2_287_cif.got.tgz:572214.got - 2010.06.03 11:33:40.
