data_PCOD9100226
_publ_section_title
;
Structure prediction by ZEFSAII (Michael W. Deem and Ramdas Pophale) SiO2 
 PCOD9100226
Probable space group: P -1
;
_chemical_formula_sum "Si O2"
_cell_formula_units_Z 16
_cell_length_a 15.471207
_cell_length_b 16.767159
_cell_length_c 9.995039
_cell_angle_alpha 31.087627
_cell_angle_beta 132.990390
_cell_angle_gamma 140.313804
_cell_volume 852.870250
_symmetry_space_group_name_H-M "P -1"
_symmetry_group_IT_number 2
_symmetry_cell_setting 'triclinic'
loop_
_space_group_symop_operation_xyz
x,y,z
-x,-y,-z
loop_
_atom_site_type_symbol
_atom_site_label
_atom_site_fract_x
_atom_site_fract_y
_atom_site_fract_z
Si Si1 0.627304 0.969650 0.196883
Si Si2 0.626782 0.686843 0.396316
Si Si3 0.076486 0.169261 0.529412
Si Si4 0.957482 0.321888 0.401166
Si Si5 0.075635 0.727799 0.982303
Si Si6 0.615909 0.932270 0.830293
Si Si7 0.352720 0.951372 0.595323
Si Si8 0.087908 0.821647 0.145559
O O1 0.610536 0.804473 0.327436
O O2 0.762847 0.145582 0.039618
O O3 0.642883 0.957076 0.391118
O O4 0.500000 0.000000 0.000000
O O5 0.500000 0.500000 0.500000
O O6 0.771466 0.700491 0.549256
O O7 0.641622 0.784433 0.131714
O O8 0.034381 0.253750 0.483622
O O9 0.981298 0.160658 0.318504
O O10 0.068238 0.988494 0.837695
O O11 0.797557 0.215563 0.344475
O O12 0.971573 0.266121 0.648249
O O13 0.019570 0.531826 0.147323
O O14 0.034514 0.698992 0.135862
O O15 0.476163 0.907929 0.778181
O O16 0.616838 0.929098 0.676340
O O17 0.750609 0.109719 0.764480
#
# Coordination Sequence:
#
# PCOD9100226 Si02
#       8
#     2   2   2   2   2   2   2   2
#     4  12  23  40  66  89 119 161 204 254 305 365
#     4  11  25  41  63  89 124 159 200 252 313 364
#     4  11  23  40  60  89 125 164 198 253 307 367
#     4  11  24  36  64  90 124 162 207 254 298 367
#     4  12  23  38  62  96 122 155 210 259 296 361
#     4   9  19  39  61  86 119 161 196 253 295 364
#     4  10  20  37  63  89 118 157 208 241 305 354
#     4  10  21  42  59  87 124 168 201 246 319 356
#
# _framework density 18.760180999999999
#
# number of rings (size 3 to 8) (size 9 to 14) (size 15 to 20)
#    0.000    1.250    5.000    1.500    3.500    0.000 
#    0.000    0.625    0.000    0.000    0.000    0.000 
#    0.000    0.000    0.000    0.000    0.000    0.000 
#
# Total GULP energy -89165.630462 kJ/mol
# GULP energy per Si atom -5572.851904 kJ/mol
# Density = 1.871748 g / cm^3
# Si number density = 18.760181 Si / 1000 Ang^3
#
#
#
# Elastic Constant Matrix: (Units=GPa)
#
#
# Indices 1 2 3 4 5 6 
#
# 1 118.4181 57.3955 20.3716 5.4108 4.4923 -2.5607
# 2 57.3955 100.1230 31.9696 -1.6783 4.3744 -4.3021
# 3 20.3716 31.9696 55.4507 18.2585 -2.5260 -3.0591
# 4 5.4108 -1.6783 18.2585 34.8131 -4.8956 -4.4780
# 5 4.4923 4.3744 -2.5260 -4.8956 30.0499 10.6206
# 6 -2.5607 -4.3021 -3.0591 -4.4780 10.6206 28.6593
#
#
#
# Elastic Compliance Matrix: (Units=1/GPa)
#
#
# Indices 1 2 3 4 5 6 
#
# 1 0.011902 -0.006946 0.000427 -0.002562 -0.001187 0.000106
# 2 -0.006946 0.017430 -0.009780 0.007112 -0.002177 0.002870
# 3 0.000427 -0.009780 0.028614 -0.015485 0.001753 -0.001445
# 4 -0.002562 0.007112 -0.015485 0.038522 0.002856 0.004146
# 5 -0.001187 -0.002177 0.001753 0.002856 0.039486 -0.014432
# 6 0.000106 0.002870 -0.001445 0.004146 -0.014432 0.041175
#
#
# Mechanical properties :
#
#
# Convention : Reuss Voigt Hill
#
# Bulk Modulus (GPa) = 39.44844 54.82947 47.13896
# Shear Modulus (GPa) = 22.91732 29.65482 26.28607
#
# Velocity S-wave (km/s) = 3.49892 3.98016 3.74727
# Velocity P-wave (km/s) = 6.11528 7.10015 6.62604
#
# Compressibility (1/GPa) = 0.02534954
#
# Stress axis : x y z
#
# Youngs Moduli (GPa) = 84.01899 57.37300 34.94741
#
# Poissons Ratio (x) = 0.39850 -0.01494
# Poissons Ratio (y) = 0.58358 0.34178
# Poissons Ratio (z) = -0.03591 0.56110
#
# Static dielectric constant tensor:
#      x y z
#    x 1.685660 0.050400 -0.013290 
#    y 0.050400 1.742040 0.024230 
#    z -0.013290 0.024230 1.660730 
# 
# From -- ./inp_files/272813.got.cif
#   From: 2010.05.17/outbox.cif.g08.bks.cpg/sg2_137_cif.got.tgz:272813.got - 2010.06.03 11:33:40.
