data_PCOD9100402
_publ_section_title
;
Structure prediction by ZEFSAII (Michael W. Deem and Ramdas Pophale) SiO2 
 PCOD9100402
Probable space group: P -1
;
_chemical_formula_sum "Si O2"
_cell_formula_units_Z 16
_cell_length_a 12.813632
_cell_length_b 8.089634
_cell_length_c 13.042342
_cell_angle_alpha 44.936913
_cell_angle_beta 86.831340
_cell_angle_gamma 60.579882
_cell_volume 731.793502
_symmetry_space_group_name_H-M "P -1"
_symmetry_group_IT_number 2
_symmetry_cell_setting 'triclinic'
loop_
_space_group_symop_operation_xyz
x,y,z
-x,-y,-z
loop_
_atom_site_type_symbol
_atom_site_label
_atom_site_fract_x
_atom_site_fract_y
_atom_site_fract_z
Si Si1 0.639299 0.659517 0.655160
Si Si2 0.798514 0.148296 0.005765
Si Si3 0.829862 0.764639 0.496681
Si Si4 0.562101 0.315655 0.683468
Si Si5 0.988697 0.854066 0.925216
Si Si6 0.179900 0.137802 0.235323
Si Si7 0.275594 0.686891 0.615794
Si Si8 0.147525 0.396329 0.671061
O O1 0.676004 0.502140 0.833998
O O2 0.756378 0.667436 0.608615
O O3 0.620711 0.456987 0.676007
O O4 0.500000 0.000000 0.500000
O O5 0.903690 0.091726 0.109580
O O6 0.769729 0.923998 0.132674
O O7 0.885439 0.032329 0.946511
O O8 0.821644 0.682430 0.416729
O O9 0.985377 0.581486 0.604600
O O10 0.756079 0.121274 0.363786
O O11 0.500000 0.500000 0.500000
O O12 0.435347 0.399323 0.717910
O O13 0.691876 0.974996 0.793773
O O14 0.078995 0.495954 0.101141
O O15 0.906642 0.929426 0.793368
O O16 0.236138 0.936652 0.421924
O O17 0.188019 0.584641 0.636969
#
# Coordination Sequence:
#
# PCOD9100402 Si02
#       8
#     2   2   2   2   2   2   2   2
#     4  12  23  43  73  94 124 170 231 277 327 388
#     4  11  23  41  62  99 130 175 213 278 334 385
#     4  11  23  42  70  99 130 183 222 272 331 391
#     4  10  21  37  65  96 127 165 224 276 322 386
#     4  10  21  37  66  94 138 158 222 281 331 378
#     4  10  20  37  64 102 122 171 221 280 325 383
#     4  11  22  42  66  93 137 180 222 261 330 403
#     4  11  26  41  65  98 143 175 220 270 332 409
#
# _framework density 21.864090999999998
#
# number of rings (size 3 to 8) (size 9 to 14) (size 15 to 20)
#    0.000    1.250    2.500    4.875    5.250    0.000 
#    2.250    1.250    0.000    0.000    0.000    0.000 
#    0.000    0.000    0.000    0.000    0.000    0.000 
#
# Total GULP energy -89387.338161 kJ/mol
# GULP energy per Si atom -5586.708635 kJ/mol
# Density = 2.181433 g / cm^3
# Si number density = 21.864091 Si / 1000 Ang^3
#
#
#
# Elastic Constant Matrix: (Units=GPa)
#
#
# Indices 1 2 3 4 5 6 
#
# 1 115.9688 24.0307 13.4301 -0.9142 -1.0201 9.2085
# 2 24.0307 51.1196 13.2569 -12.0845 4.3963 2.0613
# 3 13.4301 13.2569 59.4406 -17.9998 -0.9409 -18.1878
# 4 -0.9142 -12.0845 -17.9998 24.2292 -1.1200 9.0812
# 5 -1.0201 4.3963 -0.9409 -1.1200 33.0412 -4.0910
# 6 9.2085 2.0613 -18.1878 9.0812 -4.0910 32.1954
#
#
#
# Elastic Compliance Matrix: (Units=1/GPa)
#
#
# Indices 1 2 3 4 5 6 
#
# 1 0.010208 -0.004517 -0.003296 -0.002944 0.000273 -0.003627
# 2 -0.004517 0.026040 -0.002838 0.012810 -0.004006 -0.006101
# 3 -0.003296 -0.002838 0.026103 0.013306 0.003018 0.012501
# 4 -0.002944 0.012810 0.013306 0.061067 -0.000555 -0.009756
# 5 0.000273 -0.004006 0.003018 -0.000555 0.031624 0.006058
# 6 -0.003627 -0.006101 0.012501 -0.009756 0.006058 0.043072
#
#
# Mechanical properties :
#
#
# Convention : Reuss Voigt Hill
#
# Bulk Modulus (GPa) = 24.36100 36.44049 30.40074
# Shear Modulus (GPa) = 21.44996 29.61391 25.53194
#
# Velocity S-wave (km/s) = 3.13558 3.68428 3.42095
# Velocity P-wave (km/s) = 4.92701 5.89929 5.43493
#
# Compressibility (1/GPa) = 0.04104922
#
# Stress axis : x y z
#
# Youngs Moduli (GPa) = 97.96263 38.40206 38.30906
#
# Poissons Ratio (x) = 0.17347 0.12627
# Poissons Ratio (y) = 0.44251 0.10872
# Poissons Ratio (z) = 0.32290 0.10899
#
# Static dielectric constant tensor:
#      x y z
#    x 1.837770 0.017550 0.066480 
#    y 0.017550 1.879990 0.013310 
#    z 0.066480 0.013310 1.854150 
# 
# From -- ./inp_files/514906.got.cif
#   From: 2010.05.17/outbox.cif.g08.bks.cpg/sg2_258_cif.got.tgz:514906.got - 2010.06.03 11:33:40.
