data_PCOD9100867
_publ_section_title
;
Structure prediction by ZEFSAII (Michael W. Deem and Ramdas Pophale) SiO2 
 PCOD9100867
Probable space group: P -1
;
_chemical_formula_sum "Si O2"
_cell_formula_units_Z 16
_cell_length_a 19.896233
_cell_length_b 23.666647
_cell_length_c 7.712387
_cell_angle_alpha 150.390108
_cell_angle_beta 39.589887
_cell_angle_gamma 160.183021
_cell_volume 583.556480
_symmetry_space_group_name_H-M "P -1"
_symmetry_group_IT_number 2
_symmetry_cell_setting 'triclinic'
loop_
_space_group_symop_operation_xyz
x,y,z
-x,-y,-z
loop_
_atom_site_type_symbol
_atom_site_label
_atom_site_fract_x
_atom_site_fract_y
_atom_site_fract_z
Si Si1 0.007533 0.125924 0.478073
Si Si2 0.867248 0.128317 0.443818
Si Si3 0.425978 0.283253 0.622082
Si Si4 0.520933 0.113996 0.409892
Si Si5 0.762143 0.754605 0.381474
Si Si6 0.005437 0.317157 0.289590
Si Si7 0.860286 0.427835 0.793889
Si Si8 0.398294 0.781725 0.932882
O O1 0.994408 0.161146 0.402797
O O2 0.195388 0.223682 0.439815
O O3 0.776809 0.859791 0.256907
O O4 0.017002 0.237153 0.898740
O O5 0.620121 0.905378 0.368770
O O6 0.923959 0.182698 0.273235
O O7 0.931090 0.312277 0.885385
O O8 0.383163 0.281481 0.503976
O O9 0.426187 0.146606 0.263441
O O10 0.636690 0.531665 0.946268
O O11 0.760412 0.359025 0.625015
O O12 0.443618 0.957668 0.301238
O O13 0.500000 0.000000 0.000000
O O14 0.000000 0.000000 0.500000
O O15 0.873249 0.306070 0.477312
O O16 0.220785 0.576522 0.606803
O O17 0.702159 0.338273 0.003368
#
# Coordination Sequence:
#
# PCOD9100867 Si02
#       8
#     2   2   2   2   2   2   2   2
#     4  11  23  38  65  91 122 163 200 253 309 360
#     4  11  24  39  55  91 127 160 211 248 292 363
#     4  10  20  37  66  95 116 155 206 252 308 369
#     4  12  24  35  57  88 122 165 208 251 294 353
#     4   9  20  40  65  95 119 151 201 255 312 371
#     4  11  21  40  61  84 128 174 201 249 299 353
#     4  11  23  39  58  80 129 174 201 250 297 347
#     4  11  20  37  59  87 120 161 209 245 301 365
#
# _framework density 27.41808
#
# number of rings (size 3 to 8) (size 9 to 14) (size 15 to 20)
#    0.000    1.250    3.750    3.375    3.500    2.000 
#    0.000    0.000    0.000    9.750    0.000    0.000 
#    0.000    0.000    0.000    0.000    0.000    0.000 
#
# Total GULP energy -89452.002586 kJ/mol
# GULP energy per Si atom -5590.750162 kJ/mol
# Density = 2.735568 g / cm^3
# Si number density = 27.418080 Si / 1000 Ang^3
#
#
#
# Elastic Constant Matrix: (Units=GPa)
#
#
# Indices 1 2 3 4 5 6 
#
# 1 176.9893 37.3526 22.0298 1.1812 22.2881 16.1877
# 2 37.3526 55.7875 20.7260 12.8622 9.4030 18.7393
# 3 22.0298 20.7260 136.5977 22.9707 24.3382 7.0920
# 4 1.1812 12.8622 22.9707 38.0299 -2.5141 9.2782
# 5 22.2881 9.4030 24.3382 -2.5141 35.2264 6.7815
# 6 16.1877 18.7393 7.0920 9.2782 6.7815 45.6793
#
#
#
# Elastic Compliance Matrix: (Units=1/GPa)
#
#
# Indices 1 2 3 4 5 6 
#
# 1 0.006975 -0.004221 -0.000125 0.001214 -0.003014 -0.000520
# 2 -0.004221 0.025441 -0.001402 -0.006022 -0.002200 -0.007174
# 3 -0.000125 -0.001402 0.009780 -0.006237 -0.007021 0.001410
# 4 0.001214 -0.006022 -0.006237 0.033882 0.008557 -0.005144
# 5 -0.003014 -0.002200 -0.007021 0.008557 0.037150 -0.004193
# 6 -0.000520 -0.007174 0.001410 -0.005144 -0.004193 0.026467
#
#
# Mechanical properties :
#
#
# Convention : Reuss Voigt Hill
#
# Bulk Modulus (GPa) = 32.57284 58.84347 45.70815
# Shear Modulus (GPa) = 30.97370 43.07152 37.02261
#
# Velocity S-wave (km/s) = 3.36472 3.96778 3.67863
# Velocity P-wave (km/s) = 5.19625 6.51914 5.89492
#
# Compressibility (1/GPa) = 0.03070043
#
# Stress axis : x y z
#
# Youngs Moduli (GPa) = 143.35999 39.30602 102.24683
#
# Poissons Ratio (x) = 0.16592 0.01274
# Poissons Ratio (y) = 0.60517 0.14339
# Poissons Ratio (z) = 0.01787 0.05512
#
# Static dielectric constant tensor:
#      x y z
#    x 2.383170 -0.056280 -0.007400 
#    y -0.056280 2.133260 0.033470 
#    z -0.007400 0.033470 2.100240 
# 
# From -- ./inp_files/313292.got.cif
#   From: 2010.05.17/outbox.cif.g08.bks.cpg/sg2_157_cif.got.tgz:313292.got - 2010.06.03 11:33:40.
