data_PCOD9100659
_publ_section_title
;
Structure prediction by ZEFSAII (Michael W. Deem and Ramdas Pophale) SiO2 
 PCOD9100659
Probable space group: P -1
;
_chemical_formula_sum "Si O2"
_cell_formula_units_Z 16
_cell_length_a 8.142574
_cell_length_b 9.620558
_cell_length_c 10.981897
_cell_angle_alpha 116.571369
_cell_angle_beta 71.965546
_cell_angle_gamma 106.544991
_cell_volume 720.708823
_symmetry_space_group_name_H-M "P -1"
_symmetry_group_IT_number 2
_symmetry_cell_setting 'triclinic'
loop_
_space_group_symop_operation_xyz
x,y,z
-x,-y,-z
loop_
_atom_site_type_symbol
_atom_site_label
_atom_site_fract_x
_atom_site_fract_y
_atom_site_fract_z
Si Si1 0.908854 0.320586 0.438626
Si Si2 0.105090 0.173070 0.545257
Si Si3 0.390695 0.232904 0.334075
Si Si4 0.683892 0.937586 0.953951
Si Si5 0.209414 0.416860 0.816503
Si Si6 0.793412 0.247653 0.175583
Si Si7 0.385140 0.555186 0.336572
Si Si8 0.682519 0.606451 0.955409
O O1 0.907829 0.266184 0.278489
O O2 0.711170 0.313778 0.531696
O O3 0.000000 0.500000 0.500000
O O4 0.017963 0.242064 0.477906
O O5 0.307024 0.180747 0.461672
O O6 0.096831 0.279746 0.708117
O O7 0.000000 0.000000 0.500000
O O8 0.281586 0.127995 0.212349
O O9 0.592411 0.221653 0.260539
O O10 0.378064 0.414487 0.380928
O O11 0.664828 0.784711 0.988014
O O12 0.500000 0.000000 0.000000
O O13 0.811687 0.091047 0.034793
O O14 0.184825 0.590329 0.843477
O O15 0.412733 0.404648 0.734118
O O16 0.191963 0.394906 0.957431
O O17 0.279281 0.482260 0.211848
O O18 0.500000 0.500000 0.000000
#
# Coordination Sequence:
#
# PCOD9100659 Si02
#       8
#     2   2   2   2   2   2   2   2
#     4  12  22  39  60  82 114 153 200 236 272 345
#     4  12  26  41  54  82 123 154 187 238 296 335
#     4   9  18  39  62  84 114 149 191 236 280 337
#     4   9  18  34  61  89 112 145 195 240 275 332
#     4  10  20  39  62  86 117 150 186 239 292 336
#     4  10  20  37  65  89 108 149 200 237 276 337
#     4   9  18  37  65  87 105 151 199 230 277 340
#     4   9  18  34  59  88 120 145 181 240 292 334
#
# _framework density 22.200368000000001
#
# number of rings (size 3 to 8) (size 9 to 14) (size 15 to 20)
#    0.000    2.000    2.500    3.000    1.750    2.000 
#   11.250    3.750    0.000    0.000    0.000    0.000 
#    0.000    0.000    0.000    0.000    0.000    0.000 
#
# Total GULP energy -89317.489741 kJ/mol
# GULP energy per Si atom -5582.343109 kJ/mol
# Density = 2.214984 g / cm^3
# Si number density = 22.200368 Si / 1000 Ang^3
#
#
#
# Elastic Constant Matrix: (Units=GPa)
#
#
# Indices 1 2 3 4 5 6 
#
# 1 66.5647 15.5525 30.4724 0.4575 15.8250 -2.1323
# 2 15.5525 113.6540 46.6346 8.7457 29.4216 -6.7672
# 3 30.4724 46.6346 121.9184 8.6581 50.3548 -5.2272
# 4 0.4575 8.7457 8.6581 27.8757 4.0528 4.0249
# 5 15.8250 29.4216 50.3548 4.0528 56.6366 -7.9971
# 6 -2.1323 -6.7672 -5.2272 4.0249 -7.9971 26.9778
#
#
#
# Elastic Compliance Matrix: (Units=1/GPa)
#
#
# Indices 1 2 3 4 5 6 
#
# 1 0.017117 -0.000622 -0.003553 0.001235 -0.001402 -0.000091
# 2 -0.000622 0.010979 -0.002663 -0.002461 -0.002740 0.001744
# 3 -0.003553 -0.002663 0.014576 -0.001955 -0.010580 -0.000969
# 4 0.001235 -0.002461 -0.001955 0.038388 -0.001055 -0.006938
# 5 -0.001402 -0.002740 -0.010580 -0.001055 0.029822 0.006150
# 6 -0.000091 0.001744 -0.000969 -0.006938 0.006150 0.040168
#
#
# Mechanical properties :
#
#
# Convention : Reuss Voigt Hill
#
# Bulk Modulus (GPa) = 34.48774 54.16181 44.32477
# Shear Modulus (GPa) = 28.67144 36.26320 32.46732
#
# Velocity S-wave (km/s) = 3.59762 4.04598 3.82837
# Velocity P-wave (km/s) = 5.72937 6.80268 6.28896
#
# Compressibility (1/GPa) = 0.02899581
#
# Stress axis : x y z
#
# Youngs Moduli (GPa) = 58.42278 91.08462 68.60637
#
# Poissons Ratio (x) = 0.05665 0.24374
# Poissons Ratio (y) = 0.03634 0.18270
# Poissons Ratio (z) = 0.20756 0.24256
#
# Static dielectric constant tensor:
#      x y z
#    x 1.934570 0.028880 -0.001820 
#    y 0.028880 1.744570 -0.003380 
#    z -0.001820 -0.003380 1.851330 
# 
# From -- ./inp_files/180208.got.cif
#   From: 2010.05.17/outbox.cif.g08.bks.cpg/sg2_91_cif.got.tgz:180208.got - 2010.06.03 11:33:40.
