data_PCOD9100010
_publ_section_title
;
Structure prediction by ZEFSAII (Michael W. Deem and Ramdas Pophale) SiO2 
 PCOD9100010
Probable space group: P -1
;
_chemical_formula_sum "Si O2"
_cell_formula_units_Z 14
_cell_length_a 10.752806
_cell_length_b 14.499177
_cell_length_c 12.782485
_cell_angle_alpha 150.639312
_cell_angle_beta 127.321732
_cell_angle_gamma 41.791754
_cell_volume 645.376984
_symmetry_space_group_name_H-M "P -1"
_symmetry_group_IT_number 2
_symmetry_cell_setting 'triclinic'
loop_
_space_group_symop_operation_xyz
x,y,z
-x,-y,-z
loop_
_atom_site_type_symbol
_atom_site_label
_atom_site_fract_x
_atom_site_fract_y
_atom_site_fract_z
Si Si1 0.352523 0.436457 0.093283
Si Si2 0.647577 0.197789 0.183877
Si Si3 0.648736 0.642887 0.632272
Si Si4 0.045266 0.274088 0.065424
Si Si5 0.613562 0.619686 0.180767
Si Si6 0.437452 0.832165 0.506208
Si Si7 0.044298 0.187995 0.733528
O O1 0.506204 0.259691 0.077229
O O2 0.388851 0.639167 0.300368
O O3 0.137481 0.571428 0.158831
O O4 0.375365 0.332375 0.887634
O O5 0.679963 0.398686 0.405936
O O6 0.532959 0.207502 0.237784
O O7 0.843664 0.959362 0.044499
O O8 0.829826 0.625313 0.752341
O O9 0.592069 0.754484 0.599032
O O10 0.828422 0.442817 0.151367
O O11 0.050077 0.212581 0.885289
O O12 0.512311 0.810612 0.406123
O O13 0.500000 0.500000 0.000000
O O14 0.249778 0.074089 0.676604
O O15 0.000000 0.000000 0.500000
#
# Coordination Sequence:
#
# PCOD9100010 Si02
#       7
#     2   2   2   2   2   2   2
#     4   8  17  33  55  82 115 151 198 237 294 345
#     4  10  20  37  62  90 124 148 189 259 292 339
#     4  10  21  35  59  94 122 145 199 246 297 343
#     4  11  21  37  65  88 113 161 201 233 297 359
#     4   9  19  37  59  83 117 163 198 236 293 354
#     4   9  16  32  56  82 117 155 193 239 286 350
#     4   9  17  31  57  84 112 155 195 235 292 344
#
# _framework density 21.692746
#
# number of rings (size 3 to 8) (size 9 to 14) (size 15 to 20)
#    0.000    2.571    1.429    1.286    2.000    0.571 
#    0.000    9.286    0.000    1.714    0.000    0.000 
#    0.000    0.000    0.000    0.000    0.000    0.000 
#
# Total GULP energy -78233.543417 kJ/mol
# GULP energy per Si atom -5588.110244 kJ/mol
# Density = 2.164337 g / cm^3
# Si number density = 21.692746 Si / 1000 Ang^3
#
#
#
# Elastic Constant Matrix: (Units=GPa)
#
#
# Indices 1 2 3 4 5 6 
#
# 1 70.3793 21.1932 48.0375 -4.3203 -4.3747 -19.1166
# 2 21.1932 100.5410 57.8826 -16.4186 -8.5498 -18.1834
# 3 48.0375 57.8826 90.4402 -4.5911 -9.1359 -10.4298
# 4 -4.3203 -16.4186 -4.5911 32.7525 -3.6058 0.0670
# 5 -4.3747 -8.5498 -9.1359 -3.6058 49.4920 -3.3022
# 6 -19.1166 -18.1834 -10.4298 0.0670 -3.3022 40.0027
#
#
#
# Elastic Compliance Matrix: (Units=1/GPa)
#
#
# Indices 1 2 3 4 5 6 
#
# 1 0.027790 0.007552 -0.017757 0.005122 0.001671 0.012213
# 2 0.007552 0.020678 -0.015432 0.009476 0.002695 0.009191
# 3 -0.017757 -0.015432 0.029175 -0.005952 0.000192 -0.007868
# 4 0.005122 0.009476 -0.005952 0.035547 0.003946 0.005470
# 5 0.001671 0.002695 0.000192 0.003946 0.021397 0.003833
# 6 0.012213 0.009191 -0.007868 0.005470 0.003833 0.033269
#
#
# Mechanical properties :
#
#
# Convention : Reuss Voigt Hill
#
# Bulk Modulus (GPa) = 37.92269 57.28745 47.60507
# Shear Modulus (GPa) = 21.93751 33.39924 27.66838
#
# Velocity S-wave (km/s) = 3.18352 3.92809 3.57524
# Velocity P-wave (km/s) = 5.57070 6.85851 6.24787
#
# Compressibility (1/GPa) = 0.02636944
#
# Stress axis : x y z
#
# Youngs Moduli (GPa) = 35.98369 48.36136 34.27540
#
# Poissons Ratio (x) = -0.36524 0.60864
# Poissons Ratio (y) = -0.27176 0.52894
# Poissons Ratio (z) = 0.63897 0.74632
#
# Static dielectric constant tensor:
#      x y z
#    x 1.792860 0.007480 0.035040 
#    y 0.007480 1.771850 0.007170 
#    z 0.035040 0.007170 1.818410 
# 
# From -- ./inp_files/433547.got.cif
#   From: 2010.05.17/outbox.cif.g08.bks.cpg/sg2_217_cif.got.tgz:433547.got - 2010.06.03 11:33:40.
