data_PCOD9100184
_publ_section_title
;
Structure prediction by ZEFSAII (Michael W. Deem and Ramdas Pophale) SiO2 
 PCOD9100184
Probable space group: P -1
;
_chemical_formula_sum "Si O2"
_cell_formula_units_Z 16
_cell_length_a 13.890986
_cell_length_b 21.816235
_cell_length_c 9.379634
_cell_angle_alpha 27.994217
_cell_angle_beta 136.397894
_cell_angle_gamma 137.720174
_cell_volume 874.713209
_symmetry_space_group_name_H-M "P -1"
_symmetry_group_IT_number 2
_symmetry_cell_setting 'triclinic'
loop_
_space_group_symop_operation_xyz
x,y,z
-x,-y,-z
loop_
_atom_site_type_symbol
_atom_site_label
_atom_site_fract_x
_atom_site_fract_y
_atom_site_fract_z
Si Si1 0.420082 0.876978 0.561610
Si Si2 0.143229 0.455917 0.221612
Si Si3 0.435876 0.221320 0.316980
Si Si4 0.832377 0.008472 0.969989
Si Si5 0.636246 0.779171 0.437402
Si Si6 0.569494 0.355966 0.739130
Si Si7 0.153991 0.168016 0.928427
Si Si8 0.655590 0.515633 0.877493
O O1 0.494852 0.882473 0.477252
O O2 0.254772 0.880398 0.362573
O O3 0.500000 0.000000 0.500000
O O4 0.437793 0.742673 0.932630
O O5 0.268511 0.539934 0.294111
O O6 0.120097 0.296480 0.554298
O O7 0.208236 0.489218 0.062513
O O8 0.000000 0.500000 0.000000
O O9 0.390519 0.185992 0.502888
O O10 0.292043 0.218417 0.077677
O O11 0.558868 0.371576 0.134145
O O12 0.005426 0.078507 0.030739
O O13 0.752322 0.900273 0.227366
O O14 0.811850 0.924532 0.971411
O O15 0.484444 0.736504 0.269943
O O16 0.686880 0.641027 0.765983
O O17 0.448767 0.435187 0.446289
#
# Coordination Sequence:
#
# PCOD9100184 Si02
#       8
#     2   2   2   2   2   2   2   2
#     4  12  20  36  60  89 114 150 196 251 280 336
#     4  12  21  35  64  94 114 144 199 252 299 340
#     4  12  22  37  65  86 116 160 200 233 297 351
#     4  11  23  39  58  85 125 152 197 243 289 343
#     4  10  22  38  62  86 118 160 195 238 286 359
#     4  10  20  37  63  86 117 148 193 248 291 337
#     4  11  22  39  60  86 115 162 193 240 295 349
#     4  10  20  38  61  88 117 148 194 245 289 348
#
# _framework density 18.291709000000001
#
# number of rings (size 3 to 8) (size 9 to 14) (size 15 to 20)
#    0.750    0.250    6.250    2.250    0.000    1.000 
#    0.000    0.000    2.750    1.500    0.000    0.000 
#    0.000    0.000    0.000    0.000    0.000    0.000 
#
# Total GULP energy -89229.236534 kJ/mol
# GULP energy per Si atom -5576.827283 kJ/mol
# Density = 1.825008 g / cm^3
# Si number density = 18.291709 Si / 1000 Ang^3
#
#
#
# Elastic Constant Matrix: (Units=GPa)
#
#
# Indices 1 2 3 4 5 6 
#
# 1 142.9040 44.9238 35.1788 7.6449 4.1490 -4.7207
# 2 44.9238 47.0400 3.8213 -3.4917 -7.6751 -1.7405
# 3 35.1788 3.8213 24.9925 -0.4358 -3.5120 4.7432
# 4 7.6449 -3.4917 -0.4358 20.0107 8.3302 -6.6041
# 5 4.1490 -7.6751 -3.5120 8.3302 30.7852 4.7404
# 6 -4.7207 -1.7405 4.7432 -6.6041 4.7404 30.1909
#
#
#
# Elastic Compliance Matrix: (Units=1/GPa)
#
#
# Indices 1 2 3 4 5 6 
#
# 1 0.021782 -0.020253 -0.030687 -0.005325 -0.011224 0.007657
# 2 -0.020253 0.041297 0.025423 0.007581 0.014711 -0.005432
# 3 -0.030687 0.025423 0.086385 0.001869 0.022917 -0.020093
# 4 -0.005325 0.007581 0.001869 0.066176 -0.017635 0.016555
# 5 -0.011224 0.014711 0.022917 -0.017635 0.047486 -0.015821
# 6 0.007657 -0.005432 -0.020093 0.016555 -0.015821 0.043269
#
#
# Mechanical properties :
#
#
# Convention : Reuss Voigt Hill
#
# Bulk Modulus (GPa) = 10.15938 42.53157 26.34548
# Shear Modulus (GPa) = 12.81275 24.93156 18.87215
#
# Velocity S-wave (km/s) = 2.64951 3.69589 3.21554
# Velocity P-wave (km/s) = 3.86342 6.44322 5.31230
#
# Compressibility (1/GPa) = 0.09843117
#
# Stress axis : x y z
#
# Youngs Moduli (GPa) = 45.90913 24.21500 11.57614
#
# Poissons Ratio (x) = 0.49042 0.35523
# Poissons Ratio (y) = 0.92978 -0.29430
# Poissons Ratio (z) = 1.40879 -0.61562
#
# Static dielectric constant tensor:
#      x y z
#    x 1.631080 -0.003770 0.006690 
#    y -0.003770 1.652390 -0.039700 
#    z 0.006690 -0.039700 1.651660 
# 
# From -- ./inp_files/280799.got.cif
#   From: 2010.05.17/outbox.cif.g08.bks.cpg/sg2_141_cif.got.tgz:280799.got - 2010.06.03 11:33:40.
