data_PCOD9100011
_publ_section_title
;
Structure prediction by ZEFSAII (Michael W. Deem and Ramdas Pophale) SiO2 
 PCOD9100011
Probable space group: P -1
;
_chemical_formula_sum "Si O2"
_cell_formula_units_Z 16
_cell_length_a 11.735515
_cell_length_b 13.791973
_cell_length_c 9.788984
_cell_angle_alpha 133.734686
_cell_angle_beta 56.943212
_cell_angle_gamma 132.246277
_cell_volume 837.762001
_symmetry_space_group_name_H-M "P -1"
_symmetry_group_IT_number 2
_symmetry_cell_setting 'triclinic'
loop_
_space_group_symop_operation_xyz
x,y,z
-x,-y,-z
loop_
_atom_site_type_symbol
_atom_site_label
_atom_site_fract_x
_atom_site_fract_y
_atom_site_fract_z
Si Si1 0.988181 0.725526 0.988220
Si Si2 0.494067 0.849901 0.671338
Si Si3 0.666048 0.128597 0.462370
Si Si4 0.205450 0.149971 0.596031
Si Si5 0.857032 0.374305 0.809259
Si Si6 0.696302 0.193603 0.991201
Si Si7 0.966170 0.133300 0.196140
Si Si8 0.036383 0.197961 0.512833
O O1 0.002144 0.757923 0.848940
O O2 0.922240 0.547867 0.892551
O O3 0.158951 0.811741 0.032473
O O4 0.871726 0.781025 0.181846
O O5 0.367516 0.817589 0.606893
O O6 0.614267 0.801545 0.481684
O O7 0.593249 0.031882 0.822575
O O8 0.405326 0.779640 0.802248
O O9 0.751153 0.262622 0.648193
O O10 0.787139 0.067703 0.294088
O O11 0.500000 0.000000 0.500000
O O12 0.167171 0.194003 0.515721
O O13 0.112051 0.967027 0.509926
O O14 0.760756 0.325527 0.964281
O O15 0.992502 0.329404 0.702829
O O16 0.062555 0.206419 0.342174
O O17 0.000000 0.000000 0.000000
#
# Coordination Sequence:
#
# PCOD9100011 Si02
#       8
#     2   2   2   2   2   2   2   2
#     4  12  24  40  64  93 128 159 210 257 311 365
#     4  11  22  38  64  93 124 158 210 257 303 363
#     4  11  22  41  62  90 127 165 205 249 308 376
#     4  11  20  38  63  93 122 159 204 261 303 358
#     4  11  23  41  65  91 122 171 205 252 313 368
#     4  11  21  39  63  94 121 159 210 255 297 371
#     4  11  23  38  63  96 121 160 211 262 301 358
#     4  10  20  37  62  90 124 157 212 250 304 354
#
# _framework density 19.098503999999998
#
# number of rings (size 3 to 8) (size 9 to 14) (size 15 to 20)
#    0.000    1.000    6.250    1.875    0.000    2.000 
#    0.000    1.250    0.000    0.000    0.000    0.000 
#    0.000    0.000    0.000    0.000    0.000    0.000 
#
# Total GULP energy -89321.400534 kJ/mol
# GULP energy per Si atom -5582.587533 kJ/mol
# Density = 1.905503 g / cm^3
# Si number density = 19.098504 Si / 1000 Ang^3
#
#
#
# Elastic Constant Matrix: (Units=GPa)
#
#
# Indices 1 2 3 4 5 6 
#
# 1 79.6096 7.1144 17.0294 -6.4726 5.6086 -7.6940
# 2 7.1144 92.1597 26.5924 -5.4515 1.5077 -21.1595
# 3 17.0294 26.5924 70.5020 -12.3663 -14.0946 4.9873
# 4 -6.4726 -5.4515 -12.3663 29.1731 -9.7023 3.6730
# 5 5.6086 1.5077 -14.0946 -9.7023 39.4292 -9.7246
# 6 -7.6940 -21.1595 4.9873 3.6730 -9.7246 26.7043
#
#
#
# Elastic Compliance Matrix: (Units=1/GPa)
#
#
# Indices 1 2 3 4 5 6 
#
# 1 0.014161 0.001596 -0.004947 -0.000186 -0.002568 0.005359
# 2 0.001596 0.016417 -0.008125 -0.002106 -0.000561 0.015071
# 3 -0.004947 -0.008125 0.023148 0.011694 0.009629 -0.010289
# 4 -0.000186 -0.002106 0.011694 0.044045 0.013918 -0.004896
# 5 -0.002568 -0.000561 0.009629 0.013918 0.034507 0.007669
# 6 0.005359 0.015071 -0.010289 -0.004896 0.007669 0.056321
#
#
# Mechanical properties :
#
#
# Convention : Reuss Voigt Hill
#
# Bulk Modulus (GPa) = 32.49765 38.19374 35.34570
# Shear Modulus (GPa) = 22.54188 31.83033 27.18610
#
# Velocity S-wave (km/s) = 3.43927 4.08688 3.77698
# Velocity P-wave (km/s) = 5.72924 6.50475 6.12927
#
# Compressibility (1/GPa) = 0.03077145
#
# Stress axis : x y z
#
# Youngs Moduli (GPa) = 70.61788 60.91298 43.20077
#
# Poissons Ratio (x) = -0.09720 0.21373
# Poissons Ratio (y) = -0.11269 0.35102
# Poissons Ratio (z) = 0.34938 0.49494
#
# Static dielectric constant tensor:
#      x y z
#    x 1.675160 -0.005400 0.019220 
#    y -0.005400 1.660490 -0.032430 
#    z 0.019220 -0.032430 1.697500 
# 
# From -- ./inp_files/260560.got.cif
#   From: 2010.05.17/outbox.cif.g08.bks.cpg/sg2_131_cif.got.tgz:260560.got - 2010.06.03 11:33:40.
