data_PCOD9100410
_publ_section_title
;
Structure prediction by ZEFSAII (Michael W. Deem and Ramdas Pophale) SiO2 
 PCOD9100410
Probable space group: P -1
;
_chemical_formula_sum "Si O2"
_cell_formula_units_Z 14
_cell_length_a 22.449382
_cell_length_b 16.797207
_cell_length_c 6.294814
_cell_angle_alpha 58.026727
_cell_angle_beta 119.947762
_cell_angle_gamma 160.364702
_cell_volume 676.629986
_symmetry_space_group_name_H-M "P -1"
_symmetry_group_IT_number 2
_symmetry_cell_setting 'triclinic'
loop_
_space_group_symop_operation_xyz
x,y,z
-x,-y,-z
loop_
_atom_site_type_symbol
_atom_site_label
_atom_site_fract_x
_atom_site_fract_y
_atom_site_fract_z
Si Si1 0.360879 0.483777 0.924513
Si Si2 0.959990 0.792535 0.124093
Si Si3 0.021165 0.381193 0.771389
Si Si4 0.182949 0.188464 0.645766
Si Si5 0.687533 0.951156 0.104887
Si Si6 0.143260 0.700820 0.786497
Si Si7 0.719807 0.798772 0.595167
O O1 0.191572 0.320162 0.966109
O O2 0.305132 0.412982 0.679189
O O3 0.530982 0.751275 0.936024
O O4 0.375477 0.391752 0.141572
O O5 0.900102 0.616459 0.181419
O O6 0.073916 0.931203 0.347036
O O7 0.108882 0.015039 0.912722
O O8 0.932599 0.321893 0.493361
O O9 0.159869 0.625913 0.786661
O O10 0.867381 0.169956 0.973458
O O11 0.288286 0.272937 0.528487
O O12 0.000000 0.000000 0.500000
O O13 0.663702 0.831919 0.385866
O O14 0.701084 0.056284 0.141104
O O15 0.000000 0.500000 0.000000
#
# Coordination Sequence:
#
# PCOD9100410 Si02
#       7
#     2   2   2   2   2   2   2
#     4  11  24  34  54  88 123 149 189 231 276 329
#     4  11  20  36  58  85 108 154 198 225 270 345
#     4  10  20  37  64  85 105 147 198 228 279 351
#     4  11  19  36  55  77 116 161 194 223 265 332
#     4  11  22  37  57  88 118 148 183 241 286 319
#     4   9  20  39  62  84 108 142 192 239 283 338
#     4  11  20  36  57  80 119 161 191 218 270 342
#
# _framework density 20.690777000000001
#
# number of rings (size 3 to 8) (size 9 to 14) (size 15 to 20)
#    0.000    1.429    5.714    1.286    0.000    1.714 
#    0.000    0.714    0.000    7.714    0.000    0.000 
#    0.000    0.000    0.000    0.000    0.000    0.000 
#
# Total GULP energy -78030.765578 kJ/mol
# GULP energy per Si atom -5573.626113 kJ/mol
# Density = 2.064368 g / cm^3
# Si number density = 20.690777 Si / 1000 Ang^3
#
#
#
# Elastic Constant Matrix: (Units=GPa)
#
#
# Indices 1 2 3 4 5 6 
#
# 1 84.3866 41.4526 24.0979 12.7564 -7.6889 -40.6398
# 2 41.4526 103.7113 22.5648 30.2995 -2.4315 -39.0907
# 3 24.0979 22.5648 63.1068 9.2952 -5.7961 -12.1154
# 4 12.7564 30.2995 9.2952 32.9790 -4.7476 -14.4182
# 5 -7.6889 -2.4315 -5.7961 -4.7476 24.9136 6.1821
# 6 -40.6398 -39.0907 -12.1154 -14.4182 6.1821 40.6448
#
#
#
# Elastic Compliance Matrix: (Units=1/GPa)
#
#
# Indices 1 2 3 4 5 6 
#
# 1 0.024404 -0.000854 -0.004930 0.002948 0.001161 0.022979
# 2 -0.000854 0.018529 -0.002600 -0.010911 -0.004361 0.012983
# 3 -0.004930 -0.002600 0.018627 -0.001831 0.002948 -0.002975
# 4 0.002948 -0.010911 -0.001831 0.043387 0.006106 0.006370
# 5 0.001161 -0.004361 0.002948 0.006106 0.043562 -0.006614
# 6 0.022979 0.012983 -0.002975 0.006370 -0.006614 0.062446
#
#
# Mechanical properties :
#
#
# Convention : Reuss Voigt Hill
#
# Bulk Modulus (GPa) = 22.32482 47.49280 34.90881
# Shear Modulus (GPa) = 20.60546 30.58010 25.59278
#
# Velocity S-wave (km/s) = 3.15917 3.84859 3.52080
# Velocity P-wave (km/s) = 4.91125 6.53853 5.78242
#
# Compressibility (1/GPa) = 0.04479320
#
# Stress axis : x y z
#
# Youngs Moduli (GPa) = 40.97609 53.97065 53.68416
#
# Poissons Ratio (x) = 0.04612 0.26464
# Poissons Ratio (y) = 0.03501 0.13956
# Poissons Ratio (z) = 0.20199 0.14031
#
# Static dielectric constant tensor:
#      x y z
#    x 1.738030 -0.024790 0.006880 
#    y -0.024790 1.786530 0.037070 
#    z 0.006880 0.037070 1.851000 
# 
# From -- ./inp_files/73436.got.cif
#   From: 2010.05.17/outbox.cif.g08.bks.cpg/sg2_37_cif.got.tgz:73436.got - 2010.06.03 11:33:40.
