data_PCOD9100909
_publ_section_title
;
Structure prediction by ZEFSAII (Michael W. Deem and Ramdas Pophale) SiO2 
 PCOD9100909
Probable space group: P -1
;
_chemical_formula_sum "Si O2"
_cell_formula_units_Z 16
_cell_length_a 8.951930
_cell_length_b 9.617291
_cell_length_c 18.068608
_cell_angle_alpha 152.436724
_cell_angle_beta 97.580666
_cell_angle_gamma 79.285291
_cell_volume 705.409796
_symmetry_space_group_name_H-M "P -1"
_symmetry_group_IT_number 2
_symmetry_cell_setting 'triclinic'
loop_
_space_group_symop_operation_xyz
x,y,z
-x,-y,-z
loop_
_atom_site_type_symbol
_atom_site_label
_atom_site_fract_x
_atom_site_fract_y
_atom_site_fract_z
Si Si1 0.816931 0.696451 0.042990
Si Si2 0.659950 0.995775 0.045676
Si Si3 0.857809 0.329719 0.400957
Si Si4 0.896890 0.739396 0.377518
Si Si5 0.879017 0.459351 0.086112
Si Si6 0.617637 0.418104 0.539421
Si Si7 0.836210 0.791280 0.816966
Si Si8 0.649015 0.662717 0.424931
O O1 0.677354 0.793673 0.025249
O O2 0.778550 0.563176 0.056066
O O3 0.882464 0.012207 0.210696
O O4 0.952965 0.496395 0.912714
O O5 0.665355 0.342703 0.231320
O O6 0.788052 0.857970 0.930676
O O7 0.500000 0.000000 0.000000
O O8 0.769799 0.250238 0.431457
O O9 0.745216 0.576159 0.464082
O O10 0.000000 0.500000 0.500000
O O11 0.850038 0.632240 0.243133
O O12 0.746804 0.854010 0.470809
O O13 0.010484 0.457590 0.289983
O O14 0.000000 0.000000 0.500000
O O15 0.867029 0.110032 0.937056
O O16 0.500000 0.500000 0.500000
O O17 0.693326 0.679356 0.711347
O O18 0.522944 0.257640 0.518507
#
# Coordination Sequence:
#
# PCOD9100909 Si02
#       8
#     2   2   2   2   2   2   2   2
#     4  10  23  40  63 100 137 174 231 295 334 406
#     4  11  20  40  70  95 134 182 232 274 340 417
#     4  10  20  37  66  98 132 178 225 280 344 404
#     4  12  26  42  69 105 138 176 233 296 347 408
#     4  11  23  42  69 101 138 173 232 292 348 406
#     4  10  22  39  64 100 137 173 226 279 340 418
#     4  12  22  43  73  97 129 190 229 280 344 422
#     4  10  21  39  64  95 132 180 225 275 340 412
#
# _framework density 22.681851000000002
#
# number of rings (size 3 to 8) (size 9 to 14) (size 15 to 20)
#    0.000    1.250    3.750    3.375    3.500    0.000 
#    2.250    1.250    5.500    0.000    0.000    0.000 
#    0.000    0.000    0.000    0.000    0.000    0.000 
#
# Total GULP energy -89293.615156 kJ/mol
# GULP energy per Si atom -5580.850947 kJ/mol
# Density = 2.263023 g / cm^3
# Si number density = 22.681851 Si / 1000 Ang^3
#
#
#
# Elastic Constant Matrix: (Units=GPa)
#
#
# Indices 1 2 3 4 5 6 
#
# 1 120.7315 51.4060 25.0272 -13.9866 11.0943 23.5966
# 2 51.4060 160.8959 36.1719 -2.6106 11.8820 3.8944
# 3 25.0272 36.1719 35.4485 -12.0014 8.1839 5.4919
# 4 -13.9866 -2.6106 -12.0014 34.5352 4.5579 -5.7107
# 5 11.0943 11.8820 8.1839 4.5579 31.3468 -12.3063
# 6 23.5966 3.8944 5.4919 -5.7107 -12.3063 54.6182
#
#
#
# Elastic Compliance Matrix: (Units=1/GPa)
#
#
# Indices 1 2 3 4 5 6 
#
# 1 0.011895 -0.002685 -0.002381 0.003568 -0.005256 -0.005519
# 2 -0.002685 0.008879 -0.008673 -0.003334 0.000819 0.001235
# 3 -0.002381 -0.008673 0.047592 0.015835 -0.012264 -0.004246
# 4 0.003568 -0.003334 0.015835 0.036755 -0.009989 -0.001304
# 5 -0.005256 0.000819 -0.012264 -0.009989 0.042837 0.012053
# 6 -0.005519 0.001235 -0.004246 -0.001304 0.012053 0.023612
#
#
# Mechanical properties :
#
#
# Convention : Reuss Voigt Hill
#
# Bulk Modulus (GPa) = 24.45871 60.25399 42.35635
# Shear Modulus (GPa) = 23.50992 37.73145 30.62069
#
# Velocity S-wave (km/s) = 3.22298 4.08304 3.67823
# Velocity P-wave (km/s) = 4.96557 6.98933 6.06249
#
# Compressibility (1/GPa) = 0.04088524
#
# Stress axis : x y z
#
# Youngs Moduli (GPa) = 84.06956 112.63111 21.01212
#
# Poissons Ratio (x) = 0.30246 0.05004
# Poissons Ratio (y) = 0.22576 0.18224
# Poissons Ratio (z) = 0.20020 0.97686
#
# Static dielectric constant tensor:
#      x y z
#    x 1.878780 -0.001230 -0.068060 
#    y -0.001230 1.907080 -0.031620 
#    z -0.068060 -0.031620 1.844480 
# 
# From -- ./inp_files/557719.got.cif
#   From: 2010.05.17/outbox.cif.g08.bks.cpg/sg2_279_cif.got.tgz:557719.got - 2010.06.03 11:33:40.
