data_PCOD9100031
_publ_section_title
;
Structure prediction by ZEFSAII (Michael W. Deem and Ramdas Pophale) SiO2 
 PCOD9100031
Probable space group: P -1
;
_chemical_formula_sum "Si O2"
_cell_formula_units_Z 14
_cell_length_a 14.227640
_cell_length_b 4.753607
_cell_length_c 16.057046
_cell_angle_alpha 84.911759
_cell_angle_beta 36.499475
_cell_angle_gamma 75.227044
_cell_volume 611.705178
_symmetry_space_group_name_H-M "P -1"
_symmetry_group_IT_number 2
_symmetry_cell_setting 'triclinic'
loop_
_space_group_symop_operation_xyz
x,y,z
-x,-y,-z
loop_
_atom_site_type_symbol
_atom_site_label
_atom_site_fract_x
_atom_site_fract_y
_atom_site_fract_z
Si Si1 0.056147 0.334314 0.553298
Si Si2 0.997312 0.143052 0.290350
Si Si3 0.492348 0.357840 0.399386
Si Si4 0.569175 0.898998 0.720769
Si Si5 0.697424 0.057553 0.405792
Si Si6 0.437882 0.732218 0.968235
Si Si7 0.717685 0.678023 0.985792
O O1 0.064882 0.586887 0.606337
O O2 0.243322 0.096885 0.423036
O O3 0.000000 0.500000 0.500000
O O4 0.945331 0.144747 0.679116
O O5 0.867814 0.054307 0.325288
O O6 0.104034 0.278653 0.146030
O O7 0.486521 0.262596 0.311915
O O8 0.656661 0.189060 0.338750
O O9 0.440959 0.706856 0.443736
O O10 0.347414 0.246129 0.548529
O O11 0.582081 0.701670 0.799808
O O12 0.412419 0.184074 0.850697
O O13 0.500000 0.500000 0.000000
O O14 0.296898 0.637216 0.019639
O O15 0.363557 0.075418 0.035145
#
# Coordination Sequence:
#
# PCOD9100031 Si02
#       7
#     2   2   2   2   2   2   2
#     4  12  27  39  62  92 126 159 205 257 305 353
#     4  12  23  43  60  90 128 159 200 255 311 365
#     4  10  20  37  63  91 118 155 203 252 307 363
#     4  10  24  39  65  87 122 158 208 254 292 363
#     4  10  20  37  62  91 120 157 196 252 315 362
#     4  10  23  39  60  83 117 166 208 241 294 367
#     4  10  25  37  62  82 122 162 198 244 307 358
#
# _framework density 22.886842999999999
#
# number of rings (size 3 to 8) (size 9 to 14) (size 15 to 20)
#    0.857    0.571    2.857    1.714    8.000    0.000 
#    0.000    0.714    0.000    0.857    0.000    0.000 
#    0.000    0.000    0.000    0.000    0.000    0.000 
#
# Total GULP energy -77963.635241 kJ/mol
# GULP energy per Si atom -5568.831089 kJ/mol
# Density = 2.283475 g / cm^3
# Si number density = 22.886843 Si / 1000 Ang^3
#
#
#
# Elastic Constant Matrix: (Units=GPa)
#
#
# Indices 1 2 3 4 5 6 
#
# 1 66.7307 -2.5178 10.2961 11.9080 -3.1480 3.6165
# 2 -2.5178 79.4740 0.8121 -5.7418 -0.1616 19.2536
# 3 10.2961 0.8121 92.7117 -9.3495 1.7743 11.8157
# 4 11.9080 -5.7418 -9.3495 20.6352 6.2235 -5.3402
# 5 -3.1480 -0.1616 1.7743 6.2235 29.0158 -4.6512
# 6 3.6165 19.2536 11.8157 -5.3402 -4.6512 37.2834
#
#
#
# Elastic Compliance Matrix: (Units=1/GPa)
#
#
# Indices 1 2 3 4 5 6 
#
# 1 0.018357 0.000149 -0.003268 -0.014073 0.004853 -0.002232
# 2 0.000149 0.014676 0.001193 0.003097 -0.001884 -0.007763
# 3 -0.003268 0.001193 0.012457 0.007969 -0.003384 -0.003527
# 4 -0.014073 0.003097 0.007969 0.067023 -0.015588 0.004895
# 5 0.004853 -0.001884 -0.003384 -0.015588 0.039209 0.004233
# 6 -0.002232 -0.007763 -0.003527 0.004895 0.004233 0.033394
#
#
# Mechanical properties :
#
#
# Convention : Reuss Voigt Hill
#
# Bulk Modulus (GPa) = 24.01720 28.45524 26.23622
# Shear Modulus (GPa) = 24.64930 32.74195 28.69562
#
# Velocity S-wave (km/s) = 3.28534 3.78643 3.54475
# Velocity P-wave (km/s) = 4.99079 5.61926 5.31432
#
# Compressibility (1/GPa) = 0.04163683
#
# Stress axis : x y z
#
# Youngs Moduli (GPa) = 54.47604 68.13950 80.27927
#
# Poissons Ratio (x) = -0.01014 0.26231
# Poissons Ratio (y) = -0.00811 -0.09574
# Poissons Ratio (z) = 0.17800 -0.08126
#
# Static dielectric constant tensor:
#      x y z
#    x 1.904950 -0.053860 -0.087310 
#    y -0.053860 1.910290 -0.053090 
#    z -0.087310 -0.053090 2.152840 
# 
# From -- ./inp_files/571654.got.cif
#   From: 2010.05.17/outbox.cif.g08.bks.cpg/sg2_286_cif.got.tgz:571654.got - 2010.06.03 11:33:40.
