data_PCOD9100363
_publ_section_title
;
Structure prediction by ZEFSAII (Michael W. Deem and Ramdas Pophale) SiO2 
 PCOD9100363
Probable space group: P -1
;
_chemical_formula_sum "Si O2"
_cell_formula_units_Z 16
_cell_length_a 12.256746
_cell_length_b 16.798944
_cell_length_c 9.269872
_cell_angle_alpha 55.251302
_cell_angle_beta 152.667907
_cell_angle_gamma 134.789028
_cell_volume 612.748143
_symmetry_space_group_name_H-M "P -1"
_symmetry_group_IT_number 2
_symmetry_cell_setting 'triclinic'
loop_
_space_group_symop_operation_xyz
x,y,z
-x,-y,-z
loop_
_atom_site_type_symbol
_atom_site_label
_atom_site_fract_x
_atom_site_fract_y
_atom_site_fract_z
Si Si1 0.070404 0.247502 0.113284
Si Si2 0.900503 0.378496 0.943750
Si Si3 0.743898 0.869625 0.327264
Si Si4 0.428506 0.092111 0.428486
Si Si5 0.426660 0.305167 0.229111
Si Si6 0.947754 0.352726 0.324474
Si Si7 0.531290 0.647263 0.102583
Si Si8 0.336616 0.881341 0.641208
O O1 0.212276 0.185412 0.419590
O O2 0.195793 0.310270 0.044795
O O3 0.118146 0.348479 0.169833
O O4 0.741080 0.157628 0.797852
O O5 0.691078 0.356303 0.592458
O O6 0.789224 0.304105 0.035589
O O7 0.000000 0.500000 0.000000
O O8 0.699652 0.773514 0.249631
O O9 0.513114 0.897869 0.973476
O O10 0.000000 0.000000 0.500000
O O11 0.306139 0.170937 0.224178
O O12 0.481530 0.091461 0.320030
O O13 0.250827 0.973540 0.425244
O O14 0.507607 0.347614 0.119458
O O15 0.892359 0.251570 0.473205
O O16 0.272940 0.406960 0.607990
O O17 0.779471 0.407727 0.137223
#
# Coordination Sequence:
#
# PCOD9100363 Si02
#       8
#     2   2   2   2   2   2   2   2
#     4  11  23  42  68  96 138 183 236 289 358 424
#     4  11  27  49  73 101 135 181 241 305 370 434
#     4  11  20  38  61 101 140 192 230 284 339 420
#     4  10  20  38  59 101 137 186 232 283 337 418
#     4  11  23  42  70 101 139 185 236 297 359 425
#     4  11  23  47  73 100 143 187 236 298 356 423
#     4  11  24  44  73 103 145 190 234 294 359 417
#     4  10  20  37  63  95 145 185 236 278 346 410
#
# _framework density 26.11187
#
# number of rings (size 3 to 8) (size 9 to 14) (size 15 to 20)
#    0.000    1.250    5.000    2.250    1.750    1.500 
#    0.000    8.125    0.000    0.000    0.000    0.000 
#    0.000    0.000    0.000    0.000    0.000    0.000 
#
# Total GULP energy -89223.530356 kJ/mol
# GULP energy per Si atom -5576.470647 kJ/mol
# Density = 2.605244 g / cm^3
# Si number density = 26.111870 Si / 1000 Ang^3
#
#
#
# Elastic Constant Matrix: (Units=GPa)
#
#
# Indices 1 2 3 4 5 6 
#
# 1 152.1456 13.5091 41.9091 -5.6054 -14.7094 1.7657
# 2 13.5091 75.1426 12.1731 -1.7240 1.5775 -5.4366
# 3 41.9091 12.1731 126.0838 2.1620 -12.9665 3.6105
# 4 -5.6054 -1.7240 2.1620 24.9484 -5.5261 -0.3675
# 5 -14.7094 1.5775 -12.9665 -5.5261 55.4342 -6.0048
# 6 1.7657 -5.4366 3.6105 -0.3675 -6.0048 21.2872
#
#
#
# Elastic Compliance Matrix: (Units=1/GPa)
#
#
# Indices 1 2 3 4 5 6 
#
# 1 0.007531 -0.000969 -0.002272 0.002203 0.001718 0.000036
# 2 -0.000969 0.013974 -0.001194 0.000807 -0.000449 0.003739
# 3 -0.002272 -0.001194 0.008990 -0.001107 0.001283 -0.001298
# 4 0.002203 0.000807 -0.001107 0.041807 0.004716 0.002263
# 5 0.001718 -0.000449 0.001283 0.004716 0.019842 0.005204
# 6 0.000036 0.003739 -0.001298 0.002263 0.005204 0.049656
#
#
# Mechanical properties :
#
#
# Convention : Reuss Voigt Hill
#
# Bulk Modulus (GPa) = 46.24200 54.28384 50.26292
# Shear Modulus (GPa) = 31.66991 39.38601 35.52796
#
# Velocity S-wave (km/s) = 3.48638 3.88797 3.69264
# Velocity P-wave (km/s) = 5.82702 6.40228 6.12141
#
# Compressibility (1/GPa) = 0.02162536
#
# Stress axis : x y z
#
# Youngs Moduli (GPa) = 132.77840 71.56076 111.23726
#
# Poissons Ratio (x) = 0.06933 0.25272
# Poissons Ratio (y) = 0.12864 0.13284
# Poissons Ratio (z) = 0.30166 0.08546
#
# Static dielectric constant tensor:
#      x y z
#    x 2.075050 0.005580 0.029490 
#    y 0.005580 2.152190 0.038400 
#    z 0.029490 0.038400 2.089900 
# 
# From -- ./inp_files/279261.got.cif
#   From: 2010.05.17/outbox.cif.g08.bks.cpg/sg2_140_cif.got.tgz:279261.got - 2010.06.03 11:33:40.
