data_PCOD9100764
_publ_section_title
;
Structure prediction by ZEFSAII (Michael W. Deem and Ramdas Pophale) SiO2 
 PCOD9100764
Probable space group: P -1
;
_chemical_formula_sum "Si O2"
_cell_formula_units_Z 14
_cell_length_a 11.758998
_cell_length_b 16.716703
_cell_length_c 17.024771
_cell_angle_alpha 19.119878
_cell_angle_beta 32.571977
_cell_angle_gamma 30.636836
_cell_volume 549.643868
_symmetry_space_group_name_H-M "P -1"
_symmetry_group_IT_number 2
_symmetry_cell_setting 'triclinic'
loop_
_space_group_symop_operation_xyz
x,y,z
-x,-y,-z
loop_
_atom_site_type_symbol
_atom_site_label
_atom_site_fract_x
_atom_site_fract_y
_atom_site_fract_z
Si Si1 0.528894 0.624663 0.786739
Si Si2 0.597937 0.155891 0.930569
Si Si3 0.684790 0.920537 0.701022
Si Si4 0.277493 0.759278 0.377589
Si Si5 0.180481 0.678391 0.675104
Si Si6 0.792030 0.847117 0.536608
Si Si7 0.869693 0.295213 0.768047
O O1 0.700467 0.767494 0.584066
O O2 0.652950 0.438693 0.816621
O O3 0.282219 0.839483 0.714738
O O4 0.500000 0.500000 0.000000
O O5 0.687152 0.056178 0.883631
O O6 0.363620 0.391557 0.830160
O O7 0.780170 0.260596 0.766193
O O8 0.527889 0.018758 0.173035
O O9 0.662096 0.832155 0.707637
O O10 0.921056 0.705682 0.794274
O O11 0.749056 0.180126 0.425076
O O12 0.500000 0.500000 0.500000
O O13 0.217249 0.844416 0.423558
O O14 0.056713 0.700494 0.532959
O O15 0.000000 0.500000 0.500000
O O16 0.000000 0.000000 0.000000
#
# Coordination Sequence:
#
# PCOD9100764 Si02
#       7
#     2   2   2   2   2   2   2
#     4  11  25  43  72  99 138 192 247 300 364 439
#     4  11  22  38  67  89 135 176 233 285 364 415
#     4  10  20  37  65  96 129 176 225 292 350 432
#     4   9  20  40  62  95 135 184 228 299 358 439
#     4   9  20  38  61  94 132 170 229 290 354 425
#     4  10  22  42  67  96 142 179 242 293 366 429
#     4  12  30  48  74 109 150 192 248 307 372 437
#
# _framework density 25.471038
#
# number of rings (size 3 to 8) (size 9 to 14) (size 15 to 20)
#    0.000    1.714    0.000    3.000   10.000    0.571 
#    0.000    7.143    0.000    0.000    0.000    0.000 
#    0.000    0.000    0.000    0.000    0.000    0.000 
#
# Total GULP energy -78081.892744 kJ/mol
# GULP energy per Si atom -5577.278053 kJ/mol
# Density = 2.541306 g / cm^3
# Si number density = 25.471038 Si / 1000 Ang^3
#
#
#
# Elastic Constant Matrix: (Units=GPa)
#
#
# Indices 1 2 3 4 5 6 
#
# 1 118.6270 11.1637 14.8860 12.3073 5.8810 15.5368
# 2 11.1637 84.0433 22.6349 7.5023 12.6464 -8.6978
# 3 14.8860 22.6349 71.7291 16.8728 14.8181 -2.0570
# 4 12.3073 7.5023 16.8728 37.8890 3.0583 8.2894
# 5 5.8810 12.6464 14.8181 3.0583 41.2196 7.0866
# 6 15.5368 -8.6978 -2.0570 8.2894 7.0866 46.4069
#
#
#
# Elastic Compliance Matrix: (Units=1/GPa)
#
#
# Indices 1 2 3 4 5 6 
#
# 1 0.009258 -0.001075 -0.001340 -0.001529 0.000139 -0.003108
# 2 -0.001075 0.013892 -0.002942 -0.001605 -0.003562 0.003664
# 3 -0.001340 -0.002942 0.018020 -0.007188 -0.005331 0.002794
# 4 -0.001529 -0.001605 -0.007188 0.031571 0.001993 -0.006051
# 5 0.000139 -0.003562 -0.005331 0.001993 0.028063 -0.005592
# 6 -0.003108 0.003664 0.002794 -0.006051 -0.005592 0.025335
#
#
# Mechanical properties :
#
#
# Convention : Reuss Voigt Hill
#
# Bulk Modulus (GPa) = 32.83460 41.30761 37.07111
# Shear Modulus (GPa) = 34.01208 40.15076 37.08142
#
# Velocity S-wave (km/s) = 3.65817 3.97461 3.81967
# Velocity P-wave (km/s) = 5.54634 6.10869 5.83429
#
# Compressibility (1/GPa) = 0.03045568
#
# Stress axis : x y z
#
# Youngs Moduli (GPa) = 108.01494 71.98220 55.49317
#
# Poissons Ratio (x) = 0.07737 0.07438
# Poissons Ratio (y) = 0.11610 0.16327
# Poissons Ratio (z) = 0.14478 0.21179
#
# Static dielectric constant tensor:
#      x y z
#    x 2.037640 -0.020160 -0.051010 
#    y -0.020160 1.985520 0.073390 
#    z -0.051010 0.073390 2.297530 
# 
# From -- ./inp_files/570289.got.cif
#   From: 2010.05.17/outbox.cif.g08.bks.cpg/sg2_286_cif.got.tgz:570289.got - 2010.06.03 11:33:40.
