data_PCOD9100746
_publ_section_title
;
Structure prediction by ZEFSAII (Michael W. Deem and Ramdas Pophale) SiO2 
 PCOD9100746
Probable space group: P -1
;
_chemical_formula_sum "Si O2"
_cell_formula_units_Z 16
_cell_length_a 15.937650
_cell_length_b 14.368079
_cell_length_c 14.945419
_cell_angle_alpha 19.627479
_cell_angle_beta 41.885034
_cell_angle_gamma 36.672887
_cell_volume 685.564264
_symmetry_space_group_name_H-M "P -1"
_symmetry_group_IT_number 2
_symmetry_cell_setting 'triclinic'
loop_
_space_group_symop_operation_xyz
x,y,z
-x,-y,-z
loop_
_atom_site_type_symbol
_atom_site_label
_atom_site_fract_x
_atom_site_fract_y
_atom_site_fract_z
Si Si1 0.499921 0.477147 0.710695
Si Si2 0.016253 0.278785 0.949534
Si Si3 0.280747 0.717756 0.533104
Si Si4 0.196162 0.626333 0.486360
Si Si5 0.346982 0.117889 0.562013
Si Si6 0.542294 0.901201 0.759928
Si Si7 0.132853 0.427656 0.022928
Si Si8 0.227739 0.639124 0.055430
O O1 0.437715 0.505701 0.635151
O O2 0.659288 0.420926 0.630830
O O3 0.419485 0.815780 0.513806
O O4 0.479972 0.225960 0.012933
O O5 0.137514 0.378536 0.740052
O O6 0.913978 0.527647 0.877777
O O7 0.924973 0.271116 0.944710
O O8 0.080665 0.956457 0.243787
O O9 0.229000 0.627720 0.564681
O O10 0.245226 0.076545 0.231195
O O11 0.190894 0.666262 0.730722
O O12 0.256712 0.468583 0.283231
O O13 0.500000 0.000000 0.500000
O O14 0.396651 0.035160 0.698922
O O15 0.268088 0.920100 0.772868
O O16 0.660232 0.620061 0.865433
O O17 0.000000 0.500000 0.000000
#
# Coordination Sequence:
#
# PCOD9100746 Si02
#       8
#     2   2   2   2   2   2   2   2
#     4  12  25  40  62  87 120 163 213 249 282 355
#     4  12  24  39  63  88 126 161 200 246 301 365
#     4  12  23  41  62  88 120 159 210 252 300 347
#     4  12  25  42  58  83 124 172 205 244 293 344
#     4  10  20  37  65  94 128 150 183 249 318 368
#     4  11  22  41  63  94 122 151 195 252 313 352
#     4  12  22  39  61  91 120 156 194 252 312 353
#     4  11  21  38  64 100 121 151 194 245 312 371
#
# _framework density 23.338439000000001
#
# number of rings (size 3 to 8) (size 9 to 14) (size 15 to 20)
#    0.000    0.500    2.500    9.000    0.000    0.000 
#    0.000    3.750    0.000   15.000    0.000    0.000 
#    0.000    0.000    0.000    0.000    0.000    0.000 
#
# Total GULP energy -89583.106268 kJ/mol
# GULP energy per Si atom -5598.944142 kJ/mol
# Density = 2.328532 g / cm^3
# Si number density = 23.338439 Si / 1000 Ang^3
#
#
#
# Elastic Constant Matrix: (Units=GPa)
#
#
# Indices 1 2 3 4 5 6 
#
# 1 159.2444 5.1111 48.4817 -4.3132 8.2596 -31.9621
# 2 5.1111 22.3093 1.7009 2.9591 4.3162 -5.8309
# 3 48.4817 1.7009 122.9205 1.2806 -4.2088 -8.9873
# 4 -4.3132 2.9591 1.2806 10.5086 -2.3653 -3.1279
# 5 8.2596 4.3162 -4.2088 -2.3653 42.2411 2.7644
# 6 -31.9621 -5.8309 -8.9873 -3.1279 2.7644 15.9718
#
#
#
# Elastic Compliance Matrix: (Units=1/GPa)
#
#
# Indices 1 2 3 4 5 6 
#
# 1 0.014143 0.004409 -0.003657 0.013223 -0.004888 0.031291
# 2 0.004409 0.053832 -0.000642 -0.006802 -0.008658 0.028281
# 3 -0.003657 -0.000642 0.009449 -0.003007 0.001758 -0.003128
# 4 0.013223 -0.006802 -0.003007 0.116539 0.001399 0.044866
# 5 -0.004888 -0.008658 0.001758 0.001399 0.026836 -0.016323
# 6 0.031291 0.028281 -0.003128 0.044866 -0.016323 0.145404
#
#
# Mechanical properties :
#
#
# Convention : Reuss Voigt Hill
#
# Bulk Modulus (GPa) = 12.87901 46.11796 29.49848
# Shear Modulus (GPa) = 12.75948 30.35632 21.55790
#
# Velocity S-wave (km/s) = 2.34073 3.61044 3.04255
# Velocity P-wave (km/s) = 3.58270 6.09785 5.00097
#
# Compressibility (1/GPa) = 0.07764572
#
# Stress axis : x y z
#
# Youngs Moduli (GPa) = 70.70388 18.57623 105.82781
#
# Poissons Ratio (x) = -0.08190 0.38698
# Poissons Ratio (y) = -0.31171 0.06790
# Poissons Ratio (z) = 0.25854 0.01192
#
# Static dielectric constant tensor:
#      x y z
#    x 1.898200 -0.004740 0.010560 
#    y -0.004740 1.925820 -0.004030 
#    z 0.010560 -0.004030 1.810770 
# 
# From -- ./inp_files/534007.got.cif
#   From: 2010.05.17/outbox.cif.g08.bks.cpg/sg2_268_cif.got.tgz:534007.got - 2010.06.03 11:33:40.
