data_PCOD9100838
_publ_section_title
;
Structure prediction by ZEFSAII (Michael W. Deem and Ramdas Pophale) SiO2 
 PCOD9100838
Probable space group: P -1
;
_chemical_formula_sum "Si O2"
_cell_formula_units_Z 16
_cell_length_a 13.905400
_cell_length_b 21.162140
_cell_length_c 22.631683
_cell_angle_alpha 159.937344
_cell_angle_beta 21.142664
_cell_angle_gamma 150.248341
_cell_volume 822.360499
_symmetry_space_group_name_H-M "P -1"
_symmetry_group_IT_number 2
_symmetry_cell_setting 'triclinic'
loop_
_space_group_symop_operation_xyz
x,y,z
-x,-y,-z
loop_
_atom_site_type_symbol
_atom_site_label
_atom_site_fract_x
_atom_site_fract_y
_atom_site_fract_z
Si Si1 0.863458 0.874811 0.640304
Si Si2 0.247881 0.479422 0.668905
Si Si3 0.682893 0.998214 0.185397
Si Si4 0.293102 0.271097 0.163878
Si Si5 0.346286 0.668780 0.431187
Si Si6 0.527092 0.248533 0.140244
Si Si7 0.678211 0.640465 0.100145
Si Si8 0.468405 0.768997 0.213251
O O1 0.827222 0.731099 0.480892
O O2 0.696367 0.799372 0.725099
O O3 0.172186 0.865046 0.472276
O O4 0.745242 0.076920 0.869004
O O5 0.500000 0.500000 0.500000
O O6 0.339694 0.564382 0.752324
O O7 0.991158 0.603718 0.901969
O O8 0.577535 0.201636 0.444197
O O9 0.620312 0.867842 0.161508
O O10 0.596476 0.904313 0.092045
O O11 0.000000 0.000000 0.000000
O O12 0.377157 0.455739 0.245172
O O13 0.398422 0.262956 0.162585
O O14 0.968395 0.285306 0.362202
O O15 0.520618 0.706426 0.306893
O O16 0.617925 0.765241 0.186878
O O17 0.569790 0.441250 0.970010
#
# Coordination Sequence:
#
# PCOD9100838 Si02
#       8
#     2   2   2   2   2   2   2   2
#     4   9  20  38  59  88 120 147 197 253 285 347
#     4   9  20  39  55  87 123 148 190 242 290 353
#     4  10  22  40  56  88 124 152 196 245 290 354
#     4  10  21  40  59  84 122 159 197 239 293 353
#     4  10  21  38  61  87 119 152 198 250 290 346
#     4  10  20  38  62  83 118 161 196 233 297 353
#     4  10  20  37  66  91 117 154 193 249 304 341
#     4  10  20  38  64  90 121 150 193 251 304 337
#
# _framework density 19.456187
#
# number of rings (size 3 to 8) (size 9 to 14) (size 15 to 20)
#    0.000    2.250    1.250    0.750    1.750    2.500 
#   13.500    1.250    0.000    0.000    0.000    0.000 
#    0.000    0.000    0.000    0.000    0.000    0.000 
#
# Total GULP energy -89284.563611 kJ/mol
# GULP energy per Si atom -5580.285226 kJ/mol
# Density = 1.941190 g / cm^3
# Si number density = 19.456187 Si / 1000 Ang^3
#
#
#
# Elastic Constant Matrix: (Units=GPa)
#
#
# Indices 1 2 3 4 5 6 
#
# 1 135.2322 24.4508 51.0802 8.1603 26.7439 12.7557
# 2 24.4508 48.3982 21.3903 -11.4237 -0.0798 5.8395
# 3 51.0802 21.3903 79.2090 -9.0691 17.4904 6.0066
# 4 8.1603 -11.4237 -9.0691 18.0143 3.8356 6.2594
# 5 26.7439 -0.0798 17.4904 3.8356 18.5356 4.7659
# 6 12.7557 5.8395 6.0066 6.2594 4.7659 16.2633
#
#
#
# Elastic Compliance Matrix: (Units=1/GPa)
#
#
# Indices 1 2 3 4 5 6 
#
# 1 0.014015 -0.007770 -0.005636 -0.012165 -0.013031 0.002380
# 2 -0.007770 0.034950 -0.002444 0.028792 0.012963 -0.020433
# 3 -0.005636 -0.002444 0.022814 0.017684 -0.015694 -0.005335
# 4 -0.012165 0.028792 0.017684 0.105925 -0.009261 -0.045382
# 5 -0.013031 0.012963 -0.015694 -0.009261 0.092679 -0.012232
# 6 0.002380 -0.020433 -0.005335 -0.045382 -0.012232 0.089980
#
#
# Mechanical properties :
#
#
# Convention : Reuss Voigt Hill
#
# Bulk Modulus (GPa) = 24.94975 50.74245 37.84610
# Shear Modulus (GPa) = 12.33285 21.62383 16.97834
#
# Velocity S-wave (km/s) = 2.52042 3.33740 2.95726
# Velocity P-wave (km/s) = 4.61752 6.40218 5.58164
#
# Compressibility (1/GPa) = 0.04008056
#
# Stress axis : x y z
#
# Youngs Moduli (GPa) = 71.35269 28.61231 43.83281
#
# Poissons Ratio (x) = 0.22231 0.24702
# Poissons Ratio (y) = 0.55438 0.10713
# Poissons Ratio (z) = 0.40211 0.06993
#
# Static dielectric constant tensor:
#      x y z
#    x 1.659820 0.032240 0.043300 
#    y 0.032240 1.668080 0.023890 
#    z 0.043300 0.023890 1.686170 
# 
# From -- ./inp_files/612264.got.cif
#   From: 2010.05.17/outbox.cif.g08.bks.cpg/sg2_307_cif.got.tgz:612264.got - 2010.06.03 11:33:40.
