data_PCOD9100158
_publ_section_title
;
Structure prediction by ZEFSAII (Michael W. Deem and Ramdas Pophale) SiO2 
 PCOD9100158
Probable space group: P -1
;
_chemical_formula_sum "Si O2"
_cell_formula_units_Z 16
_cell_length_a 11.997713
_cell_length_b 8.678242
_cell_length_c 13.476956
_cell_angle_alpha 73.926460
_cell_angle_beta 144.712694
_cell_angle_gamma 94.149243
_cell_volume 748.479739
_symmetry_space_group_name_H-M "P -1"
_symmetry_group_IT_number 2
_symmetry_cell_setting 'triclinic'
loop_
_space_group_symop_operation_xyz
x,y,z
-x,-y,-z
loop_
_atom_site_type_symbol
_atom_site_label
_atom_site_fract_x
_atom_site_fract_y
_atom_site_fract_z
Si Si1 0.235098 0.161622 0.564064
Si Si2 0.868313 0.439402 0.329233
Si Si3 0.549480 0.018906 0.417355
Si Si4 0.156369 0.989795 0.029578
Si Si5 0.711233 0.033165 0.176684
Si Si6 0.378041 0.638821 0.664662
Si Si7 0.621718 0.279410 0.900794
Si Si8 0.057847 0.259702 0.742608
O O1 0.264501 0.113134 0.478594
O O2 0.415023 0.233404 0.725377
O O3 0.024783 0.292494 0.411592
O O4 0.254614 0.997231 0.676245
O O5 0.697810 0.381977 0.274253
O O6 0.809375 0.609368 0.191947
O O7 0.000000 0.500000 0.500000
O O8 0.363476 0.988337 0.230055
O O9 0.500000 0.000000 0.500000
O O10 0.569338 0.197851 0.365483
O O11 0.204041 0.825343 0.025506
O O12 0.093137 0.150851 0.885633
O O13 0.000000 0.000000 0.000000
O O14 0.877590 0.880405 0.272299
O O15 0.687859 0.206382 0.071681
O O16 0.500000 0.000000 0.000000
O O17 0.562583 0.476339 0.812541
O O18 0.176350 0.643145 0.454424
#
# Coordination Sequence:
#
# PCOD9100158 Si02
#       8
#     2   2   2   2   2   2   2   2
#     4  10  17  35  58  88 122 164 195 236 299 368
#     4  10  16  31  61  97 125 146 196 247 300 365
#     4  11  26  43  58  84 127 164 204 255 303 352
#     4  10  22  43  65  84 114 168 217 242 296 368
#     4   9  15  28  54  89 120 152 191 241 293 350
#     4  11  20  37  63  92 129 151 193 257 313 347
#     4   9  18  33  61  93 119 153 200 253 298 362
#     4  10  18  34  64  92 120 154 199 251 294 363
#
# _framework density 21.376664000000002
#
# number of rings (size 3 to 8) (size 9 to 14) (size 15 to 20)
#    0.000    2.000    5.000    2.250    0.000    0.500 
#    2.250    5.000    2.750    0.000    0.000    0.000 
#    0.000    0.000    0.000    0.000    0.000    0.000 
#
# Total GULP energy -89285.376217 kJ/mol
# GULP energy per Si atom -5580.336014 kJ/mol
# Density = 2.132801 g / cm^3
# Si number density = 21.376664 Si / 1000 Ang^3
#
#
#
# Elastic Constant Matrix: (Units=GPa)
#
#
# Indices 1 2 3 4 5 6 
#
# 1 171.4115 50.4148 44.1823 -25.9798 -17.4842 -1.1775
# 2 50.4148 77.0980 25.0781 -26.4005 -4.6013 7.0709
# 3 44.1823 25.0781 63.7305 -26.2742 -1.0526 -13.0809
# 4 -25.9798 -26.4005 -26.2742 38.5498 3.9522 0.3866
# 5 -17.4842 -4.6013 -1.0526 3.9522 29.2023 1.2506
# 6 -1.1775 7.0709 -13.0809 0.3866 1.2506 22.2855
#
#
#
# Elastic Compliance Matrix: (Units=1/GPa)
#
#
# Indices 1 2 3 4 5 6 
#
# 1 0.008584 -0.003823 -0.004943 -0.000650 0.004510 -0.001477
# 2 -0.003823 0.020582 -0.003469 0.009248 -0.000040 -0.008926
# 3 -0.004943 -0.003469 0.030686 0.015564 -0.005315 0.018880
# 4 -0.000650 0.009248 0.015564 0.042839 -0.004412 0.005671
# 5 0.004510 -0.000040 -0.005315 -0.004412 0.037553 -0.004899
# 6 -0.001477 -0.008926 0.018880 0.005671 -0.004899 0.058885
#
#
# Mechanical properties :
#
#
# Convention : Reuss Voigt Hill
#
# Bulk Modulus (GPa) = 28.26228 61.28783 44.77505
# Shear Modulus (GPa) = 21.24110 30.84517 26.04314
#
# Velocity S-wave (km/s) = 3.15565 3.80272 3.49420
# Velocity P-wave (km/s) = 5.15047 6.92918 6.10495
#
# Compressibility (1/GPa) = 0.03538285
#
# Stress axis : x y z
#
# Youngs Moduli (GPa) = 116.49821 48.58650 32.58762
#
# Poissons Ratio (x) = 0.18575 0.16108
# Poissons Ratio (y) = 0.44539 0.11303
# Poissons Ratio (z) = 0.57585 0.16852
#
# Static dielectric constant tensor:
#      x y z
#    x 1.778180 -0.006810 0.008860 
#    y -0.006810 1.853190 0.006240 
#    z 0.008860 0.006240 1.807950 
# 
# From -- ./inp_files/328575.got.cif
#   From: 2010.05.17/outbox.cif.g08.bks.cpg/sg2_165_cif.got.tgz:328575.got - 2010.06.03 11:33:40.
