data_PCOD9100585
_publ_section_title
;
Structure prediction by ZEFSAII (Michael W. Deem and Ramdas Pophale) SiO2 
 PCOD9100585
Probable space group: P -1
;
_chemical_formula_sum "Si O2"
_cell_formula_units_Z 16
_cell_length_a 5.622153
_cell_length_b 18.087820
_cell_length_c 22.735686
_cell_angle_alpha 160.960467
_cell_angle_beta 72.749538
_cell_angle_gamma 112.428284
_cell_volume 681.248649
_symmetry_space_group_name_H-M "P -1"
_symmetry_group_IT_number 2
_symmetry_cell_setting 'triclinic'
loop_
_space_group_symop_operation_xyz
x,y,z
-x,-y,-z
loop_
_atom_site_type_symbol
_atom_site_label
_atom_site_fract_x
_atom_site_fract_y
_atom_site_fract_z
Si Si1 0.717387 0.297263 0.866543
Si Si2 0.284468 0.570016 0.503151
Si Si3 0.822845 0.461497 0.731832
Si Si4 0.421282 0.761988 0.763046
Si Si5 0.440014 0.747907 0.932841
Si Si6 0.213029 0.906951 0.180325
Si Si7 0.316358 0.546851 0.134436
Si Si8 0.952666 0.306890 0.492314
O O1 0.719944 0.084202 0.748817
O O2 0.656078 0.258175 0.772489
O O3 0.527907 0.420237 0.005530
O O4 0.000000 0.500000 0.000000
O O5 0.444665 0.700703 0.645989
O O6 0.356161 0.338676 0.303446
O O7 0.270123 0.723917 0.563375
O O8 0.000000 0.500000 0.500000
O O9 0.682071 0.373655 0.738441
O O10 0.836078 0.270699 0.538569
O O11 0.653899 0.612420 0.825797
O O12 0.135674 0.601313 0.827220
O O13 0.152293 0.580179 0.673080
O O14 0.462161 0.041573 0.965265
O O15 0.411372 0.852084 0.078103
O O16 0.119696 0.130149 0.337645
O O17 0.958103 0.668581 0.013636
#
# Coordination Sequence:
#
# PCOD9100585 Si02
#       8
#     2   2   2   2   2   2   2   2
#     4   9  17  35  65  95 119 155 215 260 307 376
#     4   9  19  36  56  84 114 158 209 273 315 364
#     4  11  26  43  61  98 134 172 206 272 329 383
#     4  10  22  38  61  86 120 169 228 270 312 369
#     4  11  24  42  66  89 128 174 225 267 318 374
#     4  10  20  37  64  96 120 169 217 262 308 386
#     4   9  19  37  64  93 125 162 208 261 313 382
#     4  11  25  39  61  91 132 169 214 267 331 375
#
# _framework density 23.486287999999998
#
# number of rings (size 3 to 8) (size 9 to 14) (size 15 to 20)
#    0.000    2.000    1.250    2.250    8.750    2.000 
#    0.000    0.625    0.000    6.750    0.000    0.000 
#    0.000    0.000    0.000    0.000    0.000    0.000 
#
# Total GULP energy -89225.049549 kJ/mol
# GULP energy per Si atom -5576.565597 kJ/mol
# Density = 2.343283 g / cm^3
# Si number density = 23.486288 Si / 1000 Ang^3
#
#
#
# Elastic Constant Matrix: (Units=GPa)
#
#
# Indices 1 2 3 4 5 6 
#
# 1 74.2740 15.4894 15.7613 7.6487 -20.2500 -9.1833
# 2 15.4894 139.7961 13.8249 -7.4931 0.6257 -11.3551
# 3 15.7613 13.8249 28.4213 -12.0385 -9.7799 -1.9591
# 4 7.6487 -7.4931 -12.0385 41.6644 1.4770 -1.4471
# 5 -20.2500 0.6257 -9.7799 1.4770 27.5024 6.2819
# 6 -9.1833 -11.3551 -1.9591 -1.4471 6.2819 45.3632
#
#
#
# Elastic Compliance Matrix: (Units=1/GPa)
#
#
# Indices 1 2 3 4 5 6 
#
# 1 0.019697 -0.001593 -0.009050 -0.006872 0.011369 0.001404
# 2 -0.001593 0.007898 -0.003519 0.000874 -0.003098 0.001959
# 3 -0.009050 -0.003519 0.052451 0.015719 0.011578 -0.001550
# 4 -0.006872 0.000874 0.015719 0.030028 -0.001248 0.000637
# 5 0.011369 -0.003098 0.011578 -0.001248 0.050118 -0.004954
# 6 0.001404 0.001959 -0.001550 0.000637 -0.004954 0.023458
#
#
# Mechanical properties :
#
#
# Convention : Reuss Voigt Hill
#
# Bulk Modulus (GPa) = 19.33426 36.96028 28.14727
# Shear Modulus (GPa) = 21.81348 36.06708 28.94028
#
# Velocity S-wave (km/s) = 3.05089 3.92301 3.51411
# Velocity P-wave (km/s) = 4.54539 6.02421 5.33628
#
# Compressibility (1/GPa) = 0.05172166
#
# Stress axis : x y z
#
# Youngs Moduli (GPa) = 50.76843 126.62017 19.06530
#
# Poissons Ratio (x) = 0.20165 0.17255
# Poissons Ratio (y) = 0.08085 0.06710
# Poissons Ratio (z) = 0.45947 0.44563
#
# Static dielectric constant tensor:
#      x y z
#    x 2.083560 0.188340 0.446280 
#    y 0.188340 2.446960 0.865030 
#    z 0.446280 0.865030 3.244220 
# 
# From -- ./inp_files/37439.got.cif
#   From: 2010.05.17/outbox.cif.g08.bks.cpg/sg2_19_cif.got.tgz:37439.got - 2010.06.03 11:33:40.
