data_PCOD9100521
_publ_section_title
;
Structure prediction by ZEFSAII (Michael W. Deem and Ramdas Pophale) SiO2 
 PCOD9100521
Probable space group: P -1
;
_chemical_formula_sum "Si O2"
_cell_formula_units_Z 16
_cell_length_a 9.751461
_cell_length_b 16.788986
_cell_length_c 10.988672
_cell_angle_alpha 22.051424
_cell_angle_beta 70.997087
_cell_angle_gamma 72.928269
_cell_volume 638.445847
_symmetry_space_group_name_H-M "P -1"
_symmetry_group_IT_number 2
_symmetry_cell_setting 'triclinic'
loop_
_space_group_symop_operation_xyz
x,y,z
-x,-y,-z
loop_
_atom_site_type_symbol
_atom_site_label
_atom_site_fract_x
_atom_site_fract_y
_atom_site_fract_z
Si Si1 0.432768 0.292156 0.682267
Si Si2 0.290682 0.705767 0.063055
Si Si3 0.914148 0.336431 0.610384
Si Si4 0.924528 0.141549 0.477877
Si Si5 0.267629 0.920190 0.140777
Si Si6 0.248796 0.249942 0.024229
Si Si7 0.815526 0.512542 0.823989
Si Si8 0.739624 0.827740 0.597279
O O1 0.394394 0.535573 0.333580
O O2 0.596507 0.231861 0.699486
O O3 0.376050 0.219696 0.933043
O O4 0.336319 0.153535 0.810796
O O5 0.132446 0.668692 0.227694
O O6 0.277212 0.643921 0.013766
O O7 0.334423 0.949655 0.720280
O O8 0.837801 0.125643 0.875884
O O9 0.075120 0.360030 0.478494
O O10 0.832676 0.538194 0.291613
O O11 0.822445 0.140429 0.627338
O O12 0.087681 0.122470 0.504981
O O13 0.864865 0.946142 0.689410
O O14 0.907400 0.361088 0.100180
O O15 0.301146 0.258443 0.135464
O O16 0.725912 0.663638 0.723640
#
# Coordination Sequence:
#
# PCOD9100521 Si02
#       8
#     2   2   2   2   2   2   2   2
#     4   9  23  45  67  91 130 169 224 265 311 376
#     4  11  26  40  60 100 138 167 203 271 329 379
#     4  11  22  39  64  95 131 166 217 264 319 382
#     4  11  20  39  66  97 129 165 221 265 313 384
#     4  10  21  42  73  92 119 178 227 261 305 382
#     4  10  20  37  64  92 126 169 211 266 310 376
#     4  12  23  39  63  99 136 169 206 263 330 390
#     4  12  22  38  66  96 131 167 209 262 331 381
#
# _framework density 25.060858
#
# number of rings (size 3 to 8) (size 9 to 14) (size 15 to 20)
#    0.000    1.250    3.750    2.625    1.750    4.500 
#    0.000    0.625    0.000    2.250    0.000    0.000 
#    0.000    0.000    0.000    0.000    0.000    0.000 
#
# Total GULP energy -89709.327994 kJ/mol
# GULP energy per Si atom -5606.833000 kJ/mol
# Density = 2.500382 g / cm^3
# Si number density = 25.060858 Si / 1000 Ang^3
#
#
#
# Elastic Constant Matrix: (Units=GPa)
#
#
# Indices 1 2 3 4 5 6 
#
# 1 54.8088 18.0989 13.7071 -6.2084 -7.5064 -7.2847
# 2 18.0989 169.1430 36.0822 -13.5092 -0.6280 12.5920
# 3 13.7071 36.0822 110.7057 -23.8340 19.7920 -2.9006
# 4 -6.2084 -13.5092 -23.8340 41.8987 2.7679 -6.6107
# 5 -7.5064 -0.6280 19.7920 2.7679 27.0022 -6.1695
# 6 -7.2847 12.5920 -2.9006 -6.6107 -6.1695 39.6577
#
#
#
# Elastic Compliance Matrix: (Units=1/GPa)
#
#
# Indices 1 2 3 4 5 6 
#
# 1 0.022053 -0.001954 -0.003509 0.000950 0.009959 0.006122
# 2 -0.001954 0.006775 -0.002063 0.000287 0.000519 -0.002532
# 3 -0.003509 -0.002063 0.013911 0.007584 -0.011897 0.000441
# 4 0.000950 0.000287 0.007584 0.029597 -0.007309 0.004435
# 5 0.009959 0.000519 -0.011897 -0.007309 0.051000 0.007510
# 6 0.006122 -0.002532 0.000441 0.004435 0.007510 0.029084
#
#
# Mechanical properties :
#
#
# Convention : Reuss Voigt Hill
#
# Bulk Modulus (GPa) = 36.11976 52.27043 44.19510
# Shear Modulus (GPa) = 28.29619 39.49633 33.89626
#
# Velocity S-wave (km/s) = 3.36385 3.97421 3.68170
# Velocity P-wave (km/s) = 5.43428 6.47780 5.97885
#
# Compressibility (1/GPa) = 0.02768568
#
# Stress axis : x y z
#
# Youngs Moduli (GPa) = 45.34452 147.60518 71.88510
#
# Poissons Ratio (x) = 0.28844 0.25226
# Poissons Ratio (y) = 0.08861 0.14833
# Poissons Ratio (z) = 0.15913 0.30457
#
# Static dielectric constant tensor:
#      x y z
#    x 1.972970 0.007550 -0.027110 
#    y 0.007550 1.978670 -0.014670 
#    z -0.027110 -0.014670 1.959840 
# 
# From -- ./inp_files/436287.got.cif
#   From: 2010.05.17/outbox.cif.g08.bks.cpg/sg2_219_cif.got.tgz:436287.got - 2010.06.03 11:33:40.
