data_PCOD9100592
_publ_section_title
;
Structure prediction by ZEFSAII (Michael W. Deem and Ramdas Pophale) SiO2 
 PCOD9100592
Probable space group: P -1
;
_chemical_formula_sum "Si O2"
_cell_formula_units_Z 14
_cell_length_a 11.079266
_cell_length_b 8.436120
_cell_length_c 19.643601
_cell_angle_alpha 32.087459
_cell_angle_beta 141.803326
_cell_angle_gamma 136.209253
_cell_volume 594.257335
_symmetry_space_group_name_H-M "P -1"
_symmetry_group_IT_number 2
_symmetry_cell_setting 'triclinic'
loop_
_space_group_symop_operation_xyz
x,y,z
-x,-y,-z
loop_
_atom_site_type_symbol
_atom_site_label
_atom_site_fract_x
_atom_site_fract_y
_atom_site_fract_z
Si Si1 0.267454 0.822013 0.863764
Si Si2 0.998609 0.682049 0.001508
Si Si3 0.652598 0.268150 0.659886
Si Si4 0.068630 0.708021 0.668750
Si Si5 0.354731 0.759191 0.481048
Si Si6 0.084146 0.237608 0.742028
Si Si7 0.417834 0.804065 0.201448
O O1 0.182349 0.804980 0.754519
O O2 0.191166 0.486806 0.980840
O O3 0.196319 0.060872 0.799643
O O4 0.498248 0.945736 0.907858
O O5 0.196604 0.648538 0.141913
O O6 0.000000 0.500000 0.000000
O O7 0.027063 0.016393 0.862591
O O8 0.500000 0.500000 0.500000
O O9 0.627158 0.104875 0.636519
O O10 0.599224 0.076553 0.773350
O O11 0.867494 0.477952 0.683085
O O12 0.167872 0.546643 0.708398
O O13 0.000000 0.000000 0.500000
O O14 0.436913 0.444545 0.640437
O O15 0.118962 0.713416 0.404077
O O16 0.500000 0.000000 0.500000
#
# Coordination Sequence:
#
# PCOD9100592 Si02
#       7
#     2   2   2   2   2   2   2
#     4  11  23  43  69  92 136 179 215 275 333 387
#     4  10  22  43  71  93 134 178 219 273 333 384
#     4   9  19  36  59  92 128 167 214 263 323 399
#     4  11  22  40  67  95 133 175 217 273 340 383
#     4  10  20  37  64  96 129 169 218 276 332 380
#     4  10  24  42  64 103 128 173 231 267 325 406
#     4  11  22  42  66  96 130 174 219 267 334 398
#
# _framework density 23.558817000000001
#
# number of rings (size 3 to 8) (size 9 to 14) (size 15 to 20)
#    0.000    1.714    1.429    4.286    2.000    5.143 
#    2.571    0.714    3.143    0.000    0.000    0.000 
#    0.000    0.000    0.000    0.000    0.000    0.000 
#
# Total GULP energy -78046.579794 kJ/mol
# GULP energy per Si atom -5574.755700 kJ/mol
# Density = 2.350520 g / cm^3
# Si number density = 23.558817 Si / 1000 Ang^3
#
#
#
# Elastic Constant Matrix: (Units=GPa)
#
#
# Indices 1 2 3 4 5 6 
#
# 1 114.4549 61.7436 24.8722 -2.9132 -19.2503 -6.7155
# 2 61.7436 85.8805 12.8564 -6.5151 -10.6047 -24.3273
# 3 24.8722 12.8564 61.8648 -7.4833 -5.0642 -4.6407
# 4 -2.9132 -6.5151 -7.4833 30.5169 -0.6982 -8.5570
# 5 -19.2503 -10.6047 -5.0642 -0.6982 39.1404 -2.5029
# 6 -6.7155 -24.3273 -4.6407 -8.5570 -2.5029 46.7477
#
#
#
# Elastic Compliance Matrix: (Units=1/GPa)
#
#
# Indices 1 2 3 4 5 6 
#
# 1 0.016814 -0.012619 -0.004630 -0.003553 0.003865 -0.005055
# 2 -0.012619 0.024943 0.002014 0.008295 0.001790 0.012982
# 3 -0.004630 0.002014 0.018599 0.005493 0.000983 0.003287
# 4 -0.003553 0.008295 0.005493 0.038863 0.002646 0.011607
# 5 0.003865 0.001790 0.000983 0.002646 0.028339 0.003586
# 6 -0.005055 0.012982 0.003287 0.011607 0.003586 0.030064
#
#
# Mechanical properties :
#
#
# Convention : Reuss Voigt Hill
#
# Bulk Modulus (GPa) = 33.46242 51.23829 42.35035
# Shear Modulus (GPa) = 25.24575 34.12954 29.68764
#
# Velocity S-wave (km/s) = 3.27709 3.81030 3.55371
# Velocity P-wave (km/s) = 5.34357 6.41515 5.90372
#
# Compressibility (1/GPa) = 0.02988427
#
# Stress axis : x y z
#
# Youngs Moduli (GPa) = 59.47494 40.09151 53.76703
#
# Poissons Ratio (x) = 0.50593 0.24894
# Poissons Ratio (y) = 0.75054 -0.10827
# Poissons Ratio (z) = 0.27537 -0.08073
#
# Static dielectric constant tensor:
#      x y z
#    x 1.959440 0.025150 0.028050 
#    y 0.025150 1.890500 -0.033430 
#    z 0.028050 -0.033430 1.948400 
# 
# From -- ./inp_files/358608.got.cif
#   From: 2010.05.17/outbox.cif.g08.bks.cpg/sg2_180_cif.got.tgz:358608.got - 2010.06.03 11:33:40.
