data_PCOD9100177
_publ_section_title
;
Structure prediction by ZEFSAII (Michael W. Deem and Ramdas Pophale) SiO2 
 PCOD9100177
Probable space group: P -1
;
_chemical_formula_sum "Si O2"
_cell_formula_units_Z 16
_cell_length_a 12.325893
_cell_length_b 14.349628
_cell_length_c 9.783383
_cell_angle_alpha 136.781322
_cell_angle_beta 143.936145
_cell_angle_gamma 65.885605
_cell_volume 623.708946
_symmetry_space_group_name_H-M "P -1"
_symmetry_group_IT_number 2
_symmetry_cell_setting 'triclinic'
loop_
_space_group_symop_operation_xyz
x,y,z
-x,-y,-z
loop_
_atom_site_type_symbol
_atom_site_label
_atom_site_fract_x
_atom_site_fract_y
_atom_site_fract_z
Si Si1 0.085806 0.329760 0.729548
Si Si2 0.346819 0.484832 0.626440
Si Si3 0.652030 0.243665 0.256216
Si Si4 0.297398 0.084610 0.278460
Si Si5 0.049196 0.025211 0.417027
Si Si6 0.794431 0.655752 0.409858
Si Si7 0.466472 0.620544 0.498127
Si Si8 0.654944 0.048915 0.532223
O O1 0.179512 0.209820 0.724527
O O2 0.038669 0.313293 0.502593
O O3 0.881667 0.269333 0.546040
O O4 0.234370 0.506824 0.093535
O O5 0.317767 0.603620 0.628254
O O6 0.189913 0.430713 0.533153
O O7 0.360589 0.350332 0.408531
O O8 0.574957 0.563793 0.010556
O O9 0.536913 0.239650 0.276196
O O10 0.528456 0.105460 0.881877
O O11 0.226929 0.200927 0.400235
O O12 0.284165 0.979150 0.283460
O O13 0.535526 0.152460 0.540867
O O14 0.145832 0.011751 0.919479
O O15 0.164399 0.932007 0.369053
O O16 0.000000 0.000000 0.500000
O O17 0.500000 0.500000 0.500000
#
# Coordination Sequence:
#
# PCOD9100177 Si02
#       8
#     2   2   2   2   2   2   2   2
#     4  11  22  40  60  93 128 168 212 266 322 385
#     4   9  19  37  58  95 117 164 208 262 317 377
#     4  11  20  38  66  92 126 166 213 262 324 393
#     4  11  23  42  69  95 124 181 213 265 324 391
#     4  12  26  43  64  95 136 169 221 273 320 385
#     4  10  20  37  63  85 128 159 215 260 314 381
#     4   9  19  36  62  84 123 165 204 253 321 380
#     4  11  23  43  70  94 129 171 222 265 326 388
#
# _framework density 25.652991
#
# number of rings (size 3 to 8) (size 9 to 14) (size 15 to 20)
#    0.000    1.500    3.750    2.250    0.000    4.000 
#    2.250    0.000    0.000    0.000    0.000    0.000 
#    0.000    0.000    0.000    0.000    0.000    0.000 
#
# Total GULP energy -89400.119120 kJ/mol
# GULP energy per Si atom -5587.507445 kJ/mol
# Density = 2.559460 g / cm^3
# Si number density = 25.652991 Si / 1000 Ang^3
#
#
#
# Elastic Constant Matrix: (Units=GPa)
#
#
# Indices 1 2 3 4 5 6 
#
# 1 145.8357 8.0451 29.3061 -18.1238 -15.1474 0.7128
# 2 8.0451 38.9044 0.4173 -4.3730 -4.7175 -3.7900
# 3 29.3061 0.4173 81.9014 -12.0446 -16.5504 -7.7204
# 4 -18.1238 -4.3730 -12.0446 24.2181 -4.2410 0.3932
# 5 -15.1474 -4.7175 -16.5504 -4.2410 36.5983 -3.2015
# 6 0.7128 -3.7900 -7.7204 0.3932 -3.2015 38.8026
#
#
#
# Elastic Compliance Matrix: (Units=1/GPa)
#
#
# Indices 1 2 3 4 5 6 
#
# 1 0.008270 -0.000646 -0.001428 0.005955 0.003359 -0.000282
# 2 -0.000646 0.027578 0.002523 0.006659 0.005515 0.003595
# 3 -0.001428 0.002523 0.016077 0.008784 0.008379 0.004074
# 4 0.005955 0.006659 0.008784 0.053683 0.013768 0.002881
# 5 0.003359 0.005515 0.008379 0.013768 0.035239 0.004912
# 6 -0.000282 0.003595 0.004074 0.002881 0.004912 0.027314
#
#
# Mechanical properties :
#
#
# Convention : Reuss Voigt Hill
#
# Bulk Modulus (GPa) = 18.93101 38.01983 28.47542
# Shear Modulus (GPa) = 27.04608 35.18199 31.11403
#
# Velocity S-wave (km/s) = 3.25053 3.70734 3.48642
# Velocity P-wave (km/s) = 4.63504 5.76010 5.22792
#
# Compressibility (1/GPa) = 0.05282340
#
# Stress axis : x y z
#
# Youngs Moduli (GPa) = 120.91990 36.26100 62.20164
#
# Poissons Ratio (x) = 0.02341 0.08882
# Poissons Ratio (y) = 0.07807 -0.15693
# Poissons Ratio (z) = 0.17266 -0.09149
#
# Static dielectric constant tensor:
#      x y z
#    x 2.120100 0.027190 0.029160 
#    y 0.027190 2.004580 0.018230 
#    z 0.029160 0.018230 2.102070 
# 
# From -- ./inp_files/274537.got.cif
#   From: 2010.05.17/outbox.cif.g08.bks.cpg/sg2_138_cif.got.tgz:274537.got - 2010.06.03 11:33:40.
