data_PCOD9100733
_publ_section_title
;
Structure prediction by ZEFSAII (Michael W. Deem and Ramdas Pophale) SiO2 
 PCOD9100733
Probable space group: P -1
;
_chemical_formula_sum "Si O2"
_cell_formula_units_Z 16
_cell_length_a 12.142858
_cell_length_b 12.404354
_cell_length_c 9.370615
_cell_angle_alpha 35.390051
_cell_angle_beta 100.167963
_cell_angle_gamma 100.857961
_cell_volume 802.133380
_symmetry_space_group_name_H-M "P -1"
_symmetry_group_IT_number 2
_symmetry_cell_setting 'triclinic'
loop_
_space_group_symop_operation_xyz
x,y,z
-x,-y,-z
loop_
_atom_site_type_symbol
_atom_site_label
_atom_site_fract_x
_atom_site_fract_y
_atom_site_fract_z
Si Si1 0.095784 0.470589 0.730630
Si Si2 0.923417 0.261277 0.124792
Si Si3 0.658351 0.480350 0.148125
Si Si4 0.655996 0.790654 0.586415
Si Si5 0.906847 0.830130 0.509444
Si Si6 0.521493 0.519031 0.652364
Si Si7 0.660626 0.227945 0.160169
Si Si8 0.037440 0.212882 0.744889
O O1 0.209824 0.492354 0.819756
O O2 0.104410 0.314568 0.779196
O O3 0.067658 0.662977 0.441682
O O4 0.989938 0.398671 0.881626
O O5 0.792544 0.283763 0.095311
O O6 0.992630 0.262311 0.287295
O O7 0.931500 0.052892 0.289390
O O8 0.591207 0.473656 0.287409
O O9 0.639216 0.298729 0.239122
O O10 0.621057 0.652202 0.858124
O O11 0.789562 0.779365 0.613929
O O12 0.596906 0.702949 0.525727
O O13 0.637260 0.006151 0.376312
O O14 0.896987 0.781319 0.394853
O O15 0.500000 0.500000 0.500000
O O16 0.586511 0.344466 0.912508
O O17 0.000000 0.000000 0.000000
#
# Coordination Sequence:
#
# PCOD9100733 Si02
#       8
#     2   2   2   2   2   2   2   2
#     4  11  24  38  63  93 128 176 205 255 327 378
#     4  10  20  38  66 100 125 159 216 254 318 380
#     4  11  24  43  65  95 123 166 219 264 314 378
#     4  10  22  43  70  95 122 167 213 267 325 360
#     4  10  20  37  65  93 131 163 204 264 312 385
#     4  11  27  45  64  92 131 166 217 267 316 378
#     4  10  23  42  69  96 126 166 213 268 311 382
#     4  11  24  39  55  90 137 172 209 253 315 388
#
# _framework density 19.946808000000001
#
# number of rings (size 3 to 8) (size 9 to 14) (size 15 to 20)
#    0.000    1.500    2.500    2.250    5.250    5.500 
#    0.000    0.000    0.000    0.000    0.000    0.000 
#    0.000    0.000    0.000    0.000    0.000    0.000 
#
# Total GULP energy -89423.905809 kJ/mol
# GULP energy per Si atom -5588.994113 kJ/mol
# Density = 1.990141 g / cm^3
# Si number density = 19.946808 Si / 1000 Ang^3
#
#
#
# Elastic Constant Matrix: (Units=GPa)
#
#
# Indices 1 2 3 4 5 6 
#
# 1 60.1028 19.7095 16.8633 -10.0438 0.8320 3.8245
# 2 19.7095 155.0924 59.4102 -6.6892 1.6026 2.4253
# 3 16.8633 59.4102 80.1667 -14.8894 3.1818 3.7429
# 4 -10.0438 -6.6892 -14.8894 36.7423 -1.3852 -0.2921
# 5 0.8320 1.6026 3.1818 -1.3852 23.4347 2.8007
# 6 3.8245 2.4253 3.7429 -0.2921 2.8007 28.9008
#
#
#
# Elastic Compliance Matrix: (Units=1/GPa)
#
#
# Indices 1 2 3 4 5 6 
#
# 1 0.018447 -0.001358 -0.002052 0.003955 0.000194 -0.002040
# 2 -0.001358 0.009151 -0.006785 -0.001444 0.000228 0.000254
# 3 -0.002052 -0.006785 0.019157 0.005897 -0.001545 -0.001431
# 4 0.003955 -0.001444 0.005897 0.030457 0.001073 -0.000962
# 5 0.000194 0.000228 -0.001545 0.001073 0.043405 -0.004040
# 6 -0.002040 0.000254 -0.001431 -0.000962 -0.004040 0.035417
#
#
# Mechanical properties :
#
#
# Convention : Reuss Voigt Hill
#
# Bulk Modulus (GPa) = 37.92810 54.14754 46.03782
# Shear Modulus (GPa) = 26.99588 31.10748 29.05168
#
# Velocity S-wave (km/s) = 3.68284 3.95336 3.82050
# Velocity P-wave (km/s) = 6.09429 6.93135 6.52625
#
# Compressibility (1/GPa) = 0.02636568
#
# Stress axis : x y z
#
# Youngs Moduli (GPa) = 54.20861 109.28023 52.19925
#
# Poissons Ratio (x) = 0.14837 0.10712
# Poissons Ratio (y) = 0.07360 0.35417
# Poissons Ratio (z) = 0.11124 0.74147
#
# Static dielectric constant tensor:
#      x y z
#    x 1.701850 -0.012830 -0.007440 
#    y -0.012830 1.709290 -0.010050 
#    z -0.007440 -0.010050 1.700610 
# 
# From -- ./inp_files/256025.got.cif
#   From: 2010.05.17/outbox.cif.g08.bks.cpg/sg2_129_cif.got.tgz:256025.got - 2010.06.03 11:33:40.
