data_PCOD9100182
_publ_section_title
;
Structure prediction by ZEFSAII (Michael W. Deem and Ramdas Pophale) SiO2 
 PCOD9100182
Probable space group: P -1
;
_chemical_formula_sum "Si O2"
_cell_formula_units_Z 16
_cell_length_a 14.783879
_cell_length_b 9.829698
_cell_length_c 5.913044
_cell_angle_alpha 71.281834
_cell_angle_beta 92.888159
_cell_angle_gamma 111.157002
_cell_volume 756.897919
_symmetry_space_group_name_H-M "P -1"
_symmetry_group_IT_number 2
_symmetry_cell_setting 'triclinic'
loop_
_space_group_symop_operation_xyz
x,y,z
-x,-y,-z
loop_
_atom_site_type_symbol
_atom_site_label
_atom_site_fract_x
_atom_site_fract_y
_atom_site_fract_z
Si Si1 0.774538 0.644633 0.621736
Si Si2 0.113790 0.545328 0.513491
Si Si3 0.594202 0.426594 0.436434
Si Si4 0.729319 0.914038 0.318876
Si Si5 0.582160 0.952248 0.656996
Si Si6 0.741991 0.179813 0.881216
Si Si7 0.449616 0.296967 0.858214
Si Si8 0.747221 0.426463 0.106678
O O1 0.849147 0.577635 0.546571
O O2 0.669332 0.547074 0.553311
O O3 0.792440 0.821735 0.480267
O O4 0.762775 0.591186 0.908504
O O5 0.173101 0.712411 0.324958
O O6 0.152729 0.556582 0.767831
O O7 0.000000 0.500000 0.500000
O O8 0.519189 0.299960 0.652882
O O9 0.544518 0.526503 0.234236
O O10 0.663998 0.378046 0.309630
O O11 0.659440 0.937646 0.491831
O O12 0.659206 0.803925 0.179374
O O13 0.777498 0.073108 0.107277
O O14 0.500000 0.000000 0.500000
O O15 0.647770 0.076364 0.782486
O O16 0.534034 0.789984 0.873099
O O17 0.718079 0.299899 0.975827
#
# Coordination Sequence:
#
# PCOD9100182 Si02
#       8
#     2   2   2   2   2   2   2   2
#     4   9  20  36  60  88 115 151 196 239 296 355
#     4  10  22  41  67  95 117 144 188 243 303 363
#     4   9  18  35  57  82 113 152 197 250 293 335
#     4  10  21  38  56  81 119 160 197 243 290 342
#     4  11  24  38  56  83 121 166 206 242 283 336
#     4  10  23  40  60  87 120 157 199 240 293 354
#     4   9  20  35  54  82 113 152 207 246 285 343
#     4  10  20  37  63  86 116 153 190 245 300 346
#
# _framework density 21.138914
#
# number of rings (size 3 to 8) (size 9 to 14) (size 15 to 20)
#    0.000    2.250    0.000    1.500    0.000   14.000 
#    0.000    6.250    0.000    9.000    0.000    0.000 
#    0.000    0.000    0.000    0.000    0.000    0.000 
#
# Total GULP energy -89405.168714 kJ/mol
# GULP energy per Si atom -5587.823045 kJ/mol
# Density = 2.109080 g / cm^3
# Si number density = 21.138914 Si / 1000 Ang^3
#
#
#
# Elastic Constant Matrix: (Units=GPa)
#
#
# Indices 1 2 3 4 5 6 
#
# 1 109.2063 34.5914 46.6634 -15.5159 17.8399 1.8930
# 2 34.5914 66.0278 39.0484 -11.2596 14.9142 -3.9363
# 3 46.6634 39.0484 151.4979 -36.1869 34.8384 -1.5081
# 4 -15.5159 -11.2596 -36.1869 42.1756 -9.3838 9.8458
# 5 17.8399 14.9142 34.8384 -9.3838 22.0700 -3.4313
# 6 1.8930 -3.9363 -1.5081 9.8458 -3.4313 24.8347
#
#
#
# Elastic Compliance Matrix: (Units=1/GPa)
#
#
# Indices 1 2 3 4 5 6 
#
# 1 0.012154 -0.004524 -0.001015 0.002074 -0.004779 -0.003188
# 2 -0.004524 0.020468 -0.002618 -0.000380 -0.005771 0.002783
# 3 -0.001015 -0.002618 0.012871 0.007689 -0.015190 -0.004703
# 4 0.002074 -0.000380 0.007689 0.033800 -0.001258 -0.013325
# 5 -0.004779 -0.005771 -0.015190 -0.001258 0.078041 0.009809
# 6 -0.003188 0.002783 -0.004703 -0.013325 0.009809 0.047303
#
#
# Mechanical properties :
#
#
# Convention : Reuss Voigt Hill
#
# Bulk Modulus (GPa) = 34.27150 63.03761 48.65456
# Shear Modulus (GPa) = 21.67517 31.57797 26.62657
#
# Velocity S-wave (km/s) = 3.20561 3.86920 3.55293
# Velocity P-wave (km/s) = 5.47257 7.06020 6.31646
#
# Compressibility (1/GPa) = 0.02917876
#
# Stress axis : x y z
#
# Youngs Moduli (GPa) = 82.27526 48.85601 77.69338
#
# Poissons Ratio (x) = 0.22103 0.07886
# Poissons Ratio (y) = 0.37223 0.20342
# Poissons Ratio (z) = 0.08351 0.12792
#
# Static dielectric constant tensor:
#      x y z
#    x 1.741390 -0.049260 0.041950 
#    y -0.049260 1.818660 -0.010850 
#    z 0.041950 -0.010850 1.822170 
# 
# From -- ./inp_files/93207.got.cif
#   From: 2010.05.17/outbox.cif.g08.bks.cpg/sg2_47_cif.got.tgz:93207.got - 2010.06.03 11:33:40.
