data_PCOD9100522
_publ_section_title
;
Structure prediction by ZEFSAII (Michael W. Deem and Ramdas Pophale) SiO2 
 PCOD9100522
Probable space group: P -1
;
_chemical_formula_sum "Si O2"
_cell_formula_units_Z 12
_cell_length_a 9.106453
_cell_length_b 17.012839
_cell_length_c 8.987299
_cell_angle_alpha 40.563056
_cell_angle_beta 52.382548
_cell_angle_gamma 41.632492
_cell_volume 598.599331
_symmetry_space_group_name_H-M "P -1"
_symmetry_group_IT_number 2
_symmetry_cell_setting 'triclinic'
loop_
_space_group_symop_operation_xyz
x,y,z
-x,-y,-z
loop_
_atom_site_type_symbol
_atom_site_label
_atom_site_fract_x
_atom_site_fract_y
_atom_site_fract_z
Si Si1 0.277676 0.569537 0.944257
Si Si2 0.876282 0.880838 0.171343
Si Si3 0.330289 0.839674 0.929326
Si Si4 0.038200 0.425973 0.423790
Si Si5 0.938910 0.117054 0.243744
Si Si6 0.765683 0.534943 0.160446
O O1 0.190292 0.469508 0.187349
O O2 0.500000 0.500000 0.000000
O O3 0.120040 0.733821 0.859819
O O4 0.298244 0.556419 0.771995
O O5 0.857939 0.744073 0.384308
O O6 0.710725 0.013669 0.187643
O O7 0.128664 0.829562 0.136100
O O8 0.873243 0.928547 0.933449
O O9 0.269511 0.852975 0.772417
O O10 0.567828 0.701027 0.021381
O O11 0.000000 0.500000 0.500000
O O12 0.818825 0.491904 0.361797
O O13 0.000000 0.000000 0.500000
O O14 0.000000 0.500000 0.000000
#
# Coordination Sequence:
#
# PCOD9100522 Si02
#       6
#     2   2   2   2   2   2
#     4  11  21  42  64  93 128 169 217 257 321 387
#     4   9  20  39  63  94 131 161 216 262 327 371
#     4   9  19  41  60  97 129 168 213 257 324 390
#     4  11  22  42  63  94 131 164 215 277 310 380
#     4  10  20  37  64  92 127 164 212 258 317 385
#     4  10  23  39  63  91 129 170 213 261 316 379
#
# _framework density 20.046796000000001
#
# number of rings (size 3 to 8) (size 9 to 14) (size 15 to 20)
#    1.000    1.000    3.333    0.000    2.333    0.667 
#    3.000    7.500    0.000    0.000    0.000    0.000 
#    0.000    0.000    0.000    0.000    0.000    0.000 
#
# Total GULP energy -66829.065062 kJ/mol
# GULP energy per Si atom -5569.088755 kJ/mol
# Density = 2.000117 g / cm^3
# Si number density = 20.046796 Si / 1000 Ang^3
#
#
#
# Elastic Constant Matrix: (Units=GPa)
#
#
# Indices 1 2 3 4 5 6 
#
# 1 101.1288 51.2693 35.4218 1.1314 22.9040 30.5029
# 2 51.2693 130.0193 39.9224 -27.8947 7.3967 26.5602
# 3 35.4218 39.9224 108.0815 -21.0261 5.4592 18.3953
# 4 1.1314 -27.8947 -21.0261 24.4531 12.1553 -4.5181
# 5 22.9040 7.3967 5.4592 12.1553 34.1387 0.8013
# 6 30.5029 26.5602 18.3953 -4.5181 0.8013 45.0287
#
#
#
# Elastic Compliance Matrix: (Units=1/GPa)
#
#
# Indices 1 2 3 4 5 6 
#
# 1 0.018395 -0.005903 -0.003817 -0.008844 -0.007111 -0.008180
# 2 -0.005903 0.015453 0.001518 0.022311 -0.007495 -0.003364
# 3 -0.003817 0.001518 0.013741 0.016128 -0.005656 -0.002204
# 4 -0.008844 0.022311 0.016128 0.098074 -0.036322 -0.003271
# 5 -0.007111 -0.007495 -0.005656 -0.036322 0.049359 0.007026
# 6 -0.008180 -0.003364 -0.002204 -0.003271 0.007026 0.030181
#
#
# Mechanical properties :
#
#
# Convention : Reuss Voigt Hill
#
# Bulk Modulus (GPa) = 32.06728 65.82852 48.94790
# Shear Modulus (GPa) = 19.84106 34.89849 27.36977
#
# Velocity S-wave (km/s) = 3.14942 4.17688 3.69900
# Velocity P-wave (km/s) = 5.40889 7.49470 6.53554
#
# Compressibility (1/GPa) = 0.03118444
#
# Stress axis : x y z
#
# Youngs Moduli (GPa) = 54.36232 64.71211 72.77562
#
# Poissons Ratio (x) = 0.38202 0.27780
# Poissons Ratio (y) = 0.32092 -0.11049
# Poissons Ratio (z) = 0.20751 -0.09825
#
# Static dielectric constant tensor:
#      x y z
#    x 1.776580 0.040680 0.026280 
#    y 0.040680 1.748740 0.064390 
#    z 0.026280 0.064390 1.732350 
# 
# From -- ./inp_files/198900.got.cif
#   From: 2010.05.17/outbox.cif.g08.bks.cpg/sg2_100_cif.got.tgz:198900.got - 2010.06.03 11:33:40.
