data_PCOD9100661
_publ_section_title
;
Structure prediction by ZEFSAII (Michael W. Deem and Ramdas Pophale) SiO2 
 PCOD9100661
Probable space group: P -1
;
_chemical_formula_sum "Si O2"
_cell_formula_units_Z 14
_cell_length_a 9.912648
_cell_length_b 7.891780
_cell_length_c 24.838633
_cell_angle_alpha 35.396436
_cell_angle_beta 144.515460
_cell_angle_gamma 127.901221
_cell_volume 646.223149
_symmetry_space_group_name_H-M "P -1"
_symmetry_group_IT_number 2
_symmetry_cell_setting 'triclinic'
loop_
_space_group_symop_operation_xyz
x,y,z
-x,-y,-z
loop_
_atom_site_type_symbol
_atom_site_label
_atom_site_fract_x
_atom_site_fract_y
_atom_site_fract_z
Si Si1 0.724060 0.069721 0.903258
Si Si2 0.690328 0.800772 0.077871
Si Si3 0.182863 0.574411 0.326964
Si Si4 0.670798 0.823650 0.428377
Si Si5 0.686136 0.104809 0.250612
Si Si6 0.485344 0.256785 0.347868
Si Si7 0.165939 0.017121 0.385885
O O1 0.642279 0.419454 0.789703
O O2 0.564709 0.962353 0.832526
O O3 0.669690 0.907425 0.982247
O O4 0.000000 0.000000 0.000000
O O5 0.666380 0.454721 0.163099
O O6 0.956446 0.812334 0.180940
O O7 0.500000 0.000000 0.000000
O O8 0.426781 0.699596 0.370510
O O9 0.170069 0.420996 0.420843
O O10 0.185459 0.315157 0.350197
O O11 0.767021 0.928965 0.376866
O O12 0.606897 0.101735 0.375255
O O13 0.890422 0.003782 0.299354
O O14 0.294325 0.061898 0.360195
O O15 0.680147 0.240493 0.462984
#
# Coordination Sequence:
#
# PCOD9100661 Si02
#       7
#     2   2   2   2   2   2   2
#     4  12  25  41  59  82 122 164 193 229 288 358
#     4  11  24  40  59  86 119 153 195 240 282 344
#     4   9  20  39  61  86 117 152 189 237 298 344
#     4  10  20  37  65  89 112 147 195 247 290 337
#     4  11  23  40  61  87 116 154 196 241 294 338
#     4  10  21  38  60  88 117 154 195 237 289 343
#     4   9  20  39  61  86 119 149 192 248 291 338
#
# _framework density 21.664342999999999
#
# number of rings (size 3 to 8) (size 9 to 14) (size 15 to 20)
#    0.000    1.714    0.000    4.714    0.000   10.286 
#    0.000    2.857    0.000    0.000    0.000    0.000 
#    0.000    0.000    0.000    0.000    0.000    0.000 
#
# Total GULP energy -78332.102070 kJ/mol
# GULP energy per Si atom -5595.150148 kJ/mol
# Density = 2.161503 g / cm^3
# Si number density = 21.664343 Si / 1000 Ang^3
#
#
#
# Elastic Constant Matrix: (Units=GPa)
#
#
# Indices 1 2 3 4 5 6 
#
# 1 69.6294 -7.9757 10.9310 1.3791 -6.7030 5.7264
# 2 -7.9757 41.0969 1.9217 6.1625 1.3832 5.3317
# 3 10.9310 1.9217 89.9550 -8.2943 1.5765 -1.4546
# 4 1.3791 6.1625 -8.2943 30.9295 6.8976 2.7144
# 5 -6.7030 1.3832 1.5765 6.8976 45.0699 0.9198
# 6 5.7264 5.3317 -1.4546 2.7144 0.9198 17.5249
#
#
#
# Elastic Compliance Matrix: (Units=1/GPa)
#
#
# Indices 1 2 3 4 5 6 
#
# 1 0.016096 0.004337 -0.002415 -0.002283 0.002829 -0.006574
# 2 0.004337 0.027225 -0.001778 -0.005501 0.000898 -0.009043
# 3 -0.002415 -0.001778 0.011849 0.003779 -0.001334 0.001798
# 4 -0.002283 -0.005501 0.003779 0.036053 -0.005769 -0.002548
# 5 0.002829 0.000898 -0.001334 -0.005769 0.023544 -0.001651
# 6 -0.006574 -0.009043 0.001798 -0.002548 -0.001651 0.062592
#
#
# Mechanical properties :
#
#
# Convention : Reuss Voigt Hill
#
# Bulk Modulus (GPa) = 18.03164 23.38169 20.70667
# Shear Modulus (GPa) = 25.56801 31.75849 28.66325
#
# Velocity S-wave (km/s) = 3.43911 3.83290 3.64134
# Velocity P-wave (km/s) = 4.91032 5.51401 5.22090
#
# Compressibility (1/GPa) = 0.05545806
#
# Stress axis : x y z
#
# Youngs Moduli (GPa) = 62.12795 36.73053 84.39516
#
# Poissons Ratio (x) = -0.15929 0.20381
# Poissons Ratio (y) = -0.26943 0.15004
# Poissons Ratio (z) = 0.15004 0.06530
#
# Static dielectric constant tensor:
#      x y z
#    x 1.779440 0.007970 -0.008340 
#    y 0.007970 1.814530 0.008900 
#    z -0.008340 0.008900 1.762870 
# 
# From -- ./inp_files/198938.got.cif
#   From: 2010.05.17/outbox.cif.g08.bks.cpg/sg2_100_cif.got.tgz:198938.got - 2010.06.03 11:33:40.
