data_PCOD9100076
_publ_section_title
;
Structure prediction by ZEFSAII (Michael W. Deem and Ramdas Pophale) SiO2 
 PCOD9100076
Probable space group: P -1
;
_chemical_formula_sum "Si O2"
_cell_formula_units_Z 14
_cell_length_a 9.112603
_cell_length_b 8.349926
_cell_length_c 17.489244
_cell_angle_alpha 39.635604
_cell_angle_beta 122.248274
_cell_angle_gamma 98.762506
_cell_volume 630.100183
_symmetry_space_group_name_H-M "P -1"
_symmetry_group_IT_number 2
_symmetry_cell_setting 'triclinic'
loop_
_space_group_symop_operation_xyz
x,y,z
-x,-y,-z
loop_
_atom_site_type_symbol
_atom_site_label
_atom_site_fract_x
_atom_site_fract_y
_atom_site_fract_z
Si Si1 0.371364 0.003588 0.389737
Si Si2 0.296062 0.080209 0.595417
Si Si3 0.099229 0.369086 0.293930
Si Si4 0.145485 0.725535 0.371825
Si Si5 0.675441 0.734175 0.993913
Si Si6 0.264305 0.838772 0.832283
Si Si7 0.825997 0.142151 0.836699
O O1 0.157848 0.256219 0.265460
O O2 0.500000 0.000000 0.500000
O O3 0.484859 0.031333 0.337623
O O4 0.321860 0.746815 0.456636
O O5 0.163798 0.126905 0.465457
O O6 0.211756 0.397290 0.492143
O O7 0.285252 0.885042 0.730503
O O8 0.228963 0.528541 0.288794
O O9 0.867167 0.585504 0.156652
O O10 0.114106 0.899806 0.219664
O O11 0.938711 0.897182 0.294430
O O12 0.456835 0.828075 0.929048
O O13 0.682297 0.010207 0.860864
O O14 0.718383 0.474213 0.042813
O O15 0.000000 0.000000 0.000000
#
# Coordination Sequence:
#
# PCOD9100076 Si02
#       7
#     2   2   2   2   2   2   2
#     4  10  20  37  62  93 120 158 210 258 303 359
#     4  10  22  39  63  92 124 163 207 256 314 362
#     4   9  19  41  65  91 123 158 213 261 304 357
#     4  11  21  40  65  90 125 163 210 260 309 364
#     4  10  21  41  59  89 130 159 207 246 309 375
#     4  11  23  38  61  95 128 166 201 248 318 382
#     4   9  20  40  65  87 117 162 210 259 297 359
#
# _framework density 22.218689999999999
#
# number of rings (size 3 to 8) (size 9 to 14) (size 15 to 20)
#    0.000    2.000    1.429    1.714    0.000    3.429 
#   10.286    6.429    0.000    0.000    0.000    0.000 
#    0.000    0.000    0.000    0.000    0.000    0.000 
#
# Total GULP energy -77990.767829 kJ/mol
# GULP energy per Si atom -5570.769131 kJ/mol
# Density = 2.216812 g / cm^3
# Si number density = 22.218690 Si / 1000 Ang^3
#
#
#
# Elastic Constant Matrix: (Units=GPa)
#
#
# Indices 1 2 3 4 5 6 
#
# 1 98.4196 43.5494 29.3831 5.1303 19.0243 3.8069
# 2 43.5494 82.8370 12.7508 -4.6284 -0.2328 6.9399
# 3 29.3831 12.7508 76.6170 12.4518 6.6001 2.2453
# 4 5.1303 -4.6284 12.4518 26.9220 11.5760 1.7945
# 5 19.0243 -0.2328 6.6001 11.5760 31.1239 0.4659
# 6 3.8069 6.9399 2.2453 1.7945 0.4659 39.2269
#
#
#
# Elastic Compliance Matrix: (Units=1/GPa)
#
#
# Indices 1 2 3 4 5 6 
#
# 1 0.017014 -0.008171 -0.004591 0.001845 -0.010175 0.000094
# 2 -0.008171 0.016814 -0.000444 0.003038 0.004120 -0.002344
# 3 -0.004591 -0.000444 0.015919 -0.007516 0.002224 -0.000070
# 4 0.001845 0.003038 -0.007516 0.048471 -0.017505 -0.002296
# 5 -0.010175 0.004120 0.002224 -0.017505 0.044413 0.000405
# 6 0.000094 -0.002344 -0.000070 -0.002296 0.000405 0.026003
#
#
# Mechanical properties :
#
#
# Convention : Reuss Voigt Hill
#
# Bulk Modulus (GPa) = 42.85854 47.69333 45.27594
# Shear Modulus (GPa) = 24.65192 30.93391 27.79292
#
# Velocity S-wave (km/s) = 3.33455 3.73533 3.54062
# Velocity P-wave (km/s) = 5.84439 6.33369 6.09395
#
# Compressibility (1/GPa) = 0.02333257
#
# Stress axis : x y z
#
# Youngs Moduli (GPa) = 58.77538 59.47484 62.81967
#
# Poissons Ratio (x) = 0.48598 0.28842
# Poissons Ratio (y) = 0.48027 0.02792
# Poissons Ratio (z) = 0.26985 0.02643
#
# Static dielectric constant tensor:
#      x y z
#    x 1.852270 0.020480 0.029320 
#    y 0.020480 1.881650 0.004940 
#    z 0.029320 0.004940 1.901960 
# 
# From -- ./inp_files/172992.got.cif
#   From: 2010.05.17/outbox.cif.g08.bks.cpg/sg2_87_cif.got.tgz:172992.got - 2010.06.03 11:33:40.
