data_PCOD9100894
_publ_section_title
;
Structure prediction by ZEFSAII (Michael W. Deem and Ramdas Pophale) SiO2 
 PCOD9100894
Probable space group: P -1
;
_chemical_formula_sum "Si O2"
_cell_formula_units_Z 14
_cell_length_a 11.890320
_cell_length_b 10.886275
_cell_length_c 10.302739
_cell_angle_alpha 81.482559
_cell_angle_beta 135.654788
_cell_angle_gamma 65.063714
_cell_volume 595.758197
_symmetry_space_group_name_H-M "P -1"
_symmetry_group_IT_number 2
_symmetry_cell_setting 'triclinic'
loop_
_space_group_symop_operation_xyz
x,y,z
-x,-y,-z
loop_
_atom_site_type_symbol
_atom_site_label
_atom_site_fract_x
_atom_site_fract_y
_atom_site_fract_z
Si Si1 0.288050 0.714968 0.532800
Si Si2 0.039017 0.298426 0.840140
Si Si3 0.411648 0.729965 0.887538
Si Si4 0.947357 0.156895 0.227971
Si Si5 0.822763 0.225632 0.839318
Si Si6 0.390826 0.017282 0.713086
Si Si7 0.224520 0.377946 0.604135
O O1 0.476494 0.621412 0.823190
O O2 0.373730 0.667821 0.459159
O O3 0.081842 0.726968 0.360754
O O4 0.119252 0.935895 0.378577
O O5 0.973103 0.262453 0.921310
O O6 0.884308 0.511753 0.640681
O O7 0.332572 0.144951 0.093418
O O8 0.180942 0.792874 0.748582
O O9 0.375737 0.897250 0.799436
O O10 0.599308 0.627444 0.178126
O O11 0.147156 0.149734 0.399552
O O12 0.762132 0.266903 0.934384
O O13 0.000000 0.000000 0.000000
O O14 0.356208 0.167640 0.733173
O O15 0.000000 0.500000 0.500000
#
# Coordination Sequence:
#
# PCOD9100894 Si02
#       7
#     2   2   2   2   2   2   2
#     4   8  18  36  63  92 119 161 212 257 304 368
#     4  10  22  42  65  92 130 162 215 257 318 369
#     4  11  22  38  67  93 127 164 213 265 315 370
#     4  10  20  37  66  97 122 169 214 255 320 370
#     4   8  18  38  67  91 125 164 215 258 306 383
#     4  11  23  40  63  95 132 166 206 267 314 377
#     4  12  26  38  61  96 133 166 206 261 329 371
#
# _framework density 23.499468
#
# number of rings (size 3 to 8) (size 9 to 14) (size 15 to 20)
#    0.857    1.143    1.429    3.000    4.000    1.143 
#    0.000    1.429    0.000    0.000    0.000    0.000 
#    0.000    0.000    0.000    0.000    0.000    0.000 
#
# Total GULP energy -77963.517116 kJ/mol
# GULP energy per Si atom -5568.822651 kJ/mol
# Density = 2.344598 g / cm^3
# Si number density = 23.499468 Si / 1000 Ang^3
#
#
#
# Elastic Constant Matrix: (Units=GPa)
#
#
# Indices 1 2 3 4 5 6 
#
# 1 116.4897 22.1920 32.2778 5.5474 -15.4169 2.9995
# 2 22.1920 82.9023 13.2767 14.7375 -10.7393 5.0959
# 3 32.2778 13.2767 72.1089 19.5773 -5.1966 1.1151
# 4 5.5474 14.7375 19.5773 32.0702 2.4966 -7.4273
# 5 -15.4169 -10.7393 -5.1966 2.4966 34.7628 11.4642
# 6 2.9995 5.0959 1.1151 -7.4273 11.4642 30.6897
#
#
#
# Elastic Compliance Matrix: (Units=1/GPa)
#
#
# Indices 1 2 3 4 5 6 
#
# 1 0.010669 -0.001635 -0.004355 0.000780 0.004174 -0.001983
# 2 -0.001635 0.015517 0.001240 -0.009966 0.007501 -0.007676
# 3 -0.004355 0.001240 0.019569 -0.013287 0.004053 -0.005221
# 4 0.000780 -0.009966 -0.013287 0.049400 -0.014701 0.019508
# 5 0.004174 0.007501 0.004053 -0.014701 0.041473 -0.020851
# 6 -0.001983 -0.007676 -0.005221 0.019508 -0.020851 0.046752
#
#
# Mechanical properties :
#
#
# Convention : Reuss Voigt Hill
#
# Bulk Modulus (GPa) = 27.58217 45.22153 36.40185
# Shear Modulus (GPa) = 24.39449 33.08816 28.74132
#
# Velocity S-wave (km/s) = 3.22543 3.75646 3.50103
# Velocity P-wave (km/s) = 5.06301 6.17252 5.64509
#
# Compressibility (1/GPa) = 0.03625530
#
# Stress axis : x y z
#
# Youngs Moduli (GPa) = 93.73083 64.44703 51.10046
#
# Poissons Ratio (x) = 0.10534 0.22254
# Poissons Ratio (y) = 0.15321 -0.06336
# Poissons Ratio (z) = 0.40820 -0.07990
#
# Static dielectric constant tensor:
#      x y z
#    x 1.882470 0.001050 -0.073230 
#    y 0.001050 1.859460 -0.027290 
#    z -0.073230 -0.027290 2.017360 
# 
# From -- ./inp_files/428029.got.cif
#   From: 2010.05.17/outbox.cif.g08.bks.cpg/sg2_215_cif.got.tgz:428029.got - 2010.06.03 11:33:40.
