data_PCOD9100794
_publ_section_title
;
Structure prediction by ZEFSAII (Michael W. Deem and Ramdas Pophale) SiO2 
 PCOD9100794
Probable space group: P -1
;
_chemical_formula_sum "Si O2"
_cell_formula_units_Z 12
_cell_length_a 14.474293
_cell_length_b 5.520209
_cell_length_c 13.639872
_cell_angle_alpha 44.707531
_cell_angle_beta 36.956156
_cell_angle_gamma 57.192340
_cell_volume 460.058353
_symmetry_space_group_name_H-M "P -1"
_symmetry_group_IT_number 2
_symmetry_cell_setting 'triclinic'
loop_
_space_group_symop_operation_xyz
x,y,z
-x,-y,-z
loop_
_atom_site_type_symbol
_atom_site_label
_atom_site_fract_x
_atom_site_fract_y
_atom_site_fract_z
Si Si1 0.433483 0.194924 0.214218
Si Si2 0.450181 0.681859 0.205133
Si Si3 0.680016 0.512533 0.323286
Si Si4 0.942047 0.868591 0.478978
Si Si5 0.794233 0.762382 0.369470
Si Si6 0.936156 0.834939 0.906065
O O1 0.507636 0.332597 0.213565
O O2 0.246310 0.165125 0.365104
O O3 0.487057 0.838142 0.232897
O O4 0.500000 0.500000 0.000000
O O5 0.273315 0.537347 0.413515
O O6 0.500000 0.000000 0.000000
O O7 0.500000 0.500000 0.500000
O O8 0.753948 0.642878 0.328120
O O9 0.721408 0.123246 0.363224
O O10 0.760660 0.775720 0.100852
O O11 0.000000 0.500000 0.500000
O O12 0.018714 0.125418 0.257001
O O13 0.000000 0.000000 0.500000
O O14 0.974511 0.841971 0.209912
O O15 0.000000 0.500000 0.000000
#
# Coordination Sequence:
#
# PCOD9100794 Si02
#       6
#     2   2   2   2   2   2
#     4  10  21  42  67  96 136 186 235 279 345 434
#     4  10  20  37  66 100 129 169 244 275 340 402
#     4  11  25  46  67 106 141 178 237 306 361 404
#     4  12  27  47  70 108 152 179 229 307 373 408
#     4  11  22  43  77  94 136 189 243 290 340 436
#     4  10  25  49  77 102 138 201 248 279 346 448
#
# _framework density 26.083646999999999
#
# number of rings (size 3 to 8) (size 9 to 14) (size 15 to 20)
#    0.000    1.333    1.667    3.000    2.333    2.667 
#   18.000    0.000    0.000    0.000    0.000    0.000 
#    0.000    0.000    0.000    0.000    0.000    0.000 
#
# Total GULP energy -66860.850429 kJ/mol
# GULP energy per Si atom -5571.737536 kJ/mol
# Density = 2.602428 g / cm^3
# Si number density = 26.083647 Si / 1000 Ang^3
#
#
#
# Elastic Constant Matrix: (Units=GPa)
#
#
# Indices 1 2 3 4 5 6 
#
# 1 156.6899 89.6252 83.8146 12.7647 -11.7016 38.3195
# 2 89.6252 218.2940 37.3075 -6.4238 -23.1692 63.9416
# 3 83.8146 37.3075 302.1028 3.7000 4.5351 -3.3730
# 4 12.7647 -6.4238 3.7000 38.8318 -2.4191 -13.5657
# 5 -11.7016 -23.1692 4.5351 -2.4191 52.9828 4.9953
# 6 38.3195 63.9416 -3.3730 -13.5657 4.9953 52.6870
#
#
#
# Elastic Compliance Matrix: (Units=1/GPa)
#
#
# Indices 1 2 3 4 5 6 
#
# 1 0.011975 -0.001687 -0.003170 -0.006849 0.002703 -0.008885
# 2 -0.001687 0.008882 -0.000797 -0.001235 0.004499 -0.010348
# 3 -0.003170 -0.000797 0.004338 0.001853 -0.001730 0.004191
# 4 -0.006849 -0.001235 0.001853 0.032817 -0.002151 0.015252
# 5 0.002703 0.004499 -0.001730 -0.002151 0.022452 -0.010219
# 6 -0.008885 -0.010348 0.004191 0.015252 -0.010219 0.043165
#
#
# Mechanical properties :
#
#
# Convention : Reuss Voigt Hill
#
# Bulk Modulus (GPa) = 72.00505 122.06459 97.03482
# Shear Modulus (GPa) = 35.82537 59.98961 47.90749
#
# Velocity S-wave (km/s) = 3.71007 4.80092 4.29031
# Velocity P-wave (km/s) = 6.78367 8.81083 7.86285
#
# Compressibility (1/GPa) = 0.01388791
#
# Stress axis : x y z
#
# Youngs Moduli (GPa) = 83.50451 112.58749 230.51703
#
# Poissons Ratio (x) = 0.18994 0.73074
# Poissons Ratio (y) = 0.14087 0.18367
# Poissons Ratio (z) = 0.26471 0.08971
#
# Static dielectric constant tensor:
#      x y z
#    x 2.048330 -0.063890 0.023440 
#    y -0.063890 2.098120 0.075090 
#    z 0.023440 0.075090 2.139780 
# 
# From -- ./inp_files/524665.got.cif
#   From: 2010.05.17/outbox.cif.g08.bks.cpg/sg2_263_cif.got.tgz:524665.got - 2010.06.03 11:33:40.
