data_PCOD9100862
_publ_section_title
;
Structure prediction by ZEFSAII (Michael W. Deem and Ramdas Pophale) SiO2 
 PCOD9100862
Probable space group: P -1
;
_chemical_formula_sum "Si O2"
_cell_formula_units_Z 16
_cell_length_a 17.167004
_cell_length_b 7.303890
_cell_length_c 5.433488
_cell_angle_alpha 103.508520
_cell_angle_beta 109.425163
_cell_angle_gamma 79.308911
_cell_volume 620.393127
_symmetry_space_group_name_H-M "P -1"
_symmetry_group_IT_number 2
_symmetry_cell_setting 'triclinic'
loop_
_space_group_symop_operation_xyz
x,y,z
-x,-y,-z
loop_
_atom_site_type_symbol
_atom_site_label
_atom_site_fract_x
_atom_site_fract_y
_atom_site_fract_z
Si Si1 0.668912 0.450088 0.178683
Si Si2 0.757433 0.012162 0.486447
Si Si3 0.809675 0.185815 0.083806
Si Si4 0.241940 0.333802 0.321029
Si Si5 0.993257 0.274029 0.407383
Si Si6 0.596323 0.676914 0.788082
Si Si7 0.059933 0.301945 0.985316
Si Si8 0.414633 0.740853 0.595084
O O1 0.736351 0.358290 0.030552
O O2 0.729803 0.474098 0.481351
O O3 0.601541 0.319363 0.157987
O O4 0.618910 0.641162 0.085993
O O5 0.781123 0.066604 0.251690
O O6 0.662556 0.100709 0.477728
O O7 0.767593 0.789651 0.483012
O O8 0.811371 0.086991 0.789842
O O9 0.897354 0.249148 0.268748
O O10 0.323296 0.250915 0.228195
O O11 0.155047 0.345329 0.094737
O O12 0.000000 0.500000 0.500000
O O13 0.040776 0.201831 0.188217
O O14 0.034532 0.196482 0.681394
O O15 0.507658 0.792673 0.682054
O O16 0.588602 0.458953 0.618337
O O17 0.000000 0.500000 0.000000
#
# Coordination Sequence:
#
# PCOD9100862 Si02
#       8
#     2   2   2   2   2   2   2   2
#     4  10  20  37  66  94 122 170 221 268 308 382
#     4  11  25  44  63  95 137 174 205 261 328 389
#     4  11  23  43  69  92 130 174 213 258 327 384
#     4  11  26  39  63  96 129 170 215 265 322 381
#     4  10  21  37  65  94 119 156 213 269 309 367
#     4  10  20  37  67  90 127 164 226 262 314 376
#     4  10  22  38  61  92 125 157 207 266 309 368
#     4   9  20  39  60  97 125 169 212 270 317 376
#
# _framework density 25.790096999999999
#
# number of rings (size 3 to 8) (size 9 to 14) (size 15 to 20)
#    0.000    1.750    1.250    2.625    7.000    0.500 
#    0.000    4.375    0.000    0.000    0.000    0.000 
#    0.000    0.000    0.000    0.000    0.000    0.000 
#
# Total GULP energy -89440.168381 kJ/mol
# GULP energy per Si atom -5590.010524 kJ/mol
# Density = 2.573140 g / cm^3
# Si number density = 25.790097 Si / 1000 Ang^3
#
#
#
# Elastic Constant Matrix: (Units=GPa)
#
#
# Indices 1 2 3 4 5 6 
#
# 1 177.9564 21.7619 54.1642 -14.2519 41.4923 4.9129
# 2 21.7619 43.5160 10.5504 -8.9254 11.5781 -8.6931
# 3 54.1642 10.5504 136.9178 -15.7187 2.6638 9.4787
# 4 -14.2519 -8.9254 -15.7187 29.7031 3.9570 -0.1678
# 5 41.4923 11.5781 2.6638 3.9570 43.3928 -5.5801
# 6 4.9129 -8.6931 9.4787 -0.1678 -5.5801 31.8722
#
#
#
# Elastic Compliance Matrix: (Units=1/GPa)
#
#
# Indices 1 2 3 4 5 6 
#
# 1 0.008995 -0.001251 -0.002703 0.003662 -0.008749 -0.002436
# 2 -0.001251 0.028696 -0.001152 0.008281 -0.006204 0.007320
# 3 -0.002703 -0.001152 0.008903 0.002816 0.001804 -0.002215
# 4 0.003662 0.008281 0.002816 0.040687 -0.009674 -0.000623
# 5 -0.008749 -0.006204 0.001804 -0.009674 0.034495 0.005108
# 6 -0.002436 0.007320 -0.002215 -0.000623 0.005108 0.035297
#
#
# Mechanical properties :
#
#
# Convention : Reuss Voigt Hill
#
# Bulk Modulus (GPa) = 27.48508 59.03812 43.26160
# Shear Modulus (GPa) = 27.86873 39.12120 33.49497
#
# Velocity S-wave (km/s) = 3.29081 3.89898 3.60773
# Velocity P-wave (km/s) = 5.01195 6.57349 5.84510
#
# Compressibility (1/GPa) = 0.03638338
#
# Stress axis : x y z
#
# Youngs Moduli (GPa) = 111.16759 34.84780 112.32000
#
# Poissons Ratio (x) = 0.04360 0.30359
# Poissons Ratio (y) = 0.13909 0.12935
# Poissons Ratio (z) = 0.30048 0.04013
#
# Static dielectric constant tensor:
#      x y z
#    x 1.996530 0.043610 -0.027900 
#    y 0.043610 0.424180 -0.652360 
#    z -0.027900 -0.652360 1.944380 
# 
# From -- ./inp_files/39840.got.cif
#   From: 2010.05.17/outbox.cif.g08.bks.cpg/sg2_20_cif.got.tgz:39840.got - 2010.06.03 11:33:40.
