data_PCOD9100730
_publ_section_title
;
Structure prediction by ZEFSAII (Michael W. Deem and Ramdas Pophale) SiO2 
 PCOD9100730
Probable space group: P -1
;
_chemical_formula_sum "Si O2"
_cell_formula_units_Z 16
_cell_length_a 7.770953
_cell_length_b 9.723325
_cell_length_c 14.767104
_cell_angle_alpha 43.328183
_cell_angle_beta 70.623604
_cell_angle_gamma 85.194591
_cell_volume 700.540370
_symmetry_space_group_name_H-M "P -1"
_symmetry_group_IT_number 2
_symmetry_cell_setting 'triclinic'
loop_
_space_group_symop_operation_xyz
x,y,z
-x,-y,-z
loop_
_atom_site_type_symbol
_atom_site_label
_atom_site_fract_x
_atom_site_fract_y
_atom_site_fract_z
Si Si1 0.726227 0.039164 0.078593
Si Si2 0.572970 0.005424 0.585683
Si Si3 0.991278 0.242740 0.794139
Si Si4 0.455619 0.717165 0.384716
Si Si5 0.021665 0.687862 0.630337
Si Si6 0.917136 0.745027 0.819532
Si Si7 0.948281 0.219620 0.605841
Si Si8 0.293149 0.678493 0.882244
O O1 0.715122 0.214712 0.069709
O O2 0.890678 0.927513 0.130755
O O3 0.548651 0.848624 0.218575
O O4 0.786259 0.141605 0.921687
O O5 0.479893 0.144454 0.603058
O O6 0.792482 0.121726 0.490253
O O7 0.500000 0.000000 0.500000
O O8 0.491473 0.780728 0.751606
O O9 0.064909 0.460529 0.729339
O O10 0.006122 0.288176 0.663606
O O11 0.500000 0.500000 0.500000
O O12 0.237648 0.704000 0.418926
O O13 0.924913 0.710560 0.539278
O O14 0.912777 0.705651 0.731978
O O15 0.121978 0.726944 0.829221
O O16 0.897135 0.971940 0.735130
O O17 0.759922 0.566804 0.979477
#
# Coordination Sequence:
#
# PCOD9100730 Si02
#       8
#     2   2   2   2   2   2   2   2
#     4  10  20  38  65  93 127 167 211 267 308 386
#     4  10  20  38  63  95 126 162 210 260 315 380
#     4  11  22  39  66  96 126 166 220 257 318 372
#     4  10  23  44  63  90 130 168 213 261 325 381
#     4  11  22  39  62  93 128 166 211 261 316 375
#     4  11  21  39  64  93 127 166 213 258 317 376
#     4  11  24  41  63  95 128 168 212 268 312 376
#     4  10  20  37  65  93 128 166 208 259 320 374
#
# _framework density 22.839511999999999
#
# number of rings (size 3 to 8) (size 9 to 14) (size 15 to 20)
#    0.000    1.500    3.750    2.250    0.000    0.500 
#    2.250    5.625    0.000    0.000    0.000    0.000 
#    0.000    0.000    0.000    0.000    0.000    0.000 
#
# Total GULP energy -89366.106973 kJ/mol
# GULP energy per Si atom -5585.381686 kJ/mol
# Density = 2.278753 g / cm^3
# Si number density = 22.839512 Si / 1000 Ang^3
#
#
#
# Elastic Constant Matrix: (Units=GPa)
#
#
# Indices 1 2 3 4 5 6 
#
# 1 30.1642 15.4608 18.4969 8.1174 8.2707 8.1667
# 2 15.4608 74.8179 30.4999 0.9028 3.7253 13.7032
# 3 18.4969 30.4999 144.2079 6.7923 -16.9268 1.4369
# 4 8.1174 0.9028 6.7923 49.9807 -0.3618 8.0422
# 5 8.2707 3.7253 -16.9268 -0.3618 29.0512 2.2478
# 6 8.1667 13.7032 1.4369 8.0422 2.2478 25.5905
#
#
#
# Elastic Compliance Matrix: (Units=1/GPa)
#
#
# Indices 1 2 3 4 5 6 
#
# 1 0.048168 -0.004584 -0.006787 -0.005426 -0.016421 -0.009388
# 2 -0.004584 0.017234 -0.003337 0.002169 -0.002198 -0.008067
# 3 -0.006787 -0.003337 0.009399 -0.000530 0.007604 0.002924
# 4 -0.005426 0.002169 -0.000530 0.021973 0.001731 -0.006458
# 5 -0.016421 -0.002198 0.007604 0.001731 0.043706 0.001607
# 6 -0.009388 -0.008067 0.002924 -0.006458 0.001607 0.048117
#
#
# Mechanical properties :
#
#
# Convention : Reuss Voigt Hill
#
# Bulk Modulus (GPa) = 22.03386 42.01170 32.02278
# Shear Modulus (GPa) = 21.44619 33.23998 27.34308
#
# Velocity S-wave (km/s) = 3.06763 3.81907 3.46379
# Velocity P-wave (km/s) = 4.71331 6.15478 5.48163
#
# Compressibility (1/GPa) = 0.04538470
#
# Stress axis : x y z
#
# Youngs Moduli (GPa) = 20.76075 58.02463 106.39395
#
# Poissons Ratio (x) = 0.26601 0.72210
# Poissons Ratio (y) = 0.09517 0.35501
# Poissons Ratio (z) = 0.14090 0.19361
#
# Static dielectric constant tensor:
#      x y z
#    x 1.888090 0.001260 -0.022120 
#    y 0.001260 1.860460 0.040850 
#    z -0.022120 0.040850 1.918930 
# 
# From -- ./inp_files/594648.got.cif
#   From: 2010.05.17/outbox.cif.g08.bks.cpg/sg2_298_cif.got.tgz:594648.got - 2010.06.03 11:33:40.
