data_PCOD9100000
_publ_section_title
;
Structure prediction by ZEFSAII (Michael W. Deem and Ramdas Pophale) SiO2 
 PCOD9100000
Probable space group: P -1
;
_chemical_formula_sum "Si O2"
_cell_formula_units_Z 14
_cell_length_a 12.055922
_cell_length_b 10.643934
_cell_length_c 10.622355
_cell_angle_alpha 119.343324
_cell_angle_beta 99.541804
_cell_angle_gamma 129.159740
_cell_volume 655.151276
_symmetry_space_group_name_H-M "P -1"
_symmetry_group_IT_number 2
_symmetry_cell_setting 'triclinic'
loop_
_space_group_symop_operation_xyz
x,y,z
-x,-y,-z
loop_
_atom_site_type_symbol
_atom_site_label
_atom_site_fract_x
_atom_site_fract_y
_atom_site_fract_z
Si Si1 0.390061 0.370840 0.220421
Si Si2 0.491766 0.983475 0.274746
Si Si3 0.194728 0.128243 0.331803
Si Si4 0.114849 0.743604 0.063641
Si Si5 0.710201 0.404480 0.719130
Si Si6 0.837290 0.830223 0.273733
Si Si7 0.566610 0.770651 0.081115
O O1 0.253705 0.200415 0.232898
O O2 0.621940 0.609723 0.427508
O O3 0.347605 0.490013 0.230972
O O4 0.365957 0.228665 0.037038
O O5 0.316392 0.883630 0.120668
O O6 0.392245 0.788190 0.277125
O O7 0.589525 0.964638 0.198348
O O8 0.632312 0.249420 0.499726
O O9 0.179913 0.942145 0.265779
O O10 0.982342 0.970347 0.249409
O O11 0.000000 0.500000 0.000000
O O12 0.948733 0.632848 0.886165
O O13 0.700491 0.827717 0.237851
O O14 0.669547 0.525830 0.095874
O O15 0.000000 0.000000 0.500000
#
# Coordination Sequence:
#
# PCOD9100000 Si02
#       7
#     2   2   2   2   2   2   2
#     4  11  23  42  66  95 129 171 217 256 325 377
#     4  10  21  36  58  92 128 157 209 260 314 375
#     4  11  23  41  68  92 129 173 215 265 309 388
#     4  10  20  37  62  90 119 165 212 256 312 369
#     4  10  20  37  63  87 123 169 208 258 310 385
#     4  11  22  38  62  94 129 162 213 269 316 368
#     4  11  23  39  63  98 127 167 207 270 321 372
#
# _framework density 21.369109000000002
#
# number of rings (size 3 to 8) (size 9 to 14) (size 15 to 20)
#    0.000    1.429    2.857    4.286    0.000    3.429 
#    0.000    0.714    0.000    1.714    0.000    0.000 
#    0.000    0.000    0.000    0.000    0.000    0.000 
#
# Total GULP energy -78217.071379 kJ/mol
# GULP energy per Si atom -5586.933670 kJ/mol
# Density = 2.132047 g / cm^3
# Si number density = 21.369109 Si / 1000 Ang^3
#
#
#
# Elastic Constant Matrix: (Units=GPa)
#
#
# Indices 1 2 3 4 5 6 
#
# 1 132.7503 15.0199 59.2026 -11.4521 -3.0371 23.0690
# 2 15.0199 47.3008 25.7848 -3.2736 8.1084 18.4535
# 3 59.2026 25.7848 114.0226 -17.2464 2.9959 16.8118
# 4 -11.4521 -3.2736 -17.2464 22.5519 3.2203 -3.8814
# 5 -3.0371 8.1084 2.9959 3.2203 41.2899 -0.8759
# 6 23.0690 18.4535 16.8118 -3.8814 -0.8759 19.2974
#
#
#
# Elastic Compliance Matrix: (Units=1/GPa)
#
#
# Indices 1 2 3 4 5 6 
#
# 1 0.011675 0.004382 -0.004968 0.000396 0.000037 -0.013737
# 2 0.004382 0.038875 -0.005493 -0.001849 -0.007583 -0.038344
# 3 -0.004968 -0.005493 0.013610 0.007339 -0.000830 0.000774
# 4 0.000396 -0.001849 0.007339 0.051332 -0.004037 0.005043
# 5 0.000037 -0.007583 -0.000830 -0.004037 0.026262 0.008311
# 6 -0.013737 -0.038344 0.000774 0.005043 0.008311 0.105627
#
#
# Mechanical properties :
#
#
# Convention : Reuss Voigt Hill
#
# Bulk Modulus (GPa) = 19.23063 54.89871 37.06467
# Shear Modulus (GPa) = 18.05869 29.56558 23.81214
#
# Velocity S-wave (km/s) = 2.91019 3.72367 3.34177
# Velocity P-wave (km/s) = 4.50678 6.65087 5.68089
#
# Compressibility (1/GPa) = 0.05200038
#
# Stress axis : x y z
#
# Youngs Moduli (GPa) = 85.65190 25.72321 73.47595
#
# Poissons Ratio (x) = -0.11271 0.36506
# Poissons Ratio (y) = -0.37529 0.40361
# Poissons Ratio (z) = 0.42556 0.14130
#
# Static dielectric constant tensor:
#      x y z
#    x 1.778860 -0.008690 0.004500 
#    y -0.008690 1.817830 -0.016130 
#    z 0.004500 -0.016130 1.801750 
# 
# From -- ./inp_files/416475.got.cif
#   From: 2010.05.17/outbox.cif.g08.bks.cpg/sg2_209_cif.got.tgz:416475.got - 2010.06.03 11:33:40.
