data_PCOD9100024
_publ_section_title
;
Structure prediction by ZEFSAII (Michael W. Deem and Ramdas Pophale) SiO2 
 PCOD9100024
Probable space group: P -1
;
_chemical_formula_sum "Si O2"
_cell_formula_units_Z 16
_cell_length_a 22.153303
_cell_length_b 19.489616
_cell_length_c 5.597115
_cell_angle_alpha 107.617525
_cell_angle_beta 73.994266
_cell_angle_gamma 159.180376
_cell_volume 818.459161
_symmetry_space_group_name_H-M "P -1"
_symmetry_group_IT_number 2
_symmetry_cell_setting 'triclinic'
loop_
_space_group_symop_operation_xyz
x,y,z
-x,-y,-z
loop_
_atom_site_type_symbol
_atom_site_label
_atom_site_fract_x
_atom_site_fract_y
_atom_site_fract_z
Si Si1 0.356087 0.421631 0.337281
Si Si2 0.109863 0.690167 0.078010
Si Si3 0.679388 0.285205 0.625308
Si Si4 0.721697 0.164974 0.452593
Si Si5 0.158611 0.207272 0.917184
Si Si6 0.284214 0.211566 0.452480
Si Si7 0.816986 0.492765 0.194673
Si Si8 0.075770 0.229470 0.673958
O O1 0.321218 0.297956 0.265055
O O2 0.537846 0.628815 0.475442
O O3 0.201058 0.306409 0.482456
O O4 0.333582 0.412603 0.075641
O O5 0.217198 0.801400 0.324287
O O6 0.989797 0.631195 0.151416
O O7 0.204724 0.789782 0.824384
O O8 0.000000 0.500000 0.000000
O O9 0.764127 0.295796 0.543505
O O10 0.733225 0.383884 0.427918
O O11 0.479425 0.059119 0.583241
O O12 0.720863 0.365806 0.921306
O O13 0.218733 0.210017 0.673927
O O14 0.087476 0.206602 0.898046
O O15 0.000000 0.000000 0.000000
O O16 0.124292 0.988512 0.396657
O O17 0.853340 0.615935 0.268633
#
# Coordination Sequence:
#
# PCOD9100024 Si02
#       8
#     2   2   2   2   2   2   2   2
#     4  10  20  38  63  87 119 153 212 267 303 374
#     4  12  21  40  66  99 127 169 220 271 321 388
#     4  11  23  43  66  97 124 172 215 275 328 388
#     4  11  22  41  71  95 125 161 230 279 316 377
#     4  11  18  36  66  89 117 162 213 263 313 376
#     4  10  20  37  62  91 114 156 213 257 312 376
#     4  12  26  41  65  92 137 172 213 263 341 397
#     4  11  24  40  57  88 130 170 200 263 332 391
#
# _framework density 19.548929999999999
#
# number of rings (size 3 to 8) (size 9 to 14) (size 15 to 20)
#    0.000    1.000    5.000    3.000    1.750    2.000 
#    4.500    0.000    0.000    0.000    0.000    0.000 
#    0.000    0.000    0.000    0.000    0.000    0.000 
#
# Total GULP energy -89108.708905 kJ/mol
# GULP energy per Si atom -5569.294307 kJ/mol
# Density = 1.950444 g / cm^3
# Si number density = 19.548930 Si / 1000 Ang^3
#
#
#
# Elastic Constant Matrix: (Units=GPa)
#
#
# Indices 1 2 3 4 5 6 
#
# 1 90.9692 45.4966 33.2059 14.1315 10.4583 -7.6280
# 2 45.4966 90.5373 34.8051 11.1582 8.5812 3.1616
# 3 33.2059 34.8051 87.2295 9.5560 23.8702 0.9797
# 4 14.1315 11.1582 9.5560 32.4234 9.1703 1.8908
# 5 10.4583 8.5812 23.8702 9.1703 28.4027 4.4891
# 6 -7.6280 3.1616 0.9797 1.8908 4.4891 33.4533
#
#
#
# Elastic Compliance Matrix: (Units=1/GPa)
#
#
# Indices 1 2 3 4 5 6 
#
# 1 0.016622 -0.006798 -0.002936 -0.004022 -0.001074 0.004890
# 2 -0.006798 0.016223 -0.004275 -0.001821 0.002282 -0.003161
# 3 -0.002936 -0.004275 0.017717 0.001163 -0.013035 0.000899
# 4 -0.004022 -0.001821 0.001163 0.035876 -0.010305 -0.001424
# 5 -0.001074 0.002282 -0.013035 -0.010305 0.050180 -0.006230
# 6 0.004890 -0.003161 0.000899 -0.001424 -0.006230 0.032196
#
#
# Mechanical properties :
#
#
# Convention : Reuss Voigt Hill
#
# Bulk Modulus (GPa) = 44.35509 55.08346 49.71927
# Shear Modulus (GPa) = 24.46822 29.20446 26.83634
#
# Velocity S-wave (km/s) = 3.54169 3.86931 3.70912
# Velocity P-wave (km/s) = 6.28198 6.94266 6.62057
#
# Compressibility (1/GPa) = 0.02254533
#
# Stress axis : x y z
#
# Youngs Moduli (GPa) = 60.15988 61.64046 56.44420
#
# Poissons Ratio (x) = 0.41902 0.16571
# Poissons Ratio (y) = 0.40895 0.24129
# Poissons Ratio (z) = 0.17662 0.26350
#
# Static dielectric constant tensor:
#      x y z
#    x 1.681010 -0.095470 0.110300 
#    y -0.095470 1.138950 0.128520 
#    z 0.110300 0.128520 1.797770 
# 
# From -- ./inp_files/120100.got.cif
#   From: 2010.05.17/outbox.cif.g08.bks.cpg/sg2_61_cif.got.tgz:120100.got - 2010.06.03 11:33:40.
