data_PCOD9100597
_publ_section_title
;
Structure prediction by ZEFSAII (Michael W. Deem and Ramdas Pophale) SiO2 
 PCOD9100597
Probable space group: P -1
;
_chemical_formula_sum "Si O2"
_cell_formula_units_Z 14
_cell_length_a 8.727640
_cell_length_b 10.056926
_cell_length_c 6.947929
_cell_angle_alpha 94.550719
_cell_angle_beta 73.675513
_cell_angle_gamma 87.240514
_cell_volume 581.827655
_symmetry_space_group_name_H-M "P -1"
_symmetry_group_IT_number 2
_symmetry_cell_setting 'triclinic'
loop_
_space_group_symop_operation_xyz
x,y,z
-x,-y,-z
loop_
_atom_site_type_symbol
_atom_site_label
_atom_site_fract_x
_atom_site_fract_y
_atom_site_fract_z
Si Si1 0.737848 0.731888 0.470366
Si Si2 0.831952 0.979494 0.661241
Si Si3 0.015849 0.548840 0.216478
Si Si4 0.644278 0.401303 0.005254
Si Si5 0.406561 0.834033 0.488398
Si Si6 0.730741 0.439690 0.428440
Si Si7 0.367101 0.905514 0.956613
O O1 0.786252 0.827422 0.634571
O O2 0.900419 0.683760 0.297424
O O3 0.598451 0.808134 0.402366
O O4 0.673166 0.589095 0.536529
O O5 0.693559 0.067024 0.604441
O O6 0.803224 0.031833 0.893831
O O7 0.000000 0.000000 0.500000
O O8 0.924890 0.441302 0.362330
O O9 0.199634 0.573325 0.175048
O O10 0.000000 0.500000 0.000000
O O11 0.661800 0.310710 0.524174
O O12 0.500000 0.500000 0.000000
O O13 0.685880 0.434101 0.216414
O O14 0.393328 0.753302 0.005982
O O15 0.624829 0.111706 0.277379
O O16 0.500000 0.000000 0.000000
#
# Coordination Sequence:
#
# PCOD9100597 Si02
#       7
#     2   2   2   2   2   2   2
#     4  10  20  40  68  93 131 179 224 275 335 405
#     4  12  27  45  68 102 140 180 225 283 343 414
#     4   8  17  36  59  91 129 165 221 273 328 393
#     4  10  20  37  64  96 134 173 220 283 331 394
#     4  11  23  45  71  97 135 184 222 284 343 395
#     4   8  20  38  64  92 126 173 225 269 333 398
#     4  11  25  45  66 101 137 176 236 272 333 415
#
# _framework density 24.062107999999998
#
# number of rings (size 3 to 8) (size 9 to 14) (size 15 to 20)
#    0.857    1.143    1.429    1.714    2.000    0.571 
#    2.571    0.714    0.000    0.000    0.000    0.000 
#    0.000    0.000    0.000    0.000    0.000    0.000 
#
# Total GULP energy -78276.422328 kJ/mol
# GULP energy per Si atom -5591.173023 kJ/mol
# Density = 2.400734 g / cm^3
# Si number density = 24.062108 Si / 1000 Ang^3
#
#
#
# Elastic Constant Matrix: (Units=GPa)
#
#
# Indices 1 2 3 4 5 6 
#
# 1 109.6022 37.6378 55.7907 4.7541 -21.1942 11.7476
# 2 37.6378 165.7353 33.7598 23.1860 -8.0486 22.5046
# 3 55.7907 33.7598 125.0920 21.3228 -30.8723 -0.3832
# 4 4.7541 23.1860 21.3228 47.8023 11.3292 -1.3330
# 5 -21.1942 -8.0486 -30.8723 11.3292 48.6428 2.1799
# 6 11.7476 22.5046 -0.3832 -1.3330 2.1799 36.8993
#
#
#
# Elastic Compliance Matrix: (Units=1/GPa)
#
#
# Indices 1 2 3 4 5 6 
#
# 1 0.012918 -0.001510 -0.005044 0.001115 0.002067 -0.003326
# 2 -0.001510 0.007669 -0.000390 -0.003866 0.001462 -0.004427
# 3 -0.005044 -0.000390 0.013543 -0.007200 0.007954 0.001254
# 4 0.001115 -0.003866 -0.007200 0.028742 -0.011581 0.003650
# 5 0.002067 0.001462 0.007954 -0.011581 0.029609 -0.003635
# 6 -0.003326 -0.004427 0.001254 0.003650 -0.003635 0.031219
#
#
# Mechanical properties :
#
#
# Convention : Reuss Voigt Hill
#
# Bulk Modulus (GPa) = 49.40297 72.75623 61.07960
# Shear Modulus (GPa) = 34.64156 44.88495 39.76325
#
# Velocity S-wave (km/s) = 3.79842 4.32369 4.06954
# Velocity P-wave (km/s) = 6.30978 7.43157 6.89353
#
# Compressibility (1/GPa) = 0.02024170
#
# Stress axis : x y z
#
# Youngs Moduli (GPa) = 77.41289 130.39577 73.83764
#
# Poissons Ratio (x) = 0.19692 0.37243
# Poissons Ratio (y) = 0.11691 0.02879
# Poissons Ratio (z) = 0.39047 0.05085
#
# Static dielectric constant tensor:
#      x y z
#    x 1.936490 0.014610 0.020010 
#    y 0.014610 1.941120 -0.048610 
#    z 0.020010 -0.048610 2.000410 
# 
# From -- ./inp_files/390901.got.cif
#   From: 2010.05.17/outbox.cif.g08.bks.cpg/sg2_196_cif.got.tgz:390901.got - 2010.06.03 11:33:40.
