data_PCOD9100101
_publ_section_title
;
Structure prediction by ZEFSAII (Michael W. Deem and Ramdas Pophale) SiO2 
 PCOD9100101
Probable space group: P -1
;
_chemical_formula_sum "Si O2"
_cell_formula_units_Z 12
_cell_length_a 9.299433
_cell_length_b 7.023001
_cell_length_c 11.887925
_cell_angle_alpha 37.028097
_cell_angle_beta 81.172353
_cell_angle_gamma 92.006709
_cell_volume 445.531369
_symmetry_space_group_name_H-M "P -1"
_symmetry_group_IT_number 2
_symmetry_cell_setting 'triclinic'
loop_
_space_group_symop_operation_xyz
x,y,z
-x,-y,-z
loop_
_atom_site_type_symbol
_atom_site_label
_atom_site_fract_x
_atom_site_fract_y
_atom_site_fract_z
Si Si1 0.231794 0.273760 0.331396
Si Si2 0.925753 0.022484 0.148134
Si Si3 0.362192 0.520982 0.587632
Si Si4 0.793334 0.195821 0.722760
Si Si5 0.540998 0.669274 0.107076
Si Si6 0.072938 0.681997 0.758214
O O1 0.221912 0.520724 0.320374
O O2 0.390633 0.442792 0.174987
O O3 0.086319 0.242119 0.286470
O O4 0.201846 0.915288 0.558868
O O5 0.885872 0.224861 0.162963
O O6 0.765769 0.819956 0.220281
O O7 0.033895 0.814730 0.282580
O O8 0.027844 0.295081 0.925621
O O9 0.500000 0.500000 0.500000
O O10 0.273170 0.726203 0.425013
O O11 0.432597 0.559132 0.685689
O O12 0.690234 0.836375 0.940890
O O13 0.500000 0.000000 0.000000
#
# Coordination Sequence:
#
# PCOD9100101 Si02
#       6
#     2   2   2   2   2   2
#     4  10  20  40  63  90 119 166 206 243 308 370
#     4  11  23  41  60  96 121 159 209 251 304 364
#     4  12  21  37  67  92 121 160 205 259 305 351
#     4  11  23  40  66  96 118 157 216 260 288 354
#     4  10  20  37  62  94 122 155 208 256 302 354
#     4  10  22  38  64  82 133 165 192 245 324 368
#
# _framework density 26.934131000000001
#
# number of rings (size 3 to 8) (size 9 to 14) (size 15 to 20)
#    0.000    1.333    5.000    2.500    0.000    2.667 
#    3.000    1.667    0.000    0.000    0.000    0.000 
#    0.000    0.000    0.000    0.000    0.000    0.000 
#
# Total GULP energy -67175.680296 kJ/mol
# GULP energy per Si atom -5597.973358 kJ/mol
# Density = 2.687283 g / cm^3
# Si number density = 26.934131 Si / 1000 Ang^3
#
#
#
# Elastic Constant Matrix: (Units=GPa)
#
#
# Indices 1 2 3 4 5 6 
#
# 1 132.9549 8.1978 32.0566 -12.2676 -8.7557 6.7708
# 2 8.1978 75.2735 5.2664 9.5725 -11.7021 5.7099
# 3 32.0566 5.2664 139.7120 -7.7012 -14.2756 3.6519
# 4 -12.2676 9.5725 -7.7012 32.9789 14.1214 1.2688
# 5 -8.7557 -11.7021 -14.2756 14.1214 65.1984 -5.0865
# 6 6.7708 5.7099 3.6519 1.2688 -5.0865 31.0036
#
#
#
# Elastic Compliance Matrix: (Units=1/GPa)
#
#
# Indices 1 2 3 4 5 6 
#
# 1 0.008357 -0.001122 -0.001684 0.003218 -0.000269 -0.001596
# 2 -0.001122 0.014931 -0.000232 -0.006339 0.003726 -0.001607
# 3 -0.001684 -0.000232 0.007728 0.000727 0.001242 -0.000326
# 4 0.003218 -0.006339 0.000727 0.037421 -0.008855 -0.002605
# 5 -0.000269 0.003726 0.001242 -0.008855 0.018363 0.002601
# 6 -0.001596 -0.001607 -0.000326 -0.002605 0.002601 0.033471
#
#
# Mechanical properties :
#
#
# Convention : Reuss Voigt Hill
#
# Bulk Modulus (GPa) = 40.09676 48.77579 44.43628
# Shear Modulus (GPa) = 37.13080 45.99748 41.56414
#
# Velocity S-wave (km/s) = 3.71695 4.13701 3.93259
# Velocity P-wave (km/s) = 5.77410 6.40066 6.09543
#
# Compressibility (1/GPa) = 0.02493967
#
# Stress axis : x y z
#
# Youngs Moduli (GPa) = 119.66107 66.97657 129.39868
#
# Poissons Ratio (x) = 0.07517 0.21786
# Poissons Ratio (y) = 0.13430 0.03002
# Poissons Ratio (z) = 0.20146 0.01554
#
# Static dielectric constant tensor:
#      x y z
#    x 2.047180 -0.099840 0.024990 
#    y -0.099840 2.146290 -0.016230 
#    z 0.024990 -0.016230 2.144660 
# 
# From -- ./inp_files/147283.got.cif
#   From: 2010.05.17/outbox.cif.g08.bks.cpg/sg2_74_cif.got.tgz:147283.got - 2010.06.03 11:33:40.
