data_PCOD9100915
_publ_section_title
;
Structure prediction by ZEFSAII (Michael W. Deem and Ramdas Pophale) SiO2 
 PCOD9100915
Probable space group: P -1
;
_chemical_formula_sum "Si O2"
_cell_formula_units_Z 13
_cell_length_a 13.433760
_cell_length_b 12.612419
_cell_length_c 10.734646
_cell_angle_alpha 128.742440
_cell_angle_beta 147.422497
_cell_angle_gamma 35.181243
_cell_volume 552.519208
_symmetry_space_group_name_H-M "P -1"
_symmetry_group_IT_number 2
_symmetry_cell_setting 'triclinic'
loop_
_space_group_symop_operation_xyz
x,y,z
-x,-y,-z
loop_
_atom_site_type_symbol
_atom_site_label
_atom_site_fract_x
_atom_site_fract_y
_atom_site_fract_z
Si Si1 0.178537 0.310256 0.468932
Si Si2 0.659844 0.065235 0.967747
Si Si3 0.320372 0.440506 0.495767
Si Si4 0.794138 0.215463 0.398036
Si Si5 0.889389 0.271800 0.961984
Si Si6 0.500000 0.000000 0.000000
Si Si7 0.340306 0.383384 0.189849
O O1 0.269933 0.351951 0.478075
O O2 0.000000 0.500000 0.500000
O O3 0.026259 0.256311 0.219651
O O4 0.423262 0.151915 0.693508
O O5 0.918150 0.919294 0.053722
O O6 0.639892 0.975638 0.998218
O O7 0.652633 0.219621 0.133901
O O8 0.136111 0.667505 0.481775
O O9 0.283774 0.407408 0.292675
O O10 0.613282 0.344903 0.747647
O O11 0.612419 0.320213 0.403409
O O12 0.000000 0.000000 0.500000
O O13 0.847112 0.428182 0.948616
O O14 0.611146 0.788149 0.943057
#
# Coordination Sequence:
#
# PCOD9100915 Si02
#       7
#     2   2   2   2   2   1   2
#     4  12  27  44  65  96 134 180 227 272 336 407
#     4  11  24  42  65  99 135 175 227 275 332 404
#     4  11  24  44  69  97 136 178 218 281 339 384
#     4  10  20  37  66  99 131 170 221 275 327 393
#     4  11  24  45  69  98 135 173 225 279 329 400
#     4  10  22  40  66  96 132 168 214 276 330 384
#     4  10  21  39  66 100 131 170 221 272 332 393
#
# _framework density 23.528593000000001
#
# number of rings (size 3 to 8) (size 9 to 14) (size 15 to 20)
#    0.000    1.231    0.000    7.846    0.000   11.692 
#    0.000    1.538    0.000    0.000    0.000    0.000 
#    0.000    0.000    0.000    0.000    0.000    0.000 
#
# Total GULP energy -72522.744931 kJ/mol
# GULP energy per Si atom -5578.672687 kJ/mol
# Density = 2.347504 g / cm^3
# Si number density = 23.528593 Si / 1000 Ang^3
#
#
#
# Elastic Constant Matrix: (Units=GPa)
#
#
# Indices 1 2 3 4 5 6 
#
# 1 68.9219 -6.7412 21.4141 3.4192 7.3508 -13.8342
# 2 -6.7412 72.0446 10.8302 10.1433 1.9482 -15.9878
# 3 21.4141 10.8302 129.9927 -2.0648 1.3473 -8.5322
# 4 3.4192 10.1433 -2.0648 34.6268 -5.3847 -4.8647
# 5 7.3508 1.9482 1.3473 -5.3847 24.0911 10.9251
# 6 -13.8342 -15.9878 -8.5322 -4.8647 10.9251 28.7253
#
#
#
# Elastic Compliance Matrix: (Units=1/GPa)
#
#
# Indices 1 2 3 4 5 6 
#
# 1 0.022437 0.008208 -0.002930 -0.004670 -0.017653 0.020427
# 2 0.008208 0.020439 -0.001756 -0.006420 -0.014158 0.019104
# 3 -0.002930 -0.001756 0.008335 0.001439 0.000896 -0.000010
# 4 -0.004670 -0.006420 0.001439 0.032439 0.010960 -0.004070
# 5 -0.017653 -0.014158 0.000896 0.010960 0.068767 -0.040414
# 6 0.020427 0.019104 -0.000010 -0.004070 -0.040414 0.069961
#
#
# Mechanical properties :
#
#
# Convention : Reuss Voigt Hill
#
# Bulk Modulus (GPa) = 17.16660 35.77394 26.47027
# Shear Modulus (GPa) = 21.29892 33.85239 27.57566
#
# Velocity S-wave (km/s) = 3.01198 3.79724 3.42717
# Velocity P-wave (km/s) = 4.40544 5.87050 5.18993
#
# Compressibility (1/GPa) = 0.05825266
#
# Stress axis : x y z
#
# Youngs Moduli (GPa) = 44.56908 48.92719 119.98068
#
# Poissons Ratio (x) = -0.40159 0.35159
# Poissons Ratio (y) = -0.36582 0.21071
# Poissons Ratio (z) = 0.13061 0.08593
#
# Static dielectric constant tensor:
#      x y z
#    x 1.863290 -0.012790 0.063350 
#    y -0.012790 1.886370 -0.038870 
#    z 0.063350 -0.038870 1.959260 
# 
# From -- ./inp_files/233674.got.cif
#   From: 2010.05.17/outbox.cif.g08.bks.cpg/sg2_117_cif.got.tgz:233674.got - 2010.06.03 11:33:40.
