data_PCOD9100765
_publ_section_title
;
Structure prediction by ZEFSAII (Michael W. Deem and Ramdas Pophale) SiO2 
 PCOD9100765
Probable space group: P -1
;
_chemical_formula_sum "Si O2"
_cell_formula_units_Z 14
_cell_length_a 10.086300
_cell_length_b 10.367609
_cell_length_c 7.991638
_cell_angle_alpha 118.918958
_cell_angle_beta 119.885063
_cell_angle_gamma 58.075867
_cell_volume 586.826163
_symmetry_space_group_name_H-M "P -1"
_symmetry_group_IT_number 2
_symmetry_cell_setting 'triclinic'
loop_
_space_group_symop_operation_xyz
x,y,z
-x,-y,-z
loop_
_atom_site_type_symbol
_atom_site_label
_atom_site_fract_x
_atom_site_fract_y
_atom_site_fract_z
Si Si1 0.352506 0.363660 0.439175
Si Si2 0.041191 0.056231 0.736894
Si Si3 0.167186 0.342109 0.978720
Si Si4 0.822001 0.144326 0.013918
Si Si5 0.335355 0.847946 0.379203
Si Si6 0.263057 0.199208 0.604891
Si Si7 0.913906 0.372192 0.390861
O O1 0.547898 0.305731 0.546308
O O2 0.321791 0.256119 0.505618
O O3 0.238584 0.542176 0.530479
O O4 0.290308 0.333000 0.202186
O O5 0.852931 0.140084 0.739178
O O6 0.112316 0.193194 0.864505
O O7 0.000000 0.000000 0.500000
O O8 0.179867 0.908703 0.826412
O O9 0.252337 0.311307 0.828398
O O10 0.000000 0.500000 0.000000
O O11 0.850384 0.309375 0.149526
O O12 0.656993 0.152197 0.819572
O O13 0.000000 0.000000 0.000000
O O14 0.347791 0.008783 0.559042
O O15 0.070459 0.226446 0.467084
O O16 0.000000 0.500000 0.500000
#
# Coordination Sequence:
#
# PCOD9100765 Si02
#       7
#     2   2   2   2   2   2   2
#     4  11  26  41  66 102 139 169 216 286 337 387
#     4  11  22  41  67  95 129 174 228 273 316 405
#     4  12  25  42  72  97 128 182 229 268 334 403
#     4  10  20  37  68  91 123 178 222 259 328 396
#     4  11  23  42  65 101 135 168 221 280 337 386
#     4  11  21  43  67  95 134 176 227 266 323 410
#     4  10  20  37  65  96 130 170 222 270 315 401
#
# _framework density 23.857149
#
# number of rings (size 3 to 8) (size 9 to 14) (size 15 to 20)
#    0.000    1.143    5.714    1.286    6.000    1.143 
#    2.571    0.714    0.000    0.000    0.000    0.000 
#    0.000    0.000    0.000    0.000    0.000    0.000 
#
# Total GULP energy -78026.685177 kJ/mol
# GULP energy per Si atom -5573.334656 kJ/mol
# Density = 2.380285 g / cm^3
# Si number density = 23.857149 Si / 1000 Ang^3
#
#
#
# Elastic Constant Matrix: (Units=GPa)
#
#
# Indices 1 2 3 4 5 6 
#
# 1 14.7516 0.3416 -7.1636 -2.6173 0.3862 -4.4738
# 2 0.3416 65.1086 34.9523 -5.5443 11.3825 -18.7190
# 3 -7.1636 34.9523 180.1398 -7.7956 -8.3643 -19.8723
# 4 -2.6173 -5.5443 -7.7956 55.8570 -1.9190 8.7565
# 5 0.3862 11.3825 -8.3643 -1.9190 24.8627 3.0643
# 6 -4.4738 -18.7190 -19.8723 8.7565 3.0643 31.9431
#
#
#
# Elastic Compliance Matrix: (Units=1/GPa)
#
#
# Indices 1 2 3 4 5 6 
#
# 1 0.074307 0.001923 0.004082 0.002014 -0.002198 0.013732
# 2 0.001923 0.023464 -0.003681 -0.000637 -0.013689 0.013217
# 3 0.004082 -0.003681 0.006864 0.000571 0.003708 0.002173
# 4 0.002014 -0.000637 0.000571 0.018911 0.002548 -0.005165
# 5 -0.002198 -0.013689 0.003708 0.002548 0.049378 -0.011458
# 6 0.013732 0.013217 0.002173 -0.005165 -0.011458 0.044841
#
#
# Mechanical properties :
#
#
# Convention : Reuss Voigt Hill
#
# Bulk Modulus (GPa) = 9.15068 35.14006 22.14537
# Shear Modulus (GPa) = 20.03643 37.99054 29.01348
#
# Velocity S-wave (km/s) = 2.90116 3.99484 3.49109
# Velocity P-wave (km/s) = 3.88153 6.00330 5.05499
#
# Compressibility (1/GPa) = 0.10928149
#
# Stress axis : x y z
#
# Youngs Moduli (GPa) = 13.45773 42.61871 145.67953
#
# Poissons Ratio (x) = -0.08195 -0.59464
# Poissons Ratio (y) = -0.02588 0.53629
# Poissons Ratio (z) = -0.05493 0.15689
#
# Static dielectric constant tensor:
#      x y z
#    x 1.946450 0.007310 0.295720 
#    y 0.007310 1.972410 0.060210 
#    z 0.295720 0.060210 1.378360 
# 
# From -- ./inp_files/260790.got.cif
#   From: 2010.05.17/outbox.cif.g08.bks.cpg/sg2_131_cif.got.tgz:260790.got - 2010.06.03 11:33:40.
