data_PCOD9100165
_publ_section_title
;
Structure prediction by ZEFSAII (Michael W. Deem and Ramdas Pophale) SiO2 
 PCOD9100165
Probable space group: P -1
;
_chemical_formula_sum "Si O2"
_cell_formula_units_Z 16
_cell_length_a 8.761825
_cell_length_b 23.697499
_cell_length_c 12.766143
_cell_angle_alpha 33.690409
_cell_angle_beta 131.918881
_cell_angle_gamma 153.267237
_cell_volume 630.790835
_symmetry_space_group_name_H-M "P -1"
_symmetry_group_IT_number 2
_symmetry_cell_setting 'triclinic'
loop_
_space_group_symop_operation_xyz
x,y,z
-x,-y,-z
loop_
_atom_site_type_symbol
_atom_site_label
_atom_site_fract_x
_atom_site_fract_y
_atom_site_fract_z
Si Si1 0.822005 0.345191 0.518320
Si Si2 0.535467 0.514977 0.640794
Si Si3 0.192809 0.693850 0.071476
Si Si4 0.149290 0.005374 0.847582
Si Si5 0.582786 0.815406 0.621041
Si Si6 0.512366 0.125171 0.291615
Si Si7 0.786418 0.705399 0.976614
Si Si8 0.231397 0.234339 0.779102
O O1 0.645703 0.234836 0.500901
O O2 0.166896 0.424970 0.589117
O O3 0.923825 0.501362 0.295127
O O4 0.527732 0.205340 0.686763
O O5 0.505982 0.404324 0.723012
O O6 0.818619 0.710122 0.426133
O O7 0.507087 0.470582 0.815180
O O8 0.566733 0.787383 0.122636
O O9 0.228675 0.733859 0.901593
O O10 0.065626 0.745465 0.987433
O O11 0.868987 0.984026 0.750828
O O12 0.004707 0.868838 0.902750
O O13 0.105055 0.923278 0.059820
O O14 0.441930 0.803875 0.683252
O O15 0.575768 0.690901 0.821975
O O16 0.000000 0.000000 0.500000
O O17 0.500000 0.000000 0.500000
#
# Coordination Sequence:
#
# PCOD9100165 Si02
#       8
#     2   2   2   2   2   2   2   2
#     4  11  22  37  63  94 121 152 205 254 291 349
#     4   9  19  37  65  87 116 162 204 244 292 358
#     4  10  22  36  61  92 122 154 203 251 292 350
#     4   9  19  37  61  83 117 159 200 238 295 363
#     4  11  21  40  62  89 120 162 198 241 305 371
#     4  10  20  37  63  81 116 166 201 234 302 365
#     4  10  20  37  63  89 116 168 197 234 302 369
#     4   8  17  36  58  81 116 158 197 235 298 353
#
# _framework density 25.364985000000001
#
# number of rings (size 3 to 8) (size 9 to 14) (size 15 to 20)
#    0.000    2.250    2.500    1.500    0.000    5.000 
#    0.000    0.000    2.750    4.500    0.000    0.000 
#    0.000    0.000    0.000    0.000    0.000    0.000 
#
# Total GULP energy -89507.316972 kJ/mol
# GULP energy per Si atom -5594.207311 kJ/mol
# Density = 2.530725 g / cm^3
# Si number density = 25.364985 Si / 1000 Ang^3
#
#
#
# Elastic Constant Matrix: (Units=GPa)
#
#
# Indices 1 2 3 4 5 6 
#
# 1 145.8445 14.1261 62.2742 -2.5660 1.5914 17.1628
# 2 14.1261 50.0356 34.7894 4.2209 -1.0825 9.0118
# 3 62.2742 34.7894 201.3432 12.6416 -35.9772 15.7568
# 4 -2.5660 4.2209 12.6416 33.2513 7.4530 0.7426
# 5 1.5914 -1.0825 -35.9772 7.4530 56.1372 2.5906
# 6 17.1628 9.0118 15.7568 0.7426 2.5906 27.4516
#
#
#
# Elastic Compliance Matrix: (Units=1/GPa)
#
#
# Indices 1 2 3 4 5 6 
#
# 1 0.008593 0.000004 -0.002937 0.002369 -0.002277 -0.003537
# 2 0.000004 0.023722 -0.003914 -0.001029 -0.001667 -0.005358
# 3 -0.002937 -0.003914 0.007976 -0.004006 0.005739 -0.001890
# 4 0.002369 -0.001029 -0.004006 0.033491 -0.007144 0.000925
# 5 -0.002277 -0.001667 0.005739 -0.007144 0.022623 -0.003265
# 6 -0.003537 -0.005358 -0.001890 0.000925 -0.003265 0.041766
#
#
# Mechanical properties :
#
#
# Convention : Reuss Voigt Hill
#
# Bulk Modulus (GPa) = 37.59825 68.84476 53.22150
# Shear Modulus (GPa) = 31.10775 42.43693 36.77234
#
# Velocity S-wave (km/s) = 3.50581 4.09473 3.81166
# Velocity P-wave (km/s) = 5.58951 7.03963 6.35606
#
# Compressibility (1/GPa) = 0.02659698
#
# Stress axis : x y z
#
# Youngs Moduli (GPa) = 116.37097 42.15528 125.37026
#
# Poissons Ratio (x) = -0.00018 0.36826
# Poissons Ratio (y) = -0.00050 0.49071
# Poissons Ratio (z) = 0.34183 0.16500
#
# Static dielectric constant tensor:
#      x y z
#    x 2.009230 -0.049890 -0.016480 
#    y -0.049890 2.040710 -0.047030 
#    z -0.016480 -0.047030 2.025860 
# 
# From -- ./inp_files/508916.got.cif
#   From: 2010.05.17/outbox.cif.g08.bks.cpg/sg2_255_cif.got.tgz:508916.got - 2010.06.03 11:33:40.
