data_PCOD9100970
_publ_section_title
;
Structure prediction by ZEFSAII (Michael W. Deem and Ramdas Pophale) SiO2 
 PCOD9100970
Probable space group: P -1
;
_chemical_formula_sum "Si O2"
_cell_formula_units_Z 12
_cell_length_a 10.990310
_cell_length_b 6.895517
_cell_length_c 7.796555
_cell_angle_alpha 106.794441
_cell_angle_beta 96.078149
_cell_angle_gamma 62.938042
_cell_volume 503.494820
_symmetry_space_group_name_H-M "P -1"
_symmetry_group_IT_number 2
_symmetry_cell_setting 'triclinic'
loop_
_space_group_symop_operation_xyz
x,y,z
-x,-y,-z
loop_
_atom_site_type_symbol
_atom_site_label
_atom_site_fract_x
_atom_site_fract_y
_atom_site_fract_z
Si Si1 0.998422 0.490809 0.202437
Si Si2 0.549649 0.305323 0.316877
Si Si3 0.222226 0.894518 0.928930
Si Si4 0.051090 0.002596 0.240439
Si Si5 0.287396 0.254392 0.227642
Si Si6 0.231430 0.093853 0.536547
O O1 0.016554 0.252983 0.223679
O O2 0.144563 0.483476 0.270470
O O3 0.867787 0.678307 0.323114
O O4 0.000000 0.500000 0.000000
O O5 0.500000 0.500000 0.500000
O O6 0.651081 0.314814 0.188725
O O7 0.417447 0.293371 0.219024
O O8 0.648764 0.074513 0.369310
O O9 0.158533 0.839366 0.074803
O O10 0.093678 0.000756 0.804956
O O11 0.271282 0.081089 0.045771
O O12 0.132531 0.987947 0.421421
O O13 0.297033 0.147281 0.390399
#
# Coordination Sequence:
#
# PCOD9100970 Si02
#       6
#     2   2   2   2   2   2
#     4  10  20  37  67  97 121 161 208 263 309 367
#     4  12  26  40  60  94 130 167 208 253 311 374
#     4   9  20  40  64  87 128 160 203 261 304 362
#     4   9  19  39  67  96 119 156 218 258 310 356
#     4  10  22  44  62  91 128 165 206 251 321 368
#     4  10  21  40  67  87 125 167 207 257 309 368
#
# _framework density 23.833413
#
# number of rings (size 3 to 8) (size 9 to 14) (size 15 to 20)
#    0.000    2.333    0.000    5.000    4.667    0.667 
#   12.000    3.333    0.000    0.000    0.000    0.000 
#    0.000    0.000    0.000    0.000    0.000    0.000 
#
# Total GULP energy -67086.495162 kJ/mol
# GULP energy per Si atom -5590.541264 kJ/mol
# Density = 2.377917 g / cm^3
# Si number density = 23.833413 Si / 1000 Ang^3
#
#
#
# Elastic Constant Matrix: (Units=GPa)
#
#
# Indices 1 2 3 4 5 6 
#
# 1 164.2297 11.4044 40.3842 23.0178 -5.7851 -14.3060
# 2 11.4044 47.5393 8.4150 0.4440 -12.7405 -11.4290
# 3 40.3842 8.4150 106.0658 9.4494 -17.2655 -6.7183
# 4 23.0178 0.4440 9.4494 38.6447 -11.9743 -3.9324
# 5 -5.7851 -12.7405 -17.2655 -11.9743 48.1540 7.3947
# 6 -14.3060 -11.4290 -6.7183 -3.9324 7.3947 36.4160
#
#
#
# Elastic Compliance Matrix: (Units=1/GPa)
#
#
# Indices 1 2 3 4 5 6 
#
# 1 0.007495 -0.001289 -0.002531 -0.004152 -0.001682 0.001966
# 2 -0.001289 0.024484 -0.000353 0.003067 0.006003 0.006224
# 3 -0.002531 -0.000353 0.011009 -0.000075 0.003499 0.000207
# 4 -0.004152 0.003067 -0.000075 0.030857 0.007795 0.001067
# 5 -0.001682 0.006003 0.003499 0.007795 0.025732 -0.002515
# 6 0.001966 0.006224 0.000207 0.001067 -0.002515 0.030850
#
#
# Mechanical properties :
#
#
# Convention : Reuss Voigt Hill
#
# Bulk Modulus (GPa) = 28.86789 48.69358 38.78073
# Shear Modulus (GPa) = 33.26224 41.81835 37.54030
#
# Velocity S-wave (km/s) = 3.73984 4.19335 3.97307
# Velocity P-wave (km/s) = 5.54862 6.62727 6.11179
#
# Compressibility (1/GPa) = 0.03464057
#
# Stress axis : x y z
#
# Youngs Moduli (GPa) = 133.42621 40.84354 90.83344
#
# Poissons Ratio (x) = 0.05267 0.22988
# Poissons Ratio (y) = 0.17205 0.03209
# Poissons Ratio (z) = 0.33767 0.01443
#
# Static dielectric constant tensor:
#      x y z
#    x 1.946610 0.055590 -0.013480 
#    y 0.055590 1.955980 -0.000930 
#    z -0.013480 -0.000930 1.955520 
# 
# From -- ./inp_files/229368.got.cif
#   From: 2010.05.17/outbox.cif.g08.bks.cpg/sg2_115_cif.got.tgz:229368.got - 2010.06.03 11:33:40.
