data_PCOD9100900
_publ_section_title
;
Structure prediction by ZEFSAII (Michael W. Deem and Ramdas Pophale) SiO2 
 PCOD9100900
Probable space group: P -1
;
_chemical_formula_sum "Si O2"
_cell_formula_units_Z 10
_cell_length_a 10.459440
_cell_length_b 5.009042
_cell_length_c 18.557959
_cell_angle_alpha 80.004042
_cell_angle_beta 27.059411
_cell_angle_gamma 88.440752
_cell_volume 417.617641
_symmetry_space_group_name_H-M "P -1"
_symmetry_group_IT_number 2
_symmetry_cell_setting 'triclinic'
loop_
_space_group_symop_operation_xyz
x,y,z
-x,-y,-z
loop_
_atom_site_type_symbol
_atom_site_label
_atom_site_fract_x
_atom_site_fract_y
_atom_site_fract_z
Si Si1 0.495114 0.520286 0.851107
Si Si2 0.717214 0.534121 0.185655
Si Si3 0.863690 0.096093 0.945831
Si Si4 0.800464 0.247339 0.820417
Si Si5 0.578116 0.744682 0.510823
O O1 0.529238 0.480344 0.750267
O O2 0.723302 0.483000 0.798509
O O3 0.408943 0.811064 0.887895
O O4 0.229760 0.230847 0.012465
O O5 0.862217 0.825477 0.142117
O O6 0.000000 0.500000 0.000000
O O7 0.915426 0.305293 0.841587
O O8 0.413168 0.669206 0.673215
O O9 0.073231 0.171516 0.651331
O O10 0.500000 0.000000 0.000000
O O11 0.500000 0.500000 0.500000
O O12 0.500000 0.000000 0.500000
#
# Coordination Sequence:
#
# PCOD9100900 Si02
#       5
#     2   2   2   2   2
#     4  10  22  37  64  99 132 174 222 273 344 395
#     4  10  23  42  70  98 139 178 224 282 342 401
#     4  10  20  37  66  97 130 178 224 265 336 413
#     4  10  23  42  70  98 139 178 224 282 342 401
#     4  12  28  45  70 105 136 181 235 278 334 417
#
# _framework density 23.945347000000002
#
# number of rings (size 3 to 8) (size 9 to 14) (size 15 to 20)
#    0.000    1.600    2.000    1.200   11.200    7.200 
#    0.000    0.000    0.000   22.800    0.000    0.000 
#    0.000    0.000    0.000    0.000    0.000    0.000 
#
# Total GULP energy -55683.425613 kJ/mol
# GULP energy per Si atom -5568.342561 kJ/mol
# Density = 2.389085 g / cm^3
# Si number density = 23.945347 Si / 1000 Ang^3
#
#
#
# Elastic Constant Matrix: (Units=GPa)
#
#
# Indices 1 2 3 4 5 6 
#
# 1 188.3117 21.2788 29.5961 -3.0705 28.6942 -24.7895
# 2 21.2788 98.7726 33.8493 12.2457 7.9712 -11.7282
# 3 29.5961 33.8493 124.0314 -3.2982 13.0918 -13.2391
# 4 -3.0705 12.2457 -3.2982 18.7300 -3.7801 -2.2709
# 5 28.6942 7.9712 13.0918 -3.7801 33.8338 0.0819
# 6 -24.7895 -11.7282 -13.2391 -2.2709 0.0819 40.7902
#
#
#
# Elastic Compliance Matrix: (Units=1/GPa)
#
#
# Indices 1 2 3 4 5 6 
#
# 1 0.006784 -0.000492 -0.000483 0.000734 -0.005377 0.003876
# 2 -0.000492 0.012901 -0.003197 -0.009345 -0.002433 0.001857
# 3 -0.000483 -0.003197 0.009596 0.003519 -0.002162 0.002102
# 4 0.000734 -0.009345 0.003519 0.061963 0.007135 0.002336
# 5 -0.005377 -0.002433 -0.002162 0.007135 0.036334 -0.004345
# 6 0.003876 0.001857 0.002102 0.002336 -0.004345 0.028226
#
#
# Mechanical properties :
#
#
# Convention : Reuss Voigt Hill
#
# Bulk Modulus (GPa) = 47.76499 64.50713 56.13606
# Shear Modulus (GPa) = 29.21775 40.43021 34.82398
#
# Velocity S-wave (km/s) = 3.49690 4.11352 3.81768
# Velocity P-wave (km/s) = 6.02455 7.03983 6.55189
#
# Compressibility (1/GPa) = 0.02093583
#
# Stress axis : x y z
#
# Youngs Moduli (GPa) = 147.41593 77.51138 104.20558
#
# Poissons Ratio (x) = 0.03817 0.05038
# Poissons Ratio (y) = 0.07260 0.33312
# Poissons Ratio (z) = 0.07127 0.24779
#
# Static dielectric constant tensor:
#      x y z
#    x 2.066580 0.038220 0.002270 
#    y 0.038220 1.932310 -0.005750 
#    z 0.002270 -0.005750 2.061060 
# 
# From -- ./inp_files/36618.got.cif
#   From: 2010.05.17/outbox.cif.g08.bks.cpg/sg2_19_cif.got.tgz:36618.got - 2010.06.03 11:33:40.
