data_PCOD9100093
_publ_section_title
;
Structure prediction by ZEFSAII (Michael W. Deem and Ramdas Pophale) SiO2 
 PCOD9100093
Probable space group: P -1
;
_chemical_formula_sum "Si O2"
_cell_formula_units_Z 14
_cell_length_a 11.258721
_cell_length_b 12.368227
_cell_length_c 9.214138
_cell_angle_alpha 74.113506
_cell_angle_beta 79.765016
_cell_angle_gamma 31.616305
_cell_volume 643.013008
_symmetry_space_group_name_H-M "P -1"
_symmetry_group_IT_number 2
_symmetry_cell_setting 'triclinic'
loop_
_space_group_symop_operation_xyz
x,y,z
-x,-y,-z
loop_
_atom_site_type_symbol
_atom_site_label
_atom_site_fract_x
_atom_site_fract_y
_atom_site_fract_z
Si Si1 0.682424 0.785858 0.630020
Si Si2 0.037906 0.671457 0.590186
Si Si3 0.683340 0.101030 0.334240
Si Si4 0.953827 0.160921 0.891288
Si Si5 0.415448 0.487480 0.395041
Si Si6 0.305404 0.219652 0.038157
Si Si7 0.881541 0.406403 0.060257
O O1 0.936810 0.626435 0.596639
O O2 0.571126 0.750992 0.669958
O O3 0.672702 0.829783 0.781842
O O4 0.500000 0.000000 0.500000
O O5 0.075449 0.662144 0.756878
O O6 0.262731 0.516962 0.505197
O O7 0.843888 0.908853 0.484131
O O8 0.630678 0.266215 0.344066
O O9 0.819002 0.984760 0.196186
O O10 0.751242 0.323962 0.756140
O O11 0.886130 0.300971 0.984097
O O12 0.000000 0.000000 0.000000
O O13 0.500000 0.500000 0.500000
O O14 0.074487 0.342646 0.986366
O O15 0.321892 0.341463 0.975778
O O16 0.500000 0.000000 0.000000
#
# Coordination Sequence:
#
# PCOD9100093 Si02
#       7
#     2   2   2   2   2   2   2
#     4   9  18  37  63  94 123 164 209 256 332 393
#     4   9  22  40  66  95 131 170 208 279 329 393
#     4  10  22  42  66  94 133 172 219 271 328 393
#     4  11  26  44  67  95 134 179 222 279 322 384
#     4  11  26  44  64  94 127 178 228 268 325 395
#     4  10  20  37  62  93 132 164 204 270 328 387
#     4  10  22  39  62  96 127 167 217 262 332 387
#
# _framework density 21.772499
#
# number of rings (size 3 to 8) (size 9 to 14) (size 15 to 20)
#    0.000    2.000    0.000    1.714    4.000    5.714 
#    2.571    4.286    0.000    0.000    0.000    0.000 
#    0.000    0.000    0.000    0.000    0.000    0.000 
#
# Total GULP energy -78021.589599 kJ/mol
# GULP energy per Si atom -5572.970686 kJ/mol
# Density = 2.172294 g / cm^3
# Si number density = 21.772499 Si / 1000 Ang^3
#
#
#
# Elastic Constant Matrix: (Units=GPa)
#
#
# Indices 1 2 3 4 5 6 
#
# 1 74.8549 42.1053 57.4659 7.2979 16.4178 13.0558
# 2 42.1053 104.3932 51.6325 19.4499 10.1756 25.0530
# 3 57.4659 51.6325 143.3858 -4.6988 11.1887 17.6410
# 4 7.2979 19.4499 -4.6988 25.3356 5.5569 3.5928
# 5 16.4178 10.1756 11.1887 5.5569 35.7545 6.2657
# 6 13.0558 25.0530 17.6410 3.5928 6.2657 34.4504
#
#
#
# Elastic Compliance Matrix: (Units=1/GPa)
#
#
# Indices 1 2 3 4 5 6 
#
# 1 0.023259 -0.004502 -0.007250 -0.003098 -0.006595 -0.000306
# 2 -0.004502 0.017340 -0.003987 -0.011990 0.001629 -0.007908
# 3 -0.007250 -0.003987 0.011711 0.007516 -0.000176 -0.001102
# 4 -0.003098 -0.011990 0.007516 0.052015 -0.005897 0.001693
# 5 -0.006595 0.001629 -0.000176 -0.005897 0.032176 -0.003832
# 6 -0.000306 -0.007908 -0.001102 0.001693 -0.003832 0.035979
#
#
# Mechanical properties :
#
#
# Convention : Reuss Voigt Hill
#
# Bulk Modulus (GPa) = 48.00172 69.44904 58.72538
# Shear Modulus (GPa) = 23.70779 30.53677 27.12228
#
# Velocity S-wave (km/s) = 3.30341 3.74911 3.53329
# Velocity P-wave (km/s) = 6.05350 7.12095 6.60881
#
# Compressibility (1/GPa) = 0.02083259
#
# Stress axis : x y z
#
# Youngs Moduli (GPa) = 42.99385 57.67090 85.38962
#
# Poissons Ratio (x) = 0.25963 0.61907
# Poissons Ratio (y) = 0.19356 0.34043
# Poissons Ratio (z) = 0.31170 0.22992
#
# Static dielectric constant tensor:
#      x y z
#    x 1.883730 -0.037130 0.002600 
#    y -0.037130 1.886380 -0.014080 
#    z 0.002600 -0.014080 1.738010 
# 
# From -- ./inp_files/262387.got.cif
#   From: 2010.05.17/outbox.cif.g08.bks.cpg/sg2_132_cif.got.tgz:262387.got - 2010.06.03 11:33:40.
