data_PCOD9100825
_publ_section_title
;
Structure prediction by ZEFSAII (Michael W. Deem and Ramdas Pophale) SiO2 
 PCOD9100825
Probable space group: P -1
;
_chemical_formula_sum "Si O2"
_cell_formula_units_Z 16
_cell_length_a 20.096956
_cell_length_b 17.014508
_cell_length_c 5.367731
_cell_angle_alpha 77.145343
_cell_angle_beta 74.486398
_cell_angle_gamma 20.646165
_cell_volume 621.497694
_symmetry_space_group_name_H-M "P -1"
_symmetry_group_IT_number 2
_symmetry_cell_setting 'triclinic'
loop_
_space_group_symop_operation_xyz
x,y,z
-x,-y,-z
loop_
_atom_site_type_symbol
_atom_site_label
_atom_site_fract_x
_atom_site_fract_y
_atom_site_fract_z
Si Si1 0.746434 0.163498 0.366306
Si Si2 0.863913 0.818653 0.945807
Si Si3 0.023360 0.715424 0.374170
Si Si4 0.442035 0.130413 0.768103
Si Si5 0.429414 0.746256 0.887444
Si Si6 0.186351 0.287138 0.637515
Si Si7 0.641145 0.610795 0.412119
Si Si8 0.668770 0.423059 0.255612
O O1 0.689316 0.202494 0.111699
O O2 0.788524 0.211946 0.315369
O O3 0.549083 0.361186 0.579912
O O4 0.916741 0.915415 0.410614
O O5 0.977843 0.736073 0.124912
O O6 0.844421 0.747679 0.098311
O O7 0.671865 0.082172 0.946748
O O8 0.946270 0.738148 0.645511
O O9 0.243092 0.486776 0.391204
O O10 0.268088 0.279144 0.686909
O O11 0.384555 0.282199 0.803781
O O12 0.629652 0.940195 0.547443
O O13 0.500000 0.000000 0.000000
O O14 0.450949 0.778799 0.599617
O O15 0.627996 0.494771 0.963995
O O16 0.000000 0.500000 0.500000
O O17 0.739254 0.427607 0.312534
#
# Coordination Sequence:
#
# PCOD9100825 Si02
#       8
#     2   2   2   2   2   2   2   2
#     4   9  20  38  60  98 123 172 232 271 331 406
#     4  11  24  44  71  94 136 179 232 276 342 416
#     4  11  25  43  68 102 135 180 226 286 336 420
#     4  11  27  44  67 102 140 178 237 298 350 427
#     4  10  20  38  65  90 129 177 219 279 333 412
#     4  11  26  45  70 100 137 187 235 292 357 423
#     4  11  25  41  62  96 134 174 222 283 357 402
#     4  10  20  37  66  88 130 174 222 278 338 407
#
# _framework density 25.744261000000002
#
# number of rings (size 3 to 8) (size 9 to 14) (size 15 to 20)
#    0.000    1.500    2.500    1.125    7.000    1.000 
#    0.000    0.625    0.000    0.000    0.000    0.000 
#    0.000    0.000    0.000    0.000    0.000    0.000 
#
# Total GULP energy -89447.028832 kJ/mol
# GULP energy per Si atom -5590.439302 kJ/mol
# Density = 2.568567 g / cm^3
# Si number density = 25.744261 Si / 1000 Ang^3
#
#
#
# Elastic Constant Matrix: (Units=GPa)
#
#
# Indices 1 2 3 4 5 6 
#
# 1 173.3396 42.7914 33.2996 -22.7374 -10.9557 19.0528
# 2 42.7914 84.6528 19.3953 -16.2865 -8.0968 9.3880
# 3 33.2996 19.3953 82.5207 -17.9706 -10.2229 1.1432
# 4 -22.7374 -16.2865 -17.9706 34.4841 -1.7967 0.9408
# 5 -10.9557 -8.0968 -10.2229 -1.7967 36.5249 -14.2003
# 6 19.0528 9.3880 1.1432 0.9408 -14.2003 37.2861
#
#
#
# Elastic Compliance Matrix: (Units=1/GPa)
#
#
# Indices 1 2 3 4 5 6 
#
# 1 0.007446 -0.002437 -0.001730 0.002949 0.000123 -0.003166
# 2 -0.002437 0.014610 -0.001164 0.004826 0.001690 -0.001876
# 3 -0.001730 -0.001164 0.015006 0.006307 0.004637 0.002324
# 4 0.002949 0.004826 0.006307 0.036812 0.004737 -0.002040
# 5 0.000123 0.001690 0.004637 0.004737 0.034075 0.012227
# 6 -0.003166 -0.001876 0.002324 -0.002040 0.012227 0.033546
#
#
# Mechanical properties :
#
#
# Convention : Reuss Voigt Hill
#
# Bulk Modulus (GPa) = 37.88143 59.05395 48.46769
# Shear Modulus (GPa) = 31.06427 37.99415 34.52921
#
# Velocity S-wave (km/s) = 3.47745 3.84582 3.66627
# Velocity P-wave (km/s) = 5.55608 6.53521 6.06543
#
# Compressibility (1/GPa) = 0.02639816
#
# Stress axis : x y z
#
# Youngs Moduli (GPa) = 134.30663 68.44794 66.64085
#
# Poissons Ratio (x) = 0.16681 0.11531
# Poissons Ratio (y) = 0.32730 0.07758
# Poissons Ratio (z) = 0.23240 0.07968
#
# Static dielectric constant tensor:
#      x y z
#    x 2.034030 -0.026410 -0.000870 
#    y -0.026410 2.061260 0.030880 
#    z -0.000870 0.030880 2.105830 
# 
# From -- ./inp_files/55524.got.cif
#   From: 2010.05.17/outbox.cif.g08.bks.cpg/sg2_28_cif.got.tgz:55524.got - 2010.06.03 11:33:40.
