data_PCOD9100580
_publ_section_title
;
Structure prediction by ZEFSAII (Michael W. Deem and Ramdas Pophale) SiO2 
 PCOD9100580
Probable space group: P -1
;
_chemical_formula_sum "Si O2"
_cell_formula_units_Z 14
_cell_length_a 13.109474
_cell_length_b 14.095337
_cell_length_c 7.638464
_cell_angle_alpha 119.290620
_cell_angle_beta 140.139496
_cell_angle_gamma 40.264116
_cell_volume 568.586530
_symmetry_space_group_name_H-M "P -1"
_symmetry_group_IT_number 2
_symmetry_cell_setting 'triclinic'
loop_
_space_group_symop_operation_xyz
x,y,z
-x,-y,-z
loop_
_atom_site_type_symbol
_atom_site_label
_atom_site_fract_x
_atom_site_fract_y
_atom_site_fract_z
Si Si1 0.630725 0.375290 0.329117
Si Si2 0.084524 0.815074 0.800997
Si Si3 0.094681 0.559868 0.272882
Si Si4 0.247052 0.205886 0.724296
Si Si5 0.673370 0.629368 0.241517
Si Si6 0.614653 0.030292 0.813200
Si Si7 0.897079 0.135288 0.748925
O O1 0.750282 0.308038 0.237375
O O2 0.722847 0.447563 0.583318
O O3 0.724437 0.242770 0.468405
O O4 0.389801 0.446506 0.025303
O O5 0.892061 0.819245 0.580922
O O6 0.966452 0.977270 0.712784
O O7 0.186433 0.793203 0.103696
O O8 0.214874 0.461788 0.517601
O O9 0.871649 0.730612 0.188388
O O10 0.000000 0.500000 0.000000
O O11 0.204994 0.341913 0.696615
O O12 0.503500 0.064521 0.889351
O O13 0.466699 0.806547 0.185741
O O14 0.500000 0.000000 0.500000
O O15 0.876887 0.907105 0.035880
#
# Coordination Sequence:
#
# PCOD9100580 Si02
#       7
#     2   2   2   2   2   2   2
#     4  11  24  43  65  95 131 176 213 275 321 388
#     4  10  20  37  64  95 130 173 205 264 320 393
#     4  11  25  44  67  93 124 175 228 268 324 381
#     4   9  21  40  67  91 126 171 209 267 329 371
#     4  10  22  44  66  92 134 169 215 272 323 376
#     4  10  20  37  67  96 130 167 207 268 324 388
#     4  11  21  39  64  98 137 169 213 254 336 394
#
# _framework density 24.62246
#
# number of rings (size 3 to 8) (size 9 to 14) (size 15 to 20)
#    0.857    0.857    2.857    1.286    4.000    0.000 
#    2.571    8.571    0.000    0.000    0.000    0.000 
#    0.000    0.000    0.000    0.000    0.000    0.000 
#
# Total GULP energy -78175.228919 kJ/mol
# GULP energy per Si atom -5583.944923 kJ/mol
# Density = 2.456642 g / cm^3
# Si number density = 24.622460 Si / 1000 Ang^3
#
#
#
# Elastic Constant Matrix: (Units=GPa)
#
#
# Indices 1 2 3 4 5 6 
#
# 1 82.8305 10.9253 24.0054 0.3136 7.3249 22.8237
# 2 10.9253 58.5860 32.4106 8.5592 -1.3675 13.9719
# 3 24.0054 32.4106 121.1209 14.0839 7.1283 24.8509
# 4 0.3136 8.5592 14.0839 42.3383 16.0206 6.1133
# 5 7.3249 -1.3675 7.1283 16.0206 33.2398 13.6893
# 6 22.8237 13.9719 24.8509 6.1133 13.6893 39.0065
#
#
#
# Elastic Compliance Matrix: (Units=1/GPa)
#
#
# Indices 1 2 3 4 5 6 
#
# 1 0.014680 -0.000432 -0.001409 0.001807 -0.000702 -0.007574
# 2 -0.000432 0.021928 -0.004304 -0.004647 0.006852 -0.006536
# 3 -0.001409 -0.004304 0.010827 -0.002377 0.000784 -0.004435
# 4 0.001807 -0.004647 -0.002377 0.031066 -0.016273 0.002964
# 5 -0.000702 0.006852 0.000784 -0.016273 0.044646 -0.015661
# 6 -0.007574 -0.006536 -0.004435 0.002964 -0.015661 0.040267
#
#
# Mechanical properties :
#
#
# Convention : Reuss Voigt Hill
#
# Bulk Modulus (GPa) = 28.45264 44.13556 36.29410
# Shear Modulus (GPa) = 26.67819 35.93000 31.30410
#
# Velocity S-wave (km/s) = 3.29521 3.82414 3.56949
# Velocity P-wave (km/s) = 5.10476 6.12067 5.63565
#
# Compressibility (1/GPa) = 0.03514612
#
# Stress axis : x y z
#
# Youngs Moduli (GPa) = 68.11779 45.60358 92.35968
#
# Poissons Ratio (x) = 0.01972 0.13009
# Poissons Ratio (y) = 0.02945 0.39751
# Poissons Ratio (z) = 0.09595 0.19627
#
# Static dielectric constant tensor:
#      x y z
#    x 1.988170 -0.025170 0.071310 
#    y -0.025170 2.021970 0.019320 
#    z 0.071310 0.019320 1.963360 
# 
# From -- ./inp_files/310248.got.cif
#   From: 2010.05.17/outbox.cif.g08.bks.cpg/sg2_156_cif.got.tgz:310248.got - 2010.06.03 11:33:40.
