data_PCOD9100411
_publ_section_title
;
Structure prediction by ZEFSAII (Michael W. Deem and Ramdas Pophale) SiO2 
 PCOD9100411
Probable space group: P -1
;
_chemical_formula_sum "Si O2"
_cell_formula_units_Z 10
_cell_length_a 16.180974
_cell_length_b 6.671302
_cell_length_c 12.565092
_cell_angle_alpha 45.045150
_cell_angle_beta 29.531726
_cell_angle_gamma 51.482760
_cell_volume 472.995950
_symmetry_space_group_name_H-M "P -1"
_symmetry_group_IT_number 2
_symmetry_cell_setting 'triclinic'
loop_
_space_group_symop_operation_xyz
x,y,z
-x,-y,-z
loop_
_atom_site_type_symbol
_atom_site_label
_atom_site_fract_x
_atom_site_fract_y
_atom_site_fract_z
Si Si1 0.857469 0.770928 0.742166
Si Si2 0.055011 0.946390 0.836785
Si Si3 0.206639 0.369296 0.901472
Si Si4 0.769028 0.630139 0.665383
Si Si5 0.416987 0.953962 0.937863
O O1 0.860007 0.634301 0.675452
O O2 0.877413 0.617053 0.891175
O O3 0.666773 0.895973 0.922142
O O4 0.000000 0.000000 0.500000
O O5 0.199094 0.697639 0.755668
O O6 0.120605 0.231574 0.602499
O O7 0.903160 0.813463 0.988380
O O8 0.000000 0.000000 0.000000
O O9 0.375660 0.185871 0.804525
O O10 0.603281 0.834944 0.778308
O O11 0.701838 0.316570 0.842000
#
# Coordination Sequence:
#
# PCOD9100411 Si02
#       5
#     2   2   2   2   2
#     4  10  20  37  64  85 112 151 194 245 280 338
#     4  11  24  38  58  86 119 156 189 240 283 347
#     4   9  23  39  56  88 116 147 200 230 297 334
#     4  11  21  39  62  88 117 150 196 236 289 340
#     4   9  23  37  61  90 114 151 194 239 286 345
#
# _framework density 21.141832000000001
#
# number of rings (size 3 to 8) (size 9 to 14) (size 15 to 20)
#    1.200    0.800    2.000    0.600    5.600    2.400 
#    0.000    1.000    0.000    0.000    0.000    0.000 
#    0.000    0.000    0.000    0.000    0.000    0.000 
#
# Total GULP energy -55681.982411 kJ/mol
# GULP energy per Si atom -5568.198241 kJ/mol
# Density = 2.109371 g / cm^3
# Si number density = 21.141832 Si / 1000 Ang^3
#
#
#
# Elastic Constant Matrix: (Units=GPa)
#
#
# Indices 1 2 3 4 5 6 
#
# 1 117.8787 48.6537 35.4332 3.2702 16.5057 11.5771
# 2 48.6537 81.5208 20.5650 7.2167 7.5045 -16.5629
# 3 35.4332 20.5650 70.3401 1.2274 9.4322 15.9853
# 4 3.2702 7.2167 1.2274 33.9084 -1.0544 6.8308
# 5 16.5057 7.5045 9.4322 -1.0544 21.1990 12.0875
# 6 11.5771 -16.5629 15.9853 6.8308 12.0875 52.9953
#
#
#
# Elastic Compliance Matrix: (Units=1/GPa)
#
#
# Indices 1 2 3 4 5 6 
#
# 1 0.013545 -0.007685 -0.003210 0.001023 -0.004330 -0.003537
# 2 -0.007685 0.021556 -0.004124 -0.006348 -0.007014 0.012078
# 3 -0.003210 -0.004124 0.018514 0.001758 -0.000623 -0.006257
# 4 0.001023 -0.006348 0.001758 0.032632 0.007185 -0.008583
# 5 -0.004330 -0.007014 -0.000623 0.007185 0.062984 -0.016350
# 6 -0.003537 0.012078 -0.006257 -0.008583 -0.016350 0.030140
#
#
# Mechanical properties :
#
#
# Convention : Reuss Voigt Hill
#
# Bulk Modulus (GPa) = 42.41479 53.22705 47.82092
# Shear Modulus (GPa) = 23.01295 32.62638 27.81967
#
# Velocity S-wave (km/s) = 3.30283 3.93264 3.63141
# Velocity P-wave (km/s) = 5.88646 6.77139 6.34437
#
# Compressibility (1/GPa) = 0.02357668
#
# Stress axis : x y z
#
# Youngs Moduli (GPa) = 73.82539 46.39181 54.01262
#
# Poissons Ratio (x) = 0.35653 0.17338
# Poissons Ratio (y) = 0.56736 0.22276
# Poissons Ratio (z) = 0.23698 0.19133
#
# Static dielectric constant tensor:
#      x y z
#    x 1.726850 -0.072870 0.003480 
#    y -0.072870 1.826870 0.015590 
#    z 0.003480 0.015590 1.724670 
# 
# From -- ./inp_files/24419.got.cif
#   From: 2010.05.17/outbox.cif.g08.bks.cpg/sg2_13_cif.got.tgz:24419.got - 2010.06.03 11:33:40.
