data_PCOD9100598
_publ_section_title
;
Structure prediction by ZEFSAII (Michael W. Deem and Ramdas Pophale) SiO2 
 PCOD9100598
Probable space group: P -1
;
_chemical_formula_sum "Si O2"
_cell_formula_units_Z 14
_cell_length_a 12.906091
_cell_length_b 16.861439
_cell_length_c 9.006773
_cell_angle_alpha 143.520471
_cell_angle_beta 142.852720
_cell_angle_gamma 29.141908
_cell_volume 536.187977
_symmetry_space_group_name_H-M "P -1"
_symmetry_group_IT_number 2
_symmetry_cell_setting 'triclinic'
loop_
_space_group_symop_operation_xyz
x,y,z
-x,-y,-z
loop_
_atom_site_type_symbol
_atom_site_label
_atom_site_fract_x
_atom_site_fract_y
_atom_site_fract_z
Si Si1 0.703107 0.481888 0.281676
Si Si2 0.600709 0.369885 0.562117
Si Si3 0.188801 0.474149 0.836556
Si Si4 0.660828 0.099136 0.851614
Si Si5 0.355599 0.944761 0.920565
Si Si6 0.997555 0.178644 0.369868
Si Si7 0.150591 0.262950 0.942564
O O1 0.583356 0.578386 0.445598
O O2 0.910677 0.290409 0.288240
O O3 0.500000 0.500000 0.000000
O O4 0.798692 0.529592 0.334103
O O5 0.500000 0.500000 0.500000
O O6 0.754747 0.400828 0.865591
O O7 0.719111 0.171258 0.359871
O O8 0.981797 0.559983 0.844299
O O9 0.404970 0.277094 0.827894
O O10 0.750111 0.997103 0.644639
O O11 0.684894 0.993806 0.863458
O O12 0.826530 0.141507 0.132330
O O13 0.236583 0.105213 0.915496
O O14 0.622114 0.806871 0.984830
O O15 0.000524 0.271340 0.655108
#
# Coordination Sequence:
#
# PCOD9100598 Si02
#       7
#     2   2   2   2   2   2   2
#     4  10  20  37  64  96 135 164 208 278 330 390
#     4  11  20  39  70  99 130 167 221 280 328 383
#     4  11  22  41  67 103 132 170 221 279 336 390
#     4  11  23  40  69 101 134 169 223 283 332 392
#     4  11  25  46  65  94 137 182 223 272 330 397
#     4  11  23  41  68 101 131 175 219 276 336 395
#     4  11  27  44  67  94 137 182 226 265 332 403
#
# _framework density 26.110244999999999
#
# number of rings (size 3 to 8) (size 9 to 14) (size 15 to 20)
#    0.000    1.143    4.286    2.571    2.000    4.571 
#    0.000    0.714    0.000    0.000    0.000    0.000 
#    0.000    0.000    0.000    0.000    0.000    0.000 
#
# Total GULP energy -78320.358608 kJ/mol
# GULP energy per Si atom -5594.311329 kJ/mol
# Density = 2.605082 g / cm^3
# Si number density = 26.110245 Si / 1000 Ang^3
#
#
#
# Elastic Constant Matrix: (Units=GPa)
#
#
# Indices 1 2 3 4 5 6 
#
# 1 140.0280 38.7376 38.3222 -9.8098 -44.7022 -2.9668
# 2 38.7376 103.2906 20.4701 1.9173 -24.6464 -33.3117
# 3 38.3222 20.4701 96.7490 1.8089 -24.4356 -11.3654
# 4 -9.8098 1.9173 1.8089 32.3700 -6.7825 -9.2882
# 5 -44.7022 -24.6464 -24.4356 -6.7825 50.4699 11.3286
# 6 -2.9668 -33.3117 -11.3654 -9.2882 11.3286 40.0057
#
#
#
# Elastic Compliance Matrix: (Units=1/GPa)
#
#
# Indices 1 2 3 4 5 6 
#
# 1 0.011871 -0.003109 -0.002207 0.004764 0.009445 -0.003903
# 2 -0.003109 0.015350 -0.000035 0.002181 0.002232 0.012416
# 3 -0.002207 -0.000035 0.012376 0.000048 0.003501 0.002343
# 4 0.004764 0.002181 0.000048 0.036320 0.008336 0.008255
# 5 0.009445 0.002232 0.003501 0.008336 0.032946 -0.003841
# 6 -0.003903 0.012416 0.002343 0.008255 -0.003841 0.038715
#
#
# Mechanical properties :
#
#
# Convention : Reuss Voigt Hill
#
# Bulk Modulus (GPa) = 34.60533 59.45860 47.03197
# Shear Modulus (GPa) = 29.77743 40.73829 35.25786
#
# Velocity S-wave (km/s) = 3.38072 3.95427 3.67869
# Velocity P-wave (km/s) = 5.34054 6.60832 6.00796
#
# Compressibility (1/GPa) = 0.02889728
#
# Stress axis : x y z
#
# Youngs Moduli (GPa) = 84.23554 65.14474 80.80118
#
# Poissons Ratio (x) = 0.20251 0.17831
# Poissons Ratio (y) = 0.26185 0.00283
# Poissons Ratio (z) = 0.18589 0.00228
#
# Static dielectric constant tensor:
#      x y z
#    x 2.079650 -0.062710 0.035010 
#    y -0.062710 2.102450 0.021130 
#    z 0.035010 0.021130 2.113510 
# 
# From -- ./inp_files/279968.got.cif
#   From: 2010.05.17/outbox.cif.g08.bks.cpg/sg2_140_cif.got.tgz:279968.got - 2010.06.03 11:33:40.
