data_PCOD9100417
_publ_section_title
;
Structure prediction by ZEFSAII (Michael W. Deem and Ramdas Pophale) SiO2 
 PCOD9100417
Probable space group: P -1
;
_chemical_formula_sum "Si O2"
_cell_formula_units_Z 16
_cell_length_a 14.347816
_cell_length_b 13.577964
_cell_length_c 15.159539
_cell_angle_alpha 146.723890
_cell_angle_beta 30.383585
_cell_angle_gamma 148.101815
_cell_volume 727.533420
_symmetry_space_group_name_H-M "P -1"
_symmetry_group_IT_number 2
_symmetry_cell_setting 'triclinic'
loop_
_space_group_symop_operation_xyz
x,y,z
-x,-y,-z
loop_
_atom_site_type_symbol
_atom_site_label
_atom_site_fract_x
_atom_site_fract_y
_atom_site_fract_z
Si Si1 0.736848 0.885712 0.954112
Si Si2 0.218185 0.211116 0.970939
Si Si3 0.895604 0.311716 0.238435
Si Si4 0.497371 0.753605 0.395430
Si Si5 0.141611 0.390819 0.804288
Si Si6 0.469700 0.350818 0.205417
Si Si7 0.871843 0.996220 0.389185
Si Si8 0.078034 0.293249 0.580672
O O1 0.684991 0.747704 0.980223
O O2 0.559801 0.808610 0.966430
O O3 0.939705 0.882041 0.741436
O O4 0.803645 0.111235 0.102718
O O5 0.122327 0.352550 0.117546
O O6 0.382857 0.199921 0.760353
O O7 0.000000 0.000000 0.000000
O O8 0.731869 0.268503 0.419935
O O9 0.906672 0.497141 0.311122
O O10 0.482677 0.543138 0.285006
O O11 0.655268 0.920960 0.459505
O O12 0.351424 0.563381 0.804497
O O13 0.120606 0.310252 0.661695
O O14 0.094881 0.197961 0.758578
O O15 0.000000 0.500000 0.000000
O O16 0.261119 0.259026 0.363053
O O17 0.881404 0.115720 0.560263
#
# Coordination Sequence:
#
# PCOD9100417 Si02
#       8
#     2   2   2   2   2   2   2   2
#     4  10  20  40  61  84 122 161 195 253 300 344
#     4  10  20  37  64  85 124 160 199 246 303 343
#     4  10  21  38  62  90 121 158 206 241 295 362
#     4  10  20  38  60  87 124 160 194 250 295 347
#     4  11  22  36  63  89 116 158 201 243 305 363
#     4   9  22  39  59  85 122 153 197 250 298 353
#     4  10  20  39  59  86 126 155 197 252 297 351
#     4  10  21  39  60  86 119 162 195 247 305 353
#
# _framework density 21.992117
#
# number of rings (size 3 to 8) (size 9 to 14) (size 15 to 20)
#    0.000    2.000    2.500    1.500    1.750    3.500 
#    0.000   12.500    0.000    0.000    0.000    0.000 
#    0.000    0.000    0.000    0.000    0.000    0.000 
#
# Total GULP energy -89244.053892 kJ/mol
# GULP energy per Si atom -5577.753368 kJ/mol
# Density = 2.194206 g / cm^3
# Si number density = 21.992117 Si / 1000 Ang^3
#
#
#
# Elastic Constant Matrix: (Units=GPa)
#
#
# Indices 1 2 3 4 5 6 
#
# 1 89.5199 7.2233 43.8550 0.0524 33.2789 7.8268
# 2 7.2233 28.0415 12.0103 -0.0310 12.8028 11.2800
# 3 43.8550 12.0103 83.9891 -1.5668 21.4937 12.9694
# 4 0.0524 -0.0310 -1.5668 25.0508 -7.6244 10.2153
# 5 33.2789 12.8028 21.4937 -7.6244 33.3867 5.4348
# 6 7.8268 11.2800 12.9694 10.2153 5.4348 27.3400
#
#
#
# Elastic Compliance Matrix: (Units=1/GPa)
#
#
# Indices 1 2 3 4 5 6 
#
# 1 0.022365 0.006894 -0.007365 -0.007951 -0.022279 0.001646
# 2 0.006894 0.052457 -0.002595 0.000524 -0.022241 -0.018160
# 3 -0.007365 -0.002595 0.017413 0.003219 -0.001153 -0.006055
# 4 -0.007951 0.000524 0.003219 0.057529 0.022944 -0.025523
# 5 -0.022279 -0.022241 -0.001153 0.022944 0.067633 -0.005916
# 6 0.001646 -0.018160 -0.006055 -0.025523 -0.005916 0.057183
#
#
# Mechanical properties :
#
#
# Convention : Reuss Voigt Hill
#
# Bulk Modulus (GPa) = 11.61391 36.41420 24.01405
# Shear Modulus (GPa) = 16.15957 26.38629 21.27293
#
# Velocity S-wave (km/s) = 2.71364 3.46758 3.11352
# Velocity P-wave (km/s) = 3.88727 5.71191 4.88553
#
# Compressibility (1/GPa) = 0.08610368
#
# Stress axis : x y z
#
# Youngs Moduli (GPa) = 44.71182 19.06307 57.42771
#
# Poissons Ratio (x) = -0.13142 0.42296
# Poissons Ratio (y) = -0.30825 0.14905
# Poissons Ratio (z) = 0.32930 0.04948
#
# Static dielectric constant tensor:
#      x y z
#    x 1.923680 0.078280 0.064700 
#    y 0.078280 1.900850 0.039150 
#    z 0.064700 0.039150 1.851010 
# 
# From -- ./inp_files/221667.got.cif
#   From: 2010.05.17/outbox.cif.g08.bks.cpg/sg2_111_cif.got.tgz:221667.got - 2010.06.03 11:33:40.
