data_PCOD9100843
_publ_section_title
;
Structure prediction by ZEFSAII (Michael W. Deem and Ramdas Pophale) SiO2 
 PCOD9100843
Probable space group: P -1
;
_chemical_formula_sum "Si O2"
_cell_formula_units_Z 15
_cell_length_a 15.159913
_cell_length_b 7.154721
_cell_length_c 8.494919
_cell_angle_alpha 123.777665
_cell_angle_beta 61.604180
_cell_angle_gamma 83.115611
_cell_volume 573.186513
_symmetry_space_group_name_H-M "P -1"
_symmetry_group_IT_number 2
_symmetry_cell_setting 'triclinic'
loop_
_space_group_symop_operation_xyz
x,y,z
-x,-y,-z
loop_
_atom_site_type_symbol
_atom_site_label
_atom_site_fract_x
_atom_site_fract_y
_atom_site_fract_z
Si Si1 0.156471 0.301616 0.390543
Si Si2 0.928253 0.655123 0.874992
Si Si3 0.526447 0.700187 0.485173
Si Si4 0.133668 0.861109 0.644949
Si Si5 0.402935 0.627928 0.281156
Si Si6 0.758576 0.488092 0.004370
Si Si7 0.000000 0.000000 0.500000
Si Si8 0.621005 0.815208 0.958439
O O1 0.112813 0.293755 0.247803
O O2 0.151701 0.580629 0.552021
O O3 0.049209 0.361700 0.626970
O O4 0.297028 0.103818 0.168144
O O5 0.837952 0.611541 0.029692
O O6 0.921428 0.906303 0.071912
O O7 0.500000 0.500000 0.500000
O O8 0.444480 0.770181 0.432486
O O9 0.659111 0.560059 0.248460
O O10 0.483970 0.948997 0.748076
O O11 0.261930 0.814775 0.466965
O O12 0.044101 0.942958 0.617075
O O13 0.500000 0.500000 0.000000
O O14 0.412130 0.355900 0.201880
O O15 0.698123 0.618476 0.947502
O O16 0.855912 0.181896 0.762667
#
# Coordination Sequence:
#
# PCOD9100843 Si02
#       8
#     2   2   2   2   2   2   1   2
#     4   9  19  40  61 101 132 170 232 275 335 407
#     4  10  20  37  66  91 132 180 227 264 338 421
#     4  12  27  46  70 108 139 177 237 303 344 397
#     4  11  22  39  67 103 136 184 224 284 347 412
#     4  11  21  41  75 100 133 191 233 274 354 421
#     4  11  23  45  67 103 136 187 228 285 345 415
#     4  12  22  44  66 100 150 166 236 294 328 414
#     4  10  21  43  74  97 135 185 236 277 341 431
#
# _framework density 26.169495999999999
#
# number of rings (size 3 to 8) (size 9 to 14) (size 15 to 20)
#    0.000    1.333    5.333    2.400    1.867    2.133 
#    9.600    0.000    0.000    0.000    0.000    0.000 
#    0.000    0.000    0.000    0.000    0.000    0.000 
#
# Total GULP energy -83627.915666 kJ/mol
# GULP energy per Si atom -5575.194378 kJ/mol
# Density = 2.610993 g / cm^3
# Si number density = 26.169496 Si / 1000 Ang^3
#
#
#
# Elastic Constant Matrix: (Units=GPa)
#
#
# Indices 1 2 3 4 5 6 
#
# 1 112.0342 19.3540 68.9079 -6.5293 -28.1864 4.6378
# 2 19.3540 40.2113 18.4254 -4.8653 -25.5663 -1.6287
# 3 68.9079 18.4254 196.6850 7.2114 -32.6379 6.6249
# 4 -6.5293 -4.8653 7.2114 33.9882 20.8987 -12.5091
# 5 -28.1864 -25.5663 -32.6379 20.8987 65.0244 0.0692
# 6 4.6378 -1.6287 6.6249 -12.5091 0.0692 30.8689
#
#
#
# Elastic Compliance Matrix: (Units=1/GPa)
#
#
# Indices 1 2 3 4 5 6 
#
# 1 0.012315 -0.002865 -0.003760 0.001351 0.001891 -0.000651
# 2 -0.002865 0.034368 0.000148 -0.003750 0.013549 0.000662
# 3 -0.003760 0.000148 0.007410 -0.006083 0.004106 -0.003492
# 4 0.001351 -0.003750 -0.006083 0.050860 -0.020311 0.021560
# 5 0.001891 0.013549 0.004106 -0.020311 0.030124 -0.008749
# 6 -0.000651 0.000662 -0.003492 0.021560 -0.008749 0.042034
#
#
# Mechanical properties :
#
#
# Convention : Reuss Voigt Hill
#
# Bulk Modulus (GPa) = 24.30844 62.47835 43.39339
# Shear Modulus (GPa) = 24.53662 42.12583 33.33123
#
# Velocity S-wave (km/s) = 3.06535 4.01650 3.57272
# Velocity P-wave (km/s) = 4.67306 6.74062 5.79972
#
# Compressibility (1/GPa) = 0.04113798
#
# Stress axis : x y z
#
# Youngs Moduli (GPa) = 81.20341 29.09709 134.95688
#
# Poissons Ratio (x) = 0.08336 0.50742
# Poissons Ratio (y) = 0.23265 -0.01994
# Poissons Ratio (z) = 0.30531 -0.00430
#
# Static dielectric constant tensor:
#      x y z
#    x 2.430800 0.420730 -0.086660 
#    y 0.420730 2.631310 0.015540 
#    z -0.086660 0.015540 2.033230 
# 
# From -- ./inp_files/299617.got.cif
#   From: 2010.05.17/outbox.cif.g08.bks.cpg/sg2_150_cif.got.tgz:299617.got - 2010.06.03 11:33:40.
