data_PCOD9100130
_publ_section_title
;
Structure prediction by ZEFSAII (Michael W. Deem and Ramdas Pophale) SiO2 
 PCOD9100130
Probable space group: P -1
;
_chemical_formula_sum "Si O2"
_cell_formula_units_Z 15
_cell_length_a 5.613559
_cell_length_b 11.089879
_cell_length_c 20.903886
_cell_angle_alpha 148.363247
_cell_angle_beta 114.496104
_cell_angle_gamma 64.778152
_cell_volume 613.826131
_symmetry_space_group_name_H-M "P -1"
_symmetry_group_IT_number 2
_symmetry_cell_setting 'triclinic'
loop_
_space_group_symop_operation_xyz
x,y,z
-x,-y,-z
loop_
_atom_site_type_symbol
_atom_site_label
_atom_site_fract_x
_atom_site_fract_y
_atom_site_fract_z
Si Si1 0.417745 0.651204 0.957961
Si Si2 0.783492 0.678074 0.119823
Si Si3 0.614644 0.132960 0.355711
Si Si4 0.127412 0.209540 0.514528
Si Si5 0.304762 0.740103 0.273149
Si Si6 0.000000 0.000000 0.000000
Si Si7 0.878562 0.483396 0.718290
Si Si8 0.643396 0.483303 0.412539
O O1 0.240503 0.558162 0.951913
O O2 0.475812 0.446832 0.820040
O O3 0.274237 0.887976 0.018505
O O4 0.693688 0.672416 0.034298
O O5 0.060690 0.757862 0.203527
O O6 0.565739 0.877136 0.218373
O O7 0.701070 0.245878 0.350638
O O8 0.389680 0.316134 0.445884
O O9 0.855911 0.119591 0.425887
O O10 0.153478 0.439737 0.580619
O O11 0.099115 0.297022 0.623084
O O12 0.344155 0.998984 0.417172
O O13 0.212883 0.623557 0.274812
O O14 0.961111 0.732204 0.854722
O O15 0.628008 0.516190 0.656748
#
# Coordination Sequence:
#
# PCOD9100130 Si02
#       8
#     2   2   2   2   2   1   2   2
#     4  11  24  42  70  94 135 179 227 270 333 392
#     4  10  21  43  65  99 130 176 223 277 324 396
#     4   9  19  37  62  92 134 166 219 274 322 399
#     4  10  22  40  67  97 129 168 222 277 332 397
#     4  11  23  43  69  99 132 174 223 276 335 396
#     4  12  26  48  62  96 138 180 218 278 328 398
#     4  11  25  42  61  95 134 173 220 275 330 398
#     4  10  20  37  62  96 129 174 216 266 341 387
#
# _framework density 24.436886999999999
#
# number of rings (size 3 to 8) (size 9 to 14) (size 15 to 20)
#    0.000    1.600    1.333    2.800    1.867    1.067 
#    2.400    2.667    0.000    0.000    0.000    0.000 
#    0.000    0.000    0.000    0.000    0.000    0.000 
#
# Total GULP energy -83589.568134 kJ/mol
# GULP energy per Si atom -5572.637876 kJ/mol
# Density = 2.438127 g / cm^3
# Si number density = 24.436887 Si / 1000 Ang^3
#
#
#
# Elastic Constant Matrix: (Units=GPa)
#
#
# Indices 1 2 3 4 5 6 
#
# 1 45.6456 30.0808 22.5119 -1.1857 -12.2432 8.8954
# 2 30.0808 130.1653 56.4629 3.1085 -18.0506 -8.8371
# 3 22.5119 56.4629 131.4342 -7.2854 3.3907 4.6373
# 4 -1.1857 3.1085 -7.2854 45.7830 -7.3863 4.3406
# 5 -12.2432 -18.0506 3.3907 -7.3863 28.2492 -5.9644
# 6 8.8954 -8.8371 4.6373 4.3406 -5.9644 36.0020
#
#
#
# Elastic Compliance Matrix: (Units=1/GPa)
#
#
# Indices 1 2 3 4 5 6 
#
# 1 0.030766 -0.005052 -0.002933 0.002921 0.009700 -0.007209
# 2 -0.005052 0.012500 -0.004985 -0.001175 0.007425 0.006330
# 3 -0.002933 -0.004985 0.010584 0.001259 -0.006034 -0.003013
# 4 0.002921 -0.001175 0.001259 0.023429 0.005851 -0.003028
# 5 0.009700 0.007425 -0.006034 0.005851 0.048181 0.007480
# 6 -0.007209 0.006330 -0.003013 -0.003028 0.007480 0.033104
#
#
# Mechanical properties :
#
#
# Convention : Reuss Voigt Hill
#
# Bulk Modulus (GPa) = 35.82860 58.37292 47.10076
# Shear Modulus (GPa) = 25.79899 35.21947 30.50923
#
# Velocity S-wave (km/s) = 3.25274 3.80049 3.53723
# Velocity P-wave (km/s) = 5.36662 6.57247 5.99991
#
# Compressibility (1/GPa) = 0.02791066
#
# Stress axis : x y z
#
# Youngs Moduli (GPa) = 32.50312 80.00239 94.48341
#
# Poissons Ratio (x) = 0.40414 0.27716
# Poissons Ratio (y) = 0.16419 0.47095
# Poissons Ratio (z) = 0.09535 0.39877
#
# Static dielectric constant tensor:
#      x y z
#    x 2.012740 -0.020540 -0.032990 
#    y -0.020540 1.928430 -0.022700 
#    z -0.032990 -0.022700 1.931670 
# 
# From -- ./inp_files/583172.got.cif
#   From: 2010.05.17/outbox.cif.g08.bks.cpg/sg2_292_cif.got.tgz:583172.got - 2010.06.03 11:33:40.
