data_PCOD9100613
_publ_section_title
;
Structure prediction by ZEFSAII (Michael W. Deem and Ramdas Pophale) SiO2 
 PCOD9100613
Probable space group: P -1
;
_chemical_formula_sum "Si O2"
_cell_formula_units_Z 16
_cell_length_a 9.119164
_cell_length_b 14.460363
_cell_length_c 14.428135
_cell_angle_alpha 139.347821
_cell_angle_beta 52.510840
_cell_angle_gamma 139.818049
_cell_volume 797.823562
_symmetry_space_group_name_H-M "P -1"
_symmetry_group_IT_number 2
_symmetry_cell_setting 'triclinic'
loop_
_space_group_symop_operation_xyz
x,y,z
-x,-y,-z
loop_
_atom_site_type_symbol
_atom_site_label
_atom_site_fract_x
_atom_site_fract_y
_atom_site_fract_z
Si Si1 0.544704 0.191445 0.610347
Si Si2 0.648412 0.922817 0.598403
Si Si3 0.997945 0.461854 0.362111
Si Si4 0.630285 0.428079 0.349671
Si Si5 0.932212 0.796213 0.466573
Si Si6 0.774660 0.078574 0.176148
Si Si7 0.336350 0.059643 0.085075
Si Si8 0.886010 0.977116 0.249301
O O1 0.466342 0.189646 0.535158
O O2 0.798493 0.369480 0.644554
O O3 0.500000 0.000000 0.500000
O O4 0.362967 0.182587 0.741721
O O5 0.749068 0.839879 0.555898
O O6 0.460186 0.940727 0.727724
O O7 0.869297 0.100351 0.606630
O O8 0.000000 0.500000 0.500000
O O9 0.765272 0.409053 0.363984
O O10 0.973857 0.280839 0.228462
O O11 0.500000 0.500000 0.500000
O O12 0.819372 0.593938 0.343195
O O13 0.469744 0.255538 0.221126
O O14 0.029772 0.871734 0.589649
O O15 0.848972 0.033217 0.206731
O O16 0.717486 0.960188 0.018473
O O17 0.086273 0.950928 0.146119
O O18 0.500000 0.000000 0.000000
#
# Coordination Sequence:
#
# PCOD9100613 Si02
#       8
#     2   2   2   2   2   2   2   2
#     4  11  21  38  66 101 135 169 218 281 331 382
#     4  10  20  37  64  98 138 166 214 274 337 388
#     4  12  23  38  68 102 132 167 221 277 327 392
#     4  12  24  40  68  98 130 169 230 275 320 390
#     4  10  21  37  64 101 128 171 220 276 325 386
#     4  12  23  41  65  97 131 179 220 268 339 394
#     4  12  26  46  65  93 140 180 217 272 341 399
#     4  11  23  42  68  96 132 176 222 268 338 394
#
# _framework density 20.054559000000001
#
# number of rings (size 3 to 8) (size 9 to 14) (size 15 to 20)
#    0.000    0.750    5.000    4.125    0.000    0.000 
#    0.000    1.250    0.000    0.000    0.000    0.000 
#    0.000    0.000    0.000    0.000    0.000    0.000 
#
# Total GULP energy -89276.233665 kJ/mol
# GULP energy per Si atom -5579.764604 kJ/mol
# Density = 2.000891 g / cm^3
# Si number density = 20.054559 Si / 1000 Ang^3
#
#
#
# Elastic Constant Matrix: (Units=GPa)
#
#
# Indices 1 2 3 4 5 6 
#
# 1 111.4463 39.8952 50.8559 -1.5566 16.2918 9.4830
# 2 39.8952 128.6405 53.5009 -8.1905 -1.4460 16.3474
# 3 50.8559 53.5009 91.4376 1.9233 7.9519 -1.7453
# 4 -1.5566 -8.1905 1.9233 30.0414 14.1056 -3.1976
# 5 16.2918 -1.4460 7.9519 14.1056 37.2708 -12.4208
# 6 9.4830 16.3474 -1.7453 -3.1976 -12.4208 26.4786
#
#
#
# Elastic Compliance Matrix: (Units=1/GPa)
#
#
# Indices 1 2 3 4 5 6 
#
# 1 0.014861 0.000079 -0.007733 0.004938 -0.010043 -0.009996
# 2 0.000079 0.012022 -0.007116 0.003953 -0.002401 -0.008569
# 3 -0.007733 -0.007116 0.019342 -0.004360 0.003869 0.009726
# 4 0.004938 0.003953 -0.004360 0.043595 -0.020527 -0.008861
# 5 -0.010043 -0.002401 0.003869 -0.020527 0.046253 0.024552
# 6 -0.009996 -0.008569 0.009726 -0.008861 0.024552 0.057725
#
#
# Mechanical properties :
#
#
# Convention : Reuss Voigt Hill
#
# Bulk Modulus (GPa) = 59.93348 68.89204 64.41276
# Shear Modulus (GPa) = 21.84362 31.24300 26.54331
#
# Velocity S-wave (km/s) = 3.30390 3.95131 3.64202
# Velocity P-wave (km/s) = 6.67116 7.43263 7.06217
#
# Compressibility (1/GPa) = 0.01668517
#
# Stress axis : x y z
#
# Youngs Moduli (GPa) = 67.28991 83.17921 51.70131
#
# Poissons Ratio (x) = -0.00657 0.39980
# Poissons Ratio (y) = -0.00531 0.36791
# Poissons Ratio (z) = 0.52035 0.59191
#
# Static dielectric constant tensor:
#      x y z
#    x 1.759620 0.018620 -0.032110 
#    y 0.018620 1.817760 -0.027140 
#    z -0.032110 -0.027140 1.706970 
# 
# From -- ./inp_files/504350.got.cif
#   From: 2010.05.17/outbox.cif.g08.bks.cpg/sg2_253_cif.got.tgz:504350.got - 2010.06.03 11:33:40.
