data_PCOD9100291
_publ_section_title
;
Structure prediction by ZEFSAII (Michael W. Deem and Ramdas Pophale) SiO2 
 PCOD9100291
Probable space group: P -1
;
_chemical_formula_sum "Si O2"
_cell_formula_units_Z 14
_cell_length_a 21.917283
_cell_length_b 8.958465
_cell_length_c 9.240890
_cell_angle_alpha 147.419367
_cell_angle_beta 133.011186
_cell_angle_gamma 48.548307
_cell_volume 696.688991
_symmetry_space_group_name_H-M "P -1"
_symmetry_group_IT_number 2
_symmetry_cell_setting 'triclinic'
loop_
_space_group_symop_operation_xyz
x,y,z
-x,-y,-z
loop_
_atom_site_type_symbol
_atom_site_label
_atom_site_fract_x
_atom_site_fract_y
_atom_site_fract_z
Si Si1 0.869018 0.334375 0.793784
Si Si2 0.697863 0.341590 0.696018
Si Si3 0.554822 0.179166 0.824454
Si Si4 0.980080 0.791869 0.424938
Si Si5 0.166619 0.479491 0.436904
Si Si6 0.731647 0.153122 0.923567
Si Si7 0.589195 0.978677 0.044943
O O1 0.789323 0.347577 0.779906
O O2 0.835275 0.379542 0.610454
O O3 0.932929 0.023601 0.653303
O O4 0.918286 0.586750 0.109317
O O5 0.710192 0.208214 0.766097
O O6 0.642630 0.658751 0.876869
O O7 0.645870 0.170802 0.370616
O O8 0.645807 0.145252 0.865339
O O9 0.500000 0.000000 0.500000
O O10 0.570665 0.071023 0.925152
O O11 0.500000 0.500000 0.000000
O O12 0.071551 0.584890 0.434753
O O13 0.000000 0.000000 0.500000
O O14 0.198750 0.143475 0.193125
O O15 0.230223 0.597545 0.740506
O O16 0.500000 0.000000 0.000000
#
# Coordination Sequence:
#
# PCOD9100291 Si02
#       7
#     2   2   2   2   2   2   2
#     4  11  21  39  63  90 120 159 205 253 303 363
#     4  12  25  42  61  91 126 163 202 248 303 363
#     4  12  24  42  65  93 121 156 201 251 300 357
#     4  10  20  37  63  92 119 156 205 255 302 361
#     4  11  21  39  62  88 117 158 204 250 300 357
#     4  12  24  40  60  89 124 160 200 251 301 357
#     4  12  24  43  66  91 123 164 203 248 302 362
#
# _framework density 20.095050000000001
#
# number of rings (size 3 to 8) (size 9 to 14) (size 15 to 20)
#    0.000    0.571    0.000   11.571    0.000    0.000 
#    0.000    4.286    0.000    0.000    0.000    0.000 
#    0.000    0.000    0.000    0.000    0.000    0.000 
#
# Total GULP energy -78342.006513 kJ/mol
# GULP energy per Si atom -5595.857608 kJ/mol
# Density = 2.004931 g / cm^3
# Si number density = 20.095050 Si / 1000 Ang^3
#
#
#
# Elastic Constant Matrix: (Units=GPa)
#
#
# Indices 1 2 3 4 5 6 
#
# 1 181.9548 64.1168 46.9242 -8.2129 -4.5982 -21.7413
# 2 64.1168 101.9230 12.3554 13.0354 -14.3904 -1.0457
# 3 46.9242 12.3554 139.8268 -3.5580 11.5347 -7.8962
# 4 -8.2129 13.0354 -3.5580 50.6100 -15.0312 -20.4050
# 5 -4.5982 -14.3904 11.5347 -15.0312 29.7552 -5.3907
# 6 -21.7413 -1.0457 -7.8962 -20.4050 -5.3907 44.2906
#
#
#
# Elastic Compliance Matrix: (Units=1/GPa)
#
#
# Indices 1 2 3 4 5 6 
#
# 1 0.009758 -0.006044 -0.002480 0.007872 0.005053 0.008447
# 2 -0.006044 0.014626 0.000117 -0.006269 0.001977 -0.005248
# 3 -0.002480 0.000117 0.008247 -0.001618 -0.004530 -0.001041
# 4 0.007872 -0.006269 -0.001618 0.039143 0.022980 0.024258
# 5 0.005053 0.001977 -0.004530 0.022980 0.052087 0.018646
# 6 0.008447 -0.005248 -0.001041 0.024258 0.018646 0.039861
#
#
# Mechanical properties :
#
#
# Convention : Reuss Voigt Hill
#
# Bulk Modulus (GPa) = 63.22384 74.49973 68.86179
# Shear Modulus (GPa) = 26.90933 44.95171 35.93052
#
# Velocity S-wave (km/s) = 3.66334 4.73478 4.23310
# Velocity P-wave (km/s) = 7.03023 8.18810 7.63116
#
# Compressibility (1/GPa) = 0.01581682
#
# Stress axis : x y z
#
# Youngs Moduli (GPa) = 102.48365 68.36920 121.25133
#
# Poissons Ratio (x) = 0.41325 0.30070
# Poissons Ratio (y) = 0.61945 -0.01419
# Poissons Ratio (z) = 0.25416 -0.00800
#
# Static dielectric constant tensor:
#      x y z
#    x 1.700710 0.008120 -0.000830 
#    y 0.008120 1.737760 0.012520 
#    z -0.000830 0.012520 1.676990 
# 
# From -- ./inp_files/53138.got.cif
#   From: 2010.05.17/outbox.cif.g08.bks.cpg/sg2_27_cif.got.tgz:53138.got - 2010.06.03 11:33:40.
