data_PCOD9100098
_publ_section_title
;
Structure prediction by ZEFSAII (Michael W. Deem and Ramdas Pophale) SiO2 
 PCOD9100098
Probable space group: P -1
;
_chemical_formula_sum "Si O2"
_cell_formula_units_Z 16
_cell_length_a 25.224444
_cell_length_b 27.804287
_cell_length_c 11.451525
_cell_angle_alpha 146.327244
_cell_angle_beta 145.870555
_cell_angle_gamma 9.841639
_cell_volume 758.557926
_symmetry_space_group_name_H-M "P -1"
_symmetry_group_IT_number 2
_symmetry_cell_setting 'triclinic'
loop_
_space_group_symop_operation_xyz
x,y,z
-x,-y,-z
loop_
_atom_site_type_symbol
_atom_site_label
_atom_site_fract_x
_atom_site_fract_y
_atom_site_fract_z
Si Si1 0.577762 0.678819 0.101464
Si Si2 0.851360 0.333096 0.479315
Si Si3 0.708901 0.056969 0.296817
Si Si4 0.038200 0.400175 0.475492
Si Si5 0.129202 0.994909 0.084599
Si Si6 0.387670 0.584695 0.175400
Si Si7 0.800700 0.288699 0.670871
Si Si8 0.555483 0.825857 0.148140
O O1 0.615053 0.693080 0.074291
O O2 0.741722 0.597247 0.331789
O O3 0.240849 0.956493 0.102095
O O4 0.717642 0.461642 0.896792
O O5 0.642350 0.436223 0.351827
O O6 0.075211 0.163735 0.650812
O O7 0.044387 0.127232 0.307256
O O8 0.602634 0.623943 0.581329
O O9 0.909385 0.952011 0.373880
O O10 0.597621 0.076927 0.050458
O O11 0.153741 0.362304 0.712734
O O12 0.000000 0.500000 0.500000
O O13 0.306615 0.098935 0.319370
O O14 0.816666 0.224256 0.927523
O O15 0.402522 0.687065 0.990811
O O16 0.159079 0.786671 0.279233
O O17 0.500000 0.500000 0.500000
#
# Coordination Sequence:
#
# PCOD9100098 Si02
#       8
#     2   2   2   2   2   2   2   2
#     4  10  21  38  61  91 124 160 204 254 307 356
#     4  12  25  40  59  84 122 174 210 250 297 353
#     4  12  24  39  60  88 128 159 200 248 314 378
#     4   9  19  36  63  93 118 151 191 258 319 368
#     4  11  24  41  61  84 120 165 222 255 284 350
#     4  11  23  40  61  84 118 167 217 261 293 341
#     4  11  22  38  58  92 131 162 198 248 315 368
#     4  10  20  37  62  94 121 150 198 253 325 369
#
# _framework density 21.092654
#
# number of rings (size 3 to 8) (size 9 to 14) (size 15 to 20)
#    0.000    1.250    2.500    3.750    5.250    1.500 
#    0.000    0.000    0.000    1.500    0.000    0.000 
#    0.000    0.000    0.000    0.000    0.000    0.000 
#
# Total GULP energy -89324.770202 kJ/mol
# GULP energy per Si atom -5582.798138 kJ/mol
# Density = 2.104465 g / cm^3
# Si number density = 21.092654 Si / 1000 Ang^3
#
#
#
# Elastic Constant Matrix: (Units=GPa)
#
#
# Indices 1 2 3 4 5 6 
#
# 1 20.4719 3.7071 13.8266 -1.3122 -5.8225 2.9461
# 2 3.7071 68.6927 16.3438 -10.5758 -7.2141 4.4208
# 3 13.8266 16.3438 93.5461 -36.0306 0.2747 2.1995
# 4 -1.3122 -10.5758 -36.0306 49.6307 3.2045 -2.7655
# 5 -5.8225 -7.2141 0.2747 3.2045 34.4741 1.3269
# 6 2.9461 4.4208 2.1995 -2.7655 1.3269 12.9356
#
#
#
# Elastic Compliance Matrix: (Units=1/GPa)
#
#
# Indices 1 2 3 4 5 6 
#
# 1 0.062206 0.000482 -0.012370 -0.008872 0.012122 -0.015369
# 2 0.000482 0.015974 -0.002268 0.001248 0.003529 -0.005279
# 3 -0.012370 -0.002268 0.017638 0.012457 -0.004003 0.003667
# 4 -0.008872 0.001248 0.012457 0.029857 -0.004354 0.006306
# 5 0.012122 0.003529 -0.004003 -0.004354 0.032521 -0.007553
# 6 -0.015369 -0.005279 0.003667 0.006306 -0.007553 0.084110
#
#
# Mechanical properties :
#
#
# Convention : Reuss Voigt Hill
#
# Bulk Modulus (GPa) = 14.81327 27.82954 21.32141
# Shear Modulus (GPa) = 17.05805 29.33028 23.19416
#
# Velocity S-wave (km/s) = 2.84689 3.73305 3.31967
# Velocity P-wave (km/s) = 4.22428 5.63945 4.98237
#
# Compressibility (1/GPa) = 0.06750702
#
# Stress axis : x y z
#
# Youngs Moduli (GPa) = 16.07574 62.60323 56.69543
#
# Poissons Ratio (x) = -0.03020 0.70132
# Poissons Ratio (y) = -0.00775 0.12856
# Poissons Ratio (z) = 0.19886 0.14195
#
# Static dielectric constant tensor:
#      x y z
#    x 1.517130 -0.126540 -0.158640 
#    y -0.126540 1.749200 -0.125910 
#    z -0.158640 -0.125910 1.712570 
# 
# From -- ./inp_files/77501.got.cif
#   From: 2010.05.17/outbox.cif.g08.bks.cpg/sg2_39_cif.got.tgz:77501.got - 2010.06.03 11:33:40.
