data_PCOD9100988
_publ_section_title
;
Structure prediction by ZEFSAII (Michael W. Deem and Ramdas Pophale) SiO2 
 PCOD9100988
Probable space group: P -1
;
_chemical_formula_sum "Si O2"
_cell_formula_units_Z 16
_cell_length_a 12.579735
_cell_length_b 12.262887
_cell_length_c 15.271989
_cell_angle_alpha 71.375768
_cell_angle_beta 19.547292
_cell_angle_gamma 74.407533
_cell_volume 743.122937
_symmetry_space_group_name_H-M "P -1"
_symmetry_group_IT_number 2
_symmetry_cell_setting 'triclinic'
loop_
_space_group_symop_operation_xyz
x,y,z
-x,-y,-z
loop_
_atom_site_type_symbol
_atom_site_label
_atom_site_fract_x
_atom_site_fract_y
_atom_site_fract_z
Si Si1 0.924880 0.383859 0.148185
Si Si2 0.446768 0.514436 0.140341
Si Si3 0.774914 0.163401 0.918269
Si Si4 0.399415 0.278758 0.469937
Si Si5 0.435746 0.696201 0.242208
Si Si6 0.277029 0.278459 0.377998
Si Si7 0.640518 0.035922 0.785567
Si Si8 0.133706 0.519485 0.649863
O O1 0.694644 0.283802 0.304808
O O2 0.763599 0.426122 0.350995
O O3 0.000000 0.500000 0.000000
O O4 0.243495 0.331305 0.948108
O O5 0.441632 0.638451 0.156829
O O6 0.194629 0.409786 0.396000
O O7 0.500000 0.500000 0.000000
O O8 0.764437 0.474982 0.950295
O O9 0.481611 0.237888 0.149598
O O10 0.603988 0.035317 0.073811
O O11 0.068001 0.193796 0.751991
O O12 0.956999 0.201292 0.676470
O O13 0.308319 0.409864 0.516528
O O14 0.492826 0.264562 0.300385
O O15 0.168786 0.618206 0.524031
O O16 0.626088 0.171772 0.747234
O O17 0.000000 0.000000 0.500000
O O18 0.500000 0.000000 0.000000
#
# Coordination Sequence:
#
# PCOD9100988 Si02
#       8
#     2   2   2   2   2   2   2   2
#     4  11  22  37  70 107 146 184 220 286 382 435
#     4  11  23  38  64  99 145 180 227 300 372 424
#     4  10  23  42  69  97 132 182 244 286 335 424
#     4  10  20  37  68 101 142 180 220 283 364 426
#     4  11  26  44  67 105 142 186 248 294 350 445
#     4  10  20  40  67  98 141 171 230 290 354 427
#     4  12  30  52  75  95 138 202 254 300 350 402
#     4  11  21  39  61 104 151 176 230 289 352 452
#
# _framework density 21.530757000000001
#
# number of rings (size 3 to 8) (size 9 to 14) (size 15 to 20)
#    0.750    0.500    3.750    1.875    5.250    1.500 
#    0.000    0.625    0.000    1.500    0.000    0.000 
#    0.000    0.000    0.000    0.000    0.000    0.000 
#
# Total GULP energy -89210.768102 kJ/mol
# GULP energy per Si atom -5575.673006 kJ/mol
# Density = 2.148175 g / cm^3
# Si number density = 21.530757 Si / 1000 Ang^3
#
#
#
# Elastic Constant Matrix: (Units=GPa)
#
#
# Indices 1 2 3 4 5 6 
#
# 1 99.8846 34.9978 41.7331 -1.1877 -20.2039 12.9737
# 2 34.9978 126.4093 54.3574 -12.2691 -2.3192 2.3475
# 3 41.7331 54.3574 120.0581 -2.8435 -18.5721 10.7858
# 4 -1.1877 -12.2691 -2.8435 32.4357 7.6801 -6.3014
# 5 -20.2039 -2.3192 -18.5721 7.6801 43.4248 5.2617
# 6 12.9737 2.3475 10.7858 -6.3014 5.2617 31.9039
#
#
#
# Elastic Compliance Matrix: (Units=1/GPa)
#
#
# Indices 1 2 3 4 5 6 
#
# 1 0.014223 -0.003274 -0.001824 -0.003918 0.007190 -0.006886
# 2 -0.003274 0.011310 -0.004903 0.005566 -0.004485 0.003996
# 3 -0.001824 -0.004903 0.012328 -0.002956 0.005232 -0.004512
# 4 -0.003918 0.005566 -0.002956 0.037279 -0.010754 0.011320
# 5 0.007190 -0.004485 0.005232 -0.010754 0.031693 -0.011713
# 6 -0.006886 0.003996 -0.004512 0.011320 -0.011713 0.039543
#
#
# Mechanical properties :
#
#
# Convention : Reuss Voigt Hill
#
# Bulk Modulus (GPa) = 55.99669 67.61428 61.80549
# Shear Modulus (GPa) = 29.01418 35.90377 32.45898
#
# Velocity S-wave (km/s) = 3.67491 4.08800 3.88695
# Velocity P-wave (km/s) = 6.63859 7.33172 6.99375
#
# Compressibility (1/GPa) = 0.01785820
#
# Stress axis : x y z
#
# Youngs Moduli (GPa) = 70.31023 88.42086 81.11685
#
# Poissons Ratio (x) = 0.28949 0.14792
# Poissons Ratio (y) = 0.23020 0.39775
# Poissons Ratio (z) = 0.12821 0.43356
#
# Static dielectric constant tensor:
#      x y z
#    x 1.820260 0.025470 -0.044030 
#    y 0.025470 1.800010 0.015100 
#    z -0.044030 0.015100 1.894350 
# 
# From -- ./inp_files/458055.got.cif
#   From: 2010.05.17/outbox.cif.g08.bks.cpg/sg2_230_cif.got.tgz:458055.got - 2010.06.03 11:33:40.
