data_PCOD9100220
_publ_section_title
;
Structure prediction by ZEFSAII (Michael W. Deem and Ramdas Pophale) SiO2 
 PCOD9100220
Probable space group: P -1
;
_chemical_formula_sum "Si O2"
_cell_formula_units_Z 16
_cell_length_a 7.602751
_cell_length_b 12.321031
_cell_length_c 9.815215
_cell_angle_alpha 68.624964
_cell_angle_beta 42.696524
_cell_angle_gamma 78.543416
_cell_volume 577.090531
_symmetry_space_group_name_H-M "P -1"
_symmetry_group_IT_number 2
_symmetry_cell_setting 'triclinic'
loop_
_space_group_symop_operation_xyz
x,y,z
-x,-y,-z
loop_
_atom_site_type_symbol
_atom_site_label
_atom_site_fract_x
_atom_site_fract_y
_atom_site_fract_z
Si Si1 0.479509 0.673351 0.726504
Si Si2 0.225417 0.105804 0.827365
Si Si3 0.993441 0.737764 0.579203
Si Si4 0.285633 0.962400 0.325283
Si Si5 0.620615 0.438426 0.824457
Si Si6 0.186108 0.553775 0.740241
Si Si7 0.031403 0.336210 0.785514
Si Si8 0.676918 0.812662 0.958694
O O1 0.558911 0.540809 0.714822
O O2 0.349326 0.671670 0.652689
O O3 0.732795 0.732053 0.636839
O O4 0.232845 0.688825 0.959290
O O5 0.506767 0.059796 0.664990
O O6 0.142349 0.215839 0.740710
O O7 0.244728 0.154226 0.948473
O O8 0.000000 0.000000 0.000000
O O9 0.217016 0.834503 0.349839
O O10 0.060011 0.611509 0.650764
O O11 0.930254 0.793116 0.734825
O O12 0.420530 0.074600 0.113385
O O13 0.000000 0.000000 0.500000
O O14 0.905333 0.400141 0.702915
O O15 0.500000 0.500000 0.000000
O O16 0.471588 0.316072 0.918741
O O17 0.237596 0.427680 0.705651
O O18 0.000000 0.500000 0.000000
#
# Coordination Sequence:
#
# PCOD9100220 Si02
#       8
#     2   2   2   2   2   2   2   2
#     4  10  18  32  63 101 134 171 218 271 343 395
#     4  12  26  43  66 100 131 176 243 293 329 401
#     4  11  20  41  65 100 142 176 224 281 341 421
#     4  10  26  46  68  91 134 190 222 283 360 409
#     4  10  16  31  66 102 131 164 221 277 331 391
#     4  10  19  31  60 106 135 175 223 279 330 407
#     4  10  18  32  58  93 133 159 223 282 330 369
#     4  11  20  41  68  94 130 180 230 279 332 406
#
# _framework density 27.725286000000001
#
# number of rings (size 3 to 8) (size 9 to 14) (size 15 to 20)
#    0.000    1.500    3.750    4.875    1.750    0.000 
#    2.250    1.875    0.000    1.500    0.000    0.000 
#    0.000    0.000    0.000    0.000    0.000    0.000 
#
# Total GULP energy -89163.359539 kJ/mol
# GULP energy per Si atom -5572.709971 kJ/mol
# Density = 2.766218 g / cm^3
# Si number density = 27.725286 Si / 1000 Ang^3
#
#
#
# Elastic Constant Matrix: (Units=GPa)
#
#
# Indices 1 2 3 4 5 6 
#
# 1 137.2953 41.2842 34.0540 -8.4745 -23.4781 -3.1092
# 2 41.2842 147.8104 33.4677 -13.5624 -13.7881 -21.4188
# 3 34.0540 33.4677 104.5810 -7.5236 -29.4784 15.3787
# 4 -8.4745 -13.5624 -7.5236 58.5505 11.1107 -6.5003
# 5 -23.4781 -13.7881 -29.4784 11.1107 54.3616 -0.6001
# 6 -3.1092 -21.4188 15.3787 -6.5003 -0.6001 63.2865
#
#
#
# Elastic Compliance Matrix: (Units=1/GPa)
#
#
# Indices 1 2 3 4 5 6 
#
# 1 0.008638 -0.001772 -0.001599 0.000212 0.002373 0.000257
# 2 -0.001772 0.008523 -0.002659 0.001852 -0.000384 0.003630
# 3 -0.001599 -0.002659 0.013152 -0.000737 0.005871 -0.004195
# 4 0.000212 0.001852 -0.000737 0.018419 -0.003573 0.002674
# 5 0.002373 -0.000384 0.005871 -0.003573 0.023220 -0.001587
# 6 0.000257 0.003630 -0.004195 0.002674 -0.001587 0.018321
#
#
# Mechanical properties :
#
#
# Convention : Reuss Voigt Hill
#
# Bulk Modulus (GPa) = 54.78926 67.47761 61.13343
# Shear Modulus (GPa) = 46.11762 53.96510 50.04136
#
# Velocity S-wave (km/s) = 4.08288 4.41661 4.25302
# Velocity P-wave (km/s) = 6.48312 7.09925 6.79817
#
# Compressibility (1/GPa) = 0.01825175
#
# Stress axis : x y z
#
# Youngs Moduli (GPa) = 115.76826 117.33431 76.03160
#
# Poissons Ratio (x) = 0.20796 0.12158
# Poissons Ratio (y) = 0.20518 0.20218
# Poissons Ratio (z) = 0.18513 0.31201
#
# Static dielectric constant tensor:
#      x y z
#    x 2.544780 -0.076840 0.761010 
#    y -0.076840 2.229690 -0.006590 
#    z 0.761010 -0.006590 8.533250 
# 
# From -- ./inp_files/497847.got.cif
#   From: 2010.05.17/outbox.cif.g08.bks.cpg/sg2_249_cif.got.tgz:497847.got - 2010.06.03 11:33:40.
