data_PCOD9100822
_publ_section_title
;
Structure prediction by ZEFSAII (Michael W. Deem and Ramdas Pophale) SiO2 
 PCOD9100822
Probable space group: P -1
;
_chemical_formula_sum "Si O2"
_cell_formula_units_Z 16
_cell_length_a 23.960982
_cell_length_b 24.025607
_cell_length_c 9.319255
_cell_angle_alpha 29.123324
_cell_angle_beta 38.088099
_cell_angle_gamma 18.419309
_cell_volume 794.008942
_symmetry_space_group_name_H-M "P -1"
_symmetry_group_IT_number 2
_symmetry_cell_setting 'triclinic'
loop_
_space_group_symop_operation_xyz
x,y,z
-x,-y,-z
loop_
_atom_site_type_symbol
_atom_site_label
_atom_site_fract_x
_atom_site_fract_y
_atom_site_fract_z
Si Si1 0.360619 0.985839 0.516972
Si Si2 0.568712 0.475490 0.063421
Si Si3 0.886730 0.014589 0.646288
Si Si4 0.381736 0.727036 0.148286
Si Si5 0.010729 0.618288 0.766381
Si Si6 0.098746 0.562760 0.232811
Si Si7 0.164699 0.350218 0.322596
Si Si8 0.684825 0.610615 0.527815
O O1 0.487955 0.881210 0.361284
O O2 0.308268 0.140960 0.387842
O O3 0.457056 0.774047 0.882248
O O4 0.177247 0.131255 0.488971
O O5 0.727989 0.227412 0.378309
O O6 0.396296 0.670898 0.081505
O O7 0.500000 0.500000 0.000000
O O8 0.646386 0.518574 0.791444
O O9 0.798792 0.066682 0.855908
O O10 0.000000 0.000000 0.500000
O O11 0.007796 0.778565 0.871672
O O12 0.500000 0.500000 0.500000
O O13 0.191857 0.477405 0.652450
O O14 0.030534 0.580105 0.982421
O O15 0.000000 0.500000 0.000000
O O16 0.221972 0.362310 0.316346
O O17 0.199711 0.488609 0.339833
O O18 0.944862 0.639359 0.419233
#
# Coordination Sequence:
#
# PCOD9100822 Si02
#       8
#     2   2   2   2   2   2   2   2
#     4  10  20  37  66  88 125 169 208 262 326 369
#     4  10  23  41  62  95 129 161 216 277 321 383
#     4  11  20  38  68  91 119 174 214 256 338 386
#     4   9  19  37  60  87 122 161 205 258 320 379
#     4  10  20  39  60  90 126 167 212 261 314 386
#     4  11  21  39  62  92 125 166 214 266 307 391
#     4  10  22  39  61  91 130 161 215 268 308 373
#     4  11  21  39  66  89 126 171 215 254 330 394
#
# _framework density 20.150907
#
# number of rings (size 3 to 8) (size 9 to 14) (size 15 to 20)
#    0.000    1.750    5.000    0.000    0.000    4.500 
#    2.250    0.625    0.000    0.000    0.000    0.000 
#    0.000    0.000    0.000    0.000    0.000    0.000 
#
# Total GULP energy -89094.279274 kJ/mol
# GULP energy per Si atom -5568.392455 kJ/mol
# Density = 2.010504 g / cm^3
# Si number density = 20.150907 Si / 1000 Ang^3
#
#
#
# Elastic Constant Matrix: (Units=GPa)
#
#
# Indices 1 2 3 4 5 6 
#
# 1 128.7751 8.8994 36.8108 -5.4250 -6.6872 10.6167
# 2 8.8994 60.9404 19.0299 -0.6985 -13.9182 1.7691
# 3 36.8108 19.0299 89.7300 4.0893 -9.1674 4.7664
# 4 -5.4250 -0.6985 4.0893 28.0583 -2.3952 -9.4213
# 5 -6.6872 -13.9182 -9.1674 -2.3952 24.9380 -1.5295
# 6 10.6167 1.7691 4.7664 -9.4213 -1.5295 23.6025
#
#
#
# Elastic Compliance Matrix: (Units=1/GPa)
#
#
# Indices 1 2 3 4 5 6 
#
# 1 0.009126 0.000153 -0.003577 0.001475 0.001192 -0.002728
# 2 0.000153 0.019737 -0.003347 0.002071 0.010062 0.000607
# 3 -0.003577 -0.003347 0.013770 -0.003349 0.001782 -0.002142
# 4 0.001475 0.002071 -0.003349 0.042732 0.005484 0.017270
# 5 0.001192 0.010062 0.001782 0.005484 0.047438 0.003613
# 6 -0.002728 0.000607 -0.002142 0.017270 0.003613 0.051110
#
#
# Mechanical properties :
#
#
# Convention : Reuss Voigt Hill
#
# Bulk Modulus (GPa) = 34.37545 45.43618 39.90582
# Shear Modulus (GPa) = 24.13675 29.63345 26.88510
#
# Velocity S-wave (km/s) = 3.46468 3.83897 3.65662
# Velocity P-wave (km/s) = 5.75338 6.49978 6.13794
#
# Compressibility (1/GPa) = 0.02909053
#
# Stress axis : x y z
#
# Youngs Moduli (GPa) = 109.57263 50.66751 72.62043
#
# Poissons Ratio (x) = -0.00773 0.25976
# Poissons Ratio (y) = -0.01671 0.24305
# Poissons Ratio (z) = 0.39193 0.16958
#
# Static dielectric constant tensor:
#      x y z
#    x 1.712480 0.017250 -0.004280 
#    y 0.017250 1.844180 -0.075330 
#    z -0.004280 -0.075330 1.885730 
# 
# From -- ./inp_files/355549.got.cif
#   From: 2010.05.17/outbox.cif.g08.bks.cpg/sg2_178_cif.got.tgz:355549.got - 2010.06.03 11:33:40.
