data_PCOD9100282
_publ_section_title
;
Structure prediction by ZEFSAII (Michael W. Deem and Ramdas Pophale) SiO2 
 PCOD9100282
Probable space group: P -1
;
_chemical_formula_sum "Si O2"
_cell_formula_units_Z 16
_cell_length_a 21.419587
_cell_length_b 8.505315
_cell_length_c 12.225964
_cell_angle_alpha 79.007710
_cell_angle_beta 26.281615
_cell_angle_gamma 64.710707
_cell_volume 782.040502
_symmetry_space_group_name_H-M "P -1"
_symmetry_group_IT_number 2
_symmetry_cell_setting 'triclinic'
loop_
_space_group_symop_operation_xyz
x,y,z
-x,-y,-z
loop_
_atom_site_type_symbol
_atom_site_label
_atom_site_fract_x
_atom_site_fract_y
_atom_site_fract_z
Si Si1 0.872694 0.892829 0.957461
Si Si2 0.431556 0.298288 0.052253
Si Si3 0.415893 0.041876 0.296102
Si Si4 0.198326 0.911236 0.731133
Si Si5 0.796075 0.116260 0.837037
Si Si6 0.743038 0.259878 0.676848
Si Si7 0.618842 0.823991 0.422643
Si Si8 0.514714 0.529326 0.601957
O O1 0.067219 0.832574 0.656538
O O2 0.798786 0.975946 0.941623
O O3 0.817435 0.751075 0.097229
O O4 0.787804 0.051238 0.167219
O O5 0.396651 0.199163 0.220285
O O6 0.303277 0.533919 0.229761
O O7 0.614267 0.269557 0.790009
O O8 0.439499 0.178056 0.950335
O O9 0.439111 0.089914 0.375453
O O10 0.248679 0.036856 0.568425
O O11 0.350693 0.675763 0.517562
O O12 0.000000 0.000000 0.000000
O O13 0.721640 0.154013 0.827239
O O14 0.676791 0.330226 0.057704
O O15 0.000000 0.000000 0.500000
O O16 0.593696 0.653940 0.470087
O O17 0.500000 0.000000 0.500000
O O18 0.500000 0.500000 0.500000
#
# Coordination Sequence:
#
# PCOD9100282 Si02
#       8
#     2   2   2   2   2   2   2   2
#     4  10  21  39  58  92 129 165 206 277 324 386
#     4  10  21  39  61  91 122 174 213 265 329 404
#     4  10  22  39  60  89 129 167 213 270 328 389
#     4  11  23  39  63  96 131 171 221 274 324 389
#     4  10  20  37  63  91 125 166 213 267 323 386
#     4  10  21  37  64  89 126 166 222 261 329 391
#     4  11  22  39  65  92 126 168 217 270 334 393
#     4  12  22  41  68  95 127 176 222 269 332 399
#
# _framework density 20.459299999999999
#
# number of rings (size 3 to 8) (size 9 to 14) (size 15 to 20)
#    0.000    1.500    2.500    3.000    0.000    4.000 
#    0.000    2.500    2.750    2.250    0.000    0.000 
#    0.000    0.000    0.000    0.000    0.000    0.000 
#
# Total GULP energy -89078.020672 kJ/mol
# GULP energy per Si atom -5567.376292 kJ/mol
# Density = 2.041273 g / cm^3
# Si number density = 20.459300 Si / 1000 Ang^3
#
#
#
# Elastic Constant Matrix: (Units=GPa)
#
#
# Indices 1 2 3 4 5 6 
#
# 1 64.6808 24.1718 24.4435 -6.9955 30.5222 4.6924
# 2 24.1718 108.2171 42.8406 -23.3334 5.1532 4.1504
# 3 24.4435 42.8406 119.0581 -18.2960 8.5394 -1.6644
# 4 -6.9955 -23.3334 -18.2960 30.8713 -2.1663 1.4501
# 5 30.5222 5.1532 8.5394 -2.1663 37.9897 0.1185
# 6 4.6924 4.1504 -1.6644 1.4501 0.1185 25.5774
#
#
#
# Elastic Compliance Matrix: (Units=1/GPa)
#
#
# Indices 1 2 3 4 5 6 
#
# 1 0.028748 -0.003939 -0.002906 0.000504 -0.021866 -0.004751
# 2 -0.003939 0.012799 -0.002875 0.007345 0.002500 -0.001969
# 3 -0.002906 -0.002875 0.010531 0.003378 0.000545 0.001491
# 4 0.000504 0.007345 0.003378 0.040228 0.000144 -0.003346
# 5 -0.021866 0.002500 0.000545 0.000144 0.043427 0.003432
# 6 -0.004751 -0.001969 0.001491 -0.003346 0.003432 0.040559
#
#
# Mechanical properties :
#
#
# Convention : Reuss Voigt Hill
#
# Bulk Modulus (GPa) = 30.63738 52.76309 41.70023
# Shear Modulus (GPa) = 24.20009 32.25434 28.22722
#
# Velocity S-wave (km/s) = 3.44298 3.97484 3.71843
# Velocity P-wave (km/s) = 5.55092 6.84917 6.23393
#
# Compressibility (1/GPa) = 0.03263987
#
# Stress axis : x y z
#
# Youngs Moduli (GPa) = 34.78461 78.13221 94.95680
#
# Poissons Ratio (x) = 0.30776 0.27590
# Poissons Ratio (y) = 0.13702 0.27298
# Poissons Ratio (z) = 0.10107 0.22461
#
# Static dielectric constant tensor:
#      x y z
#    x 1.764680 -0.022780 0.017840 
#    y -0.022780 1.724410 -0.001560 
#    z 0.017840 -0.001560 1.836400 
# 
# From -- ./inp_files/446104.got.cif
#   From: 2010.05.17/outbox.cif.g08.bks.cpg/sg2_224_cif.got.tgz:446104.got - 2010.06.03 11:33:40.
