data_PCOD9100715
_publ_section_title
;
Structure prediction by ZEFSAII (Michael W. Deem and Ramdas Pophale) SiO2 
 PCOD9100715
Probable space group: P -1
;
_chemical_formula_sum "Si O2"
_cell_formula_units_Z 14
_cell_length_a 21.961802
_cell_length_b 6.838869
_cell_length_c 7.663737
_cell_angle_alpha 57.604845
_cell_angle_beta 39.091636
_cell_angle_gamma 47.017265
_cell_volume 530.916211
_symmetry_space_group_name_H-M "P -1"
_symmetry_group_IT_number 2
_symmetry_cell_setting 'triclinic'
loop_
_space_group_symop_operation_xyz
x,y,z
-x,-y,-z
loop_
_atom_site_type_symbol
_atom_site_label
_atom_site_fract_x
_atom_site_fract_y
_atom_site_fract_z
Si Si1 0.886485 0.464972 0.559518
Si Si2 0.794103 0.674193 0.009168
Si Si3 0.960101 0.931175 0.834557
Si Si4 0.843540 0.154408 0.341243
Si Si5 0.417364 0.239529 0.780490
Si Si6 0.359581 0.804304 0.726089
Si Si7 0.678463 0.005416 0.675715
O O1 0.994122 0.333320 0.258178
O O2 0.776505 0.691111 0.598847
O O3 0.879049 0.608260 0.691986
O O4 0.887554 0.199419 0.756604
O O5 0.832155 0.434511 0.174336
O O6 0.685541 0.686885 0.153332
O O7 0.749478 0.957852 0.060355
O O8 0.071401 0.935509 0.646586
O O9 0.898979 0.962788 0.138967
O O10 0.728411 0.153877 0.612004
O O11 0.383993 0.506591 0.839211
O O12 0.532238 0.177442 0.466098
O O13 0.422382 0.005706 0.000795
O O14 0.349511 0.862342 0.513282
#
# Coordination Sequence:
#
# PCOD9100715 Si02
#       7
#     2   2   2   2   2   2   2
#     4   9  20  38  60  90 126 161 219 256 307 377
#     4  10  20  41  63  94 126 170 210 259 315 380
#     4   9  19  39  62  90 125 171 212 264 310 379
#     4  10  20  37  65  92 129 165 218 257 321 376
#     4  10  23  43  63  98 127 164 216 258 319 382
#     4  11  22  42  70  88 133 169 204 268 316 374
#     4  11  22  40  63  96 127 164 209 266 313 383
#
# _framework density 26.369509999999998
#
# number of rings (size 3 to 8) (size 9 to 14) (size 15 to 20)
#    0.000    2.000    1.429    1.714    0.000    1.143 
#   15.429    0.714    0.000    0.000    0.000    0.000 
#    0.000    0.000    0.000    0.000    0.000    0.000 
#
# Total GULP energy -78350.399543 kJ/mol
# GULP energy per Si atom -5596.457110 kJ/mol
# Density = 2.630949 g / cm^3
# Si number density = 26.369510 Si / 1000 Ang^3
#
#
#
# Elastic Constant Matrix: (Units=GPa)
#
#
# Indices 1 2 3 4 5 6 
#
# 1 85.6929 9.7696 26.9317 -23.0820 -14.1476 -8.8004
# 2 9.7696 111.0234 35.1012 15.4896 7.0130 13.2401
# 3 26.9317 35.1012 96.8268 -6.5136 -5.7529 22.9985
# 4 -23.0820 15.4896 -6.5136 44.3560 3.8531 -1.4151
# 5 -14.1476 7.0130 -5.7529 3.8531 41.0408 0.4907
# 6 -8.8004 13.2401 22.9985 -1.4151 0.4907 32.8103
#
#
#
# Elastic Compliance Matrix: (Units=1/GPa)
#
#
# Indices 1 2 3 4 5 6 
#
# 1 0.018123 -0.002679 -0.005558 0.009448 0.004918 0.010172
# 2 -0.002679 0.011653 -0.003236 -0.005804 -0.002783 -0.003361
# 3 -0.005558 -0.003236 0.015787 0.000112 0.000974 -0.011260
# 4 0.009448 -0.005804 0.000112 0.029575 0.001415 0.006052
# 5 0.004918 -0.002783 0.000974 0.001415 0.026523 0.001424
# 6 0.010172 -0.003361 -0.011260 0.006052 0.001424 0.042695
#
#
# Mechanical properties :
#
#
# Convention : Reuss Voigt Hill
#
# Bulk Modulus (GPa) = 44.21826 48.57202 46.39514
# Shear Modulus (GPa) = 28.59724 38.42411 33.51068
#
# Velocity S-wave (km/s) = 3.29672 3.82139 3.56871
# Velocity P-wave (km/s) = 5.59431 6.15877 5.88331
#
# Compressibility (1/GPa) = 0.02261509
#
# Stress axis : x y z
#
# Youngs Moduli (GPa) = 55.17826 85.81803 63.34386
#
# Poissons Ratio (x) = 0.22994 0.35205
# Poissons Ratio (y) = 0.14784 0.20501
# Poissons Ratio (z) = 0.30667 0.27775
#
# Static dielectric constant tensor:
#      x y z
#    x 2.072260 0.013590 -0.004420 
#    y 0.013590 2.057770 0.019230 
#    z -0.004420 0.019230 2.151120 
# 
# From -- ./inp_files/98424.got.cif
#   From: 2010.05.17/outbox.cif.g08.bks.cpg/sg2_50_cif.got.tgz:98424.got - 2010.06.03 11:33:40.
