data_PCOD9100601
_publ_section_title
;
Structure prediction by ZEFSAII (Michael W. Deem and Ramdas Pophale) SiO2 
 PCOD9100601
Probable space group: P -1
;
_chemical_formula_sum "Si O2"
_cell_formula_units_Z 14
_cell_length_a 15.514636
_cell_length_b 9.020291
_cell_length_c 12.328060
_cell_angle_alpha 125.459978
_cell_angle_beta 27.150590
_cell_angle_gamma 123.809889
_cell_volume 637.499793
_symmetry_space_group_name_H-M "P -1"
_symmetry_group_IT_number 2
_symmetry_cell_setting 'triclinic'
loop_
_space_group_symop_operation_xyz
x,y,z
-x,-y,-z
loop_
_atom_site_type_symbol
_atom_site_label
_atom_site_fract_x
_atom_site_fract_y
_atom_site_fract_z
Si Si1 0.671447 0.267080 0.162928
Si Si2 0.934310 0.746290 0.160634
Si Si3 0.919292 0.799137 0.552172
Si Si4 0.416879 0.512092 0.451730
Si Si5 0.120540 0.834067 0.566979
Si Si6 0.095019 0.578461 0.693491
Si Si7 0.526619 0.907288 0.046766
O O1 0.603280 0.405802 0.206203
O O2 0.556655 0.322114 0.421724
O O3 0.608396 0.066993 0.104576
O O4 0.883229 0.272203 0.975205
O O5 0.753376 0.630496 0.368163
O O6 0.986332 0.663533 0.951454
O O7 0.896032 0.956732 0.290119
O O8 0.980752 0.628440 0.344232
O O9 0.981094 0.790741 0.603507
O O10 0.692230 0.780283 0.791649
O O11 0.000000 0.000000 0.500000
O O12 0.315538 0.578449 0.486541
O O13 0.082378 0.702585 0.655256
O O14 0.328831 0.820297 0.278320
O O15 0.500000 0.000000 0.000000
#
# Coordination Sequence:
#
# PCOD9100601 Si02
#       7
#     2   2   2   2   2   2   2
#     4  10  20  37  64  97 124 167 229 272 313 383
#     4  11  22  43  71  96 132 179 224 272 327 400
#     4  12  25  45  71  97 130 179 231 271 327 401
#     4  10  21  39  66  96 130 169 229 272 323 388
#     4  12  25  45  66 100 142 172 218 280 336 399
#     4  11  25  43  67 102 138 176 217 277 344 389
#     4  12  24  40  69  96 129 176 225 270 330 393
#
# _framework density 21.960792999999999
#
# number of rings (size 3 to 8) (size 9 to 14) (size 15 to 20)
#    0.000    0.857    4.286    4.286    2.000    0.571 
#    0.000    8.571    0.000    0.000    0.000    0.000 
#    0.000    0.000    0.000    0.000    0.000    0.000 
#
# Total GULP energy -78306.255169 kJ/mol
# GULP energy per Si atom -5593.303941 kJ/mol
# Density = 2.191081 g / cm^3
# Si number density = 21.960793 Si / 1000 Ang^3
#
#
#
# Elastic Constant Matrix: (Units=GPa)
#
#
# Indices 1 2 3 4 5 6 
#
# 1 159.4474 43.3908 36.4125 -3.9920 -0.3461 -20.2066
# 2 43.3908 73.1852 35.7733 15.6380 18.6784 -11.4055
# 3 36.4125 35.7733 119.3091 9.8090 -16.7259 -13.0029
# 4 -3.9920 15.6380 9.8090 30.3229 6.4014 6.0977
# 5 -0.3461 18.6784 -16.7259 6.4014 41.2542 2.5012
# 6 -20.2066 -11.4055 -13.0029 6.0977 2.5012 41.1519
#
#
#
# Elastic Compliance Matrix: (Units=1/GPa)
#
#
# Indices 1 2 3 4 5 6 
#
# 1 0.008209 -0.005342 -0.000785 0.003423 0.001535 0.001702
# 2 -0.005342 0.026639 -0.006872 -0.010345 -0.013587 0.004948
# 3 -0.000785 -0.006872 0.012224 -0.002572 0.008373 0.001445
# 4 0.003423 -0.010345 -0.002572 0.041701 -0.002313 -0.008037
# 5 0.001535 -0.013587 0.008373 -0.002313 0.034286 -0.002108
# 6 0.001702 0.004948 0.001445 -0.008037 -0.002108 0.028283
#
#
# Mechanical properties :
#
#
# Convention : Reuss Voigt Hill
#
# Bulk Modulus (GPa) = 47.44722 64.78832 56.11777
# Shear Modulus (GPa) = 27.12021 38.30348 32.71185
#
# Velocity S-wave (km/s) = 3.51798 4.18086 3.86366
# Velocity P-wave (km/s) = 6.17689 7.27132 6.74633
#
# Compressibility (1/GPa) = 0.02107605
#
# Stress axis : x y z
#
# Youngs Moduli (GPa) = 121.81509 37.53826 81.80479
#
# Poissons Ratio (x) = 0.20051 0.06418
# Poissons Ratio (y) = 0.65068 0.56219
# Poissons Ratio (z) = 0.09557 0.25798
#
# Static dielectric constant tensor:
#      x y z
#    x 1.815850 0.011600 -0.024930 
#    y 0.011600 1.799530 0.017820 
#    z -0.024930 0.017820 1.845650 
# 
# From -- ./inp_files/418232.got.cif
#   From: 2010.05.17/outbox.cif.g08.bks.cpg/sg2_210_cif.got.tgz:418232.got - 2010.06.03 11:33:40.
