data_PCOD9100467
_publ_section_title
;
Structure prediction by ZEFSAII (Michael W. Deem and Ramdas Pophale) SiO2 
 PCOD9100467
Probable space group: P -1
;
_chemical_formula_sum "Si O2"
_cell_formula_units_Z 13
_cell_length_a 7.054801
_cell_length_b 9.041787
_cell_length_c 13.423672
_cell_angle_alpha 64.647226
_cell_angle_beta 44.846518
_cell_angle_gamma 50.230305
_cell_volume 463.623994
_symmetry_space_group_name_H-M "P -1"
_symmetry_group_IT_number 2
_symmetry_cell_setting 'triclinic'
loop_
_space_group_symop_operation_xyz
x,y,z
-x,-y,-z
loop_
_atom_site_type_symbol
_atom_site_label
_atom_site_fract_x
_atom_site_fract_y
_atom_site_fract_z
Si Si1 0.053839 0.871573 0.807886
Si Si2 0.808296 0.834255 0.120498
Si Si3 0.995958 0.330347 0.597880
Si Si4 0.314485 0.391073 0.620955
Si Si5 0.500000 0.000000 0.500000
Si Si6 0.636917 0.281207 0.892131
Si Si7 0.225126 0.269062 0.195564
O O1 0.333031 0.909659 0.671173
O O2 0.035557 0.755456 0.755833
O O3 0.723487 0.081286 0.867607
O O4 0.996379 0.794843 0.956646
O O5 0.655689 0.714072 0.255218
O O6 0.077324 0.784436 0.117377
O O7 0.533051 0.061154 0.161670
O O8 0.316643 0.243180 0.578027
O O9 0.000000 0.500000 0.500000
O O10 0.680430 0.393314 0.755288
O O11 0.141137 0.135008 0.540900
O O12 0.500000 0.500000 0.500000
O O13 0.953019 0.573398 0.699662
O O14 0.328678 0.369385 0.045550
#
# Coordination Sequence:
#
# PCOD9100467 Si02
#       7
#     2   2   2   2   1   2   2
#     4  10  20  37  64  90 118 162 206 242 299 362
#     4  10  22  41  63  89 124 161 202 252 300 357
#     4  10  23  39  61  87 117 157 201 248 301 361
#     4  11  26  41  57  92 125 155 207 251 298 365
#     4  10  22  40  60  88 122 154 198 252 298 348
#     4   9  20  39  62  92 121 155 209 251 295 365
#     4  11  22  39  64  88 121 163 198 251 307 351
#
# _framework density 28.039964000000001
#
# number of rings (size 3 to 8) (size 9 to 14) (size 15 to 20)
#    0.000    1.846    0.000    4.615    0.000   13.538 
#    0.000    0.000    0.000    0.000    0.000    0.000 
#    0.000    0.000    0.000    0.000    0.000    0.000 
#
# Total GULP energy -72425.000588 kJ/mol
# GULP energy per Si atom -5571.153891 kJ/mol
# Density = 2.797614 g / cm^3
# Si number density = 28.039964 Si / 1000 Ang^3
#
#
#
# Elastic Constant Matrix: (Units=GPa)
#
#
# Indices 1 2 3 4 5 6 
#
# 1 96.0943 8.6420 32.1944 -6.9019 -5.6064 23.6110
# 2 8.6420 114.9767 62.2248 -17.1324 -0.2694 5.8881
# 3 32.1944 62.2248 239.7087 -20.6227 -20.7220 11.5644
# 4 -6.9019 -17.1324 -20.6227 71.4593 5.2312 -0.9428
# 5 -5.6064 -0.2694 -20.7220 5.2312 47.1388 -2.0499
# 6 23.6110 5.8881 11.5644 -0.9428 -2.0499 26.7685
#
#
#
# Elastic Compliance Matrix: (Units=1/GPa)
#
#
# Indices 1 2 3 4 5 6 
#
# 1 0.013733 0.000377 -0.001268 0.000863 0.000479 -0.011581
# 2 0.000377 0.010452 -0.002646 0.001856 -0.001331 -0.001525
# 3 -0.001268 -0.002646 0.005280 0.000610 0.002070 -0.000401
# 4 0.000863 0.001856 0.000610 0.014780 -0.001303 -0.001012
# 5 0.000479 -0.001331 0.002070 -0.001303 0.022346 0.000642
# 6 -0.011581 -0.001525 -0.000401 -0.001012 0.000642 0.048094
#
#
# Mechanical properties :
#
#
# Convention : Reuss Voigt Hill
#
# Bulk Modulus (GPa) = 44.66037 72.98911 58.82474
# Shear Modulus (GPa) = 38.69291 52.25454 45.47372
#
# Velocity S-wave (km/s) = 3.71876 4.32160 4.03146
# Velocity P-wave (km/s) = 5.86522 7.14062 6.53412
#
# Compressibility (1/GPa) = 0.02239122
#
# Stress axis : x y z
#
# Youngs Moduli (GPa) = 72.81848 95.67092 189.41066
#
# Poissons Ratio (x) = -0.03604 0.24015
# Poissons Ratio (y) = -0.02743 0.50112
# Poissons Ratio (z) = 0.09232 0.25312
#
# Static dielectric constant tensor:
#      x y z
#    x 2.664270 0.530590 0.260720 
#    y 0.530590 3.840630 0.355670 
#    z 0.260720 0.355670 2.387740 
# 
# From -- ./inp_files/496261.got.cif
#   From: 2010.05.17/outbox.cif.g08.bks.cpg/sg2_249_cif.got.tgz:496261.got - 2010.06.03 11:33:40.
