data_PCOD9100649
_publ_section_title
;
Structure prediction by ZEFSAII (Michael W. Deem and Ramdas Pophale) SiO2 
 PCOD9100649
Probable space group: P -1
;
_chemical_formula_sum "Si O2"
_cell_formula_units_Z 16
_cell_length_a 17.391190
_cell_length_b 10.704669
_cell_length_c 11.634171
_cell_angle_alpha 127.570913
_cell_angle_beta 133.144572
_cell_angle_gamma 27.268585
_cell_volume 724.024550
_symmetry_space_group_name_H-M "P -1"
_symmetry_group_IT_number 2
_symmetry_cell_setting 'triclinic'
loop_
_space_group_symop_operation_xyz
x,y,z
-x,-y,-z
loop_
_atom_site_type_symbol
_atom_site_label
_atom_site_fract_x
_atom_site_fract_y
_atom_site_fract_z
Si Si1 0.075450 0.165826 0.441060
Si Si2 0.214049 0.399092 0.957807
Si Si3 0.718454 0.082120 0.013124
Si Si4 0.932250 0.907143 0.357455
Si Si5 0.148902 0.344078 0.245946
Si Si6 0.475594 0.140595 0.874987
Si Si7 0.014541 0.036147 0.903979
Si Si8 0.279302 0.178502 0.522351
O O1 0.148886 0.049961 0.579713
O O2 0.215449 0.094011 0.467234
O O3 0.890225 0.493270 0.449502
O O4 0.024286 0.063263 0.273234
O O5 0.139311 0.640735 0.086188
O O6 0.359767 0.120337 0.021757
O O7 0.303446 0.345106 0.899353
O O8 0.036777 0.510032 0.814243
O O9 0.794647 0.055468 0.195231
O O10 0.794131 0.111187 0.012523
O O11 0.808416 0.806347 0.908414
O O12 0.516932 0.262295 0.932481
O O13 0.099604 0.586134 0.316977
O O14 0.000000 0.000000 0.500000
O O15 0.298441 0.137379 0.382136
O O16 0.442027 0.058461 0.691891
O O17 0.000000 0.000000 0.000000
#
# Coordination Sequence:
#
# PCOD9100649 Si02
#       8
#     2   2   2   2   2   2   2   2
#     4  10  20  37  65  87 123 163 218 251 297 368
#     4  10  22  38  64  94 122 168 205 257 307 376
#     4  11  23  38  65  91 125 162 206 261 309 368
#     4  11  20  34  59  93 121 154 211 262 300 351
#     4  10  21  40  65  88 120 168 221 247 294 372
#     4  11  22  38  63  94 132 158 203 254 325 371
#     4  11  22  40  65  91 120 165 218 256 301 368
#     4  10  21  38  63  93 121 168 205 257 304 372
#
# _framework density 22.098699
#
# number of rings (size 3 to 8) (size 9 to 14) (size 15 to 20)
#    0.000    1.500    2.500    4.875    3.500    0.500 
#    0.000    3.125    2.750    0.000    0.000    0.000 
#    0.000    0.000    0.000    0.000    0.000    0.000 
#
# Total GULP energy -89409.798383 kJ/mol
# GULP energy per Si atom -5588.112399 kJ/mol
# Density = 2.204840 g / cm^3
# Si number density = 22.098699 Si / 1000 Ang^3
#
#
#
# Elastic Constant Matrix: (Units=GPa)
#
#
# Indices 1 2 3 4 5 6 
#
# 1 124.6751 10.2449 29.5512 4.4758 11.8325 -9.5874
# 2 10.2449 49.5793 12.0768 21.0354 7.6497 -0.6059
# 3 29.5512 12.0768 129.5886 20.7338 12.3876 0.2957
# 4 4.4758 21.0354 20.7338 40.6967 8.5796 5.3312
# 5 11.8325 7.6497 12.3876 8.5796 39.2079 4.5916
# 6 -9.5874 -0.6059 0.2957 5.3312 4.5916 19.0007
#
#
#
# Elastic Compliance Matrix: (Units=1/GPa)
#
#
# Indices 1 2 3 4 5 6 
#
# 1 0.009179 -0.001148 -0.001806 0.000390 -0.002665 0.005157
# 2 -0.001148 0.026679 0.000220 -0.013883 -0.002447 0.004755
# 3 -0.001806 0.000220 0.008920 -0.004218 -0.001451 0.000491
# 4 0.000390 -0.013883 -0.004218 0.035685 -0.002770 -0.009523
# 5 -0.002665 -0.002447 -0.001451 -0.002770 0.028737 -0.007567
# 6 0.005157 0.004755 0.000491 -0.009523 -0.007567 0.059877
#
#
# Mechanical properties :
#
#
# Convention : Reuss Voigt Hill
#
# Bulk Modulus (GPa) = 25.43847 45.28764 35.36306
# Shear Modulus (GPa) = 26.64544 36.57906 31.61225
#
# Velocity S-wave (km/s) = 3.47615 4.07290 3.78630
# Velocity P-wave (km/s) = 5.25812 6.53115 5.92890
#
# Compressibility (1/GPa) = 0.03931054
#
# Stress axis : x y z
#
# Youngs Moduli (GPa) = 108.94826 37.48235 112.10201
#
# Poissons Ratio (x) = 0.04303 0.20240
# Poissons Ratio (y) = 0.12509 -0.02463
# Poissons Ratio (z) = 0.19671 -0.00824
#
# Static dielectric constant tensor:
#      x y z
#    x 1.872690 -0.005070 -0.006980 
#    y -0.005070 1.839050 0.001530 
#    z -0.006980 0.001530 1.777360 
# 
# From -- ./inp_files/464830.got.cif
#   From: 2010.05.17/outbox.cif.g08.bks.cpg/sg2_233_cif.got.tgz:464830.got - 2010.06.03 11:33:40.
