data_PCOD9100002
_publ_section_title
;
Structure prediction by ZEFSAII (Michael W. Deem and Ramdas Pophale) SiO2 
 PCOD9100002
Probable space group: P -1
;
_chemical_formula_sum "Si O2"
_cell_formula_units_Z 16
_cell_length_a 7.929003
_cell_length_b 13.613500
_cell_length_c 15.512272
_cell_angle_alpha 133.657494
_cell_angle_beta 134.770896
_cell_angle_gamma 34.473840
_cell_volume 647.266306
_symmetry_space_group_name_H-M "P -1"
_symmetry_group_IT_number 2
_symmetry_cell_setting 'triclinic'
loop_
_space_group_symop_operation_xyz
x,y,z
-x,-y,-z
loop_
_atom_site_type_symbol
_atom_site_label
_atom_site_fract_x
_atom_site_fract_y
_atom_site_fract_z
Si Si1 0.808487 0.070269 0.607717
Si Si2 0.848326 0.297626 0.396505
Si Si3 0.552112 0.045564 0.914223
Si Si4 0.292425 0.715060 0.848221
Si Si5 0.056760 0.668258 0.909919
Si Si6 0.105770 0.566509 0.338646
Si Si7 0.189497 0.658135 0.141755
Si Si8 0.691101 0.958988 0.342720
O O1 0.939207 0.909616 0.622867
O O2 0.587634 0.081497 0.464085
O O3 0.115790 0.008344 0.627965
O O4 0.675633 0.252968 0.716753
O O5 0.856828 0.297985 0.297036
O O6 0.477246 0.415552 0.358970
O O7 0.936407 0.387909 0.546841
O O8 0.560127 0.017749 0.796269
O O9 0.182927 0.200746 0.892079
O O10 0.698197 0.860828 0.902290
O O11 0.721081 0.117714 0.051703
O O12 0.656289 0.527186 0.867253
O O13 0.174625 0.701365 0.888057
O O14 0.052897 0.511163 0.796324
O O15 0.230299 0.638441 0.042247
O O16 0.941345 0.754218 0.344050
#
# Coordination Sequence:
#
# PCOD9100002 Si02
#       8
#     2   2   2   2   2   2   2   2
#     4   9  18  34  59  90 117 146 193 250 297 341
#     4  10  20  37  62  90 121 158 202 247 294 356
#     4  11  22  39  63  87 117 159 206 249 292 354
#     4  12  25  40  60  89 126 160 197 249 306 357
#     4  12  25  40  60  89 126 160 197 249 306 357
#     4  10  20  37  62  90 121 158 202 247 294 356
#     4  11  22  39  63  87 117 159 206 249 292 354
#     4   9  18  34  59  90 117 146 193 250 297 341
#
# _framework density 24.719348
#
# number of rings (size 3 to 8) (size 9 to 14) (size 15 to 20)
#    0.000    1.500    0.000    6.750    0.000    3.500 
#    0.000    0.000    0.000    3.750    0.000    0.000 
#    0.000    0.000    0.000    0.000    0.000    0.000 
#
# Total GULP energy -89589.957794 kJ/mol
# GULP energy per Si atom -5599.372362 kJ/mol
# Density = 2.466309 g / cm^3
# Si number density = 24.719348 Si / 1000 Ang^3
#
#
#
# Elastic Constant Matrix: (Units=GPa)
#
#
# Indices 1 2 3 4 5 6 
#
# 1 52.8837 -1.1819 28.6413 0.0932 -10.1145 4.8787
# 2 -1.1819 81.2921 50.1634 -5.7857 -4.3056 11.8025
# 3 28.6413 50.1634 190.1771 1.6598 -28.8138 13.1994
# 4 0.0932 -5.7857 1.6598 47.4822 8.7879 -0.6685
# 5 -10.1145 -4.3056 -28.8138 8.7879 39.2781 -7.7318
# 6 4.8787 11.8025 13.1994 -0.6685 -7.7318 27.2846
#
#
#
# Elastic Compliance Matrix: (Units=1/GPa)
#
#
# Indices 1 2 3 4 5 6 
#
# 1 0.021622 0.002950 -0.003409 -0.000137 0.002894 -0.002676
# 2 0.002950 0.016157 -0.004721 0.002538 -0.002667 -0.005926
# 3 -0.003409 -0.004721 0.007729 -0.001705 0.004696 0.000201
# 4 -0.000137 0.002538 -0.001705 0.022585 -0.006355 -0.001496
# 5 0.002894 -0.002667 0.004696 -0.006355 0.032224 0.007340
# 6 -0.002676 -0.005926 0.000201 -0.001496 0.007340 0.041639
#
#
# Mechanical properties :
#
#
# Convention : Reuss Voigt Hill
#
# Bulk Modulus (GPa) = 28.45027 53.28872 40.86950
# Shear Modulus (GPa) = 30.48168 39.25767 34.86968
#
# Velocity S-wave (km/s) = 3.51538 3.98946 3.75990
# Velocity P-wave (km/s) = 5.29259 6.54411 5.95134
#
# Compressibility (1/GPa) = 0.03514905
#
# Stress axis : x y z
#
# Youngs Moduli (GPa) = 46.24833 61.89169 129.37746
#
# Poissons Ratio (x) = -0.18259 0.44106
# Poissons Ratio (y) = -0.13644 0.61079
# Poissons Ratio (z) = 0.15766 0.29219
#
# Static dielectric constant tensor:
#      x y z
#    x 2.029890 -0.102660 -0.044630 
#    y -0.102660 1.935690 0.018560 
#    z -0.044630 0.018560 1.971450 
# 
# From -- ./inp_files/175308.got.cif
#   From: 2010.05.17/outbox.cif.g08.bks.cpg/sg2_88_cif.got.tgz:175308.got - 2010.06.03 11:33:40.
