data_PCOD9100137
_publ_section_title
;
Structure prediction by ZEFSAII (Michael W. Deem and Ramdas Pophale) SiO2 
 PCOD9100137
Probable space group: P -1
;
_chemical_formula_sum "Si O2"
_cell_formula_units_Z 16
_cell_length_a 8.618418
_cell_length_b 15.528945
_cell_length_c 11.770232
_cell_angle_alpha 152.726119
_cell_angle_beta 100.700403
_cell_angle_gamma 80.447713
_cell_volume 709.304399
_symmetry_space_group_name_H-M "P -1"
_symmetry_group_IT_number 2
_symmetry_cell_setting 'triclinic'
loop_
_space_group_symop_operation_xyz
x,y,z
-x,-y,-z
loop_
_atom_site_type_symbol
_atom_site_label
_atom_site_fract_x
_atom_site_fract_y
_atom_site_fract_z
Si Si1 0.516722 0.428229 0.752286
Si Si2 0.560654 0.019762 0.354792
Si Si3 0.978039 0.617709 0.754434
Si Si4 0.856623 0.621721 0.312048
Si Si5 0.597304 0.084931 0.009621
Si Si6 0.318315 0.211417 0.708661
Si Si7 0.084961 0.012145 0.144303
Si Si8 0.646392 0.465871 0.561713
O O1 0.599399 0.233763 0.576019
O O2 0.327882 0.404152 0.706518
O O3 0.578702 0.454804 0.664929
O O4 0.562999 0.616968 0.046529
O O5 0.401889 0.062185 0.458550
O O6 0.515760 0.897016 0.094163
O O7 0.688560 0.910234 0.319749
O O8 0.056659 0.536396 0.785392
O O9 0.000000 0.500000 0.500000
O O10 0.790257 0.606914 0.733735
O O11 0.049498 0.822672 0.984047
O O12 0.827138 0.678507 0.241314
O O13 0.956673 0.802525 0.576669
O O14 0.732867 0.954622 0.824829
O O15 0.693254 0.260351 0.279117
O O16 0.500000 0.000000 0.000000
O O17 0.000000 0.000000 0.000000
O O18 0.500000 0.500000 0.500000
#
# Coordination Sequence:
#
# PCOD9100137 Si02
#       8
#     2   2   2   2   2   2   2   2
#     4  11  22  40  66  96 131 168 219 274 319 380
#     4  10  20  37  62  97 128 164 216 266 321 376
#     4  12  25  40  64  93 130 176 215 263 330 399
#     4  11  22  42  65  95 128 168 217 271 323 385
#     4  12  22  39  66 100 131 168 207 273 332 382
#     4  10  22  38  65  97 129 169 224 265 317 388
#     4  12  24  41  63  94 133 171 215 264 327 395
#     4  12  25  41  63  95 135 170 216 272 335 393
#
# _framework density 22.557312
#
# number of rings (size 3 to 8) (size 9 to 14) (size 15 to 20)
#    0.000    0.750    6.250    3.000    3.500    1.000 
#    0.000    0.625    0.000    1.500    0.000    0.000 
#    0.000    0.000    0.000    0.000    0.000    0.000 
#
# Total GULP energy -89188.779621 kJ/mol
# GULP energy per Si atom -5574.298726 kJ/mol
# Density = 2.250597 g / cm^3
# Si number density = 22.557312 Si / 1000 Ang^3
#
#
#
# Elastic Constant Matrix: (Units=GPa)
#
#
# Indices 1 2 3 4 5 6 
#
# 1 62.6956 49.6074 8.4608 3.9411 16.6796 -14.3619
# 2 49.6074 176.3773 21.3791 0.7822 10.0751 -21.8548
# 3 8.4608 21.3791 100.2993 0.7474 15.3509 -4.1266
# 4 3.9411 0.7822 0.7474 47.1992 -0.4944 1.1393
# 5 16.6796 10.0751 15.3509 -0.4944 20.1021 -1.3339
# 6 -14.3619 -21.8548 -4.1266 1.1393 -1.3339 37.5540
#
#
#
# Elastic Compliance Matrix: (Units=1/GPa)
#
#
# Indices 1 2 3 4 5 6 
#
# 1 0.027875 -0.006068 0.002553 -0.002656 -0.021657 0.006721
# 2 -0.006068 0.007662 -0.001409 0.000378 0.002416 0.002058
# 3 0.002553 -0.001409 0.011675 -0.000509 -0.010268 0.001090
# 4 -0.002656 0.000378 -0.000509 0.021474 0.002838 -0.001403
# 5 -0.021657 0.002416 -0.010268 0.002838 0.074053 -0.005460
# 6 0.006721 0.002058 0.001090 -0.001403 -0.005460 0.030365
#
#
# Mechanical properties :
#
#
# Convention : Reuss Voigt Hill
#
# Bulk Modulus (GPa) = 26.76381 55.36298 41.06339
# Shear Modulus (GPa) = 25.58757 38.29937 31.94347
#
# Velocity S-wave (km/s) = 3.37164 4.12499 3.76720
# Velocity P-wave (km/s) = 5.20076 6.87633 6.09638
#
# Compressibility (1/GPa) = 0.03736389
#
# Stress axis : x y z
#
# Youngs Moduli (GPa) = 35.87478 130.50705 85.65043
#
# Poissons Ratio (x) = 0.79189 -0.21865
# Poissons Ratio (y) = 0.21768 0.12072
# Poissons Ratio (z) = -0.09158 0.18394
#
# Static dielectric constant tensor:
#      x y z
#    x 3.651300 -0.029280 -0.992080 
#    y -0.029280 1.952610 -0.053760 
#    z -0.992080 -0.053760 2.495120 
# 
# From -- ./inp_files/400098.got.cif
#   From: 2010.05.17/outbox.cif.g08.bks.cpg/sg2_201_cif.got.tgz:400098.got - 2010.06.03 11:33:40.
