data_PCOD9100123
_publ_section_title
;
Structure prediction by ZEFSAII (Michael W. Deem and Ramdas Pophale) SiO2 
 PCOD9100123
Probable space group: P -1
;
_chemical_formula_sum "Si O2"
_cell_formula_units_Z 16
_cell_length_a 9.129344
_cell_length_b 15.367260
_cell_length_c 19.019526
_cell_angle_alpha 152.930943
_cell_angle_beta 39.178140
_cell_angle_gamma 138.631017
_cell_volume 750.076548
_symmetry_space_group_name_H-M "P -1"
_symmetry_group_IT_number 2
_symmetry_cell_setting 'triclinic'
loop_
_space_group_symop_operation_xyz
x,y,z
-x,-y,-z
loop_
_atom_site_type_symbol
_atom_site_label
_atom_site_fract_x
_atom_site_fract_y
_atom_site_fract_z
Si Si1 0.628612 0.776535 0.323940
Si Si2 0.891665 0.307981 0.947708
Si Si3 0.302331 0.999903 0.311759
Si Si4 0.515744 0.556543 0.746979
Si Si5 0.314764 0.499930 0.130849
Si Si6 0.808112 0.140259 0.600070
Si Si7 0.097219 0.234629 0.133227
Si Si8 0.633423 0.407610 0.446890
O O1 0.587148 0.648712 0.320558
O O2 0.438368 0.643439 0.249797
O O3 0.875216 0.778709 0.191467
O O4 0.648097 0.997837 0.501025
O O5 0.718382 0.163083 0.856718
O O6 0.721379 0.353377 0.104653
O O7 0.000000 0.500000 0.000000
O O8 0.490043 0.189468 0.358747
O O9 0.050034 0.064043 0.455100
O O10 0.328298 0.905958 0.309351
O O11 0.717012 0.688016 0.816702
O O12 0.618518 0.524093 0.609128
O O13 0.129890 0.626915 0.264385
O O14 0.220354 0.295512 0.055876
O O15 0.500000 0.500000 0.000000
O O16 0.896266 0.368064 0.306999
O O17 0.000000 0.000000 0.000000
O O18 0.500000 0.500000 0.500000
#
# Coordination Sequence:
#
# PCOD9100123 Si02
#       8
#     2   2   2   2   2   2   2   2
#     4   9  19  37  59  96 128 169 206 271 332 391
#     4   9  19  34  62  93 124 158 212 257 322 391
#     4  10  21  37  65  92 125 171 209 265 329 390
#     4  10  21  41  67  91 129 179 222 267 329 399
#     4  11  25  38  64  98 131 164 217 278 319 382
#     4  10  20  37  62  95 129 162 212 265 329 382
#     4  11  26  47  67  95 137 183 221 264 338 409
#     4  12  25  43  68  96 130 175 230 277 322 393
#
# _framework density 21.331156
#
# number of rings (size 3 to 8) (size 9 to 14) (size 15 to 20)
#    0.000    1.750    1.250    2.250    8.750    1.000 
#    0.000    6.250    0.000    0.000    0.000    0.000 
#    0.000    0.000    0.000    0.000    0.000    0.000 
#
# Total GULP energy -89187.845001 kJ/mol
# GULP energy per Si atom -5574.240313 kJ/mol
# Density = 2.128261 g / cm^3
# Si number density = 21.331156 Si / 1000 Ang^3
#
#
#
# Elastic Constant Matrix: (Units=GPa)
#
#
# Indices 1 2 3 4 5 6 
#
# 1 63.5379 29.7031 23.9735 -5.3360 -0.3356 -2.8299
# 2 29.7031 109.5784 37.5537 7.1991 5.5226 -7.1262
# 3 23.9735 37.5537 100.7326 -8.0143 -4.0999 -13.6690
# 4 -5.3360 7.1991 -8.0143 43.8095 4.3593 2.8198
# 5 -0.3356 5.5226 -4.0999 4.3593 19.0233 1.3136
# 6 -2.8299 -7.1262 -13.6690 2.8198 1.3136 28.2605
#
#
#
# Elastic Compliance Matrix: (Units=1/GPa)
#
#
# Indices 1 2 3 4 5 6 
#
# 1 0.019046 -0.004465 -0.002757 0.002552 0.000511 -0.000831
# 2 -0.004465 0.012048 -0.003638 -0.002896 -0.003786 0.001297
# 3 -0.002757 -0.003638 0.012857 0.002015 0.002993 0.004685
# 4 0.002552 -0.002896 0.002015 0.024510 -0.004176 -0.001752
# 5 0.000511 -0.003786 0.002993 -0.004176 0.055389 -0.001614
# 6 -0.000831 0.001297 0.004685 -0.001752 -0.001614 0.038145
#
#
# Mechanical properties :
#
#
# Convention : Reuss Voigt Hill
#
# Bulk Modulus (GPa) = 44.97984 50.70106 47.84045
# Shear Modulus (GPa) = 26.16074 30.39324 28.27699
#
# Velocity S-wave (km/s) = 3.50581 3.77878 3.64486
# Velocity P-wave (km/s) = 6.12535 6.54669 6.33952
#
# Compressibility (1/GPa) = 0.02223218
#
# Stress axis : x y z
#
# Youngs Moduli (GPa) = 52.50331 82.99914 77.77610
#
# Poissons Ratio (x) = 0.37062 0.21443
# Poissons Ratio (y) = 0.23445 0.28291
# Poissons Ratio (z) = 0.14476 0.30191
#
# Static dielectric constant tensor:
#      x y z
#    x 1.869130 0.010240 -0.051960 
#    y 0.010240 1.760290 -0.011820 
#    z -0.051960 -0.011820 1.835520 
# 
# From -- ./inp_files/561411.got.cif
#   From: 2010.05.17/outbox.cif.g08.bks.cpg/sg2_281_cif.got.tgz:561411.got - 2010.06.03 11:33:40.
