data_PCOD9100128
_publ_section_title
;
Structure prediction by ZEFSAII (Michael W. Deem and Ramdas Pophale) SiO2 
 PCOD9100128
Probable space group: P -1
;
_chemical_formula_sum "Si O2"
_cell_formula_units_Z 16
_cell_length_a 8.390827
_cell_length_b 15.828812
_cell_length_c 11.310565
_cell_angle_alpha 105.813095
_cell_angle_beta 126.877625
_cell_angle_gamma 36.399406
_cell_volume 639.111599
_symmetry_space_group_name_H-M "P -1"
_symmetry_group_IT_number 2
_symmetry_cell_setting 'triclinic'
loop_
_space_group_symop_operation_xyz
x,y,z
-x,-y,-z
loop_
_atom_site_type_symbol
_atom_site_label
_atom_site_fract_x
_atom_site_fract_y
_atom_site_fract_z
Si Si1 0.653081 0.949316 0.411239
Si Si2 0.347202 0.248287 0.726472
Si Si3 0.174928 0.573555 0.813779
Si Si4 0.454458 0.468487 0.591056
Si Si5 0.252765 0.746939 0.180480
Si Si6 0.301330 0.327005 0.001389
Si Si7 0.332004 0.176805 0.148635
Si Si8 0.251752 0.689391 0.730010
O O1 0.568096 0.885817 0.293333
O O2 0.074059 0.794496 0.575281
O O3 0.500000 0.000000 0.500000
O O4 0.584183 0.043717 0.311649
O O5 0.692962 0.172138 0.797114
O O6 0.971588 0.397453 0.542950
O O7 0.242930 0.316899 0.838242
O O8 0.365582 0.427415 0.772730
O O9 0.020574 0.706796 0.712265
O O10 0.878517 0.667973 0.814929
O O11 0.500000 0.500000 0.000000
O O12 0.500000 0.500000 0.500000
O O13 0.699279 0.297930 0.677776
O O14 0.545495 0.511550 0.744992
O O15 0.930558 0.807729 0.004090
O O16 0.434228 0.193148 0.083830
O O17 0.622346 0.279942 0.119650
O O18 0.000000 0.500000 0.000000
#
# Coordination Sequence:
#
# PCOD9100128 Si02
#       8
#     2   2   2   2   2   2   2   2
#     4  11  25  46  64  86 131 176 227 260 307 377
#     4  11  24  40  65  95 128 168 214 267 316 389
#     4   9  16  32  59  88 119 155 203 261 312 364
#     4  10  20  38  61  94 135 164 197 270 334 384
#     4  10  20  37  62  96 123 161 218 266 325 377
#     4  12  23  41  68 103 130 161 210 271 337 383
#     4  11  22  38  66  91 127 173 212 263 320 378
#     4  10  21  39  62  89 129 169 210 260 315 383
#
# _framework density 25.034749000000001
#
# number of rings (size 3 to 8) (size 9 to 14) (size 15 to 20)
#    0.000    1.500    1.250    6.375    0.000    1.500 
#    4.500    0.000    0.000    0.000    0.000    0.000 
#    0.000    0.000    0.000    0.000    0.000    0.000 
#
# Total GULP energy -89139.348303 kJ/mol
# GULP energy per Si atom -5571.209269 kJ/mol
# Density = 2.497777 g / cm^3
# Si number density = 25.034749 Si / 1000 Ang^3
#
#
#
# Elastic Constant Matrix: (Units=GPa)
#
#
# Indices 1 2 3 4 5 6 
#
# 1 78.7296 16.7976 27.7983 3.7977 -20.0986 17.6015
# 2 16.7976 46.4432 30.4805 6.4319 -13.2880 17.5635
# 3 27.7983 30.4805 110.3611 8.7381 -32.9536 16.2081
# 4 3.7977 6.4319 8.7381 47.4513 16.2011 -9.0542
# 5 -20.0986 -13.2880 -32.9536 16.2011 43.7510 -2.8185
# 6 17.6015 17.5635 16.2081 -9.0542 -2.8185 31.6053
#
#
#
# Elastic Compliance Matrix: (Units=1/GPa)
#
#
# Indices 1 2 3 4 5 6 
#
# 1 0.018453 0.002621 0.001088 -0.008925 0.012513 -0.013732
# 2 0.002621 0.037173 -0.001724 -0.014676 0.015078 -0.024093
# 3 0.001088 -0.001724 0.015796 -0.009574 0.014828 -0.009168
# 4 -0.008925 -0.014676 -0.009574 0.040635 -0.029071 0.027085
# 5 0.012513 0.015078 0.014828 -0.029071 0.053410 -0.026517
# 6 -0.013732 -0.024093 -0.009168 0.027085 -0.026517 0.062773
#
#
# Mechanical properties :
#
#
# Convention : Reuss Voigt Hill
#
# Bulk Modulus (GPa) = 13.26411 42.85408 28.05909
# Shear Modulus (GPa) = 20.04804 35.25868 27.65336
#
# Velocity S-wave (km/s) = 2.83293 3.75692 3.32716
# Velocity P-wave (km/s) = 4.00130 5.99786 5.09827
#
# Compressibility (1/GPa) = 0.07539140
#
# Stress axis : x y z
#
# Youngs Moduli (GPa) = 54.19046 26.90116 63.30864
#
# Poissons Ratio (x) = -0.07052 -0.06886
# Poissons Ratio (y) = -0.14205 0.10917
# Poissons Ratio (z) = -0.05894 0.04639
#
# Static dielectric constant tensor:
#      x y z
#    x 2.114950 -0.103770 0.008490 
#    y -0.103770 2.255830 -0.004380 
#    z 0.008490 -0.004380 2.085840 
# 
# From -- ./inp_files/295543.got.cif
#   From: 2010.05.17/outbox.cif.g08.bks.cpg/sg2_148_cif.got.tgz:295543.got - 2010.06.03 11:33:40.
