data_PCOD9100301
_publ_section_title
;
Structure prediction by ZEFSAII (Michael W. Deem and Ramdas Pophale) SiO2 
 PCOD9100301
Probable space group: P -1
;
_chemical_formula_sum "Si O2"
_cell_formula_units_Z 16
_cell_length_a 12.925466
_cell_length_b 11.562900
_cell_length_c 7.906543
_cell_angle_alpha 59.317327
_cell_angle_beta 135.496398
_cell_angle_gamma 100.970065
_cell_volume 682.154519
_symmetry_space_group_name_H-M "P -1"
_symmetry_group_IT_number 2
_symmetry_cell_setting 'triclinic'
loop_
_space_group_symop_operation_xyz
x,y,z
-x,-y,-z
loop_
_atom_site_type_symbol
_atom_site_label
_atom_site_fract_x
_atom_site_fract_y
_atom_site_fract_z
Si Si1 0.076632 0.881741 0.947349
Si Si2 0.600728 0.141959 0.813346
Si Si3 0.827666 0.142096 0.545516
Si Si4 0.972932 0.402270 0.889282
Si Si5 0.698123 0.645118 0.701799
Si Si6 0.325453 0.374199 0.700875
Si Si7 0.504011 0.908035 0.742052
Si Si8 0.356636 0.632306 0.039334
O O1 0.238884 0.898767 0.067513
O O2 0.086001 0.858325 0.177606
O O3 0.058775 0.736056 0.966860
O O4 0.935987 0.019553 0.647938
O O5 0.453735 0.251414 0.471193
O O6 0.548441 0.002500 0.870280
O O7 0.628855 0.234977 0.932898
O O8 0.665354 0.109816 0.415098
O O9 0.783279 0.296206 0.299646
O O10 0.826783 0.497210 0.545174
O O11 0.000000 0.500000 0.000000
O O12 0.139989 0.353752 0.031533
O O13 0.696786 0.682929 0.472162
O O14 0.676651 0.490535 0.800824
O O15 0.372329 0.244960 0.981624
O O16 0.480006 0.423999 0.823591
O O17 0.500000 0.000000 0.500000
#
# Coordination Sequence:
#
# PCOD9100301 Si02
#       8
#     2   2   2   2   2   2   2   2
#     4  11  22  41  62  88 128 166 200 250 307 364
#     4  11  21  36  66  88 118 162 204 252 296 360
#     4  10  24  42  60  88 129 164 199 250 310 362
#     4  10  20  37  63  92 122 159 203 252 301 355
#     4  10  20  38  61  92 125 152 202 255 299 358
#     4   9  20  37  62  87 124 157 194 254 303 353
#     4  11  22  41  59  90 121 158 206 247 301 362
#     4  10  21  39  62  93 122 157 206 250 301 362
#
# _framework density 23.455096999999999
#
# number of rings (size 3 to 8) (size 9 to 14) (size 15 to 20)
#    0.000    1.750    1.250    4.500    0.000    8.000 
#    2.250    2.500    0.000    0.000    0.000    0.000 
#    0.000    0.000    0.000    0.000    0.000    0.000 
#
# Total GULP energy -89342.839593 kJ/mol
# GULP energy per Si atom -5583.927475 kJ/mol
# Density = 2.340171 g / cm^3
# Si number density = 23.455097 Si / 1000 Ang^3
#
#
#
# Elastic Constant Matrix: (Units=GPa)
#
#
# Indices 1 2 3 4 5 6 
#
# 1 56.4596 -1.9680 55.3657 -7.6196 14.6902 2.5438
# 2 -1.9680 55.8657 -1.0814 3.1237 -2.6404 9.6824
# 3 55.3657 -1.0814 155.1959 -21.5019 28.7811 8.0492
# 4 -7.6196 3.1237 -21.5019 20.3907 -0.8132 -1.5903
# 5 14.6902 -2.6404 28.7811 -0.8132 50.0766 -2.1505
# 6 2.5438 9.6824 8.0492 -1.5903 -2.1505 21.1315
#
#
#
# Elastic Compliance Matrix: (Units=1/GPa)
#
#
# Indices 1 2 3 4 5 6 
#
# 1 0.027599 0.000712 -0.009274 0.000287 -0.002740 -0.000373
# 2 0.000712 0.019760 -0.000247 -0.003724 0.000516 -0.009273
# 3 -0.009274 -0.000247 0.011875 0.008692 -0.004108 -0.003058
# 4 0.000287 -0.003724 0.008692 0.058901 -0.004218 0.002365
# 5 -0.002740 0.000516 -0.004108 -0.004218 0.023252 0.003707
# 6 -0.000373 -0.009273 -0.003058 0.002365 0.003707 0.053337
#
#
# Mechanical properties :
#
#
# Convention : Reuss Voigt Hill
#
# Bulk Modulus (GPa) = 24.02902 41.35042 32.68972
# Shear Modulus (GPa) = 22.10301 32.66677 27.38489
#
# Velocity S-wave (km/s) = 3.07311 3.73599 3.42064
# Velocity P-wave (km/s) = 4.78110 6.02312 5.43769
#
# Compressibility (1/GPa) = 0.04161634
#
# Stress axis : x y z
#
# Youngs Moduli (GPa) = 36.23309 50.60673 84.21290
#
# Poissons Ratio (x) = -0.03603 0.78096
# Poissons Ratio (y) = -0.02579 0.02080
# Poissons Ratio (z) = 0.33601 0.01250
#
# Static dielectric constant tensor:
#      x y z
#    x 1.937580 -0.067880 0.016910 
#    y -0.067880 1.899610 0.034870 
#    z 0.016910 0.034870 1.934090 
# 
# From -- ./inp_files/262460.got.cif
#   From: 2010.05.17/outbox.cif.g08.bks.cpg/sg2_132_cif.got.tgz:262460.got - 2010.06.03 11:33:40.
