data_PCOD9100462
_publ_section_title
;
Structure prediction by ZEFSAII (Michael W. Deem and Ramdas Pophale) SiO2 
 PCOD9100462
Probable space group: P -1
;
_chemical_formula_sum "Si O2"
_cell_formula_units_Z 16
_cell_length_a 14.558846
_cell_length_b 29.469781
_cell_length_c 10.732106
_cell_angle_alpha 28.708251
_cell_angle_beta 150.761780
_cell_angle_gamma 159.096215
_cell_volume 750.116958
_symmetry_space_group_name_H-M "P -1"
_symmetry_group_IT_number 2
_symmetry_cell_setting 'triclinic'
loop_
_space_group_symop_operation_xyz
x,y,z
-x,-y,-z
loop_
_atom_site_type_symbol
_atom_site_label
_atom_site_fract_x
_atom_site_fract_y
_atom_site_fract_z
Si Si1 0.343713 0.230665 0.302919
Si Si2 0.992623 0.998413 0.736329
Si Si3 0.731534 0.449474 0.019468
Si Si4 0.483272 0.895334 0.801342
Si Si5 0.783737 0.409110 0.572361
Si Si6 0.884808 0.697777 0.662433
Si Si7 0.242323 0.290932 0.261407
Si Si8 0.395972 0.218690 0.984173
O O1 0.522680 0.343665 0.135735
O O2 0.550034 0.263495 0.573721
O O3 0.181974 0.253500 0.133611
O O4 0.167402 0.089659 0.364497
O O5 0.797829 0.907522 0.843360
O O6 0.104646 0.144896 0.504939
O O7 0.251076 0.024250 0.995454
O O8 0.640434 0.355515 0.020281
O O9 0.032854 0.542423 0.207111
O O10 0.724597 0.559133 0.732245
O O11 0.498540 0.815152 0.913446
O O12 0.201408 0.798491 0.771929
O O13 0.500000 0.000000 0.500000
O O14 0.570947 0.412692 0.354426
O O15 0.000000 0.500000 0.500000
O O16 0.842531 0.666172 0.837233
O O17 0.775223 0.758166 0.336851
#
# Coordination Sequence:
#
# PCOD9100462 Si02
#       8
#     2   2   2   2   2   2   2   2
#     4   8  20  37  66  91 121 166 205 260 316 368
#     4  11  19  40  67  88 127 164 206 259 318 364
#     4  10  21  40  65  91 127 165 212 259 307 373
#     4  12  24  41  66  93 129 164 211 258 313 380
#     4   8  17  39  61  90 121 162 208 257 312 364
#     4  12  24  40  62  94 128 172 210 252 313 372
#     4  10  20  37  64  89 125 166 198 259 313 364
#     4  11  24  43  62  94 129 166 208 262 314 364
#
# _framework density 21.330007999999999
#
# number of rings (size 3 to 8) (size 9 to 14) (size 15 to 20)
#    0.750    1.000    2.500    2.625    0.000    1.000 
#    2.250    0.625    5.500    0.000    0.000    0.000 
#    0.000    0.000    0.000    0.000    0.000    0.000 
#
# Total GULP energy -89072.729037 kJ/mol
# GULP energy per Si atom -5567.045565 kJ/mol
# Density = 2.128146 g / cm^3
# Si number density = 21.330008 Si / 1000 Ang^3
#
#
#
# Elastic Constant Matrix: (Units=GPa)
#
#
# Indices 1 2 3 4 5 6 
#
# 1 118.4158 46.2713 9.9675 21.8732 15.0803 7.2992
# 2 46.2713 103.4472 21.3484 18.2405 3.9717 -16.3565
# 3 9.9675 21.3484 40.8513 10.0734 13.3993 -5.9712
# 4 21.8732 18.2405 10.0734 29.5939 -3.4196 -9.1420
# 5 15.0803 3.9717 13.3993 -3.4196 23.0842 2.8845
# 6 7.2992 -16.3565 -5.9712 -9.1420 2.8845 36.7679
#
#
#
# Elastic Compliance Matrix: (Units=1/GPa)
#
#
# Indices 1 2 3 4 5 6 
#
# 1 0.014849 -0.006216 0.006143 -0.012891 -0.013247 -0.006882
# 2 -0.006216 0.014606 -0.006878 0.000450 0.004814 0.006349
# 3 0.006143 -0.006878 0.040327 -0.017287 -0.028828 0.000233
# 4 -0.012891 0.000450 -0.017287 0.055465 0.025124 0.011772
# 5 -0.013247 0.004814 -0.028828 0.025124 0.071509 0.000726
# 6 -0.006882 0.006349 0.000233 0.011772 0.000726 0.034296
#
#
# Mechanical properties :
#
#
# Convention : Reuss Voigt Hill
#
# Bulk Modulus (GPa) = 17.89548 46.43210 32.16379
# Shear Modulus (GPa) = 18.96944 30.23099 24.60022
#
# Velocity S-wave (km/s) = 2.98540 3.76879 3.39973
# Velocity P-wave (km/s) = 4.50461 6.38389 5.52474
#
# Compressibility (1/GPa) = 0.05588003
#
# Stress axis : x y z
#
# Youngs Moduli (GPa) = 67.34449 68.46372 24.79730
#
# Poissons Ratio (x) = 0.42557 -0.15234
# Poissons Ratio (y) = 0.41862 0.17056
# Poissons Ratio (z) = -0.41371 0.47091
#
# Static dielectric constant tensor:
#      x y z
#    x 1.815630 0.003170 0.001450 
#    y 0.003170 1.773230 -0.026780 
#    z 0.001450 -0.026780 1.836530 
# 
# From -- ./inp_files/458377.got.cif
#   From: 2010.05.17/outbox.cif.g08.bks.cpg/sg2_230_cif.got.tgz:458377.got - 2010.06.03 11:33:40.
