data_PCOD9100870
_publ_section_title
;
Structure prediction by ZEFSAII (Michael W. Deem and Ramdas Pophale) SiO2 
 PCOD9100870
Probable space group: P -1
;
_chemical_formula_sum "Si O2"
_cell_formula_units_Z 14
_cell_length_a 9.705349
_cell_length_b 11.261726
_cell_length_c 11.464133
_cell_angle_alpha 51.456379
_cell_angle_beta 113.869897
_cell_angle_gamma 141.288169
_cell_volume 604.334748
_symmetry_space_group_name_H-M "P -1"
_symmetry_group_IT_number 2
_symmetry_cell_setting 'triclinic'
loop_
_space_group_symop_operation_xyz
x,y,z
-x,-y,-z
loop_
_atom_site_type_symbol
_atom_site_label
_atom_site_fract_x
_atom_site_fract_y
_atom_site_fract_z
Si Si1 0.009307 0.699092 0.615173
Si Si2 0.584358 0.249046 0.087280
Si Si3 0.471021 0.621170 0.249049
Si Si4 0.074219 0.386146 0.849228
Si Si5 0.198784 0.408538 0.628429
Si Si6 0.704359 0.077002 0.093640
Si Si7 0.490490 0.924184 0.413385
O O1 0.789530 0.584038 0.682179
O O2 0.973442 0.728448 0.452855
O O3 0.010677 0.515823 0.727122
O O4 0.249612 0.931710 0.602017
O O5 0.690893 0.427548 0.116519
O O6 0.763000 0.260487 0.086142
O O7 0.430202 0.009941 0.245861
O O8 0.507702 0.296369 0.925914
O O9 0.606531 0.568471 0.337095
O O10 0.592568 0.836593 0.242167
O O11 0.094478 0.315997 0.777550
O O12 0.902603 0.191497 0.002885
O O13 0.315174 0.659776 0.510518
O O14 0.500000 0.000000 0.000000
O O15 0.500000 0.000000 0.500000
#
# Coordination Sequence:
#
# PCOD9100870 Si02
#       7
#     2   2   2   2   2   2   2
#     4  11  23  43  68  96 132 176 227 260 321 403
#     4  10  21  40  69  93 130 162 230 269 305 407
#     4  11  25  43  65 101 131 177 212 275 342 372
#     4  11  22  40  68 100 121 177 222 271 327 376
#     4  12  26  45  65  99 145 164 217 282 328 393
#     4  10  20  37  66  95 122 173 220 263 317 394
#     4  11  24  41  69 101 123 179 221 261 334 383
#
# _framework density 23.165969
#
# number of rings (size 3 to 8) (size 9 to 14) (size 15 to 20)
#    0.000    1.143    5.714    2.143    4.000    1.714 
#    2.571    0.000    0.000    0.000    0.000    0.000 
#    0.000    0.000    0.000    0.000    0.000    0.000 
#
# Total GULP energy -78235.251488 kJ/mol
# GULP energy per Si atom -5588.232249 kJ/mol
# Density = 2.311324 g / cm^3
# Si number density = 23.165969 Si / 1000 Ang^3
#
#
#
# Elastic Constant Matrix: (Units=GPa)
#
#
# Indices 1 2 3 4 5 6 
#
# 1 49.7673 -0.1471 -7.8547 2.1073 -1.3425 6.5527
# 2 -0.1471 57.5459 18.6963 15.3292 6.5365 8.7440
# 3 -7.8547 18.6963 63.4773 16.8321 -6.5207 -1.8562
# 4 2.1073 15.3292 16.8321 38.7952 9.7810 -8.4373
# 5 -1.3425 6.5365 -6.5207 9.7810 25.4507 0.4662
# 6 6.5527 8.7440 -1.8562 -8.4373 0.4662 23.8123
#
#
#
# Elastic Compliance Matrix: (Units=1/GPa)
#
#
# Indices 1 2 3 4 5 6 
#
# 1 0.022352 0.001187 0.004422 -0.006689 0.004737 -0.008705
# 2 0.001187 0.023814 -0.005225 -0.009016 -0.003697 -0.012601
# 3 0.004422 -0.005225 0.021849 -0.010892 0.011390 -0.001677
# 4 -0.006689 -0.009016 -0.010892 0.043267 -0.017822 0.019982
# 5 0.004737 -0.003697 0.011390 -0.017822 0.050375 -0.006359
# 6 -0.008705 -0.012601 -0.001677 0.019982 -0.006359 0.056092
#
#
# Mechanical properties :
#
#
# Convention : Reuss Voigt Hill
#
# Bulk Modulus (GPa) = 14.53830 21.35327 17.94579
# Shear Modulus (GPa) = 20.84138 28.28470 24.56304
#
# Velocity S-wave (km/s) = 3.00268 3.49801 3.25977
# Velocity P-wave (km/s) = 4.27911 5.05493 4.68311
#
# Compressibility (1/GPa) = 0.06878383
#
# Stress axis : x y z
#
# Youngs Moduli (GPa) = 44.73836 41.99187 45.76909
#
# Poissons Ratio (x) = -0.04984 -0.20240
# Poissons Ratio (y) = -0.05310 0.23913
# Poissons Ratio (z) = -0.19784 0.21940
#
# Static dielectric constant tensor:
#      x y z
#    x 1.876970 -0.020780 -0.064360 
#    y -0.020780 1.938870 0.035630 
#    z -0.064360 0.035630 1.928690 
# 
# From -- ./inp_files/381385.got.cif
#   From: 2010.05.17/outbox.cif.g08.bks.cpg/sg2_191_cif.got.tgz:381385.got - 2010.06.03 11:33:40.
