data_PCOD9100711
_publ_section_title
;
Structure prediction by ZEFSAII (Michael W. Deem and Ramdas Pophale) SiO2 
 PCOD9100711
Probable space group: P -1
;
_chemical_formula_sum "Si O2"
_cell_formula_units_Z 14
_cell_length_a 11.422599
_cell_length_b 7.950075
_cell_length_c 8.101552
_cell_angle_alpha 116.274489
_cell_angle_beta 104.600298
_cell_angle_gamma 105.619812
_cell_volume 573.621105
_symmetry_space_group_name_H-M "P -1"
_symmetry_group_IT_number 2
_symmetry_cell_setting 'triclinic'
loop_
_space_group_symop_operation_xyz
x,y,z
-x,-y,-z
loop_
_atom_site_type_symbol
_atom_site_label
_atom_site_fract_x
_atom_site_fract_y
_atom_site_fract_z
Si Si1 0.610089 0.558291 0.283658
Si Si2 0.745522 0.811027 0.719968
Si Si3 0.921777 0.641666 0.894219
Si Si4 0.199851 0.767616 0.161694
Si Si5 0.866337 0.823931 0.290897
Si Si6 0.363329 0.110139 0.947777
Si Si7 0.491615 0.878400 0.275002
O O1 0.639156 0.602220 0.506807
O O2 0.759421 0.644346 0.294054
O O3 0.497679 0.332058 0.099504
O O4 0.545230 0.709924 0.266605
O O5 0.865901 0.760968 0.803797
O O6 0.687950 0.894776 0.886496
O O7 0.781142 0.000269 0.685830
O O8 0.839019 0.392205 0.768476
O O9 0.907658 0.719030 0.107100
O O10 0.076904 0.692879 0.956457
O O11 0.333782 0.770424 0.136534
O O12 0.768585 0.910539 0.208153
O O13 0.000000 0.000000 0.500000
O O14 0.423585 0.989985 0.795924
O O15 0.500000 0.000000 0.500000
#
# Coordination Sequence:
#
# PCOD9100711 Si02
#       7
#     2   2   2   2   2   2   2
#     4  11  21  41  66  97 132 176 220 273 331 397
#     4  11  22  41  68  97 130 174 225 268 327 399
#     4  10  23  41  66  94 132 174 219 272 333 395
#     4  11  22  40  65  95 134 169 217 274 336 384
#     4  10  20  37  65  92 126 175 227 265 327 397
#     4  10  23  39  63  95 132 174 222 271 331 397
#     4  11  21  38  62  95 131 169 217 272 328 389
#
# _framework density 24.406354
#
# number of rings (size 3 to 8) (size 9 to 14) (size 15 to 20)
#    0.000    1.429    1.429    6.000    2.000    1.714 
#    0.000    0.000    0.000    7.714    0.000    0.000 
#    0.000    0.000    0.000    0.000    0.000    0.000 
#
# Total GULP energy -78110.943031 kJ/mol
# GULP energy per Si atom -5579.353074 kJ/mol
# Density = 2.435080 g / cm^3
# Si number density = 24.406354 Si / 1000 Ang^3
#
#
#
# Elastic Constant Matrix: (Units=GPa)
#
#
# Indices 1 2 3 4 5 6 
#
# 1 167.2326 28.1037 47.2581 -6.4351 27.0372 4.1622
# 2 28.1037 62.0906 31.0130 13.4549 15.3221 -11.6405
# 3 47.2581 31.0130 127.9889 -0.3576 11.3499 2.3754
# 4 -6.4351 13.4549 -0.3576 25.1301 5.5194 -0.1115
# 5 27.0372 15.3221 11.3499 5.5194 46.4844 -1.2012
# 6 4.1622 -11.6405 2.3754 -0.1115 -1.2012 32.4988
#
#
#
# Elastic Compliance Matrix: (Units=1/GPa)
#
#
# Indices 1 2 3 4 5 6 
#
# 1 0.007816 -0.003112 -0.001754 0.004440 -0.003673 -0.002108
# 2 -0.003112 0.025710 -0.004986 -0.013809 -0.003554 0.009793
# 3 -0.001754 -0.004986 0.009722 0.002359 -0.000049 -0.002265
# 4 0.004440 -0.013809 0.002359 0.049345 -0.004613 -0.005688
# 5 -0.003673 -0.003554 -0.000049 -0.004613 0.025384 0.000123
# 6 -0.002108 0.009793 -0.002265 -0.005688 0.000123 0.034699
#
#
# Mechanical properties :
#
#
# Convention : Reuss Voigt Hill
#
# Bulk Modulus (GPa) = 42.47577 63.34019 52.90798
# Shear Modulus (GPa) = 27.74281 37.55181 32.64731
#
# Velocity S-wave (km/s) = 3.37516 3.92676 3.66137
# Velocity P-wave (km/s) = 5.71229 6.82407 6.29279
#
# Compressibility (1/GPa) = 0.02354284
#
# Stress axis : x y z
#
# Youngs Moduli (GPa) = 127.94764 38.89560 102.85900
#
# Poissons Ratio (x) = 0.12105 0.18046
# Poissons Ratio (y) = 0.39819 0.51284
# Poissons Ratio (z) = 0.22448 0.19393
#
# Static dielectric constant tensor:
#      x y z
#    x 1.975100 0.066570 -0.027070 
#    y 0.066570 2.066480 -0.022760 
#    z -0.027070 -0.022760 2.004410 
# 
# From -- ./inp_files/158804.got.cif
#   From: 2010.05.17/outbox.cif.g08.bks.cpg/sg2_80_cif.got.tgz:158804.got - 2010.06.03 11:33:40.
