data_PCOD9100201
_publ_section_title
;
Structure prediction by ZEFSAII (Michael W. Deem and Ramdas Pophale) SiO2 
 PCOD9100201
Probable space group: P -1
;
_chemical_formula_sum "Si O2"
_cell_formula_units_Z 12
_cell_length_a 13.534472
_cell_length_b 5.093738
_cell_length_c 17.502377
_cell_angle_alpha 63.450844
_cell_angle_beta 150.924599
_cell_angle_gamma 116.720116
_cell_volume 519.690303
_symmetry_space_group_name_H-M "P -1"
_symmetry_group_IT_number 2
_symmetry_cell_setting 'triclinic'
loop_
_space_group_symop_operation_xyz
x,y,z
-x,-y,-z
loop_
_atom_site_type_symbol
_atom_site_label
_atom_site_fract_x
_atom_site_fract_y
_atom_site_fract_z
Si Si1 0.685980 0.343860 0.677243
Si Si2 0.083176 0.667138 0.421173
Si Si3 0.934173 0.964107 0.784912
Si Si4 0.740680 0.258081 0.309582
Si Si5 0.215195 0.093662 0.089915
Si Si6 0.458428 0.392155 0.753451
O O1 0.500000 0.500000 0.500000
O O2 0.858639 0.615484 0.780531
O O3 0.769884 0.137897 0.696245
O O4 0.639324 0.131582 0.747209
O O5 0.111843 0.789964 0.511523
O O6 0.890251 0.409464 0.326368
O O7 0.292366 0.522721 0.569187
O O8 0.942632 0.085235 0.689430
O O9 0.146834 0.048063 0.962610
O O10 0.597023 0.956027 0.236932
O O11 0.603273 0.491650 0.220204
O O12 0.321216 0.422886 0.136984
O O13 0.000000 0.000000 0.000000
#
# Coordination Sequence:
#
# PCOD9100201 Si02
#       6
#     2   2   2   2   2   2
#     4  11  24  42  63  91 122 165 218 258 304 367
#     4   9  21  38  64  91 123 154 212 253 316 356
#     4  11  24  39  63  93 125 166 201 262 314 372
#     4   9  21  36  65  89 122 156 206 266 300 362
#     4  10  24  44  61  89 134 168 203 256 316 368
#     4  10  20  37  63  87 118 168 207 246 309 367
#
# _framework density 23.090674
#
# number of rings (size 3 to 8) (size 9 to 14) (size 15 to 20)
#    1.000    1.000    0.000    2.500    2.333    6.667 
#    0.000    1.667    0.000    0.000    0.000    0.000 
#    0.000    0.000    0.000    0.000    0.000    0.000 
#
# Total GULP energy -67028.534860 kJ/mol
# GULP energy per Si atom -5585.711238 kJ/mol
# Density = 2.303812 g / cm^3
# Si number density = 23.090674 Si / 1000 Ang^3
#
#
#
# Elastic Constant Matrix: (Units=GPa)
#
#
# Indices 1 2 3 4 5 6 
#
# 1 40.8785 34.7965 7.9140 8.0150 7.7148 6.4021
# 2 34.7965 168.2313 17.1194 35.9681 9.9577 0.5022
# 3 7.9140 17.1194 63.2552 4.0176 14.0478 8.8439
# 4 8.0150 35.9681 4.0176 38.9071 8.8158 11.8018
# 5 7.7148 9.9577 14.0478 8.8158 31.6530 4.3529
# 6 6.4021 0.5022 8.8439 11.8018 4.3529 28.2281
#
#
#
# Elastic Compliance Matrix: (Units=1/GPa)
#
#
# Indices 1 2 3 4 5 6 
#
# 1 0.032002 -0.007013 -0.000027 0.003484 -0.005488 -0.007735
# 2 -0.007013 0.009475 -0.002235 -0.009155 0.001484 0.005721
# 3 -0.000027 -0.002235 0.018784 0.003791 -0.007828 -0.006217
# 4 0.003484 -0.009155 0.003791 0.040233 -0.008474 -0.017329
# 5 -0.005488 0.001484 -0.007828 -0.008474 0.038114 0.001336
# 6 -0.007735 0.005721 -0.006217 -0.017329 0.001336 0.046065
#
#
# Mechanical properties :
#
#
# Convention : Reuss Voigt Hill
#
# Bulk Modulus (GPa) = 23.97443 43.55832 33.76637
# Shear Modulus (GPa) = 23.02811 33.92665 28.47738
#
# Velocity S-wave (km/s) = 3.16142 3.83728 3.51563
# Velocity P-wave (km/s) = 4.87148 6.20789 5.57984
#
# Compressibility (1/GPa) = 0.04171111
#
# Stress axis : x y z
#
# Youngs Moduli (GPa) = 31.24816 105.54452 53.23691
#
# Poissons Ratio (x) = 0.74022 0.00142
# Poissons Ratio (y) = 0.21915 0.11897
# Poissons Ratio (z) = 0.00084 0.23585
#
# Static dielectric constant tensor:
#      x y z
#    x 1.958350 -0.037580 0.039450 
#    y -0.037580 1.827690 0.005470 
#    z 0.039450 0.005470 1.909320 
# 
# From -- ./inp_files/571507.got.cif
#   From: 2010.05.17/outbox.cif.g08.bks.cpg/sg2_286_cif.got.tgz:571507.got - 2010.06.03 11:33:40.
