data_PCOD9100530
_publ_section_title
;
Structure prediction by ZEFSAII (Michael W. Deem and Ramdas Pophale) SiO2 
 PCOD9100530
Probable space group: P -1
;
_chemical_formula_sum "Si O2"
_cell_formula_units_Z 14
_cell_length_a 10.479730
_cell_length_b 11.753620
_cell_length_c 9.218423
_cell_angle_alpha 79.467446
_cell_angle_beta 109.962907
_cell_angle_gamma 48.820322
_cell_volume 656.539804
_symmetry_space_group_name_H-M "P -1"
_symmetry_group_IT_number 2
_symmetry_cell_setting 'triclinic'
loop_
_space_group_symop_operation_xyz
x,y,z
-x,-y,-z
loop_
_atom_site_type_symbol
_atom_site_label
_atom_site_fract_x
_atom_site_fract_y
_atom_site_fract_z
Si Si1 0.939643 0.729266 0.964104
Si Si2 0.035467 0.881464 0.164537
Si Si3 0.650172 0.699517 0.878100
Si Si4 0.548302 0.463940 0.271739
Si Si5 0.679051 0.232174 0.120470
Si Si6 0.390392 0.949758 0.451261
Si Si7 0.474766 0.367043 0.531100
O O1 0.758575 0.753188 0.933004
O O2 0.840501 0.868894 0.756030
O O3 0.980228 0.793840 0.093966
O O4 0.147733 0.514328 0.047922
O O5 0.279084 0.750685 0.332826
O O6 0.877989 0.020284 0.202423
O O7 0.000000 0.000000 0.000000
O O8 0.534640 0.705801 0.959625
O O9 0.569537 0.547295 0.662562
O O10 0.701736 0.291580 0.262716
O O11 0.517128 0.775854 0.435994
O O12 0.644054 0.498624 0.407990
O O13 0.375017 0.641297 0.058427
O O14 0.447237 0.854050 0.650879
O O15 0.500000 0.000000 0.500000
#
# Coordination Sequence:
#
# PCOD9100530 Si02
#       7
#     2   2   2   2   2   2   2
#     4  10  22  41  64  92 123 169 206 255 308 384
#     4  12  23  37  60  91 128 163 205 255 320 368
#     4  10  22  41  66  89 124 165 213 254 313 362
#     4  10  22  35  61  90 117 163 199 255 311 365
#     4  11  22  39  59  96 125 159 206 266 309 360
#     4  10  20  37  64  93 122 165 212 250 301 375
#     4  11  21  40  60  89 127 164 205 252 315 378
#
# _framework density 21.323915
#
# number of rings (size 3 to 8) (size 9 to 14) (size 15 to 20)
#    0.000    1.429    4.286    0.857    4.000    1.143 
#    2.571    0.000    0.000    0.857    0.000    0.000 
#    0.000    0.000    0.000    0.000    0.000    0.000 
#
# Total GULP energy -77949.555220 kJ/mol
# GULP energy per Si atom -5567.825373 kJ/mol
# Density = 2.127538 g / cm^3
# Si number density = 21.323915 Si / 1000 Ang^3
#
#
#
# Elastic Constant Matrix: (Units=GPa)
#
#
# Indices 1 2 3 4 5 6 
#
# 1 73.9930 50.2644 29.8342 10.4936 7.7986 11.9839
# 2 50.2644 136.1513 41.6669 27.6296 0.3266 19.7918
# 3 29.8342 41.6669 103.3219 3.4933 -2.6283 5.3685
# 4 10.4936 27.6296 3.4933 44.6732 8.4548 4.1754
# 5 7.7986 0.3266 -2.6283 8.4548 30.3493 1.7400
# 6 11.9839 19.7918 5.3685 4.1754 1.7400 43.7783
#
#
#
# Elastic Compliance Matrix: (Units=1/GPa)
#
#
# Indices 1 2 3 4 5 6 
#
# 1 0.019817 -0.006105 -0.003307 0.000590 -0.005357 -0.002102
# 2 -0.006105 0.012091 -0.002671 -0.006139 0.003090 -0.003005
# 3 -0.003307 -0.002671 0.011683 0.001178 0.001533 0.000507
# 4 0.000590 -0.006139 0.001178 0.027378 -0.007620 0.000161
# 5 -0.005357 0.003090 0.001533 -0.007620 0.036597 -0.000846
# 6 -0.002102 -0.003005 0.000507 0.000161 -0.000846 0.024732
#
#
# Mechanical properties :
#
#
# Convention : Reuss Voigt Hill
#
# Bulk Modulus (GPa) = 51.47925 61.88857 56.68391
# Shear Modulus (GPa) = 30.68598 36.54022 33.61310
#
# Velocity S-wave (km/s) = 3.79758 4.14403 3.97458
# Velocity P-wave (km/s) = 6.58960 7.20995 6.90674
#
# Compressibility (1/GPa) = 0.01942530
#
# Stress axis : x y z
#
# Youngs Moduli (GPa) = 50.46177 82.70377 85.59178
#
# Poissons Ratio (x) = 0.50492 0.28306
# Poissons Ratio (y) = 0.30808 0.22861
# Poissons Ratio (z) = 0.16688 0.22090
#
# Static dielectric constant tensor:
#      x y z
#    x 1.780610 -0.001810 0.023310 
#    y -0.001810 1.900030 -0.053300 
#    z 0.023310 -0.053300 1.953200 
# 
# From -- ./inp_files/254300.got.cif
#   From: 2010.05.17/outbox.cif.g08.bks.cpg/sg2_128_cif.got.tgz:254300.got - 2010.06.03 11:33:40.
