data_PCOD9100157
_publ_section_title
;
Structure prediction by ZEFSAII (Michael W. Deem and Ramdas Pophale) SiO2 
 PCOD9100157
Probable space group: P -1
;
_chemical_formula_sum "Si O2"
_cell_formula_units_Z 16
_cell_length_a 15.583426
_cell_length_b 11.452264
_cell_length_c 7.851621
_cell_angle_alpha 37.676532
_cell_angle_beta 74.093108
_cell_angle_gamma 51.809123
_cell_volume 601.748293
_symmetry_space_group_name_H-M "P -1"
_symmetry_group_IT_number 2
_symmetry_cell_setting 'triclinic'
loop_
_space_group_symop_operation_xyz
x,y,z
-x,-y,-z
loop_
_atom_site_type_symbol
_atom_site_label
_atom_site_fract_x
_atom_site_fract_y
_atom_site_fract_z
Si Si1 0.124623 0.702634 0.265139
Si Si2 0.534924 0.736546 0.720631
Si Si3 0.116929 0.330063 0.893888
Si Si4 0.381812 0.367361 0.596550
Si Si5 0.208883 0.750250 0.817158
Si Si6 0.899179 0.418214 0.039900
Si Si7 0.635531 0.062219 0.922107
Si Si8 0.280995 0.013062 0.648405
O O1 0.107556 0.503552 0.549322
O O2 0.239277 0.628711 0.392407
O O3 0.172430 0.663878 0.093463
O O4 0.000000 0.000000 0.000000
O O5 0.573734 0.673943 0.574947
O O6 0.652841 0.487059 0.041469
O O7 0.500000 0.000000 0.500000
O O8 0.413376 0.796342 0.744816
O O9 0.253535 0.039605 0.146373
O O10 0.014216 0.318949 0.979337
O O11 0.092890 0.498392 0.875344
O O12 0.372688 0.152289 0.871520
O O13 0.489205 0.314176 0.703388
O O14 0.124467 0.772179 0.700938
O O15 0.197603 0.971454 0.656430
O O16 0.779833 0.702154 0.703664
O O17 0.689261 0.029774 0.117330
#
# Coordination Sequence:
#
# PCOD9100157 Si02
#       8
#     2   2   2   2   2   2   2   2
#     4  10  21  42  65  97 139 178 225 279 340 407
#     4  11  19  38  63  95 134 179 224 276 339 408
#     4  10  23  41  69  99 131 182 231 289 348 413
#     4   9  19  36  64  98 131 177 230 273 340 409
#     4  11  25  40  66 101 131 180 232 278 344 418
#     4  11  23  44  67  97 136 179 234 282 352 415
#     4  10  20  37  63 100 131 173 229 281 344 406
#     4  12  23  40  67  98 139 180 225 289 344 412
#
# _framework density 26.589189999999999
#
# number of rings (size 3 to 8) (size 9 to 14) (size 15 to 20)
#    0.000    1.500    2.500    3.375    0.000    4.000 
#    0.000   10.625    0.000    0.000    0.000    0.000 
#    0.000    0.000    0.000    0.000    0.000    0.000 
#
# Total GULP energy -89408.652203 kJ/mol
# GULP energy per Si atom -5588.040763 kJ/mol
# Density = 2.652867 g / cm^3
# Si number density = 26.589190 Si / 1000 Ang^3
#
#
#
# Elastic Constant Matrix: (Units=GPa)
#
#
# Indices 1 2 3 4 5 6 
#
# 1 172.5960 53.6049 33.8565 -40.0453 -0.7661 -9.2629
# 2 53.6049 104.7154 21.1590 -13.7369 11.2624 -34.8390
# 3 33.8565 21.1590 64.1720 -31.0419 6.3013 -5.0410
# 4 -40.0453 -13.7369 -31.0419 35.3195 -8.6978 4.1203
# 5 -0.7661 11.2624 6.3013 -8.6978 44.0181 -14.8394
# 6 -9.2629 -34.8390 -5.0410 4.1203 -14.8394 56.8008
#
#
#
# Elastic Compliance Matrix: (Units=1/GPa)
#
#
# Indices 1 2 3 4 5 6 
#
# 1 0.009365 -0.004288 0.001462 0.011066 0.002894 -0.001020
# 2 -0.004288 0.014798 -0.003544 -0.003484 -0.001358 0.007961
# 3 0.001462 -0.003544 0.028061 0.025450 0.001654 -0.000859
# 4 0.011066 -0.003484 0.025450 0.064378 0.010129 -0.000097
# 5 0.002894 -0.001358 0.001654 0.010129 0.026932 0.006087
# 6 -0.001020 0.007961 -0.000859 -0.000097 0.006087 0.023843
#
#
# Mechanical properties :
#
#
# Convention : Reuss Voigt Hill
#
# Bulk Modulus (GPa) = 25.32610 62.08049 43.70330
# Shear Modulus (GPa) = 25.86944 42.75188 34.31066
#
# Velocity S-wave (km/s) = 3.12257 4.01417 3.59611
# Velocity P-wave (km/s) = 4.74828 6.69951 5.80645
#
# Compressibility (1/GPa) = 0.03948496
#
# Stress axis : x y z
#
# Youngs Moduli (GPa) = 106.78542 67.57461 35.63671
#
# Poissons Ratio (x) = 0.28977 -0.05211
# Poissons Ratio (y) = 0.45791 0.12628
# Poissons Ratio (z) = -0.15613 0.23945
#
# Static dielectric constant tensor:
#      x y z
#    x 2.522380 0.077800 -0.083870 
#    y 0.077800 2.105490 0.010290 
#    z -0.083870 0.010290 2.297320 
# 
# From -- ./inp_files/306209.got.cif
#   From: 2010.05.17/outbox.cif.g08.bks.cpg/sg2_154_cif.got.tgz:306209.got - 2010.06.03 11:33:40.
