data_PCOD9100895
_publ_section_title
;
Structure prediction by ZEFSAII (Michael W. Deem and Ramdas Pophale) SiO2 
 PCOD9100895
Probable space group: P -1
;
_chemical_formula_sum "Si O2"
_cell_formula_units_Z 14
_cell_length_a 8.448120
_cell_length_b 28.406026
_cell_length_c 5.232763
_cell_angle_alpha 66.189302
_cell_angle_beta 111.446150
_cell_angle_gamma 153.520672
_cell_volume 512.220683
_symmetry_space_group_name_H-M "P -1"
_symmetry_group_IT_number 2
_symmetry_cell_setting 'triclinic'
loop_
_space_group_symop_operation_xyz
x,y,z
-x,-y,-z
loop_
_atom_site_type_symbol
_atom_site_label
_atom_site_fract_x
_atom_site_fract_y
_atom_site_fract_z
Si Si1 0.485206 0.205943 0.573683
Si Si2 0.536984 0.915386 0.070751
Si Si3 0.279166 0.288042 0.596206
Si Si4 0.110482 0.659669 0.988415
Si Si5 0.523249 0.461724 0.376953
Si Si6 0.450046 0.041108 0.519709
Si Si7 0.782665 0.767627 0.820881
O O1 0.444005 0.134520 0.672449
O O2 0.174349 0.164441 0.428734
O O3 0.620521 0.245671 0.855014
O O4 0.753787 0.299874 0.312209
O O5 0.700844 0.997507 0.196138
O O6 0.705141 0.962711 0.783837
O O7 0.138633 0.830003 0.958587
O O8 0.403666 0.374570 0.599368
O O9 0.433859 0.319169 0.337226
O O10 0.857666 0.169378 0.545380
O O11 0.386483 0.274856 0.903201
O O12 0.902028 0.559967 0.241652
O O13 0.768024 0.606645 0.868049
O O14 0.500000 0.500000 0.500000
O O15 0.500000 0.000000 0.500000
#
# Coordination Sequence:
#
# PCOD9100895 Si02
#       7
#     2   2   2   2   2   2   2
#     4  12  22  41  64  94 124 167 214 259 303 370
#     4  10  21  38  65  92 126 168 205 245 330 371
#     4  10  22  39  61  87 124 171 204 248 333 366
#     4  11  23  35  60  91 121 163 214 260 299 365
#     4  11  23  39  64  90 128 168 211 263 310 368
#     4  10  20  37  66  97 123 157 209 260 306 377
#     4  10  22  39  63  90 126 166 206 261 307 372
#
# _framework density 27.331966999999999
#
# number of rings (size 3 to 8) (size 9 to 14) (size 15 to 20)
#    0.000    1.429    1.429    5.571    4.000    0.000 
#    0.000    4.286    0.000   20.571    0.000    0.000 
#    0.000    0.000    0.000    0.000    0.000    0.000 
#
# Total GULP energy -78109.390295 kJ/mol
# GULP energy per Si atom -5579.242164 kJ/mol
# Density = 2.726976 g / cm^3
# Si number density = 27.331967 Si / 1000 Ang^3
#
#
#
# Elastic Constant Matrix: (Units=GPa)
#
#
# Indices 1 2 3 4 5 6 
#
# 1 100.1165 37.0637 46.4282 8.0941 -8.1265 -8.1140
# 2 37.0637 86.6369 53.9593 7.5606 9.1303 -35.7387
# 3 46.4282 53.9593 207.6498 25.4719 -14.1434 -28.2564
# 4 8.0941 7.5606 25.4719 55.9955 -15.1676 -7.9631
# 5 -8.1265 9.1303 -14.1434 -15.1676 60.5418 0.9095
# 6 -8.1140 -35.7387 -28.2564 -7.9631 0.9095 46.8034
#
#
#
# Elastic Compliance Matrix: (Units=1/GPa)
#
#
# Indices 1 2 3 4 5 6 
#
# 1 0.012949 -0.006256 -0.001573 -0.000189 0.002320 -0.003559
# 2 -0.006256 0.022493 -0.002805 -0.000196 -0.005153 0.014464
# 3 -0.001573 -0.002805 0.006348 -0.001794 0.001229 0.001089
# 4 -0.000189 -0.000196 -0.001794 0.020282 0.004635 0.002095
# 5 0.002320 -0.005153 0.001229 0.004635 0.019090 -0.002373
# 6 -0.003559 0.014464 0.001089 0.002095 -0.002373 0.032854
#
#
# Mechanical properties :
#
#
# Convention : Reuss Voigt Hill
#
# Bulk Modulus (GPa) = 48.72740 74.36729 61.54735
# Shear Modulus (GPa) = 35.18061 49.79827 42.48944
#
# Velocity S-wave (km/s) = 3.59159 4.27310 3.94708
# Velocity P-wave (km/s) = 5.92166 7.18427 6.58331
#
# Compressibility (1/GPa) = 0.02052233
#
# Stress axis : x y z
#
# Youngs Moduli (GPa) = 77.22618 44.45906 157.52435
#
# Poissons Ratio (x) = 0.27816 0.24771
# Poissons Ratio (y) = 0.48316 0.44182
# Poissons Ratio (z) = 0.12144 0.12470
#
# Static dielectric constant tensor:
#      x y z
#    x 2.541510 0.280220 -0.193980 
#    y 0.280220 2.407930 -0.251500 
#    z -0.193980 -0.251500 2.282710 
# 
# From -- ./inp_files/54733.got.cif
#   From: 2010.05.17/outbox.cif.g08.bks.cpg/sg2_28_cif.got.tgz:54733.got - 2010.06.03 11:33:40.
