data_PCOD9100890
_publ_section_title
;
Structure prediction by ZEFSAII (Michael W. Deem and Ramdas Pophale) SiO2 
 PCOD9100890
Probable space group: P -1
;
_chemical_formula_sum "Si O2"
_cell_formula_units_Z 16
_cell_length_a 8.210127
_cell_length_b 11.557890
_cell_length_c 8.437546
_cell_angle_alpha 84.669070
_cell_angle_beta 125.028723
_cell_angle_gamma 93.948829
_cell_volume 652.672282
_symmetry_space_group_name_H-M "P -1"
_symmetry_group_IT_number 2
_symmetry_cell_setting 'triclinic'
loop_
_space_group_symop_operation_xyz
x,y,z
-x,-y,-z
loop_
_atom_site_type_symbol
_atom_site_label
_atom_site_fract_x
_atom_site_fract_y
_atom_site_fract_z
Si Si1 0.344249 0.133178 0.939874
Si Si2 0.153156 0.135584 0.486093
Si Si3 0.687135 0.643081 0.616694
Si Si4 0.055920 0.293623 0.967727
Si Si5 0.831371 0.086283 0.959416
Si Si6 0.684394 0.077666 0.549725
Si Si7 0.236260 0.583600 0.461778
Si Si8 0.721741 0.242070 0.273383
O O1 0.258958 0.125915 0.716205
O O2 0.198046 0.210945 0.954864
O O3 0.555672 0.206052 0.054974
O O4 0.317260 0.000633 0.014388
O O5 0.280028 0.226963 0.442733
O O6 0.932708 0.183357 0.372627
O O7 0.152363 0.010057 0.417108
O O8 0.455871 0.616010 0.515410
O O9 0.776283 0.555110 0.548033
O O10 0.804021 0.627336 0.850361
O O11 0.939432 0.209705 0.042394
O O12 0.924271 0.361036 0.755701
O O13 0.738844 0.131217 0.739008
O O14 0.000000 0.000000 0.000000
O O15 0.630489 0.169533 0.378603
O O16 0.500000 0.000000 0.500000
O O17 0.235086 0.633019 0.635588
#
# Coordination Sequence:
#
# PCOD9100890 Si02
#       8
#     2   2   2   2   2   2   2   2
#     4  11  23  42  65 101 141 179 215 270 337 404
#     4  12  27  44  64 102 141 175 224 273 337 402
#     4  11  26  44  71 101 131 175 235 280 326 399
#     4  11  21  42  71  99 131 174 230 278 330 390
#     4  10  20  37  66  96 132 177 218 267 330 396
#     4  12  23  43  68  94 135 180 220 273 327 394
#     4  11  23  46  75  97 128 179 231 281 334 389
#     4  12  23  43  69  98 142 178 215 282 339 391
#
# _framework density 24.514596999999998
#
# number of rings (size 3 to 8) (size 9 to 14) (size 15 to 20)
#    0.000    0.750    5.000    3.750    0.000    3.000 
#    2.250    0.625    0.000    0.000    0.000    0.000 
#    0.000    0.000    0.000    0.000    0.000    0.000 
#
# Total GULP energy -89411.361667 kJ/mol
# GULP energy per Si atom -5588.210104 kJ/mol
# Density = 2.445880 g / cm^3
# Si number density = 24.514597 Si / 1000 Ang^3
#
#
#
# Elastic Constant Matrix: (Units=GPa)
#
#
# Indices 1 2 3 4 5 6 
#
# 1 72.1376 -1.1787 24.9215 6.0776 14.1961 -9.9858
# 2 -1.1787 67.9547 14.1161 12.3453 3.8425 -28.0294
# 3 24.9215 14.1161 150.6396 25.8574 2.3826 -8.5555
# 4 6.0776 12.3453 25.8574 25.4848 -5.7036 -6.2880
# 5 14.1961 3.8425 2.3826 -5.7036 40.1246 -0.1638
# 6 -9.9858 -28.0294 -8.5555 -6.2880 -0.1638 38.9133
#
#
#
# Elastic Compliance Matrix: (Units=1/GPa)
#
#
# Indices 1 2 3 4 5 6 
#
# 1 0.017305 0.004611 -0.002092 -0.004178 -0.007007 0.006598
# 2 0.004611 0.023719 -0.000370 -0.009248 -0.005127 0.016671
# 3 -0.002092 -0.000370 0.008411 -0.008120 -0.000879 -0.000270
# 4 -0.004178 -0.009248 -0.008120 0.055210 0.010692 -0.000552
# 5 -0.007007 -0.005127 -0.000879 0.010692 0.029449 -0.003833
# 6 0.006598 0.016671 -0.000270 -0.000552 -0.003833 0.039234
#
#
# Mechanical properties :
#
#
# Convention : Reuss Voigt Hill
#
# Bulk Modulus (GPa) = 18.61063 40.71663 29.66363
# Shear Modulus (GPa) = 26.74631 37.76274 32.25452
#
# Velocity S-wave (km/s) = 3.30667 3.92907 3.63123
# Velocity P-wave (km/s) = 4.71029 6.10153 5.45048
#
# Compressibility (1/GPa) = 0.05373274
#
# Stress axis : x y z
#
# Youngs Moduli (GPa) = 57.78775 42.16064 118.88500
#
# Poissons Ratio (x) = -0.19442 0.24874
# Poissons Ratio (y) = -0.26648 0.04401
# Poissons Ratio (z) = 0.12091 0.01561
#
# Static dielectric constant tensor:
#      x y z
#    x 1.985190 -0.070830 -0.071060 
#    y -0.070830 1.996560 0.036380 
#    z -0.071060 0.036380 1.883180 
# 
# From -- ./inp_files/187086.got.cif
#   From: 2010.05.17/outbox.cif.g08.bks.cpg/sg2_94_cif.got.tgz:187086.got - 2010.06.03 11:33:40.
