data_PCOD9100303
_publ_section_title
;
Structure prediction by ZEFSAII (Michael W. Deem and Ramdas Pophale) SiO2 
 PCOD9100303
Probable space group: P -1
;
_chemical_formula_sum "Si O2"
_cell_formula_units_Z 16
_cell_length_a 9.128630
_cell_length_b 10.996505
_cell_length_c 20.344346
_cell_angle_alpha 45.253351
_cell_angle_beta 79.527218
_cell_angle_gamma 42.780047
_cell_volume 708.956077
_symmetry_space_group_name_H-M "P -1"
_symmetry_group_IT_number 2
_symmetry_cell_setting 'triclinic'
loop_
_space_group_symop_operation_xyz
x,y,z
-x,-y,-z
loop_
_atom_site_type_symbol
_atom_site_label
_atom_site_fract_x
_atom_site_fract_y
_atom_site_fract_z
Si Si1 0.141780 0.543872 0.403856
Si Si2 0.160211 0.587221 0.678437
Si Si3 0.163733 0.470886 0.092666
Si Si4 0.237878 0.407768 0.880036
Si Si5 0.296764 0.085501 0.822179
Si Si6 0.593978 0.069787 0.338438
Si Si7 0.788340 0.046752 0.992970
Si Si8 0.412915 0.708154 0.617481
O O1 0.353398 0.171475 0.544459
O O2 0.337684 0.503486 0.376962
O O3 0.932191 0.703164 0.299154
O O4 0.918462 0.799638 0.385121
O O5 0.064791 0.624799 0.744826
O O6 0.340537 0.243063 0.770156
O O7 0.341834 0.580011 0.674043
O O8 0.886341 0.897970 0.533963
O O9 0.002379 0.447401 0.109515
O O10 0.898610 0.863226 0.983892
O O11 0.382348 0.303680 0.079890
O O12 0.369068 0.278589 0.215622
O O13 0.500000 0.000000 0.000000
O O14 0.425238 0.391061 0.890331
O O15 0.165967 0.121109 0.882941
O O16 0.507228 0.287086 0.320660
O O17 0.000000 0.000000 0.000000
#
# Coordination Sequence:
#
# PCOD9100303 Si02
#       8
#     2   2   2   2   2   2   2   2
#     4  10  21  36  63  92 119 162 203 253 300 368
#     4  11  23  41  58  94 124 165 214 249 308 370
#     4  10  22  40  66  92 120 164 202 256 309 369
#     4  10  21  42  63  89 120 161 211 248 311 368
#     4  11  22  42  64  91 123 161 214 248 310 378
#     4  10  20  37  63  92 123 158 210 242 308 370
#     4  11  25  43  65  91 123 161 205 263 312 371
#     4  11  23  38  62  88 131 167 202 258 305 360
#
# _framework density 22.568393
#
# number of rings (size 3 to 8) (size 9 to 14) (size 15 to 20)
#    0.000    1.500    3.750    1.875    3.500    1.000 
#    2.250    1.250    0.000    0.000    0.000    0.000 
#    0.000    0.000    0.000    0.000    0.000    0.000 
#
# Total GULP energy -89278.142929 kJ/mol
# GULP energy per Si atom -5579.883933 kJ/mol
# Density = 2.251703 g / cm^3
# Si number density = 22.568393 Si / 1000 Ang^3
#
#
#
# Elastic Constant Matrix: (Units=GPa)
#
#
# Indices 1 2 3 4 5 6 
#
# 1 115.9284 43.2349 14.4744 -0.8774 1.3181 -29.5023
# 2 43.2349 89.2332 8.4075 2.4872 -15.0812 -25.4749
# 3 14.4744 8.4075 62.9475 15.8680 10.8379 5.7213
# 4 -0.8774 2.4872 15.8680 22.7320 -1.6423 2.8900
# 5 1.3181 -15.0812 10.8379 -1.6423 33.7669 9.1221
# 6 -29.5023 -25.4749 5.7213 2.8900 9.1221 26.1940
#
#
#
# Elastic Compliance Matrix: (Units=1/GPa)
#
#
# Indices 1 2 3 4 5 6 
#
# 1 0.014197 -0.002949 -0.003748 0.001172 -0.004793 0.015480
# 2 -0.002949 0.017567 -0.003615 -0.000712 0.005667 0.012659
# 3 -0.003748 -0.003615 0.023138 -0.015344 -0.007333 -0.008544
# 4 0.001172 -0.000712 -0.015344 0.056121 0.008707 -0.005245
# 5 -0.004793 0.005667 -0.007333 0.008707 0.038531 -0.012665
# 6 0.015480 0.012659 -0.008544 -0.005245 -0.012665 0.074779
#
#
# Mechanical properties :
#
#
# Convention : Reuss Voigt Hill
#
# Bulk Modulus (GPa) = 29.17257 44.48252 36.82755
# Shear Modulus (GPa) = 19.50213 30.00473 24.75343
#
# Velocity S-wave (km/s) = 2.94281 3.65019 3.31542
# Velocity P-wave (km/s) = 4.94987 6.12520 5.56863
#
# Compressibility (1/GPa) = 0.03427878
#
# Stress axis : x y z
#
# Youngs Moduli (GPa) = 70.43942 56.92351 43.21898
#
# Poissons Ratio (x) = 0.16785 0.16198
# Poissons Ratio (y) = 0.20770 0.15624
# Poissons Ratio (z) = 0.26400 0.20578
#
# Static dielectric constant tensor:
#      x y z
#    x 1.865950 0.012270 0.009480 
#    y 0.012270 1.825520 -0.025570 
#    z 0.009480 -0.025570 1.888380 
# 
# From -- ./inp_files/273681.got.cif
#   From: 2010.05.17/outbox.cif.g08.bks.cpg/sg2_137_cif.got.tgz:273681.got - 2010.06.03 11:33:40.
