data_PCOD9100780
_publ_section_title
;
Structure prediction by ZEFSAII (Michael W. Deem and Ramdas Pophale) SiO2 
 PCOD9100780
Probable space group: P -1
;
_chemical_formula_sum "Si O2"
_cell_formula_units_Z 15
_cell_length_a 5.173509
_cell_length_b 20.948610
_cell_length_c 8.429599
_cell_angle_alpha 47.966357
_cell_angle_beta 62.641585
_cell_angle_gamma 67.316484
_cell_volume 598.445465
_symmetry_space_group_name_H-M "P -1"
_symmetry_group_IT_number 2
_symmetry_cell_setting 'triclinic'
loop_
_space_group_symop_operation_xyz
x,y,z
-x,-y,-z
loop_
_atom_site_type_symbol
_atom_site_label
_atom_site_fract_x
_atom_site_fract_y
_atom_site_fract_z
Si Si1 0.148260 0.338193 0.885905
Si Si2 0.922994 0.266719 0.393771
Si Si3 0.225855 0.319714 0.542112
Si Si4 0.338736 0.502297 0.206994
Si Si5 0.365330 0.884835 0.360716
Si Si6 0.261322 0.939234 0.617012
Si Si7 0.889980 0.939680 0.993923
Si Si8 0.500000 0.500000 0.500000
O O1 0.862921 0.409397 0.849526
O O2 0.168399 0.288757 0.791247
O O3 0.411792 0.397886 0.707840
O O4 0.101337 0.289124 0.147613
O O5 0.576498 0.305886 0.426219
O O6 0.879614 0.165097 0.564497
O O7 0.062151 0.292606 0.475760
O O8 0.138922 0.424204 0.406225
O O9 0.557270 0.488475 0.313641
O O10 0.500000 0.500000 0.000000
O O11 0.377111 0.869175 0.570335
O O12 0.295276 0.987423 0.183163
O O13 0.681838 0.869517 0.218403
O O14 0.151076 0.900599 0.873710
O O15 0.500000 0.000000 0.500000
O O16 0.000000 0.000000 0.500000
O O17 0.000000 0.000000 0.000000
#
# Coordination Sequence:
#
# PCOD9100780 Si02
#       8
#     2   2   2   2   2   2   2   1
#     4  11  26  43  70 100 136 182 236 293 344 405
#     4  12  28  47  67 100 147 183 226 281 352 420
#     4  11  27  44  70 100 139 183 231 281 349 415
#     4  11  22  40  70  97 127 181 229 291 341 400
#     4  10  24  42  64 101 135 178 220 278 338 405
#     4  10  20  37  65  98 125 162 215 270 319 384
#     4  10  20  40  72  96 131 171 228 275 327 396
#     4  10  22  38  68  94 130 166 232 286 338 396
#
# _framework density 25.064938999999999
#
# number of rings (size 3 to 8) (size 9 to 14) (size 15 to 20)
#    0.000    1.333    2.667    2.400    9.333    2.133 
#    0.000    0.000    0.000    0.000    0.000    0.000 
#    0.000    0.000    0.000    0.000    0.000    0.000 
#
# Total GULP energy -83516.475984 kJ/mol
# GULP energy per Si atom -5567.765066 kJ/mol
# Density = 2.500789 g / cm^3
# Si number density = 25.064939 Si / 1000 Ang^3
#
#
#
# Elastic Constant Matrix: (Units=GPa)
#
#
# Indices 1 2 3 4 5 6 
#
# 1 117.5370 31.4794 37.2762 13.2652 3.0938 38.4923
# 2 31.4794 100.7785 70.6539 41.0195 5.5091 47.0435
# 3 37.2762 70.6539 172.3656 52.8701 -5.2925 30.4826
# 4 13.2652 41.0195 52.8701 64.3322 4.5617 15.2812
# 5 3.0938 5.5091 -5.2925 4.5617 26.2965 -4.5870
# 6 38.4923 47.0435 30.4826 15.2812 -4.5870 57.6456
#
#
#
# Elastic Compliance Matrix: (Units=1/GPa)
#
#
# Indices 1 2 3 4 5 6 
#
# 1 0.011478 0.001786 -0.001937 0.000361 -0.003657 -0.008484
# 2 0.001786 0.024415 -0.005571 -0.006723 -0.008254 -0.017046
# 3 -0.001937 -0.005571 0.009745 -0.004948 0.004627 0.002366
# 4 0.000361 -0.006723 -0.004948 0.023769 -0.003530 0.001280
# 5 -0.003657 -0.008254 0.004627 -0.003530 0.043674 0.011141
# 6 -0.008484 -0.017046 0.002366 0.001280 0.011141 0.036220
#
#
# Mechanical properties :
#
#
# Convention : Reuss Voigt Hill
#
# Bulk Modulus (GPa) = 29.24353 74.38890 51.81621
# Shear Modulus (GPa) = 29.04549 46.40630 37.72589
#
# Velocity S-wave (km/s) = 3.40782 4.30751 3.88380
# Velocity P-wave (km/s) = 5.21313 7.38122 6.38980
#
# Compressibility (1/GPa) = 0.03419560
#
# Stress axis : x y z
#
# Youngs Moduli (GPa) = 87.12348 40.95760 102.61375
#
# Poissons Ratio (x) = -0.07316 0.19876
# Poissons Ratio (y) = -0.15563 0.57165
# Poissons Ratio (z) = 0.16876 0.22817
#
# Static dielectric constant tensor:
#      x y z
#    x 2.158180 -0.133890 -0.042640 
#    y -0.133890 2.101310 0.040740 
#    z -0.042640 0.040740 2.078840 
# 
# From -- ./inp_files/142229.got.cif
#   From: 2010.05.17/outbox.cif.g08.bks.cpg/sg2_72_cif.got.tgz:142229.got - 2010.06.03 11:33:40.
