data_PCOD9100628
_publ_section_title
;
Structure prediction by ZEFSAII (Michael W. Deem and Ramdas Pophale) SiO2 
 PCOD9100628
Probable space group: P -1
;
_chemical_formula_sum "Si O2"
_cell_formula_units_Z 12
_cell_length_a 9.351705
_cell_length_b 5.783188
_cell_length_c 10.915413
_cell_angle_alpha 120.536839
_cell_angle_beta 118.407262
_cell_angle_gamma 84.009191
_cell_volume 439.821331
_symmetry_space_group_name_H-M "P -1"
_symmetry_group_IT_number 2
_symmetry_cell_setting 'triclinic'
loop_
_space_group_symop_operation_xyz
x,y,z
-x,-y,-z
loop_
_atom_site_type_symbol
_atom_site_label
_atom_site_fract_x
_atom_site_fract_y
_atom_site_fract_z
Si Si1 0.446990 0.244663 0.116844
Si Si2 0.816976 0.450697 0.966366
Si Si3 0.831038 0.624015 0.559788
Si Si4 0.815676 0.099165 0.538983
Si Si5 0.238221 0.430829 0.751301
Si Si6 0.563784 0.902165 0.645865
O O1 0.262879 0.289354 0.033563
O O2 0.564857 0.504551 0.174034
O O3 0.471563 0.193895 0.254647
O O4 0.500000 0.000000 0.000000
O O5 0.697698 0.184725 0.790243
O O6 0.802822 0.435897 0.104136
O O7 0.000000 0.500000 0.000000
O O8 0.887460 0.409763 0.617951
O O9 0.819214 0.477756 0.381752
O O10 0.658424 0.682297 0.561158
O O11 0.900393 0.938904 0.634463
O O12 0.618169 0.083033 0.478486
O O13 0.183840 0.104693 0.631290
#
# Coordination Sequence:
#
# PCOD9100628 Si02
#       6
#     2   2   2   2   2   2
#     4  12  23  40  72  99 136 176 237 286 344 404
#     4  12  27  44  64  98 142 184 227 283 346 414
#     4  10  23  35  68 104 137 174 220 298 346 407
#     4  10  20  37  65 104 136 168 228 282 356 397
#     4  10  22  40  67  99 134 172 232 282 346 403
#     4  12  22  39  63 100 135 175 227 286 344 407
#
# _framework density 27.283805999999998
#
# number of rings (size 3 to 8) (size 9 to 14) (size 15 to 20)
#    1.000    0.000    5.000    2.500    2.333    0.667 
#    0.000    0.833    0.000    2.000    0.000    0.000 
#    0.000    0.000    0.000    0.000    0.000    0.000 
#
# Total GULP energy -67081.276911 kJ/mol
# GULP energy per Si atom -5590.106409 kJ/mol
# Density = 2.722171 g / cm^3
# Si number density = 27.283806 Si / 1000 Ang^3
#
#
#
# Elastic Constant Matrix: (Units=GPa)
#
#
# Indices 1 2 3 4 5 6 
#
# 1 184.4783 43.9481 48.5486 14.1659 -0.7313 15.0873
# 2 43.9481 205.5183 44.8101 -5.0879 4.4028 -2.9507
# 3 48.5486 44.8101 130.6464 6.0151 -9.2833 -7.9258
# 4 14.1659 -5.0879 6.0151 32.5065 -3.4034 -6.5149
# 5 -0.7313 4.4028 -9.2833 -3.4034 49.5520 0.1234
# 6 15.0873 -2.9507 -7.9258 -6.5149 0.1234 38.6654
#
#
#
# Elastic Compliance Matrix: (Units=1/GPa)
#
#
# Indices 1 2 3 4 5 6 
#
# 1 0.006867 -0.001106 -0.002274 -0.003561 -0.000461 -0.003829
# 2 -0.001106 0.005511 -0.001557 0.001727 -0.000681 0.000826
# 3 -0.002274 -0.001557 0.009335 -0.000261 0.001829 0.002632
# 4 -0.003561 0.001727 -0.000261 0.034303 0.002083 0.007241
# 5 -0.000461 -0.000681 0.001829 0.002083 0.020718 0.000788
# 6 -0.003829 0.000826 0.002632 0.007241 0.000788 0.029177
#
#
# Mechanical properties :
#
#
# Convention : Reuss Voigt Hill
#
# Bulk Modulus (GPa) = 84.46124 88.36186 86.41155
# Shear Modulus (GPa) = 41.76036 49.70051 45.73043
#
# Velocity S-wave (km/s) = 3.91652 4.27266 4.09846
# Velocity P-wave (km/s) = 7.17467 7.53640 7.35776
#
# Compressibility (1/GPa) = 0.01183975
#
# Stress axis : x y z
#
# Youngs Moduli (GPa) = 145.61926 181.45750 107.12557
#
# Poissons Ratio (x) = 0.20069 0.24357
# Poissons Ratio (y) = 0.16105 0.16679
# Poissons Ratio (z) = 0.33109 0.28253
#
# Static dielectric constant tensor:
#      x y z
#    x 2.216720 0.065370 0.081160 
#    y 0.065370 2.214700 -0.018940 
#    z 0.081160 -0.018940 2.121860 
# 
# From -- ./inp_files/373245.got.cif
#   From: 2010.05.17/outbox.cif.g08.bks.cpg/sg2_187_cif.got.tgz:373245.got - 2010.06.03 11:33:40.
