data_PCOD9100664
_publ_section_title
;
Structure prediction by ZEFSAII (Michael W. Deem and Ramdas Pophale) SiO2 
 PCOD9100664
Probable space group: P -1
;
_chemical_formula_sum "Si O2"
_cell_formula_units_Z 16
_cell_length_a 21.309742
_cell_length_b 17.326882
_cell_length_c 11.111180
_cell_angle_alpha 30.395525
_cell_angle_beta 28.205945
_cell_angle_gamma 26.169077
_cell_volume 803.088496
_symmetry_space_group_name_H-M "P -1"
_symmetry_group_IT_number 2
_symmetry_cell_setting 'triclinic'
loop_
_space_group_symop_operation_xyz
x,y,z
-x,-y,-z
loop_
_atom_site_type_symbol
_atom_site_label
_atom_site_fract_x
_atom_site_fract_y
_atom_site_fract_z
Si Si1 0.839228 0.321554 0.839193
Si Si2 0.195562 0.370742 0.923071
Si Si3 0.472575 0.376966 0.886778
Si Si4 0.661048 0.000023 0.719164
Si Si5 0.181033 0.999997 0.795733
Si Si6 0.150494 0.376903 0.736316
Si Si7 0.659728 0.000012 0.222225
Si Si8 0.566321 0.629247 0.293746
O O1 0.866621 0.461656 0.533176
O O2 0.995944 0.182172 0.845508
O O3 0.671735 0.461567 0.005245
O O4 0.821924 0.182161 0.972209
O O5 0.256149 0.348898 0.713563
O O6 0.311311 0.377365 0.811355
O O7 0.019133 0.549861 0.011821
O O8 0.203216 0.186439 0.190982
O O9 0.568981 0.450154 0.561675
O O10 0.394906 0.348946 0.937605
O O11 0.593874 0.189816 0.005992
O O12 0.610322 0.186435 0.622687
O O13 0.717796 0.000069 0.488955
O O14 0.500000 0.000000 0.000000
O O15 0.263089 0.000030 0.781015
O O16 0.216345 0.189741 0.804284
O O17 0.500000 0.000000 0.500000
#
# Coordination Sequence:
#
# PCOD9100664 Si02
#       8
#     2   2   2   2   2   2   2   2
#     4  11  24  45  70  92 138 171 222 263 328 402
#     4  10  23  40  67  91 130 170 219 264 324 384
#     4  11  24  42  64  99 127 172 216 269 325 387
#     4  10  20  37  65  89 121 167 214 266 309 383
#     4  11  26  44  65 101 130 177 215 269 334 384
#     4  11  24  42  64  99 127 172 216 269 325 387
#     4  12  28  41  64 100 137 165 217 275 323 382
#     4  10  23  40  67  91 130 170 219 264 324 384
#
# _framework density 19.923083999999999
#
# number of rings (size 3 to 8) (size 9 to 14) (size 15 to 20)
#    0.000    1.250    3.750    0.750   10.500    1.000 
#    0.000    0.625    0.000    0.000    0.000    0.000 
#    0.000    0.000    0.000    0.000    0.000    0.000 
#
# Total GULP energy -89226.219633 kJ/mol
# GULP energy per Si atom -5576.638727 kJ/mol
# Density = 1.987774 g / cm^3
# Si number density = 19.923084 Si / 1000 Ang^3
#
#
#
# Elastic Constant Matrix: (Units=GPa)
#
#
# Indices 1 2 3 4 5 6 
#
# 1 146.8088 60.1865 26.0746 -15.1728 19.8412 5.6504
# 2 60.1865 149.9932 44.5245 -17.3055 17.6384 12.4796
# 3 26.0746 44.5245 65.1941 -21.4314 13.6173 2.6491
# 4 -15.1728 -17.3055 -21.4314 32.8874 -3.8871 2.3327
# 5 19.8412 17.6384 13.6173 -3.8871 27.9399 3.4655
# 6 5.6504 12.4796 2.6491 2.3327 3.4655 20.7050
#
#
#
# Elastic Compliance Matrix: (Units=1/GPa)
#
#
# Indices 1 2 3 4 5 6 
#
# 1 0.008726 -0.002735 -0.000070 0.002074 -0.004114 -0.000269
# 2 -0.002735 0.009833 -0.004895 0.000896 -0.001202 -0.004454
# 3 -0.000070 -0.004895 0.024244 0.012401 -0.006904 -0.000374
# 4 0.002074 0.000896 0.012401 0.040217 -0.001625 -0.006952
# 5 -0.004114 -0.001202 -0.006904 -0.001625 0.043145 -0.004307
# 6 -0.000269 -0.004454 -0.000374 -0.006952 -0.004307 0.052607
#
#
# Mechanical properties :
#
#
# Convention : Reuss Voigt Hill
#
# Bulk Modulus (GPa) = 36.49278 69.28524 52.88901
# Shear Modulus (GPa) = 24.59348 31.72051 28.15699
#
# Velocity S-wave (km/s) = 3.51724 3.99450 3.76345
# Velocity P-wave (km/s) = 5.90350 7.49177 6.74455
#
# Compressibility (1/GPa) = 0.02740268
#
# Stress axis : x y z
#
# Youngs Moduli (GPa) = 114.59954 101.70048 41.24790
#
# Poissons Ratio (x) = 0.27817 0.00289
# Poissons Ratio (y) = 0.31346 0.20189
# Poissons Ratio (z) = 0.00803 0.49778
#
# Static dielectric constant tensor:
#      x y z
#    x 1.909750 -0.011730 -0.026520 
#    y -0.011730 1.842630 -0.048920 
#    z -0.026520 -0.048920 1.725650 
# 
# From -- ./inp_files/335617.got.cif
#   From: 2010.05.17/outbox.cif.g08.bks.cpg/sg2_168_cif.got.tgz:335617.got - 2010.06.03 11:33:40.
