data_PCOD9100370
_publ_section_title
;
Structure prediction by ZEFSAII (Michael W. Deem and Ramdas Pophale) SiO2 
 PCOD9100370
Probable space group: P -1
;
_chemical_formula_sum "Si O2"
_cell_formula_units_Z 16
_cell_length_a 13.624581
_cell_length_b 11.386916
_cell_length_c 15.105446
_cell_angle_alpha 142.413058
_cell_angle_beta 152.628420
_cell_angle_gamma 50.843559
_cell_volume 635.002098
_symmetry_space_group_name_H-M "P -1"
_symmetry_group_IT_number 2
_symmetry_cell_setting 'triclinic'
loop_
_space_group_symop_operation_xyz
x,y,z
-x,-y,-z
loop_
_atom_site_type_symbol
_atom_site_label
_atom_site_fract_x
_atom_site_fract_y
_atom_site_fract_z
Si Si1 0.313044 0.126935 0.922208
Si Si2 0.896983 0.769673 0.345436
Si Si3 0.175772 0.755248 0.882345
Si Si4 0.665273 0.865629 0.658843
Si Si5 0.261785 0.005154 0.388365
Si Si6 0.912922 0.687181 0.005732
Si Si7 0.747279 0.624516 0.332635
Si Si8 0.104171 0.427699 0.280859
O O1 0.303461 0.241103 0.890079
O O2 0.285760 0.265907 0.067223
O O3 0.068187 0.979303 0.628184
O O4 0.500000 0.000000 0.000000
O O5 0.805278 0.684785 0.315085
O O6 0.064984 0.643856 0.370058
O O7 0.314070 0.613513 0.863147
O O8 0.967400 0.707980 0.619242
O O9 0.080311 0.669667 0.850796
O O10 0.288901 0.987570 0.131343
O O11 0.424420 0.863074 0.431081
O O12 0.817210 0.971865 0.761260
O O13 0.692542 0.645327 0.559596
O O14 0.392874 0.229562 0.655577
O O15 0.093910 0.900110 0.266601
O O16 0.000000 0.500000 0.000000
O O17 0.882167 0.642265 0.850101
#
# Coordination Sequence:
#
# PCOD9100370 Si02
#       8
#     2   2   2   2   2   2   2   2
#     4  11  25  46  70  95 131 183 238 287 343 406
#     4  10  23  44  65  95 136 177 226 293 341 404
#     4  10  20  37  63  96 127 176 225 271 346 419
#     4  11  23  38  65 100 139 171 226 284 349 417
#     4  11  23  41  62  99 138 178 220 290 348 411
#     4  12  24  44  70  96 133 181 234 281 345 414
#     4  10  20  38  65  88 131 175 221 274 345 407
#     4  11  21  40  67  95 132 177 222 283 346 406
#
# _framework density 25.196767000000001
#
# number of rings (size 3 to 8) (size 9 to 14) (size 15 to 20)
#    0.000    1.250    5.000    1.125    0.000    2.500 
#    0.000    1.250    0.000    0.000    0.000    0.000 
#    0.000    0.000    0.000    0.000    0.000    0.000 
#
# Total GULP energy -89095.473657 kJ/mol
# GULP energy per Si atom -5568.467104 kJ/mol
# Density = 2.513942 g / cm^3
# Si number density = 25.196767 Si / 1000 Ang^3
#
#
#
# Elastic Constant Matrix: (Units=GPa)
#
#
# Indices 1 2 3 4 5 6 
#
# 1 146.5126 55.0198 37.2246 -8.0201 -35.8565 -15.2318
# 2 55.0198 132.5495 30.2088 -0.3672 -29.9925 -17.1366
# 3 37.2246 30.2088 67.1582 -7.1586 -23.0007 -2.4894
# 4 -8.0201 -0.3672 -7.1586 23.9886 1.4369 -14.9051
# 5 -35.8565 -29.9925 -23.0007 1.4369 35.4722 8.9709
# 6 -15.2318 -17.1366 -2.4894 -14.9051 8.9709 44.7767
#
#
#
# Elastic Compliance Matrix: (Units=1/GPa)
#
#
# Indices 1 2 3 4 5 6 
#
# 1 0.010142 -0.001933 -0.002004 0.004011 0.006489 0.002634
# 2 -0.001933 0.010136 -0.001703 0.000035 0.004969 0.002143
# 3 -0.002004 -0.001703 0.020600 0.004426 0.009888 -0.000696
# 4 0.004011 0.000035 0.004426 0.057334 -0.000638 0.020837
# 5 0.006489 0.004969 0.009888 -0.000638 0.046627 -0.004895
# 6 0.002634 0.002143 -0.000696 0.020837 -0.004895 0.031927
#
#
# Mechanical properties :
#
#
# Convention : Reuss Voigt Hill
#
# Bulk Modulus (GPa) = 33.78743 65.68077 49.73410
# Shear Modulus (GPa) = 25.26364 35.76533 30.51448
#
# Velocity S-wave (km/s) = 3.16991 3.77163 3.48379
# Velocity P-wave (km/s) = 5.18037 6.71496 5.99696
#
# Compressibility (1/GPa) = 0.02959681
#
# Stress axis : x y z
#
# Youngs Moduli (GPa) = 98.59954 98.65467 48.54428
#
# Poissons Ratio (x) = 0.19071 0.09730
# Poissons Ratio (y) = 0.19060 0.08268
# Poissons Ratio (z) = 0.19763 0.16803
#
# Static dielectric constant tensor:
#      x y z
#    x 2.044450 -0.009360 0.039340 
#    y -0.009360 2.183710 0.036810 
#    z 0.039340 0.036810 2.122530 
# 
# From -- ./inp_files/532735.got.cif
#   From: 2010.05.17/outbox.cif.g08.bks.cpg/sg2_267_cif.got.tgz:532735.got - 2010.06.03 11:33:40.
