data_PCOD9100874
_publ_section_title
;
Structure prediction by ZEFSAII (Michael W. Deem and Ramdas Pophale) SiO2 
 PCOD9100874
Probable space group: P -1
;
_chemical_formula_sum "Si O2"
_cell_formula_units_Z 14
_cell_length_a 21.362287
_cell_length_b 11.808058
_cell_length_c 14.546231
_cell_angle_alpha 39.910302
_cell_angle_beta 28.479091
_cell_angle_gamma 19.830973
_cell_volume 551.489849
_symmetry_space_group_name_H-M "P -1"
_symmetry_group_IT_number 2
_symmetry_cell_setting 'triclinic'
loop_
_space_group_symop_operation_xyz
x,y,z
-x,-y,-z
loop_
_atom_site_type_symbol
_atom_site_label
_atom_site_fract_x
_atom_site_fract_y
_atom_site_fract_z
Si Si1 0.466428 0.986998 0.928967
Si Si2 0.070258 0.172304 0.332598
Si Si3 0.608518 0.698466 0.453633
Si Si4 0.922657 0.228615 0.876813
Si Si5 0.608633 0.321580 0.124304
Si Si6 0.461229 0.744504 0.427131
Si Si7 0.409459 0.295065 0.261440
O O1 0.664799 0.658311 0.948656
O O2 0.545020 0.813935 0.833788
O O3 0.496096 0.159079 0.765463
O O4 0.175674 0.247968 0.160445
O O5 0.874243 0.388769 0.364042
O O6 0.896827 0.316768 0.554473
O O7 0.330594 0.748306 0.242253
O O8 0.393494 0.831103 0.702392
O O9 0.643673 0.577882 0.382217
O O10 0.501529 0.019155 0.374403
O O11 0.844769 0.181869 0.924736
O O12 0.156188 0.092822 0.638178
O O13 0.000000 0.000000 0.000000
O O14 0.582159 0.255791 0.101871
O O15 0.500000 0.500000 0.500000
#
# Coordination Sequence:
#
# PCOD9100874 Si02
#       7
#     2   2   2   2   2   2   2
#     4  10  25  45  66 100 133 170 225 278 328 389
#     4  10  21  38  66  98 132 169 211 273 338 390
#     4  10  20  38  63  94 136 165 215 271 332 395
#     4  11  23  45  67  88 137 181 217 266 323 398
#     4  10  20  37  66  95 129 170 221 265 328 394
#     4  11  25  42  65  96 133 175 223 274 323 392
#     4  10  21  38  66 101 129 171 208 278 340 380
#
# _framework density 25.385778999999999
#
# number of rings (size 3 to 8) (size 9 to 14) (size 15 to 20)
#    0.000    1.714    1.429    3.857    0.000   10.286 
#    0.000    0.714    0.000    0.000    0.000    0.000 
#    0.000    0.000    0.000    0.000    0.000    0.000 
#
# Total GULP energy -78360.388049 kJ/mol
# GULP energy per Si atom -5597.170575 kJ/mol
# Density = 2.532800 g / cm^3
# Si number density = 25.385779 Si / 1000 Ang^3
#
#
#
# Elastic Constant Matrix: (Units=GPa)
#
#
# Indices 1 2 3 4 5 6 
#
# 1 107.2725 39.5624 44.9310 -8.3716 -4.3916 7.0969
# 2 39.5624 80.9527 12.8779 -29.3143 -5.4459 -7.1673
# 3 44.9310 12.8779 104.0499 -25.7751 -20.4531 -23.5441
# 4 -8.3716 -29.3143 -25.7751 59.8236 1.2780 -0.5344
# 5 -4.3916 -5.4459 -20.4531 1.2780 45.5767 -6.3290
# 6 7.0969 -7.1673 -23.5441 -0.5344 -6.3290 34.2541
#
#
#
# Elastic Compliance Matrix: (Units=1/GPa)
#
#
# Indices 1 2 3 4 5 6 
#
# 1 0.022526 -0.015167 -0.017902 -0.011969 -0.010431 -0.022259
# 2 -0.015167 0.026080 0.014139 0.016710 0.010377 0.020495
# 3 -0.017902 0.014139 0.030336 0.017399 0.017396 0.031004
# 4 -0.011969 0.016710 0.017399 0.030680 0.010620 0.020376
# 5 -0.010431 0.010377 0.017396 0.010620 0.032811 0.022517
# 6 -0.022259 0.020495 0.031004 0.020376 0.022517 0.063883
#
#
# Mechanical properties :
#
#
# Convention : Reuss Voigt Hill
#
# Bulk Modulus (GPa) = 24.34244 54.11308 39.22776
# Shear Modulus (GPa) = 19.38953 40.92448 30.15701
#
# Velocity S-wave (km/s) = 2.76668 4.01946 3.45040
# Velocity P-wave (km/s) = 4.45150 6.55011 5.59999
#
# Compressibility (1/GPa) = 0.04108052
#
# Stress axis : x y z
#
# Youngs Moduli (GPa) = 44.39401 38.34382 32.96367
#
# Poissons Ratio (x) = 0.58157 0.59012
# Poissons Ratio (y) = 0.67334 -0.46606
# Poissons Ratio (z) = 0.79474 -0.54213
#
# Static dielectric constant tensor:
#      x y z
#    x 2.085240 0.055220 0.039270 
#    y 0.055220 2.046410 0.029230 
#    z 0.039270 0.029230 2.034240 
# 
# From -- ./inp_files/541091.got.cif
#   From: 2010.05.17/outbox.cif.g08.bks.cpg/sg2_271_cif.got.tgz:541091.got - 2010.06.03 11:33:40.
