data_PCOD9100029
_publ_section_title
;
Structure prediction by ZEFSAII (Michael W. Deem and Ramdas Pophale) SiO2 
 PCOD9100029
Probable space group: P -1
;
_chemical_formula_sum "Si O2"
_cell_formula_units_Z 16
_cell_length_a 12.246777
_cell_length_b 17.370575
_cell_length_c 9.103534
_cell_angle_alpha 117.412855
_cell_angle_beta 61.317104
_cell_angle_gamma 151.723075
_cell_volume 801.544686
_symmetry_space_group_name_H-M "P -1"
_symmetry_group_IT_number 2
_symmetry_cell_setting 'triclinic'
loop_
_space_group_symop_operation_xyz
x,y,z
-x,-y,-z
loop_
_atom_site_type_symbol
_atom_site_label
_atom_site_fract_x
_atom_site_fract_y
_atom_site_fract_z
Si Si1 0.287113 0.493550 0.063532
Si Si2 0.880754 0.062195 0.287265
Si Si3 0.794528 0.208822 0.112121
Si Si4 0.772205 0.185777 0.455678
Si Si5 0.786403 0.743210 0.008326
Si Si6 0.038840 0.995662 0.304235
Si Si7 0.528600 0.868899 0.935971
Si Si8 0.644124 0.276380 0.755054
O O1 0.258895 0.386444 0.073939
O O2 0.261560 0.574076 0.217074
O O3 0.050157 0.350372 0.995090
O O4 0.564055 0.653805 0.989900
O O5 0.912600 0.182399 0.408085
O O6 0.975296 0.102255 0.097599
O O7 0.605021 0.880646 0.304754
O O8 0.021004 0.076621 0.303903
O O9 0.808769 0.224041 0.293018
O O10 0.661964 0.212305 0.131478
O O11 0.660861 0.038615 0.028910
O O12 0.810132 0.295724 0.617276
O O13 0.500000 0.000000 0.500000
O O14 0.837543 0.816465 0.198208
O O15 0.282117 0.088021 0.207120
O O16 0.000000 0.000000 0.500000
O O17 0.412026 0.766406 0.072489
#
# Coordination Sequence:
#
# PCOD9100029 Si02
#       8
#     2   2   2   2   2   2   2   2
#     4  11  22  37  65  93 125 167 202 254 309 369
#     4  11  20  41  64  93 120 164 219 249 294 369
#     4  11  22  40  63  91 129 160 203 261 305 361
#     4  10  20  37  62  91 118 158 213 253 293 352
#     4  11  21  41  65  92 124 164 210 252 305 373
#     4  12  24  37  65  97 121 156 210 265 307 353
#     4  11  23  40  61  90 125 164 209 250 304 369
#     4  11  21  37  65  91 121 166 208 250 302 370
#
# _framework density 19.961455999999998
#
# number of rings (size 3 to 8) (size 9 to 14) (size 15 to 20)
#    0.000    1.000    7.500    1.125    3.500    1.000 
#    0.000    0.000    0.000    3.750    0.000    0.000 
#    0.000    0.000    0.000    0.000    0.000    0.000 
#
# Total GULP energy -89081.222394 kJ/mol
# GULP energy per Si atom -5567.576400 kJ/mol
# Density = 1.991602 g / cm^3
# Si number density = 19.961456 Si / 1000 Ang^3
#
#
#
# Elastic Constant Matrix: (Units=GPa)
#
#
# Indices 1 2 3 4 5 6 
#
# 1 176.0245 27.5641 53.5016 -4.3312 -25.8588 -7.3544
# 2 27.5641 49.1335 23.0112 7.9437 -10.8517 12.3409
# 3 53.5016 23.0112 99.4035 -8.2933 -13.1862 -27.4603
# 4 -4.3312 7.9437 -8.2933 11.1694 -0.5533 -21.0980
# 5 -25.8588 -10.8517 -13.1862 -0.5533 25.8630 11.6643
# 6 -7.3544 12.3409 -27.4603 -21.0980 11.6643 12.8843
#
#
#
# Elastic Compliance Matrix: (Units=1/GPa)
#
#
# Indices 1 2 3 4 5 6 
#
# 1 0.007728 -0.002210 -0.002741 0.002548 0.005518 -0.000137
# 2 -0.002210 0.014999 0.002374 0.014117 -0.000107 0.012644
# 3 -0.002741 0.002374 0.008778 -0.010477 0.005979 -0.007697
# 4 0.002548 0.014117 -0.010477 0.010860 0.018343 -0.033219
# 5 0.005518 -0.000107 0.005979 0.018343 0.045323 0.004999
# 6 -0.000137 0.012644 -0.007697 -0.033219 0.004999 -0.009903
#
#
# Mechanical properties :
#
#
# Convention : Reuss Voigt Hill
#
# Bulk Modulus (GPa) = 37.94973 59.19058 48.57016
# Shear Modulus (GPa) = 54.51153 24.68230 39.59692
#
# Velocity S-wave (km/s) = 5.23141 3.52020 4.45867
# Velocity P-wave (km/s) = 7.45272 6.79994 7.13380
#
# Compressibility (1/GPa) = 0.02635065
#
# Stress axis : x y z
#
# Youngs Moduli (GPa) = 129.40213 66.67053 113.91696
#
# Poissons Ratio (x) = 0.14737 0.31224
# Poissons Ratio (y) = 0.28603 -0.27044
# Poissons Ratio (z) = 0.35469 -0.15828
#
# Static dielectric constant tensor:
#      x y z
#    x 1.747240 0.021550 -0.011970 
#    y 0.021550 1.752400 0.007410 
#    z -0.011970 0.007410 1.728950 
# 
# From -- ./inp_files/278225.got.cif
#   From: 2010.05.17/outbox.cif.g08.bks.cpg/sg2_140_cif.got.tgz:278225.got - 2010.06.03 11:33:40.
