data_PCOD9100974
_publ_section_title
;
Structure prediction by ZEFSAII (Michael W. Deem and Ramdas Pophale) SiO2 
 PCOD9100974
Probable space group: P -1
;
_chemical_formula_sum "Si O2"
_cell_formula_units_Z 16
_cell_length_a 19.002724
_cell_length_b 8.534547
_cell_length_c 12.161957
_cell_angle_alpha 44.742717
_cell_angle_beta 144.212825
_cell_angle_gamma 142.185864
_cell_volume 693.781399
_symmetry_space_group_name_H-M "P -1"
_symmetry_group_IT_number 2
_symmetry_cell_setting 'triclinic'
loop_
_space_group_symop_operation_xyz
x,y,z
-x,-y,-z
loop_
_atom_site_type_symbol
_atom_site_label
_atom_site_fract_x
_atom_site_fract_y
_atom_site_fract_z
Si Si1 0.777655 0.050609 0.198799
Si Si2 0.071198 0.914133 0.840002
Si Si3 0.568201 0.387745 0.529647
Si Si4 0.195333 0.650238 0.268481
Si Si5 0.258785 0.465354 0.094654
Si Si6 0.758475 0.023014 0.640175
Si Si7 0.504875 0.738235 0.124995
Si Si8 0.916986 0.192565 0.540062
O O1 0.851311 0.986535 0.227654
O O2 0.851209 0.083439 0.392203
O O3 0.612554 0.824087 0.115985
O O4 0.797893 0.337928 0.062395
O O5 0.927202 0.638202 0.774769
O O6 0.169806 0.852246 0.068540
O O7 0.025059 0.096816 0.746033
O O8 0.658356 0.314817 0.601568
O O9 0.640653 0.456277 0.707380
O O10 0.568953 0.628505 0.350810
O O11 0.407791 0.154044 0.456527
O O12 0.185886 0.716570 0.349079
O O13 0.340841 0.531527 0.048341
O O14 0.176082 0.154585 0.154487
O O15 0.795934 0.088909 0.528879
O O16 0.500000 0.000000 0.000000
O O17 0.000000 0.500000 0.500000
#
# Coordination Sequence:
#
# PCOD9100974 Si02
#       8
#     2   2   2   2   2   2   2   2
#     4  11  21  40  64  94 131 174 221 263 333 393
#     4  11  25  44  66  93 132 179 228 263 327 402
#     4  11  20  42  68  98 131 173 225 269 331 393
#     4  11  24  42  68  97 129 178 226 274 318 391
#     4  10  20  37  67  98 129 174 219 270 324 394
#     4  11  24  41  68  98 132 168 223 278 329 388
#     4   9  19  33  61  97 128 162 208 264 322 386
#     4  12  27  43  65  98 133 172 216 280 337 390
#
# _framework density 23.062018999999999
#
# number of rings (size 3 to 8) (size 9 to 14) (size 15 to 20)
#    0.000    1.250    1.250    6.000    3.500    1.500 
#    0.000    0.000    0.000    2.250    0.000    0.000 
#    0.000    0.000    0.000    0.000    0.000    0.000 
#
# Total GULP energy -89335.596638 kJ/mol
# GULP energy per Si atom -5583.474790 kJ/mol
# Density = 2.300953 g / cm^3
# Si number density = 23.062019 Si / 1000 Ang^3
#
#
#
# Elastic Constant Matrix: (Units=GPa)
#
#
# Indices 1 2 3 4 5 6 
#
# 1 123.8408 15.5057 22.0941 -1.5322 9.6475 5.0713
# 2 15.5057 51.6534 13.8177 -16.0721 13.0732 7.1068
# 3 22.0941 13.8177 104.9229 -13.7720 17.7132 -5.2342
# 4 -1.5322 -16.0721 -13.7720 26.8845 -4.7038 -1.1526
# 5 9.6475 13.0732 17.7132 -4.7038 32.3611 -4.8589
# 6 5.0713 7.1068 -5.2342 -1.1526 -4.8589 32.7052
#
#
#
# Elastic Compliance Matrix: (Units=1/GPa)
#
#
# Indices 1 2 3 4 5 6 
#
# 1 0.008792 -0.002305 -0.001665 -0.002014 -0.001280 -0.001390
# 2 -0.002305 0.027896 -0.000005 0.014608 -0.009446 -0.006594
# 3 -0.001665 -0.000005 0.011423 0.004981 -0.004797 0.001550
# 4 -0.002014 0.014608 0.004981 0.048149 -0.001108 -0.000533
# 5 -0.001280 -0.009446 -0.004797 -0.001108 0.038642 0.007185
# 6 -0.001390 -0.006594 0.001550 -0.000533 0.007185 0.033521
#
#
# Mechanical properties :
#
#
# Convention : Reuss Voigt Hill
#
# Bulk Modulus (GPa) = 24.90038 42.58358 33.74198
# Shear Modulus (GPa) = 26.34864 33.65680 30.00272
#
# Velocity S-wave (km/s) = 3.38377 3.82436 3.61079
# Velocity P-wave (km/s) = 5.10756 6.16489 5.66096
#
# Compressibility (1/GPa) = 0.04016003
#
# Stress axis : x y z
#
# Youngs Moduli (GPa) = 113.73520 35.84691 87.54127
#
# Poissons Ratio (x) = 0.08264 0.14580
# Poissons Ratio (y) = 0.26219 0.00046
# Poissons Ratio (z) = 0.18942 0.00019
#
# Static dielectric constant tensor:
#      x y z
#    x 1.862340 0.014020 0.000510 
#    y 0.014020 1.883870 0.026220 
#    z 0.000510 0.026220 1.908730 
# 
# From -- ./inp_files/461830.got.cif
#   From: 2010.05.17/outbox.cif.g08.bks.cpg/sg2_231_cif.got.tgz:461830.got - 2010.06.03 11:33:40.
