data_PCOD9100153
_publ_section_title
;
Structure prediction by ZEFSAII (Michael W. Deem and Ramdas Pophale) SiO2 
 PCOD9100153
Probable space group: P -1
;
_chemical_formula_sum "Si O2"
_cell_formula_units_Z 14
_cell_length_a 11.513052
_cell_length_b 11.995074
_cell_length_c 7.836340
_cell_angle_alpha 87.560504
_cell_angle_beta 109.095304
_cell_angle_gamma 39.496161
_cell_volume 566.690432
_symmetry_space_group_name_H-M "P -1"
_symmetry_group_IT_number 2
_symmetry_cell_setting 'triclinic'
loop_
_space_group_symop_operation_xyz
x,y,z
-x,-y,-z
loop_
_atom_site_type_symbol
_atom_site_label
_atom_site_fract_x
_atom_site_fract_y
_atom_site_fract_z
Si Si1 0.562690 0.411119 0.227787
Si Si2 0.350587 0.215436 0.471460
Si Si3 0.986696 0.881430 0.115730
Si Si4 0.490701 0.306307 0.766217
Si Si5 0.994807 0.327525 0.326521
Si Si6 0.813132 0.476034 0.860452
Si Si7 0.010044 0.070150 0.290037
O O1 0.520054 0.556084 0.304953
O O2 0.412395 0.422247 0.212643
O O3 0.812607 0.189981 0.317244
O O4 0.500000 0.500000 0.000000
O O5 0.481212 0.214457 0.631098
O O6 0.245815 0.361686 0.255359
O O7 0.156986 0.298897 0.477791
O O8 0.500000 0.000000 0.500000
O O9 0.054289 0.703934 0.196159
O O10 0.113914 0.873439 0.297252
O O11 0.047250 0.852647 0.944153
O O12 0.723474 0.106044 0.987144
O O13 0.255517 0.475925 0.738526
O O14 0.090299 0.128588 0.398789
O O15 0.961605 0.373702 0.106242
#
# Coordination Sequence:
#
# PCOD9100153 Si02
#       7
#     2   2   2   2   2   2   2
#     4  11  16  36  64  95 121 148 195 255 304 352
#     4  12  27  43  57  83 128 167 201 247 300 349
#     4  10  16  31  61  95 116 145 204 245 299 354
#     4  11  21  38  65  91 123 160 190 250 312 350
#     4  10  20  41  63  85 119 165 207 236 285 365
#     4  11  22  38  64  92 117 157 207 251 291 358
#     4   9  16  29  60  93 115 147 189 249 297 341
#
# _framework density 24.704846
#
# number of rings (size 3 to 8) (size 9 to 14) (size 15 to 20)
#    0.000    1.429    5.714    3.429    0.000    0.571 
#    0.000    7.143    0.000    6.000    0.000    0.000 
#    0.000    0.000    0.000    0.000    0.000    0.000 
#
# Total GULP energy -78112.645661 kJ/mol
# GULP energy per Si atom -5579.474690 kJ/mol
# Density = 2.464862 g / cm^3
# Si number density = 24.704846 Si / 1000 Ang^3
#
#
#
# Elastic Constant Matrix: (Units=GPa)
#
#
# Indices 1 2 3 4 5 6 
#
# 1 130.2564 53.5113 5.0596 -9.7226 29.8115 4.8648
# 2 53.5113 182.7341 21.2163 -13.9009 3.7061 15.8919
# 3 5.0596 21.2163 41.6465 1.0957 7.8539 8.8062
# 4 -9.7226 -13.9009 1.0957 40.0934 7.4042 5.4397
# 5 29.8115 3.7061 7.8539 7.4042 19.6182 -1.0319
# 6 4.8648 15.8919 8.8062 5.4397 -1.0319 48.6904
#
#
#
# Elastic Compliance Matrix: (Units=1/GPa)
#
#
# Indices 1 2 3 4 5 6 
#
# 1 0.016997 -0.004154 0.006329 0.008657 -0.031009 -0.003111
# 2 -0.004154 0.007180 -0.004127 0.000576 0.006333 -0.001112
# 3 0.006329 -0.004127 0.030825 0.004322 -0.023117 -0.005833
# 4 0.008657 0.000576 0.004322 0.033088 -0.027805 -0.006121
# 5 -0.031009 0.006333 -0.023117 -0.027805 0.117215 0.010803
# 6 -0.003111 -0.001112 -0.005833 -0.006121 0.010803 0.023179
#
#
# Mechanical properties :
#
#
# Convention : Reuss Voigt Hill
#
# Bulk Modulus (GPa) = 19.57041 57.13458 38.35250
# Shear Modulus (GPa) = 20.04639 40.00370 30.02504
#
# Velocity S-wave (km/s) = 2.85166 4.02838 3.48997
# Velocity P-wave (km/s) = 4.33376 6.69434 5.63896
#
# Compressibility (1/GPa) = 0.05109756
#
# Stress axis : x y z
#
# Youngs Moduli (GPa) = 58.83265 139.26992 32.44169
#
# Poissons Ratio (x) = 0.57856 -0.20534
# Poissons Ratio (y) = 0.24441 0.13390
# Poissons Ratio (z) = -0.37238 0.57483
#
# Static dielectric constant tensor:
#      x y z
#    x 1.978920 0.000400 0.002510 
#    y 0.000400 2.027770 -0.056470 
#    z 0.002510 -0.056470 2.152470 
# 
# From -- ./inp_files/258611.got.cif
#   From: 2010.05.17/outbox.cif.g08.bks.cpg/sg2_130_cif.got.tgz:258611.got - 2010.06.03 11:33:40.
