data_PCOD9100965
_publ_section_title
;
Structure prediction by ZEFSAII (Michael W. Deem and Ramdas Pophale) SiO2 
 PCOD9100965
Probable space group: P -1
;
_chemical_formula_sum "Si O2"
_cell_formula_units_Z 16
_cell_length_a 23.112904
_cell_length_b 7.430656
_cell_length_c 16.254064
_cell_angle_alpha 126.872010
_cell_angle_beta 161.086202
_cell_angle_gamma 63.880717
_cell_volume 630.496816
_symmetry_space_group_name_H-M "P -1"
_symmetry_group_IT_number 2
_symmetry_cell_setting 'triclinic'
loop_
_space_group_symop_operation_xyz
x,y,z
-x,-y,-z
loop_
_atom_site_type_symbol
_atom_site_label
_atom_site_fract_x
_atom_site_fract_y
_atom_site_fract_z
Si Si1 0.609044 0.076319 0.079187
Si Si2 0.581078 0.588495 0.875603
Si Si3 0.583503 0.360008 0.975086
Si Si4 0.887653 0.065473 0.794496
Si Si5 0.718943 0.382827 0.727428
Si Si6 0.253976 0.160341 0.210209
Si Si7 0.736420 0.072659 0.995659
Si Si8 0.914498 0.747722 0.233019
O O1 0.846507 0.153697 0.420523
O O2 0.609615 0.310652 0.092784
O O3 0.500000 0.000000 0.000000
O O4 0.508645 0.801123 0.818692
O O5 0.606868 0.588246 0.008909
O O6 0.415882 0.300498 0.541072
O O7 0.791090 0.678974 0.133536
O O8 0.342501 0.158509 0.587037
O O9 0.743920 0.296874 0.124062
O O10 0.872756 0.318349 0.866879
O O11 0.027988 0.094076 0.914335
O O12 0.000000 0.000000 0.000000
O O13 0.674690 0.595975 0.686854
O O14 0.503621 0.130564 0.375903
O O15 0.811902 0.489332 0.970079
O O16 0.233029 0.925078 0.061409
O O17 0.866243 0.954643 0.179709
#
# Coordination Sequence:
#
# PCOD9100965 Si02
#       8
#     2   2   2   2   2   2   2   2
#     4  12  30  48  67  93 134 180 229 278 322 386
#     4  12  23  45  73  95 134 175 224 277 320 395
#     4  11  26  45  68 100 136 174 222 270 333 393
#     4  11  23  37  60  99 141 166 210 271 335 405
#     4  10  20  37  67  96 129 171 221 262 337 398
#     4  11  20  37  67 100 133 171 208 270 339 391
#     4  10  20  41  67 104 132 162 219 273 330 403
#     4  11  22  44  69  96 128 178 228 271 325 386
#
# _framework density 25.376811
#
# number of rings (size 3 to 8) (size 9 to 14) (size 15 to 20)
#    0.000    1.000    5.000    2.250    5.250    2.500 
#    0.000    0.000    0.000    0.000    0.000    0.000 
#    0.000    0.000    0.000    0.000    0.000    0.000 
#
# Total GULP energy -89388.234807 kJ/mol
# GULP energy per Si atom -5586.764675 kJ/mol
# Density = 2.531905 g / cm^3
# Si number density = 25.376811 Si / 1000 Ang^3
#
#
#
# Elastic Constant Matrix: (Units=GPa)
#
#
# Indices 1 2 3 4 5 6 
#
# 1 165.3890 24.3578 31.8202 -1.7260 17.6530 -2.1922
# 2 24.3578 61.5464 7.4957 -21.5082 -0.0421 16.0402
# 3 31.8202 7.4957 104.3977 -23.9431 11.4805 1.6045
# 4 -1.7260 -21.5082 -23.9431 20.4965 -0.9620 4.8946
# 5 17.6530 -0.0421 11.4805 -0.9620 39.1905 -9.0906
# 6 -2.1922 16.0402 1.6045 4.8946 -9.0906 32.2923
#
#
#
# Elastic Compliance Matrix: (Units=1/GPa)
#
#
# Indices 1 2 3 4 5 6 
#
# 1 0.010960 -0.021098 -0.011073 -0.038384 0.001522 0.018020
# 2 -0.021098 0.105081 0.043545 0.179573 -0.019244 -0.088428
# 3 -0.011073 0.043545 0.033041 0.092695 -0.011983 -0.041447
# 4 -0.038384 0.179573 0.092695 0.379830 -0.038585 -0.164843
# 5 0.001522 -0.019244 -0.011983 -0.038585 0.033282 0.025475
# 6 0.018020 -0.088428 -0.041447 -0.164843 0.025475 0.110331
#
#
# Mechanical properties :
#
#
# Convention : Reuss Voigt Hill
#
# Bulk Modulus (GPa) = 5.81968 50.96449 28.39209
# Shear Modulus (GPa) = 7.07160 36.23981 21.65570
#
# Velocity S-wave (km/s) = 1.67113 3.78308 2.92441
# Velocity P-wave (km/s) = 2.45395 6.26170 4.75557
#
# Compressibility (1/GPa) = 0.17183072
#
# Stress axis : x y z
#
# Youngs Moduli (GPa) = 91.24230 9.51644 30.26522
#
# Poissons Ratio (x) = 0.20078 0.33513
# Poissons Ratio (y) = 1.92503 -1.31791
# Poissons Ratio (z) = 1.01034 -0.41440
#
# Static dielectric constant tensor:
#      x y z
#    x 2.124360 -0.003750 -0.059120 
#    y -0.003750 2.116510 0.045190 
#    z -0.059120 0.045190 1.988310 
# 
# From -- ./inp_files/222164.got.cif
#   From: 2010.05.17/outbox.cif.g08.bks.cpg/sg2_112_cif.got.tgz:222164.got - 2010.06.03 11:33:40.
