data_PCOD9100861
_publ_section_title
;
Structure prediction by ZEFSAII (Michael W. Deem and Ramdas Pophale) SiO2 
 PCOD9100861
Probable space group: P -1
;
_chemical_formula_sum "Si O2"
_cell_formula_units_Z 16
_cell_length_a 13.820962
_cell_length_b 8.797306
_cell_length_c 11.970535
_cell_angle_alpha 90.122165
_cell_angle_beta 64.350368
_cell_angle_gamma 133.770875
_cell_volume 842.843784
_symmetry_space_group_name_H-M "P -1"
_symmetry_group_IT_number 2
_symmetry_cell_setting 'triclinic'
loop_
_space_group_symop_operation_xyz
x,y,z
-x,-y,-z
loop_
_atom_site_type_symbol
_atom_site_label
_atom_site_fract_x
_atom_site_fract_y
_atom_site_fract_z
Si Si1 0.532134 0.456799 0.865840
Si Si2 0.677421 0.565045 0.449203
Si Si3 0.303331 0.758510 0.582537
Si Si4 0.188339 0.765642 0.416148
Si Si5 0.814016 0.247975 0.127237
Si Si6 0.825354 0.893092 0.583186
Si Si7 0.666865 0.763571 0.256997
Si Si8 0.492303 0.931774 0.130010
O O1 0.713000 0.700017 0.734782
O O2 0.408596 0.368935 0.825133
O O3 0.528779 0.271821 0.869435
O O4 0.500000 0.500000 0.000000
O O5 0.739071 0.460128 0.431751
O O6 0.749563 0.763270 0.501412
O O7 0.719267 0.675293 0.305354
O O8 0.483446 0.340976 0.586049
O O9 0.241086 0.801349 0.517702
O O10 0.221096 0.704107 0.740588
O O11 0.500000 0.000000 0.500000
O O12 0.333575 0.837018 0.272396
O O13 0.000000 0.500000 0.500000
O O14 0.178937 0.932935 0.395386
O O15 0.786036 0.036625 0.169443
O O16 0.666291 0.136324 0.113608
O O17 0.000000 0.500000 0.000000
O O18 0.000000 0.000000 0.500000
O O19 0.500000 0.000000 0.000000
#
# Coordination Sequence:
#
# PCOD9100861 Si02
#       8
#     2   2   2   2   2   2   2   2
#     4  10  21  39  63  88 126 172 211 259 319 389
#     4  10  20  37  66  94 122 161 215 274 318 383
#     4  12  22  40  68  97 127 167 224 272 326 394
#     4  12  25  42  70  97 130 174 222 278 329 392
#     4  11  24  42  63  93 136 174 218 270 329 392
#     4  11  23  41  64  95 128 162 214 273 331 385
#     4   9  19  38  64  90 122 165 216 261 322 381
#     4  11  24  43  64  96 132 174 225 269 329 396
#
# _framework density 18.983352
#
# number of rings (size 3 to 8) (size 9 to 14) (size 15 to 20)
#    0.000    1.250    2.500    4.500    5.250    1.000 
#    6.750    0.625    0.000    0.000    0.000    0.000 
#    0.000    0.000    0.000    0.000    0.000    0.000 
#
# Total GULP energy -89234.920577 kJ/mol
# GULP energy per Si atom -5577.182536 kJ/mol
# Density = 1.894014 g / cm^3
# Si number density = 18.983352 Si / 1000 Ang^3
#
#
#
# Elastic Constant Matrix: (Units=GPa)
#
#
# Indices 1 2 3 4 5 6 
#
# 1 88.3744 34.3307 54.5609 -7.8682 6.5630 7.0704
# 2 34.3307 98.4433 68.7923 -11.6319 -9.1981 2.4048
# 3 54.5609 68.7923 161.4205 -3.5719 4.0522 15.5607
# 4 -7.8682 -11.6319 -3.5719 39.8960 -0.5364 -4.5349
# 5 6.5630 -9.1981 4.0522 -0.5364 36.1268 0.8926
# 6 7.0704 2.4048 15.5607 -4.5349 0.8926 28.5006
#
#
#
# Elastic Compliance Matrix: (Units=1/GPa)
#
#
# Indices 1 2 3 4 5 6 
#
# 1 0.015141 -0.002717 -0.003739 0.001691 -0.002970 -0.001123
# 2 -0.002717 0.016571 -0.006508 0.004163 0.005422 0.003322
# 3 -0.003739 -0.006508 0.010683 -0.002235 -0.002094 -0.004646
# 4 0.001691 0.004163 -0.002235 0.026964 0.001288 0.004699
# 5 -0.002970 0.005422 -0.002094 0.001288 0.029837 0.000693
# 6 -0.001123 0.003322 -0.004646 0.004699 0.000693 0.038348
#
#
# Mechanical properties :
#
#
# Convention : Reuss Voigt Hill
#
# Bulk Modulus (GPa) = 60.73072 73.73401 67.23236
# Shear Modulus (GPa) = 29.59256 33.60829 31.60042
#
# Velocity S-wave (km/s) = 3.95254 4.21219 4.08442
# Velocity P-wave (km/s) = 7.27262 7.91090 7.59847
#
# Compressibility (1/GPa) = 0.01646613
#
# Stress axis : x y z
#
# Youngs Moduli (GPa) = 66.04718 60.34736 93.60413
#
# Poissons Ratio (x) = 0.16398 0.35002
# Poissons Ratio (y) = 0.17947 0.60914
# Poissons Ratio (z) = 0.24698 0.39272
#
# Static dielectric constant tensor:
#      x y z
#    x 1.679560 0.030590 0.032200 
#    y 0.030590 1.714630 -0.008830 
#    z 0.032200 -0.008830 1.590690 
# 
# From -- ./inp_files/238486.got.cif
#   From: 2010.05.17/outbox.cif.g08.bks.cpg/sg2_120_cif.got.tgz:238486.got - 2010.06.03 11:33:40.
