data_PCOD9100440
_publ_section_title
;
Structure prediction by ZEFSAII (Michael W. Deem and Ramdas Pophale) SiO2 
 PCOD9100440
Probable space group: P -1
;
_chemical_formula_sum "Si O2"
_cell_formula_units_Z 16
_cell_length_a 8.575624
_cell_length_b 13.285469
_cell_length_c 12.142078
_cell_angle_alpha 136.101527
_cell_angle_beta 55.735898
_cell_angle_gamma 96.364818
_cell_volume 679.762997
_symmetry_space_group_name_H-M "P -1"
_symmetry_group_IT_number 2
_symmetry_cell_setting 'triclinic'
loop_
_space_group_symop_operation_xyz
x,y,z
-x,-y,-z
loop_
_atom_site_type_symbol
_atom_site_label
_atom_site_fract_x
_atom_site_fract_y
_atom_site_fract_z
Si Si1 0.534235 0.612244 0.678643
Si Si2 0.911042 0.894010 0.568391
Si Si3 0.020813 0.363264 0.295079
Si Si4 0.557067 0.901383 0.012160
Si Si5 0.618704 0.626391 0.410287
Si Si6 0.149540 0.068367 0.629714
Si Si7 0.099220 0.531208 0.197651
Si Si8 0.585589 0.750595 0.287982
O O1 0.519353 0.690390 0.623829
O O2 0.370149 0.553416 0.738123
O O3 0.765222 0.431026 0.433765
O O4 0.547060 0.733970 0.857761
O O5 0.955677 0.872080 0.402684
O O6 0.053089 0.704347 0.409115
O O7 0.648568 0.976226 0.735692
O O8 0.977303 0.015276 0.701271
O O9 0.122197 0.398082 0.174802
O O10 0.000000 0.500000 0.500000
O O11 0.192768 0.172129 0.109435
O O12 0.500000 0.000000 0.000000
O O13 0.512030 0.738563 0.432241
O O14 0.865467 0.589722 0.280742
O O15 0.227688 0.194918 0.741211
O O16 0.380792 0.888654 0.406657
O O17 0.298902 0.434463 0.958619
#
# Coordination Sequence:
#
# PCOD9100440 Si02
#       8
#     2   2   2   2   2   2   2   2
#     4   9  21  38  61  91 118 160 211 251 305 375
#     4  11  23  41  62  90 129 159 211 255 306 371
#     4   9  19  38  60  89 122 160 206 255 305 370
#     4  11  22  36  62  87 123 161 199 257 321 356
#     4  10  20  37  64  88 121 159 209 256 301 372
#     4  10  25  41  60  93 129 163 205 260 309 370
#     4  11  22  38  66  89 120 169 210 250 309 372
#     4  11  23  41  65  89 129 167 205 256 319 360
#
# _framework density 23.537617999999998
#
# number of rings (size 3 to 8) (size 9 to 14) (size 15 to 20)
#    0.000    1.750    1.250    3.375    1.750    4.500 
#    0.000    0.000    0.000    3.750    0.000    0.000 
#    0.000    0.000    0.000    0.000    0.000    0.000 
#
# Total GULP energy -89140.524832 kJ/mol
# GULP energy per Si atom -5571.282802 kJ/mol
# Density = 2.348405 g / cm^3
# Si number density = 23.537618 Si / 1000 Ang^3
#
#
#
# Elastic Constant Matrix: (Units=GPa)
#
#
# Indices 1 2 3 4 5 6 
#
# 1 41.0241 4.0053 -0.7915 6.7812 -7.2201 4.3212
# 2 4.0053 62.3997 15.5024 14.1559 -11.1459 -1.8815
# 3 -0.7915 15.5024 86.4942 11.4151 -3.3438 -0.7265
# 4 6.7812 14.1559 11.4151 26.2337 -3.5376 -2.5242
# 5 -7.2201 -11.1459 -3.3438 -3.5376 23.3136 6.1827
# 6 4.3212 -1.8815 -0.7265 -2.5242 6.1827 34.0442
#
#
#
# Elastic Compliance Matrix: (Units=1/GPa)
#
#
# Indices 1 2 3 4 5 6 
#
# 1 0.027887 0.001180 0.001387 -0.007689 0.009768 -0.005789
# 2 0.001180 0.020043 -0.002046 -0.009197 0.008612 -0.001332
# 3 0.001387 -0.002046 0.012581 -0.004685 0.000675 -0.000491
# 4 -0.007689 -0.009197 -0.004685 0.047321 -0.001363 0.004124
# 5 0.009768 0.008612 0.000675 -0.001363 0.052689 -0.010419
# 6 -0.005789 -0.001332 -0.000491 0.004124 -0.010419 0.032222
#
#
# Mechanical properties :
#
#
# Convention : Reuss Voigt Hill
#
# Bulk Modulus (GPa) = 16.24599 25.26115 20.75357
# Shear Modulus (GPa) = 23.56064 28.13175 25.84620
#
# Velocity S-wave (km/s) = 3.16726 3.46089 3.31732
# Velocity P-wave (km/s) = 4.50472 5.16971 4.84863
#
# Compressibility (1/GPa) = 0.06155366
#
# Stress axis : x y z
#
# Youngs Moduli (GPa) = 35.85861 49.89351 79.48374
#
# Poissons Ratio (x) = -0.05886 -0.11028
# Poissons Ratio (y) = -0.04230 0.16262
# Poissons Ratio (z) = -0.04975 0.10208
#
# Static dielectric constant tensor:
#      x y z
#    x 1.978960 0.016410 0.022720 
#    y 0.016410 2.037990 -0.059150 
#    z 0.022720 -0.059150 1.959420 
# 
# From -- ./inp_files/505561.got.cif
#   From: 2010.05.17/outbox.cif.g08.bks.cpg/sg2_253_cif.got.tgz:505561.got - 2010.06.03 11:33:40.
