data_PCOD9100043
_publ_section_title
;
Structure prediction by ZEFSAII (Michael W. Deem and Ramdas Pophale) SiO2 
 PCOD9100043
Probable space group: P -1
;
_chemical_formula_sum "Si O2"
_cell_formula_units_Z 15
_cell_length_a 22.174270
_cell_length_b 12.844821
_cell_length_c 9.456141
_cell_angle_alpha 34.590630
_cell_angle_beta 36.084560
_cell_angle_gamma 22.861675
_cell_volume 578.833249
_symmetry_space_group_name_H-M "P -1"
_symmetry_group_IT_number 2
_symmetry_cell_setting 'triclinic'
loop_
_space_group_symop_operation_xyz
x,y,z
-x,-y,-z
loop_
_atom_site_type_symbol
_atom_site_label
_atom_site_fract_x
_atom_site_fract_y
_atom_site_fract_z
Si Si1 0.288823 0.343943 0.248912
Si Si2 0.524121 0.547025 0.699085
Si Si3 0.000472 0.118303 0.164628
Si Si4 0.906302 0.616103 0.229693
Si Si5 0.000000 0.000000 0.000000
Si Si6 0.352196 0.307761 0.845719
Si Si7 0.679412 0.469762 0.774296
Si Si8 0.749248 0.893853 0.926650
O O1 0.192903 0.301922 0.536143
O O2 0.382096 0.286930 0.276231
O O3 0.356185 0.251796 0.066495
O O4 0.160935 0.681740 0.103903
O O5 0.517402 0.715114 0.408622
O O6 0.585292 0.573633 0.691225
O O7 0.640866 0.220017 0.797062
O O8 0.364145 0.661912 0.917332
O O9 0.810497 0.355047 0.266792
O O10 0.130747 0.787258 0.330921
O O11 0.049225 0.231897 0.027297
O O12 0.015086 0.128352 0.958044
O O13 0.080351 0.280930 0.271270
O O14 0.802444 0.730765 0.157395
O O15 0.330567 0.152607 0.968009
#
# Coordination Sequence:
#
# PCOD9100043 Si02
#       8
#     2   2   2   2   1   2   2   2
#     4  10  21  39  60  91 121 162 201 251 306 368
#     4  11  23  42  64  89 124 167 198 262 300 367
#     4   9  18  37  58  92 115 154 200 252 297 362
#     4  10  20  37  62  91 124 154 203 261 300 355
#     4   8  18  30  54  86 116 146 196 234 298 348
#     4  10  23  40  63  93 126 154 207 255 309 358
#     4  10  22  41  62  89 120 161 215 237 311 367
#     4  10  22  39  60  97 122 158 207 255 306 358
#
# _framework density 25.914199
#
# number of rings (size 3 to 8) (size 9 to 14) (size 15 to 20)
#    0.000    2.133    1.333    0.800    5.600    5.867 
#    4.800    2.667    0.000    0.000    0.000    0.000 
#    0.000    0.000    0.000    0.000    0.000    0.000 
#
# Total GULP energy -83536.630514 kJ/mol
# GULP energy per Si atom -5569.108701 kJ/mol
# Density = 2.585522 g / cm^3
# Si number density = 25.914199 Si / 1000 Ang^3
#
#
#
# Elastic Constant Matrix: (Units=GPa)
#
#
# Indices 1 2 3 4 5 6 
#
# 1 87.5016 -5.3527 11.6663 -13.1198 -2.5959 7.3411
# 2 -5.3527 86.6639 37.5716 -15.4989 -0.7031 -5.8141
# 3 11.6663 37.5716 122.2663 19.1759 6.1100 16.8079
# 4 -13.1198 -15.4989 19.1759 28.4961 4.7759 -3.8177
# 5 -2.5959 -0.7031 6.1100 4.7759 25.2227 3.0881
# 6 7.3411 -5.8141 16.8079 -3.8177 3.0881 31.7435
#
#
#
# Elastic Compliance Matrix: (Units=1/GPa)
#
#
# Indices 1 2 3 4 5 6 
#
# 1 0.014539 0.006222 -0.005925 0.014410 0.000053 0.002642
# 2 0.006222 0.023835 -0.014028 0.027496 -0.002202 0.013875
# 3 -0.005925 -0.014028 0.018927 -0.025172 0.000936 -0.014339
# 4 0.014410 0.027496 -0.025172 0.078647 -0.009658 0.025430
# 5 0.000053 -0.002202 0.000936 -0.009658 0.041946 -0.006154
# 6 0.002642 0.013875 -0.014339 0.025430 -0.006154 0.044682
#
#
# Mechanical properties :
#
#
# Convention : Reuss Voigt Hill
#
# Bulk Modulus (GPa) = 33.51315 42.68915 38.10115
# Shear Modulus (GPa) = 19.23183 33.92888 26.58035
#
# Velocity S-wave (km/s) = 2.72717 3.62232 3.20614
# Velocity P-wave (km/s) = 4.78299 5.83129 5.33296
#
# Compressibility (1/GPa) = 0.02983903
#
# Stress axis : x y z
#
# Youngs Moduli (GPa) = 68.77840 41.95542 52.83409
#
# Poissons Ratio (x) = -0.26103 0.31305
# Poissons Ratio (y) = -0.42791 0.74114
# Poissons Ratio (z) = 0.40752 0.58854
#
# Static dielectric constant tensor:
#      x y z
#    x 2.023220 -0.012280 -0.023270 
#    y -0.012280 2.172260 0.052440 
#    z -0.023270 0.052440 2.025260 
# 
# From -- ./inp_files/344930.got.cif
#   From: 2010.05.17/outbox.cif.g08.bks.cpg/sg2_173_cif.got.tgz:344930.got - 2010.06.03 11:33:40.
