data_PCOD9100063
_publ_section_title
;
Structure prediction by ZEFSAII (Michael W. Deem and Ramdas Pophale) SiO2 
 PCOD9100063
Probable space group: P -1
;
_chemical_formula_sum "Si O2"
_cell_formula_units_Z 14
_cell_length_a 10.287117
_cell_length_b 8.078504
_cell_length_c 18.557699
_cell_angle_alpha 116.358639
_cell_angle_beta 142.346045
_cell_angle_gamma 89.147391
_cell_volume 665.667422
_symmetry_space_group_name_H-M "P -1"
_symmetry_group_IT_number 2
_symmetry_cell_setting 'triclinic'
loop_
_space_group_symop_operation_xyz
x,y,z
-x,-y,-z
loop_
_atom_site_type_symbol
_atom_site_label
_atom_site_fract_x
_atom_site_fract_y
_atom_site_fract_z
Si Si1 0.179601 0.108859 0.671904
Si Si2 0.215813 0.720355 0.587292
Si Si3 0.633246 0.434195 0.607088
Si Si4 0.414299 0.346166 0.071044
Si Si5 0.938218 0.961865 0.690570
Si Si6 0.074778 0.609824 0.726038
Si Si7 0.719874 0.744939 0.836289
O O1 0.418735 0.382749 0.824014
O O2 0.005974 0.049212 0.655485
O O3 0.284653 0.955402 0.693792
O O4 0.000000 0.000000 0.500000
O O5 0.485147 0.750421 0.705633
O O6 0.000000 0.500000 0.500000
O O7 0.072539 0.630614 0.430282
O O8 0.500000 0.500000 0.500000
O O9 0.699468 0.562291 0.737775
O O10 0.919009 0.523927 0.716966
O O11 0.374768 0.166737 0.454886
O O12 0.612735 0.280229 0.123747
O O13 0.350258 0.322234 0.123436
O O14 0.139519 0.173424 0.873441
O O15 0.006369 0.776908 0.695625
O O16 0.000000 0.000000 0.000000
#
# Coordination Sequence:
#
# PCOD9100063 Si02
#       7
#     2   2   2   2   2   2   2
#     4  12  23  40  66  94 131 173 212 264 319 382
#     4  12  20  41  68  96 124 168 220 263 313 382
#     4  10  20  37  62  92 125 161 205 265 319 359
#     4  12  25  40  64  99 128 168 216 262 319 380
#     4  11  22  40  64  91 131 166 214 265 316 376
#     4  11  21  39  68  96 124 166 217 263 314 378
#     4  12  23  41  68  99 127 166 216 268 319 381
#
# _framework density 21.031521000000001
#
# number of rings (size 3 to 8) (size 9 to 14) (size 15 to 20)
#    0.000    0.571    7.143    3.429    0.000    1.143 
#    0.000    1.429    0.000    0.000    0.000    0.000 
#    0.000    0.000    0.000    0.000    0.000    0.000 
#
# Total GULP energy -78164.758688 kJ/mol
# GULP energy per Si atom -5583.197049 kJ/mol
# Density = 2.098365 g / cm^3
# Si number density = 21.031521 Si / 1000 Ang^3
#
#
#
# Elastic Constant Matrix: (Units=GPa)
#
#
# Indices 1 2 3 4 5 6 
#
# 1 143.9978 31.2403 47.4096 1.7358 7.3378 34.4651
# 2 31.2403 49.2605 24.4804 25.4159 1.5139 12.2519
# 3 47.4096 24.4804 141.5505 11.9344 2.3704 19.5686
# 4 1.7358 25.4159 11.9344 33.3049 6.9361 -3.7428
# 5 7.3378 1.5139 2.3704 6.9361 39.4849 4.3408
# 6 34.4651 12.2519 19.5686 -3.7428 4.3408 34.9101
#
#
#
# Elastic Compliance Matrix: (Units=1/GPa)
#
#
# Indices 1 2 3 4 5 6 
#
# 1 0.010540 -0.006627 -0.001895 0.004846 -0.001752 -0.006280
# 2 -0.006627 0.049594 -0.000889 -0.040673 0.008260 -0.015752
# 3 -0.001895 -0.000889 0.008480 -0.002735 0.000682 -0.002948
# 4 0.004846 -0.040673 -0.002735 0.066741 -0.013078 0.019805
# 5 -0.001752 0.008260 0.000682 -0.013078 0.028303 -0.006473
# 6 -0.006280 -0.015752 -0.002948 0.019805 -0.006473 0.044954
#
#
# Mechanical properties :
#
#
# Convention : Reuss Voigt Hill
#
# Bulk Modulus (GPa) = 20.08365 60.11881 40.10123
# Shear Modulus (GPa) = 20.48908 36.98521 28.73715
#
# Velocity S-wave (km/s) = 3.12462 4.19807 3.70047
# Velocity P-wave (km/s) = 4.75265 7.22119 6.11282
#
# Compressibility (1/GPa) = 0.04979176
#
# Stress axis : x y z
#
# Youngs Moduli (GPa) = 94.87377 20.16371 117.92660
#
# Poissons Ratio (x) = 0.13363 0.22349
# Poissons Ratio (y) = 0.62876 0.10481
# Poissons Ratio (z) = 0.17980 0.01792
#
# Static dielectric constant tensor:
#      x y z
#    x 1.801090 -0.018720 -0.007040 
#    y -0.018720 1.825990 -0.010280 
#    z -0.007040 -0.010280 1.726400 
# 
# From -- ./inp_files/160214.got.cif
#   From: 2010.05.17/outbox.cif.g08.bks.cpg/sg2_81_cif.got.tgz:160214.got - 2010.06.03 11:33:40.
