data_PCOD9100060
_publ_section_title
;
Structure prediction by ZEFSAII (Michael W. Deem and Ramdas Pophale) SiO2 
 PCOD9100060
Probable space group: P -1
;
_chemical_formula_sum "Si O2"
_cell_formula_units_Z 14
_cell_length_a 13.155969
_cell_length_b 9.257716
_cell_length_c 7.903543
_cell_angle_alpha 67.677402
_cell_angle_beta 132.318850
_cell_angle_gamma 125.380917
_cell_volume 580.232860
_symmetry_space_group_name_H-M "P -1"
_symmetry_group_IT_number 2
_symmetry_cell_setting 'triclinic'
loop_
_space_group_symop_operation_xyz
x,y,z
-x,-y,-z
loop_
_atom_site_type_symbol
_atom_site_label
_atom_site_fract_x
_atom_site_fract_y
_atom_site_fract_z
Si Si1 0.716557 0.068507 0.525333
Si Si2 0.518591 0.657294 0.579346
Si Si3 0.827445 0.936460 0.399734
Si Si4 0.796205 0.573229 0.544741
Si Si5 0.999240 0.435325 0.724388
Si Si6 0.524078 0.873900 0.948933
Si Si7 0.691606 0.528262 0.055868
O O1 0.859110 0.238708 0.694144
O O2 0.575308 0.115715 0.322845
O O3 0.625938 0.862073 0.564972
O O4 0.805209 0.060483 0.456070
O O5 0.500000 0.500000 0.500000
O O6 0.338619 0.597721 0.441092
O O7 0.599361 0.629675 0.849066
O O8 0.790382 0.747552 0.524063
O O9 0.703513 0.920154 0.124130
O O10 0.000000 0.000000 0.500000
O O11 0.958773 0.567258 0.729972
O O12 0.750765 0.567838 0.297084
O O13 0.000000 0.500000 0.500000
O O14 0.163305 0.435721 0.919000
O O15 0.430556 0.677124 0.002942
O O16 0.500000 0.000000 0.000000
#
# Coordination Sequence:
#
# PCOD9100060 Si02
#       7
#     2   2   2   2   2   2   2
#     4  11  22  42  63  94 131 173 208 260 333 372
#     4  12  24  43  63  93 139 169 210 271 319 385
#     4  11  22  37  65  97 126 163 223 261 309 388
#     4  11  22  41  67  96 124 172 216 265 316 377
#     4  10  21  40  66  95 131 165 214 276 311 378
#     4  10  20  37  62  92 121 170 213 247 319 388
#     4  11  22  42  69  92 127 173 218 259 323 382
#
# _framework density 24.128243999999999
#
# number of rings (size 3 to 8) (size 9 to 14) (size 15 to 20)
#    0.000    1.143    5.714    3.000    2.000    1.143 
#    0.000    2.143    0.000    0.000    0.000    0.000 
#    0.000    0.000    0.000    0.000    0.000    0.000 
#
# Total GULP energy -78169.279918 kJ/mol
# GULP energy per Si atom -5583.519994 kJ/mol
# Density = 2.407333 g / cm^3
# Si number density = 24.128244 Si / 1000 Ang^3
#
#
#
# Elastic Constant Matrix: (Units=GPa)
#
#
# Indices 1 2 3 4 5 6 
#
# 1 97.1060 20.1790 23.3381 2.0667 40.6515 2.2387
# 2 20.1790 128.2865 23.8394 -12.4060 11.3820 17.5725
# 3 23.3381 23.8394 44.1289 4.8384 29.0203 10.4356
# 4 2.0667 -12.4060 4.8384 25.2568 0.1340 -1.6460
# 5 40.6515 11.3820 29.0203 0.1340 44.5484 6.9690
# 6 2.2387 17.5725 10.4356 -1.6460 6.9690 48.7435
#
#
#
# Elastic Compliance Matrix: (Units=1/GPa)
#
#
# Indices 1 2 3 4 5 6 
#
# 1 0.017484 -0.002412 0.003945 -0.003163 -0.018167 0.001712
# 2 -0.002412 0.010087 -0.007516 0.006410 0.004875 -0.002397
# 3 0.003945 -0.007516 0.048391 -0.013348 -0.032596 -0.003622
# 4 -0.003163 0.006410 -0.013348 0.045561 0.009674 0.000848
# 5 -0.018167 0.004875 -0.032596 0.009674 0.059313 -0.002098
# 6 0.001712 -0.002397 -0.003622 0.000848 -0.002098 0.022405
#
#
# Mechanical properties :
#
#
# Convention : Reuss Voigt Hill
#
# Bulk Modulus (GPa) = 15.62585 44.91494 30.27039
# Shear Modulus (GPa) = 21.13826 37.18738 29.16282
#
# Velocity S-wave (km/s) = 2.96308 3.93012 3.48035
# Velocity P-wave (km/s) = 4.26575 6.26498 5.35941
#
# Compressibility (1/GPa) = 0.06399653
#
# Stress axis : x y z
#
# Youngs Moduli (GPa) = 57.19492 99.14051 20.66513
#
# Poissons Ratio (x) = 0.23912 -0.08152
# Poissons Ratio (y) = 0.13795 0.15531
# Poissons Ratio (z) = -0.22564 0.74510
#
# Static dielectric constant tensor:
#      x y z
#    x 2.002130 -0.007560 -0.066780 
#    y -0.007560 1.973360 0.011930 
#    z -0.066780 0.011930 1.958350 
# 
# From -- ./inp_files/198941.got.cif
#   From: 2010.05.17/outbox.cif.g08.bks.cpg/sg2_100_cif.got.tgz:198941.got - 2010.06.03 11:33:40.
