data_PCOD9100554
_publ_section_title
;
Structure prediction by ZEFSAII (Michael W. Deem and Ramdas Pophale) SiO2 
 PCOD9100554
Probable space group: P -1
;
_chemical_formula_sum "Si O2"
_cell_formula_units_Z 14
_cell_length_a 13.662691
_cell_length_b 9.162574
_cell_length_c 13.548545
_cell_angle_alpha 85.490789
_cell_angle_beta 150.490292
_cell_angle_gamma 113.696428
_cell_volume 611.351661
_symmetry_space_group_name_H-M "P -1"
_symmetry_group_IT_number 2
_symmetry_cell_setting 'triclinic'
loop_
_space_group_symop_operation_xyz
x,y,z
-x,-y,-z
loop_
_atom_site_type_symbol
_atom_site_label
_atom_site_fract_x
_atom_site_fract_y
_atom_site_fract_z
Si Si1 0.220054 0.006990 0.459312
Si Si2 0.259067 0.603408 0.432879
Si Si3 0.186428 0.367411 0.989447
Si Si4 0.985757 0.191320 0.319297
Si Si5 0.356545 0.483746 0.776796
Si Si6 0.309779 0.607806 0.257475
Si Si7 0.582161 0.166082 0.250158
O O1 0.107855 0.094367 0.407841
O O2 0.511626 0.190249 0.659891
O O3 0.233327 0.878721 0.553914
O O4 0.022286 0.866831 0.203015
O O5 0.129958 0.388921 0.370308
O O6 0.396142 0.652115 0.444555
O O7 0.455899 0.775929 0.677720
O O8 0.000039 0.583642 0.199604
O O9 0.429541 0.464357 0.121611
O O10 0.301256 0.454847 0.194345
O O11 0.070535 0.274789 0.500800
O O12 0.675947 0.026609 0.022960
O O13 0.325466 0.644413 0.739732
O O14 0.500000 0.500000 0.000000
O O15 0.000000 0.500000 0.000000
#
# Coordination Sequence:
#
# PCOD9100554 Si02
#       7
#     2   2   2   2   2   2   2
#     4  11  22  39  67  90 130 169 202 253 313 357
#     4   9  22  38  63  92 129 166 208 248 305 368
#     4  10  20  41  64  88 129 166 204 262 308 364
#     4  11  22  41  67  90 127 167 202 261 309 367
#     4  11  24  44  67  92 121 161 212 262 316 375
#     4  10  20  37  64  94 128 169 210 246 302 367
#     4  10  22  42  62  93 126 162 206 260 309 371
#
# _framework density 22.900079000000002
#
# number of rings (size 3 to 8) (size 9 to 14) (size 15 to 20)
#    0.000    1.714    2.857    1.714    0.000    7.429 
#    0.000    8.571    0.000    0.000    0.000    0.000 
#    0.000    0.000    0.000    0.000    0.000    0.000 
#
# Total GULP energy -78139.440786 kJ/mol
# GULP energy per Si atom -5581.388628 kJ/mol
# Density = 2.284796 g / cm^3
# Si number density = 22.900079 Si / 1000 Ang^3
#
#
#
# Elastic Constant Matrix: (Units=GPa)
#
#
# Indices 1 2 3 4 5 6 
#
# 1 49.1648 6.0593 3.5974 3.8470 -2.3015 1.7733
# 2 6.0593 108.9759 4.8363 -11.9070 -12.1199 -21.4493
# 3 3.5974 4.8363 96.2791 13.9815 -18.1323 -7.8800
# 4 3.8470 -11.9070 13.9815 48.8196 -11.1061 -6.1524
# 5 -2.3015 -12.1199 -18.1323 -11.1061 32.6167 -2.8414
# 6 1.7733 -21.4493 -7.8800 -6.1524 -2.8414 20.6177
#
#
#
# Elastic Compliance Matrix: (Units=1/GPa)
#
#
# Indices 1 2 3 4 5 6 
#
# 1 0.021205 -0.003032 -0.001061 -0.003391 -0.001956 -0.006665
# 2 -0.003032 0.015819 0.002010 0.008930 0.011718 0.021766
# 3 -0.001061 0.002010 0.012573 -0.000111 0.008330 0.008103
# 4 -0.003391 0.008930 -0.000111 0.028818 0.014585 0.020149
# 5 -0.001956 0.011718 0.008330 0.014585 0.046767 0.026341
# 6 -0.006665 0.021766 0.008103 0.020149 0.026341 0.084459
#
#
# Mechanical properties :
#
#
# Convention : Reuss Voigt Hill
#
# Bulk Modulus (GPa) = 22.01138 31.48955 26.75046
# Shear Modulus (GPa) = 21.83873 36.40593 29.12233
#
# Velocity S-wave (km/s) = 3.09148 3.99152 3.56998
# Velocity P-wave (km/s) = 4.73030 5.91808 5.35721
#
# Compressibility (1/GPa) = 0.04543105
#
# Stress axis : x y z
#
# Youngs Moduli (GPa) = 47.15799 63.21597 79.53431
#
# Poissons Ratio (x) = 0.19167 0.08442
# Poissons Ratio (y) = 0.14298 -0.15988
# Poissons Ratio (z) = 0.05005 -0.12708
#
# Static dielectric constant tensor:
#      x y z
#    x 1.884290 0.003870 -0.031560 
#    y 0.003870 1.843660 -0.025740 
#    z -0.031560 -0.025740 1.917380 
# 
# From -- ./inp_files/505069.got.cif
#   From: 2010.05.17/outbox.cif.g08.bks.cpg/sg2_253_cif.got.tgz:505069.got - 2010.06.03 11:33:40.
