data_PCOD9100151
_publ_section_title
;
Structure prediction by ZEFSAII (Michael W. Deem and Ramdas Pophale) SiO2 
 PCOD9100151
Probable space group: P -1
;
_chemical_formula_sum "Si O2"
_cell_formula_units_Z 12
_cell_length_a 5.381330
_cell_length_b 12.417913
_cell_length_c 9.786072
_cell_angle_alpha 66.819204
_cell_angle_beta 96.413525
_cell_angle_gamma 109.848128
_cell_volume 565.264375
_symmetry_space_group_name_H-M "P -1"
_symmetry_group_IT_number 2
_symmetry_cell_setting 'triclinic'
loop_
_space_group_symop_operation_xyz
x,y,z
-x,-y,-z
loop_
_atom_site_type_symbol
_atom_site_label
_atom_site_fract_x
_atom_site_fract_y
_atom_site_fract_z
Si Si1 0.268096 0.760312 0.954568
Si Si2 0.810465 0.705679 0.407258
Si Si3 0.653673 0.492781 0.877369
Si Si4 0.697941 0.467900 0.387754
Si Si5 0.907885 0.286049 0.317571
Si Si6 0.860978 0.853624 0.059746
O O1 0.266789 0.790689 0.777082
O O2 0.210895 0.612442 0.043722
O O3 0.564626 0.820563 0.999199
O O4 0.048331 0.798807 0.005534
O O5 0.891548 0.586787 0.419749
O O6 0.514553 0.633271 0.480891
O O7 0.838454 0.798004 0.238879
O O8 0.990874 0.768803 0.516596
O O9 0.464109 0.462292 0.749718
O O10 0.836171 0.630771 0.788726
O O11 0.500000 0.500000 0.000000
O O12 0.797517 0.389145 0.324360
O O13 0.000000 0.000000 0.000000
#
# Coordination Sequence:
#
# PCOD9100151 Si02
#       6
#     2   2   2   2   2   2
#     4  12  25  44  70 100 135 177 229 281 335 398
#     4  10  23  39  64  97 136 181 217 273 332 408
#     4  11  20  35  61 105 143 176 210 268 338 419
#     4  10  20  37  62  98 142 175 213 258 346 413
#     4  11  23  36  65 101 141 176 214 270 347 412
#     4  12  28  50  72  94 128 182 242 289 331 387
#
# _framework density 21.229005999999998
#
# number of rings (size 3 to 8) (size 9 to 14) (size 15 to 20)
#    0.000    1.000    3.333    3.500    4.667    0.000 
#    0.000    1.667    0.000    0.000    0.000    0.000 
#    0.000    0.000    0.000    0.000    0.000    0.000 
#
# Total GULP energy -67015.680469 kJ/mol
# GULP energy per Si atom -5584.640039 kJ/mol
# Density = 2.118069 g / cm^3
# Si number density = 21.229006 Si / 1000 Ang^3
#
#
#
# Elastic Constant Matrix: (Units=GPa)
#
#
# Indices 1 2 3 4 5 6 
#
# 1 80.3152 23.2641 57.3287 16.4187 -2.6594 1.8655
# 2 23.2641 64.4100 67.4620 0.3124 4.5145 4.6986
# 3 57.3287 67.4620 200.0245 25.9705 5.0751 12.1628
# 4 16.4187 0.3124 25.9705 35.0740 5.8327 -0.6530
# 5 -2.6594 4.5145 5.0751 5.8327 30.1334 16.1180
# 6 1.8655 4.6986 12.1628 -0.6530 16.1180 33.6945
#
#
#
# Elastic Compliance Matrix: (Units=1/GPa)
#
#
# Indices 1 2 3 4 5 6 
#
# 1 0.017036 -0.003234 -0.002946 -0.006585 0.004733 -0.001820
# 2 -0.003234 0.026533 -0.009234 0.009168 -0.006013 0.002866
# 3 -0.002946 -0.009234 0.009933 -0.006382 0.002545 -0.003476
# 4 -0.006585 0.009168 -0.006382 0.038509 -0.012735 0.008228
# 5 0.004733 -0.006013 0.002545 -0.012735 0.049528 -0.024281
# 6 -0.001820 0.002866 -0.003476 0.008228 -0.024281 0.042409
#
#
# Mechanical properties :
#
#
# Convention : Reuss Voigt Hill
#
# Bulk Modulus (GPa) = 44.10408 71.20660 57.65534
# Shear Modulus (GPa) = 22.48855 32.89336 27.69096
#
# Velocity S-wave (km/s) = 3.25827 3.94058 3.61556
# Velocity P-wave (km/s) = 5.91401 7.37015 6.68187
#
# Compressibility (1/GPa) = 0.02267364
#
# Stress axis : x y z
#
# Youngs Moduli (GPa) = 58.69911 37.68878 100.66984
#
# Poissons Ratio (x) = 0.12190 0.29659
# Poissons Ratio (y) = 0.18986 0.92957
# Poissons Ratio (z) = 0.17294 0.34801
#
# Static dielectric constant tensor:
#      x y z
#    x 1.903550 0.045820 0.080570 
#    y 0.045820 1.788070 0.082880 
#    z 0.080570 0.082880 1.819480 
# 
# From -- ./inp_files/19254.got.cif
#   From: 2010.05.17/outbox.cif.g08.bks.cpg/sg2_10_cif.got.tgz:19254.got - 2010.06.03 11:33:40.
