data_PCOD9100210
_publ_section_title
;
Structure prediction by ZEFSAII (Michael W. Deem and Ramdas Pophale) SiO2 
 PCOD9100210
Probable space group: P -1
;
_chemical_formula_sum "Si O2"
_cell_formula_units_Z 16
_cell_length_a 12.090506
_cell_length_b 6.259831
_cell_length_c 24.832762
_cell_angle_alpha 52.678265
_cell_angle_beta 29.575416
_cell_angle_gamma 56.913400
_cell_volume 736.870454
_symmetry_space_group_name_H-M "P -1"
_symmetry_group_IT_number 2
_symmetry_cell_setting 'triclinic'
loop_
_space_group_symop_operation_xyz
x,y,z
-x,-y,-z
loop_
_atom_site_type_symbol
_atom_site_label
_atom_site_fract_x
_atom_site_fract_y
_atom_site_fract_z
Si Si1 0.695485 0.641696 0.027531
Si Si2 0.272069 0.917045 0.854907
Si Si3 0.177527 0.443088 0.680402
Si Si4 0.444957 0.940276 0.469914
Si Si5 0.110339 0.475267 0.825076
Si Si6 0.513061 0.662220 0.696419
Si Si7 0.332552 0.464137 0.126672
Si Si8 0.460781 0.896049 0.183039
O O1 0.795503 0.383743 0.058376
O O2 0.467965 0.574444 0.103453
O O3 0.630449 0.859693 0.066218
O O4 0.886212 0.661287 0.898996
O O5 0.441239 0.881316 0.738483
O O6 0.084090 0.151859 0.888887
O O7 0.409459 0.004497 0.835077
O O8 0.264012 0.711942 0.575221
O O9 0.326336 0.193882 0.632233
O O10 0.218677 0.499340 0.717303
O O11 0.913504 0.399162 0.794896
O O12 0.500000 0.000000 0.500000
O O13 0.373909 0.197036 0.423635
O O14 0.282405 0.560551 0.784413
O O15 0.622897 0.398076 0.720296
O O16 0.296720 0.145929 0.198371
O O17 0.500000 0.500000 0.000000
#
# Coordination Sequence:
#
# PCOD9100210 Si02
#       8
#     2   2   2   2   2   2   2   2
#     4  10  21  36  56  88 124 167 202 241 298 362
#     4   9  19  35  56  85 126 159 200 249 304 358
#     4  11  24  39  62  93 122 161 206 246 307 368
#     4  11  23  42  65  92 120 156 206 264 310 349
#     4  11  19  33  57  92 122 158 200 248 306 362
#     4  10  20  37  63  88 120 156 203 259 305 353
#     4  11  23  42  61  87 130 169 200 242 299 372
#     4   9  22  38  59  88 122 166 206 242 296 368
#
# _framework density 21.713449000000001
#
# number of rings (size 3 to 8) (size 9 to 14) (size 15 to 20)
#    0.000    1.750    3.750    0.375    0.000    9.000 
#    0.000    0.625    0.000    7.500    0.000    0.000 
#    0.000    0.000    0.000    0.000    0.000    0.000 
#
# Total GULP energy -89245.524226 kJ/mol
# GULP energy per Si atom -5577.845264 kJ/mol
# Density = 2.166403 g / cm^3
# Si number density = 21.713449 Si / 1000 Ang^3
#
#
#
# Elastic Constant Matrix: (Units=GPa)
#
#
# Indices 1 2 3 4 5 6 
#
# 1 74.4998 26.1612 26.8276 12.8033 18.0231 13.7644
# 2 26.1612 70.2357 19.8098 8.6035 11.6593 4.0722
# 3 26.8276 19.8098 70.4454 8.7720 12.2207 -4.3441
# 4 12.8033 8.6035 8.7720 35.0538 5.7493 12.8169
# 5 18.0231 11.6593 12.2207 5.7493 35.4503 7.0241
# 6 13.7644 4.0722 -4.3441 12.8169 7.0241 30.4789
#
#
#
# Elastic Compliance Matrix: (Units=1/GPa)
#
#
# Indices 1 2 3 4 5 6 
#
# 1 0.019835 -0.004350 -0.005793 -0.001142 -0.004970 -0.007577
# 2 -0.004350 0.017144 -0.002478 -0.001842 -0.002403 0.000649
# 3 -0.005793 -0.002478 0.018797 -0.004426 -0.003652 0.008329
# 4 -0.001142 -0.001842 -0.004426 0.036005 -0.000160 -0.014973
# 5 -0.004970 -0.002403 -0.003652 -0.000160 0.033942 -0.005710
# 6 -0.007577 0.000649 0.008329 -0.014973 -0.005710 0.044944
#
#
# Mechanical properties :
#
#
# Convention : Reuss Voigt Hill
#
# Bulk Modulus (GPa) = 32.75174 40.08647 36.41910
# Shear Modulus (GPa) = 24.26158 29.68875 26.97516
#
# Velocity S-wave (km/s) = 3.34631 3.70171 3.52849
# Velocity P-wave (km/s) = 5.48149 6.06398 5.78008
#
# Compressibility (1/GPa) = 0.03053273
#
# Stress axis : x y z
#
# Youngs Moduli (GPa) = 50.41604 58.33005 53.20028
#
# Poissons Ratio (x) = 0.25373 0.30821
# Poissons Ratio (y) = 0.21930 0.13184
# Poissons Ratio (z) = 0.29208 0.14456
#
# Static dielectric constant tensor:
#      x y z
#    x 1.780870 -0.026790 0.053470 
#    y -0.026790 1.851140 -0.048520 
#    z 0.053470 -0.048520 1.871170 
# 
# From -- ./inp_files/70375.got.cif
#   From: 2010.05.17/outbox.cif.g08.bks.cpg/sg2_36_cif.got.tgz:70375.got - 2010.06.03 11:33:40.
