data_PCOD9100138
_publ_section_title
;
Structure prediction by ZEFSAII (Michael W. Deem and Ramdas Pophale) SiO2 
 PCOD9100138
Probable space group: P -1
;
_chemical_formula_sum "Si O2"
_cell_formula_units_Z 14
_cell_length_a 9.275121
_cell_length_b 28.251609
_cell_length_c 5.288189
_cell_angle_alpha 70.658332
_cell_angle_beta 77.111455
_cell_angle_gamma 26.542838
_cell_volume 575.394163
_symmetry_space_group_name_H-M "P -1"
_symmetry_group_IT_number 2
_symmetry_cell_setting 'triclinic'
loop_
_space_group_symop_operation_xyz
x,y,z
-x,-y,-z
loop_
_atom_site_type_symbol
_atom_site_label
_atom_site_fract_x
_atom_site_fract_y
_atom_site_fract_z
Si Si1 0.493903 0.446080 0.471730
Si Si2 0.783755 0.025993 0.801904
Si Si3 0.175868 0.330686 0.880769
Si Si4 0.308545 0.105465 0.496896
Si Si5 0.605470 0.177676 0.390035
Si Si6 0.131631 0.841459 0.296878
Si Si7 0.882536 0.311527 0.029090
O O1 0.500000 0.500000 0.500000
O O2 0.640706 0.371597 0.785302
O O3 0.294852 0.622943 0.747364
O O4 0.127616 0.546997 0.331955
O O5 0.543754 0.068838 0.634514
O O6 0.632130 0.127384 0.685643
O O7 0.156566 0.918896 0.740201
O O8 0.861111 0.965095 0.107507
O O9 0.514890 0.253768 0.795445
O O10 0.078173 0.303105 0.898597
O O11 0.253706 0.299044 0.206220
O O12 0.020983 0.166459 0.667384
O O13 0.500000 0.000000 0.500000
O O14 0.136930 0.190779 0.200971
O O15 0.787808 0.172457 0.417166
#
# Coordination Sequence:
#
# PCOD9100138 Si02
#       7
#     2   2   2   2   2   2   2
#     4  10  23  44  75 106 136 176 240 302 353 407
#     4  10  21  39  59  91 132 178 229 277 335 410
#     4  10  22  40  69  99 130 174 229 297 345 406
#     4  12  25  45  65  99 144 192 230 282 351 429
#     4  10  20  37  62  97 128 169 232 281 344 398
#     4  11  24  37  66  97 135 182 230 283 354 415
#     4  11  25  45  72 107 137 185 238 289 354 423
#
# _framework density 24.331146
#
# number of rings (size 3 to 8) (size 9 to 14) (size 15 to 20)
#    0.000    1.429    2.857    2.571    6.000    3.429 
#    0.000    1.429    0.000    0.000    0.000    0.000 
#    0.000    0.000    0.000    0.000    0.000    0.000 
#
# Total GULP energy -78083.299072 kJ/mol
# GULP energy per Si atom -5577.378505 kJ/mol
# Density = 2.427577 g / cm^3
# Si number density = 24.331146 Si / 1000 Ang^3
#
#
#
# Elastic Constant Matrix: (Units=GPa)
#
#
# Indices 1 2 3 4 5 6 
#
# 1 90.3939 29.8820 32.0639 -22.0530 0.2267 -18.6702
# 2 29.8820 120.4333 63.5326 -12.3569 7.3533 -15.9923
# 3 32.0639 63.5326 147.0268 -46.5077 23.3753 -14.5495
# 4 -22.0530 -12.3569 -46.5077 55.4461 -14.6150 8.2653
# 5 0.2267 7.3533 23.3753 -14.6150 30.6453 0.5635
# 6 -18.6702 -15.9923 -14.5495 8.2653 0.5635 32.9234
#
#
#
# Elastic Compliance Matrix: (Units=1/GPa)
#
#
# Indices 1 2 3 4 5 6 
#
# 1 0.014274 -0.002178 -0.000639 0.004622 0.003007 0.005542
# 2 -0.002178 0.011691 -0.005236 -0.003188 -0.000370 0.002937
# 3 -0.000639 -0.005236 0.012438 0.007697 -0.004568 0.000736
# 4 0.004622 -0.003188 0.007697 0.028239 0.008378 -0.002759
# 5 0.003007 -0.000370 -0.004568 0.008378 0.040238 -0.003285
# 6 0.005542 0.002937 0.000736 -0.002759 -0.003285 0.036017
#
#
# Mechanical properties :
#
#
# Convention : Reuss Voigt Hill
#
# Bulk Modulus (GPa) = 44.85010 67.64568 56.24789
# Shear Modulus (GPa) = 30.04141 39.29466 34.66804
#
# Velocity S-wave (km/s) = 3.51763 4.02306 3.77880
# Velocity P-wave (km/s) = 5.91367 7.03153 6.49669
#
# Compressibility (1/GPa) = 0.02229650
#
# Stress axis : x y z
#
# Youngs Moduli (GPa) = 70.05606 85.53323 80.40192
#
# Poissons Ratio (x) = 0.18627 0.05141
# Poissons Ratio (y) = 0.15257 0.42099
# Poissons Ratio (z) = 0.04480 0.44786
#
# Static dielectric constant tensor:
#      x y z
#    x 1.899990 -0.025790 -0.028430 
#    y -0.025790 2.014830 0.067810 
#    z -0.028430 0.067810 2.067240 
# 
# From -- ./inp_files/56841.got.cif
#   From: 2010.05.17/outbox.cif.g08.bks.cpg/sg2_29_cif.got.tgz:56841.got - 2010.06.03 11:33:40.
