data_PCOD9100618
_publ_section_title
;
Structure prediction by ZEFSAII (Michael W. Deem and Ramdas Pophale) SiO2 
 PCOD9100618
Probable space group: P -1
;
_chemical_formula_sum "Si O2"
_cell_formula_units_Z 16
_cell_length_a 20.780881
_cell_length_b 10.450553
_cell_length_c 9.947084
_cell_angle_alpha 55.088171
_cell_angle_beta 144.958178
_cell_angle_gamma 146.566983
_cell_volume 639.980341
_symmetry_space_group_name_H-M "P -1"
_symmetry_group_IT_number 2
_symmetry_cell_setting 'triclinic'
loop_
_space_group_symop_operation_xyz
x,y,z
-x,-y,-z
loop_
_atom_site_type_symbol
_atom_site_label
_atom_site_fract_x
_atom_site_fract_y
_atom_site_fract_z
Si Si1 0.399573 0.925814 0.667798
Si Si2 0.521653 0.855091 0.698049
Si Si3 0.711555 0.703264 0.760162
Si Si4 0.238921 0.692832 0.824134
Si Si5 0.200407 0.327031 0.351420
Si Si6 0.100115 0.786680 0.151123
Si Si7 0.056067 0.215953 0.693463
Si Si8 0.897266 0.251487 0.211147
O O1 0.442662 0.810700 0.737854
O O2 0.292407 0.793189 0.703344
O O3 0.294247 0.919108 0.387395
O O4 0.589168 0.196351 0.876739
O O5 0.390563 0.586432 0.573705
O O6 0.500000 0.000000 0.500000
O O7 0.727965 0.029916 0.962600
O O8 0.500000 0.500000 0.500000
O O9 0.779252 0.666537 0.777976
O O10 0.827825 0.988284 0.773210
O O11 0.776644 0.707294 0.014518
O O12 0.085397 0.399321 0.727559
O O13 0.189626 0.785528 0.774403
O O14 0.119914 0.076426 0.411416
O O15 0.047676 0.289251 0.148580
O O16 0.992232 0.512786 0.169535
O O17 0.033745 0.262643 0.477585
#
# Coordination Sequence:
#
# PCOD9100618 Si02
#       8
#     2   2   2   2   2   2   2   2
#     4  10  23  37  65 101 127 165 222 264 315 379
#     4  11  25  46  65  90 134 182 219 255 321 395
#     4  11  25  41  65  99 135 166 212 272 335 379
#     4  10  20  37  64  99 134 158 210 278 324 369
#     4  11  25  43  64  92 133 179 211 261 329 397
#     4  11  21  40  67  98 127 165 224 267 317 382
#     4  11  22  40  66  96 130 163 213 272 326 378
#     4  11  22  39  70  97 127 175 215 268 324 378
#
# _framework density 25.000768000000001
#
# number of rings (size 3 to 8) (size 9 to 14) (size 15 to 20)
#    0.000    1.250    2.500    4.125    7.000    1.000 
#    2.250    0.625    0.000    0.000    0.000    0.000 
#    0.000    0.000    0.000    0.000    0.000    0.000 
#
# Total GULP energy -89257.516370 kJ/mol
# GULP energy per Si atom -5578.594773 kJ/mol
# Density = 2.494386 g / cm^3
# Si number density = 25.000768 Si / 1000 Ang^3
#
#
#
# Elastic Constant Matrix: (Units=GPa)
#
#
# Indices 1 2 3 4 5 6 
#
# 1 33.2511 7.8730 18.7754 -2.4446 -7.0239 -3.3968
# 2 7.8730 161.3666 85.8244 33.6418 -17.6180 -1.9273
# 3 18.7754 85.8244 217.7624 34.5040 5.7446 -3.8738
# 4 -2.4446 33.6418 34.5040 55.3352 1.8002 -5.6842
# 5 -7.0239 -17.6180 5.7446 1.8002 29.2263 1.2123
# 6 -3.3968 -1.9273 -3.8738 -5.6842 1.2123 17.7246
#
#
#
# Elastic Compliance Matrix: (Units=1/GPa)
#
#
# Indices 1 2 3 4 5 6 
#
# 1 0.035103 0.000675 -0.004058 0.004051 0.009118 0.006589
# 2 0.000675 0.009538 -0.003386 -0.004018 0.006880 -0.001333
# 3 -0.004058 -0.003386 0.006733 -0.002192 -0.004201 -0.000090
# 4 0.004051 -0.004018 -0.002192 0.022909 -0.002736 0.007394
# 5 0.009118 0.006880 -0.004201 -0.002736 0.041638 -0.002148
# 6 0.006589 -0.001333 -0.000090 0.007394 -0.002148 0.060035
#
#
# Mechanical properties :
#
#
# Convention : Reuss Voigt Hill
#
# Bulk Modulus (GPa) = 26.42937 70.81395 48.62166
# Shear Modulus (GPa) = 24.73973 40.45105 32.59539
#
# Velocity S-wave (km/s) = 3.14914 4.02679 3.61470
# Velocity P-wave (km/s) = 4.88028 7.07151 6.07550
#
# Compressibility (1/GPa) = 0.03783669
#
# Stress axis : x y z
#
# Youngs Moduli (GPa) = 28.48795 104.84482 148.52406
#
# Poissons Ratio (x) = -0.07080 0.60268
# Poissons Ratio (y) = -0.01924 0.50287
# Poissons Ratio (z) = 0.11560 0.35498
#
# Static dielectric constant tensor:
#      x y z
#    x 2.067660 0.051320 0.000260 
#    y 0.051320 1.963460 -0.050570 
#    z 0.000260 -0.050570 2.054530 
# 
# From -- ./inp_files/476636.got.cif
#   From: 2010.05.17/outbox.cif.g08.bks.cpg/sg2_239_cif.got.tgz:476636.got - 2010.06.03 11:33:40.
