data_PCOD9100552
_publ_section_title
;
Structure prediction by ZEFSAII (Michael W. Deem and Ramdas Pophale) SiO2 
 PCOD9100552
Probable space group: P -1
;
_chemical_formula_sum "Si O2"
_cell_formula_units_Z 14
_cell_length_a 23.307745
_cell_length_b 9.735014
_cell_length_c 16.466157
_cell_angle_alpha 25.217735
_cell_angle_beta 27.530317
_cell_angle_gamma 44.283508
_cell_volume 661.256626
_symmetry_space_group_name_H-M "P -1"
_symmetry_group_IT_number 2
_symmetry_cell_setting 'triclinic'
loop_
_space_group_symop_operation_xyz
x,y,z
-x,-y,-z
loop_
_atom_site_type_symbol
_atom_site_label
_atom_site_fract_x
_atom_site_fract_y
_atom_site_fract_z
Si Si1 0.819493 0.738352 0.307036
Si Si2 0.882039 0.101107 0.623969
Si Si3 0.678430 0.412378 0.989656
Si Si4 0.039842 0.504463 0.354768
Si Si5 0.418357 0.221072 0.820404
Si Si6 0.558480 0.563539 0.621211
Si Si7 0.348947 0.474197 0.218633
O O1 0.882682 0.456387 0.391858
O O2 0.689403 0.565191 0.501803
O O3 0.755687 0.806025 0.435702
O O4 0.923712 0.113721 0.937141
O O5 0.917495 0.203088 0.619278
O O6 0.000000 0.000000 0.500000
O O7 0.729534 0.786265 0.971376
O O8 0.567095 0.518355 0.114871
O O9 0.607687 0.976600 0.309232
O O10 0.817443 0.535658 0.801662
O O11 0.711725 0.549894 0.782114
O O12 0.000000 0.500000 0.500000
O O13 0.500000 0.500000 0.500000
O O14 0.506112 0.309085 0.745274
O O15 0.378314 0.839203 0.033956
O O16 0.500000 0.500000 0.000000
#
# Coordination Sequence:
#
# PCOD9100552 Si02
#       7
#     2   2   2   2   2   2   2
#     4  10  23  41  70  92 130 169 222 266 323 386
#     4  11  25  43  63  95 132 173 214 264 330 388
#     4  10  20  37  64  94 126 166 218 260 320 381
#     4  11  23  42  67  89 128 177 218 262 317 391
#     4  11  23  40  66  92 131 170 214 267 325 380
#     4  10  20  38  65  94 125 167 213 270 319 376
#     4  11  21  38  61 102 129 162 214 269 326 385
#
# _framework density 21.171810000000001
#
# number of rings (size 3 to 8) (size 9 to 14) (size 15 to 20)
#    0.000    1.429    2.857    3.000    2.000    3.429 
#    2.571    0.714    0.000    0.000    0.000    0.000 
#    0.000    0.000    0.000    0.000    0.000    0.000 
#
# Total GULP energy -78258.682540 kJ/mol
# GULP energy per Si atom -5589.905896 kJ/mol
# Density = 2.112362 g / cm^3
# Si number density = 21.171810 Si / 1000 Ang^3
#
#
#
# Elastic Constant Matrix: (Units=GPa)
#
#
# Indices 1 2 3 4 5 6 
#
# 1 140.2432 30.6607 28.4196 5.5133 -3.2977 12.2965
# 2 30.6607 78.9552 6.2160 25.5517 2.3146 -9.7039
# 3 28.4196 6.2160 74.5742 17.3705 14.2099 -0.2150
# 4 5.5133 25.5517 17.3705 23.5727 2.9821 -5.4191
# 5 -3.2977 2.3146 14.2099 2.9821 49.6709 9.7680
# 6 12.2965 -9.7039 -0.2150 -5.4191 9.7680 36.9099
#
#
#
# Elastic Compliance Matrix: (Units=1/GPa)
#
#
# Indices 1 2 3 4 5 6 
#
# 1 0.009841 -0.006388 -0.005482 0.007192 0.003018 -0.004733
# 2 -0.006388 0.024853 0.007874 -0.029673 -0.003069 0.005164
# 3 -0.005482 0.007874 0.020960 -0.021386 -0.005924 0.002446
# 4 0.007192 -0.029673 -0.021386 0.088873 0.002222 0.002138
# 5 0.003018 -0.003069 -0.005924 0.002222 0.023563 -0.007756
# 6 -0.004733 0.005164 0.002446 0.002138 -0.007756 0.032408
#
#
# Mechanical properties :
#
#
# Convention : Reuss Voigt Hill
#
# Bulk Modulus (GPa) = 20.98063 47.15168 34.06616
# Shear Modulus (GPa) = 22.28395 37.26246 29.77320
#
# Velocity S-wave (km/s) = 3.24779 4.19979 3.75409
# Velocity P-wave (km/s) = 4.89851 6.77030 5.90899
#
# Compressibility (1/GPa) = 0.04766301
#
# Stress axis : x y z
#
# Youngs Moduli (GPa) = 101.61542 40.23585 47.71104
#
# Poissons Ratio (x) = 0.25701 0.26155
# Poissons Ratio (y) = 0.64908 -0.37568
# Poissons Ratio (z) = 0.55704 -0.31682
#
# Static dielectric constant tensor:
#      x y z
#    x 1.772870 -0.032880 -0.000990 
#    y -0.032880 1.790730 0.030290 
#    z -0.000990 0.030290 1.840780 
# 
# From -- ./inp_files/201866.got.cif
#   From: 2010.05.17/outbox.cif.g08.bks.cpg/sg2_101_cif.got.tgz:201866.got - 2010.06.03 11:33:40.
