data_PCOD9100450
_publ_section_title
;
Structure prediction by ZEFSAII (Michael W. Deem and Ramdas Pophale) SiO2 
 PCOD9100450
Probable space group: P -1
;
_chemical_formula_sum "Si O2"
_cell_formula_units_Z 12
_cell_length_a 9.340090
_cell_length_b 9.915275
_cell_length_c 13.878050
_cell_angle_alpha 30.086051
_cell_angle_beta 135.033096
_cell_angle_gamma 126.485019
_cell_volume 454.758245
_symmetry_space_group_name_H-M "P -1"
_symmetry_group_IT_number 2
_symmetry_cell_setting 'triclinic'
loop_
_space_group_symop_operation_xyz
x,y,z
-x,-y,-z
loop_
_atom_site_type_symbol
_atom_site_label
_atom_site_fract_x
_atom_site_fract_y
_atom_site_fract_z
Si Si1 0.109729 0.349324 0.033856
Si Si2 0.361305 0.564196 0.683834
Si Si3 0.420007 0.203428 0.642707
Si Si4 0.246430 0.817218 0.925826
Si Si5 0.183639 0.188185 0.956649
Si Si6 0.621819 0.941968 0.488359
O O1 0.188319 0.329592 0.975570
O O2 0.238120 0.188902 0.278772
O O3 0.886466 0.231092 0.013170
O O4 0.127070 0.655422 0.887572
O O5 0.404366 0.795820 0.483159
O O6 0.398318 0.744479 0.687149
O O7 0.536865 0.345936 0.869212
O O8 0.172780 0.399067 0.731652
O O9 0.500000 0.500000 0.500000
O O10 0.297914 0.142977 0.524655
O O11 0.287769 0.115121 0.725578
O O12 0.611626 0.990982 0.854966
O O13 0.000000 0.000000 0.000000
#
# Coordination Sequence:
#
# PCOD9100450 Si02
#       6
#     2   2   2   2   2   2
#     4  10  21  39  63  89 114 147 195 242 285 338
#     4   9  19  38  63  85 112 152 196 236 283 341
#     4  11  24  40  58  85 121 156 190 234 290 344
#     4   9  20  38  61  86 115 151 193 237 284 341
#     4  11  24  40  59  85 119 156 192 235 288 344
#     4  10  20  37  64  89 112 148 195 241 285 338
#
# _framework density 26.387647999999999
#
# number of rings (size 3 to 8) (size 9 to 14) (size 15 to 20)
#    0.000    2.000    0.000    4.000    0.000   12.000 
#    0.000    8.333    0.000    3.000    0.000    0.000 
#    0.000    0.000    0.000    0.000    0.000    0.000 
#
# Total GULP energy -66948.881468 kJ/mol
# GULP energy per Si atom -5579.073456 kJ/mol
# Density = 2.632759 g / cm^3
# Si number density = 26.387648 Si / 1000 Ang^3
#
#
#
# Elastic Constant Matrix: (Units=GPa)
#
#
# Indices 1 2 3 4 5 6 
#
# 1 136.9842 16.8821 39.0238 -7.2073 -35.0345 7.9153
# 2 16.8821 63.7104 14.6672 1.9518 -4.9562 -9.8413
# 3 39.0238 14.6672 66.9187 -10.1901 -26.0691 2.8477
# 4 -7.2073 1.9518 -10.1901 31.4665 10.1189 -4.1630
# 5 -35.0345 -4.9562 -26.0691 10.1189 45.9100 -16.0827
# 6 7.9153 -9.8413 2.8477 -4.1630 -16.0827 36.2413
#
#
#
# Elastic Compliance Matrix: (Units=1/GPa)
#
#
# Indices 1 2 3 4 5 6 
#
# 1 0.009817 -0.001352 -0.003318 -0.000532 0.005647 0.000194
# 2 -0.001352 0.017865 -0.003041 -0.002174 0.001715 0.005897
# 3 -0.003318 -0.003041 0.021770 0.003746 0.009699 0.002923
# 4 -0.000532 -0.002174 0.003746 0.035022 -0.006030 0.000578
# 5 0.005647 0.001715 0.009699 -0.006030 0.038286 0.014768
# 6 0.000194 0.005897 0.002923 0.000578 0.014768 0.035542
#
#
# Mechanical properties :
#
#
# Convention : Reuss Voigt Hill
#
# Bulk Modulus (GPa) = 29.38621 45.41772 37.40196
# Shear Modulus (GPa) = 27.01731 35.85958 31.43845
#
# Velocity S-wave (km/s) = 3.20326 3.69040 3.45542
# Velocity P-wave (km/s) = 4.98414 5.95045 5.48860
#
# Compressibility (1/GPa) = 0.03402957
#
# Stress axis : x y z
#
# Youngs Moduli (GPa) = 101.86506 55.97449 45.93564
#
# Poissons Ratio (x) = 0.07567 0.15241
# Poissons Ratio (y) = 0.13771 0.13970
# Poissons Ratio (z) = 0.33799 0.17023
#
# Static dielectric constant tensor:
#      x y z
#    x 2.121150 0.046470 0.023140 
#    y 0.046470 2.149770 0.036930 
#    z 0.023140 0.036930 2.150490 
# 
# From -- ./inp_files/146237.got.cif
#   From: 2010.05.17/outbox.cif.g08.bks.cpg/sg2_74_cif.got.tgz:146237.got - 2010.06.03 11:33:40.
