data_PCOD9100692
_publ_section_title
;
Structure prediction by ZEFSAII (Michael W. Deem and Ramdas Pophale) SiO2 
 PCOD9100692
Probable space group: P -1
;
_chemical_formula_sum "Si O2"
_cell_formula_units_Z 16
_cell_length_a 16.946641
_cell_length_b 12.704359
_cell_length_c 22.337388
_cell_angle_alpha 156.454526
_cell_angle_beta 158.249771
_cell_angle_gamma 34.279189
_cell_volume 701.530909
_symmetry_space_group_name_H-M "P -1"
_symmetry_group_IT_number 2
_symmetry_cell_setting 'triclinic'
loop_
_space_group_symop_operation_xyz
x,y,z
-x,-y,-z
loop_
_atom_site_type_symbol
_atom_site_label
_atom_site_fract_x
_atom_site_fract_y
_atom_site_fract_z
Si Si1 0.889975 0.874983 0.297683
Si Si2 0.011403 0.731058 0.739471
Si Si3 0.007828 0.163390 0.402703
Si Si4 0.574465 0.623937 0.449048
Si Si5 0.141042 0.820006 0.218567
Si Si6 0.828620 0.444217 0.729170
Si Si7 0.459668 0.009743 0.047849
Si Si8 0.615310 0.883447 0.739635
O O1 0.978045 0.607083 0.204343
O O2 0.635547 0.852735 0.116784
O O3 0.000000 0.000000 0.500000
O O4 0.954476 0.049764 0.373412
O O5 0.794579 0.619741 0.566120
O O6 0.076944 0.479251 0.619677
O O7 0.922581 0.961180 0.758775
O O8 0.223008 0.849978 0.989343
O O9 0.146749 0.980918 0.368937
O O10 0.786057 0.114693 0.183000
O O11 0.372000 0.719539 0.322244
O O12 0.497873 0.316852 0.255437
O O13 0.631251 0.811723 0.644095
O O14 0.949198 0.566805 0.938379
O O15 0.711784 0.666688 0.733889
O O16 0.641518 0.181406 0.461597
O O17 0.500000 0.000000 0.000000
#
# Coordination Sequence:
#
# PCOD9100692 Si02
#       8
#     2   2   2   2   2   2   2   2
#     4  11  22  38  63  98 126 160 209 266 316 373
#     4  11  24  42  63  89 136 171 209 249 322 385
#     4  11  23  43  65  94 130 167 208 262 321 376
#     4  12  21  41  66  93 127 163 216 265 314 373
#     4  11  24  41  68  97 123 168 217 266 309 371
#     4  10  22  41  66  95 127 161 223 263 309 375
#     4  10  20  37  65  91 123 162 204 266 317 359
#     4  10  23  41  64  92 127 176 205 259 321 376
#
# _framework density 22.807262999999999
#
# number of rings (size 3 to 8) (size 9 to 14) (size 15 to 20)
#    0.000    1.250    2.500    4.875    0.000    3.500 
#    0.000    2.500    0.000    0.000    0.000    0.000 
#    0.000    0.000    0.000    0.000    0.000    0.000 
#
# Total GULP energy -89325.170178 kJ/mol
# GULP energy per Si atom -5582.823136 kJ/mol
# Density = 2.275535 g / cm^3
# Si number density = 22.807263 Si / 1000 Ang^3
#
#
#
# Elastic Constant Matrix: (Units=GPa)
#
#
# Indices 1 2 3 4 5 6 
#
# 1 41.2229 1.1534 18.6411 -4.2978 -12.9857 -5.2361
# 2 1.1534 67.2913 63.3445 -13.2622 -7.7704 -27.9384
# 3 18.6411 63.3445 160.6349 -2.9782 -14.3576 -4.7282
# 4 -4.2978 -13.2622 -2.9782 41.4871 2.5970 -9.7205
# 5 -12.9857 -7.7704 -14.3576 2.5970 27.6103 -3.8027
# 6 -5.2361 -27.9384 -4.7282 -9.7205 -3.8027 28.7766
#
#
#
# Elastic Compliance Matrix: (Units=1/GPa)
#
#
# Indices 1 2 3 4 5 6 
#
# 1 -0.080252 -0.222049 0.078840 -0.132338 -0.084402 -0.273085
# 2 -0.222049 -0.442135 0.160966 -0.271925 -0.196859 -0.561079
# 3 0.078840 0.160966 -0.051860 0.099396 0.074368 0.205504
# 4 -0.132338 -0.271925 0.099396 -0.140382 -0.120021 -0.335032
# 5 -0.084402 -0.196859 0.074368 -0.120021 -0.042023 -0.240359
# 6 -0.273085 -0.561079 0.205504 -0.335032 -0.240359 -0.670842
#
#
# Mechanical properties :
#
#
# Convention : Reuss Voigt Hill
#
# Bulk Modulus (GPa) = -1.85621 48.38078 23.26229
# Shear Modulus (GPa) = -3.04398 31.97549 14.46575
#
# Velocity S-wave (km/s) = -1.15653 3.74837 2.52119
# Velocity P-wave (km/s) = 1.61215 6.32398 4.32398
#
# Compressibility (1/GPa) = -0.53873263
#
# Stress axis : x y z
#
# Youngs Moduli (GPa) = -12.46078 -2.26175 -19.28262
#
# Poissons Ratio (x) = -0.50222 1.52024
# Poissons Ratio (y) = -2.76690 3.10385
# Poissons Ratio (z) = 0.98240 0.36407
#
# Static dielectric constant tensor:
#      x y z
#    x 1.940700 -0.056470 0.011410 
#    y -0.056470 2.049910 0.020230 
#    z 0.011410 0.020230 1.852140 
# 
# From -- ./inp_files/260392.got.cif
#   From: 2010.05.17/outbox.cif.g08.bks.cpg/sg2_131_cif.got.tgz:260392.got - 2010.06.03 11:33:40.
