data_PCOD9100567
_publ_section_title
;
Structure prediction by ZEFSAII (Michael W. Deem and Ramdas Pophale) SiO2 
 PCOD9100567
Probable space group: P -1
;
_chemical_formula_sum "Si O2"
_cell_formula_units_Z 16
_cell_length_a 9.529217
_cell_length_b 11.686081
_cell_length_c 8.144216
_cell_angle_alpha 54.723409
_cell_angle_beta 83.658007
_cell_angle_gamma 79.411810
_cell_volume 727.779281
_symmetry_space_group_name_H-M "P -1"
_symmetry_group_IT_number 2
_symmetry_cell_setting 'triclinic'
loop_
_space_group_symop_operation_xyz
x,y,z
-x,-y,-z
loop_
_atom_site_type_symbol
_atom_site_label
_atom_site_fract_x
_atom_site_fract_y
_atom_site_fract_z
Si Si1 0.370469 0.331515 0.288650
Si Si2 0.120823 0.570689 0.015906
Si Si3 0.266289 0.141029 0.866441
Si Si4 0.358797 0.041487 0.596145
Si Si5 0.455610 0.344012 0.647186
Si Si6 0.258121 0.839907 0.268905
Si Si7 0.978494 0.338197 0.686449
Si Si8 0.305251 0.775273 0.691956
O O1 0.261150 0.459350 0.131673
O O2 0.297704 0.189765 0.397513
O O3 0.393914 0.342040 0.471805
O O4 0.534232 0.305696 0.223046
O O5 0.063614 0.645062 0.130524
O O6 0.182923 0.680612 0.800963
O O7 0.000000 0.500000 0.000000
O O8 0.371124 0.071669 0.763079
O O9 0.339471 0.270659 0.827401
O O10 0.122240 0.227250 0.740295
O O11 0.231608 0.004965 0.084094
O O12 0.500000 0.000000 0.500000
O O13 0.274266 0.910722 0.700527
O O14 0.500000 0.500000 0.500000
O O15 0.598926 0.242265 0.762591
O O16 0.139330 0.739385 0.327254
O O17 0.300247 0.831562 0.461379
O O18 0.000000 0.500000 0.500000
#
# Coordination Sequence:
#
# PCOD9100567 Si02
#       8
#     2   2   2   2   2   2   2   2
#     4   9  20  40  63  90 123 160 207 263 319 373
#     4  12  25  42  63  93 127 169 217 264 319 384
#     4  11  23  41  64  94 132 175 213 261 325 385
#     4   9  19  39  65  92 122 161 207 260 317 376
#     4  10  20  37  64  95 124 162 211 264 318 378
#     4  11  23  41  64  95 130 169 216 266 321 385
#     4  12  25  44  65  92 133 175 213 267 325 387
#     4  10  22  40  65  93 124 165 215 267 318 378
#
# _framework density 21.984687000000001
#
# number of rings (size 3 to 8) (size 9 to 14) (size 15 to 20)
#    0.000    1.500    0.000    6.375    0.000    2.000 
#    0.000    6.875    0.000    0.000    0.000    0.000 
#    0.000    0.000    0.000    0.000    0.000    0.000 
#
# Total GULP energy -89121.931355 kJ/mol
# GULP energy per Si atom -5570.120710 kJ/mol
# Density = 2.193465 g / cm^3
# Si number density = 21.984687 Si / 1000 Ang^3
#
#
#
# Elastic Constant Matrix: (Units=GPa)
#
#
# Indices 1 2 3 4 5 6 
#
# 1 119.0869 32.3624 37.2709 -17.5988 0.7721 30.8040
# 2 32.3624 85.0105 28.2938 -20.3857 0.0966 21.6439
# 3 37.2709 28.2938 85.0730 -28.6665 -10.6978 5.2263
# 4 -17.5988 -20.3857 -28.6665 34.3948 4.3633 -15.4993
# 5 0.7721 0.0966 -10.6978 4.3633 30.5115 -2.4313
# 6 30.8040 21.6439 5.2263 -15.4993 -2.4313 38.9075
#
#
#
# Elastic Compliance Matrix: (Units=1/GPa)
#
#
# Indices 1 2 3 4 5 6 
#
# 1 0.012756 -0.001031 -0.006134 -0.003464 -0.002792 -0.010257
# 2 -0.001031 0.015735 -0.003577 0.003265 -0.002247 -0.006296
# 3 -0.006134 -0.003577 0.021368 0.016741 0.006143 0.011029
# 4 -0.003464 0.003265 0.016741 0.051905 0.000067 0.019359
# 5 -0.002792 -0.002247 0.006143 0.000067 0.035385 0.004873
# 6 -0.010257 -0.006296 0.011029 0.019359 0.004873 0.043860
#
#
# Mechanical properties :
#
#
# Convention : Reuss Voigt Hill
#
# Bulk Modulus (GPa) = 35.24231 53.89161 44.56696
# Shear Modulus (GPa) = 23.59046 33.51231 28.55138
#
# Velocity S-wave (km/s) = 3.27928 3.90853 3.60765
# Velocity P-wave (km/s) = 5.51393 6.70337 6.13754
#
# Compressibility (1/GPa) = 0.02837498
#
# Stress axis : x y z
#
# Youngs Moduli (GPa) = 78.39211 63.55366 46.79968
#
# Poissons Ratio (x) = 0.06551 0.28707
# Poissons Ratio (y) = 0.08080 0.16741
# Poissons Ratio (z) = 0.48086 0.22734
#
# Static dielectric constant tensor:
#      x y z
#    x 1.963100 -0.190460 -0.040060 
#    y -0.190460 2.308170 -0.138860 
#    z -0.040060 -0.138860 1.885290 
# 
# From -- ./inp_files/184367.got.cif
#   From: 2010.05.17/outbox.cif.g08.bks.cpg/sg2_93_cif.got.tgz:184367.got - 2010.06.03 11:33:40.
