data_PCOD9100313
_publ_section_title
;
Structure prediction by ZEFSAII (Michael W. Deem and Ramdas Pophale) SiO2 
 PCOD9100313
Probable space group: P -1
;
_chemical_formula_sum "Si O2"
_cell_formula_units_Z 16
_cell_length_a 10.489913
_cell_length_b 19.800204
_cell_length_c 8.530688
_cell_angle_alpha 66.315873
_cell_angle_beta 125.379853
_cell_angle_gamma 146.284610
_cell_volume 789.272299
_symmetry_space_group_name_H-M "P -1"
_symmetry_group_IT_number 2
_symmetry_cell_setting 'triclinic'
loop_
_space_group_symop_operation_xyz
x,y,z
-x,-y,-z
loop_
_atom_site_type_symbol
_atom_site_label
_atom_site_fract_x
_atom_site_fract_y
_atom_site_fract_z
Si Si1 0.999312 0.765215 0.910607
Si Si2 0.533056 0.147668 0.886291
Si Si3 0.844275 0.991461 0.522455
Si Si4 0.548354 0.453286 0.452455
Si Si5 0.809407 0.793104 0.199425
Si Si6 0.768607 0.616664 0.180672
Si Si7 0.014524 0.934930 0.898548
Si Si8 0.290062 0.624024 0.153481
O O1 0.006445 0.852434 0.886044
O O2 0.733876 0.658746 0.724755
O O3 0.253147 0.832674 0.937657
O O4 0.976725 0.705041 0.106420
O O5 0.398013 0.074520 0.692726
O O6 0.671524 0.279242 0.844190
O O7 0.305963 0.070916 0.928027
O O8 0.807184 0.915483 0.700714
O O9 0.000000 0.000000 0.500000
O O10 0.021401 0.122917 0.602493
O O11 0.500000 0.500000 0.500000
O O12 0.756494 0.553006 0.371380
O O13 0.632685 0.410337 0.636835
O O14 0.794266 0.703640 0.211621
O O15 0.509021 0.699849 0.103599
O O16 0.945791 0.892184 0.067820
O O17 0.500000 0.500000 0.000000
O O18 0.000000 0.500000 0.000000
#
# Coordination Sequence:
#
# PCOD9100313 Si02
#       8
#     2   2   2   2   2   2   2   2
#     4  10  22  40  63  91 129 163 214 261 311 380
#     4  11  23  40  62  98 130 162 210 265 316 374
#     4  10  20  37  63  92 127 164 208 253 318 381
#     4  11  21  39  65  87 122 175 211 253 321 376
#     4  11  21  41  67  93 125 170 214 259 316 378
#     4   9  21  40  64  91 126 173 214 256 309 381
#     4  10  21  39  65  90 123 173 207 254 317 375
#     4  12  25  40  63  97 127 160 217 265 313 374
#
# _framework density 20.271837000000001
#
# number of rings (size 3 to 8) (size 9 to 14) (size 15 to 20)
#    0.000    1.500    3.750    2.250    3.500    0.000 
#    2.250    4.375    0.000    0.000    0.000    0.000 
#    0.000    0.000    0.000    0.000    0.000    0.000 
#
# Total GULP energy -89185.166678 kJ/mol
# GULP energy per Si atom -5574.072917 kJ/mol
# Density = 2.022570 g / cm^3
# Si number density = 20.271837 Si / 1000 Ang^3
#
#
#
# Elastic Constant Matrix: (Units=GPa)
#
#
# Indices 1 2 3 4 5 6 
#
# 1 66.9211 38.3538 41.0984 10.4861 -4.3583 -5.1443
# 2 38.3538 127.9385 63.4453 5.5566 -7.9753 -5.4378
# 3 41.0984 63.4453 98.8032 4.3110 -0.1413 -0.2826
# 4 10.4861 5.5566 4.3110 39.5127 0.4188 -2.6624
# 5 -4.3583 -7.9753 -0.1413 0.4188 29.0414 6.7906
# 6 -5.1443 -5.4378 -0.2826 -2.6624 6.7906 34.1668
#
#
#
# Elastic Compliance Matrix: (Units=1/GPa)
#
#
# Indices 1 2 3 4 5 6 
#
# 1 0.021862 -0.002538 -0.007257 -0.004538 0.002135 0.002050
# 2 -0.002538 0.012125 -0.006713 -0.000265 0.002702 0.000935
# 3 -0.007257 -0.006713 0.017403 0.000901 -0.002523 -0.001445
# 4 -0.004538 -0.000265 0.000901 0.026579 -0.001520 0.001655
# 5 0.002135 0.002702 -0.002523 -0.001520 0.037086 -0.006759
# 6 0.002050 0.000935 -0.001445 0.001655 -0.006759 0.031186
#
#
# Mechanical properties :
#
#
# Convention : Reuss Voigt Hill
#
# Bulk Modulus (GPa) = 54.41997 64.38422 59.40209
# Shear Modulus (GPa) = 26.97136 30.59518 28.78327
#
# Velocity S-wave (km/s) = 3.65154 3.88912 3.77220
# Velocity P-wave (km/s) = 6.68444 7.21085 6.95263
#
# Compressibility (1/GPa) = 0.01837561
#
# Stress axis : x y z
#
# Youngs Moduli (GPa) = 45.74163 82.47132 57.46044
#
# Poissons Ratio (x) = 0.20928 0.41701
# Poissons Ratio (y) = 0.11607 0.38571
# Poissons Ratio (z) = 0.33196 0.55359
#
# Static dielectric constant tensor:
#      x y z
#    x 1.746800 -0.032510 -0.026430 
#    y -0.032510 1.827590 -0.023240 
#    z -0.026430 -0.023240 1.766920 
# 
# From -- ./inp_files/281812.got.cif
#   From: 2010.05.17/outbox.cif.g08.bks.cpg/sg2_141_cif.got.tgz:281812.got - 2010.06.03 11:33:40.
