data_PCOD9100400
_publ_section_title
;
Structure prediction by ZEFSAII (Michael W. Deem and Ramdas Pophale) SiO2 
 PCOD9100400
Probable space group: P -1
;
_chemical_formula_sum "Si O2"
_cell_formula_units_Z 12
_cell_length_a 9.403580
_cell_length_b 18.796380
_cell_length_c 5.031073
_cell_angle_alpha 121.604666
_cell_angle_beta 126.386426
_cell_angle_gamma 34.912531
_cell_volume 408.352269
_symmetry_space_group_name_H-M "P -1"
_symmetry_group_IT_number 2
_symmetry_cell_setting 'triclinic'
loop_
_space_group_symop_operation_xyz
x,y,z
-x,-y,-z
loop_
_atom_site_type_symbol
_atom_site_label
_atom_site_fract_x
_atom_site_fract_y
_atom_site_fract_z
Si Si1 0.807198 0.883415 0.219471
Si Si2 0.724872 0.158813 0.549572
Si Si3 0.675086 0.071749 0.822001
Si Si4 0.321565 0.420333 0.474134
Si Si5 0.908618 0.707642 0.599364
Si Si6 0.413101 0.610671 0.779749
O O1 0.064960 0.844585 0.312964
O O2 0.768463 0.948893 0.581229
O O3 0.879201 0.763496 0.965085
O O4 0.500000 0.000000 0.000000
O O5 0.778072 0.106677 0.800357
O O6 0.420429 0.297871 0.465308
O O7 0.728962 0.080899 0.197829
O O8 0.364347 0.188060 0.650039
O O9 0.460177 0.366733 0.234266
O O10 0.043693 0.567287 0.443956
O O11 0.464437 0.426098 0.867327
O O12 0.108122 0.700895 0.655343
O O13 0.500000 0.500000 0.500000
#
# Coordination Sequence:
#
# PCOD9100400 Si02
#       6
#     2   2   2   2   2   2
#     4  10  23  47  72 100 129 179 233 282 321 395
#     4  12  25  46  70  95 145 176 220 272 346 404
#     4  11  27  46  66 101 138 186 216 273 336 406
#     4  11  23  40  70 103 131 177 218 282 338 388
#     4  10  22  44  70 103 135 171 234 277 328 397
#     4  10  20  37  64 100 131 166 222 277 327 380
#
# _framework density 29.386392000000001
#
# number of rings (size 3 to 8) (size 9 to 14) (size 15 to 20)
#    0.000    1.333    1.667    4.000    0.000    5.333 
#    0.000    5.000    0.000    0.000    0.000    0.000 
#    0.000    0.000    0.000    0.000    0.000    0.000 
#
# Total GULP energy -67066.754027 kJ/mol
# GULP energy per Si atom -5588.896169 kJ/mol
# Density = 2.931951 g / cm^3
# Si number density = 29.386392 Si / 1000 Ang^3
#
#
#
# Elastic Constant Matrix: (Units=GPa)
#
#
# Indices 1 2 3 4 5 6 
#
# 1 115.0811 34.6219 28.8308 0.5113 -2.4729 -29.7387
# 2 34.6219 212.7413 17.8427 42.0437 1.7727 -12.2008
# 3 28.8308 17.8427 195.5565 29.4841 -5.5814 -5.0935
# 4 0.5113 42.0437 29.4841 62.1708 -4.5035 7.9366
# 5 -2.4729 1.7727 -5.5814 -4.5035 45.8001 -4.1312
# 6 -29.7387 -12.2008 -5.0935 7.9366 -4.1312 60.2493
#
#
#
# Elastic Compliance Matrix: (Units=1/GPa)
#
#
# Indices 1 2 3 4 5 6 
#
# 1 0.010792 -0.001593 -0.001464 0.001143 0.001011 0.004799
# 2 -0.001593 0.005832 0.000353 -0.004262 -0.000603 0.000945
# 3 -0.001464 0.000353 0.005761 -0.002966 0.000340 0.000250
# 4 0.001143 -0.004262 -0.002966 0.020889 0.001632 -0.003189
# 5 0.001011 -0.000603 0.000340 0.001632 0.022269 0.001718
# 6 0.004799 0.000945 0.000250 -0.003189 0.001718 0.019717
#
#
# Mechanical properties :
#
#
# Convention : Reuss Voigt Hill
#
# Bulk Modulus (GPa) = 58.90578 76.21884 67.56231
# Shear Modulus (GPa) = 51.90631 63.11627 57.51129
#
# Velocity S-wave (km/s) = 4.20734 4.63947 4.42868
# Velocity P-wave (km/s) = 6.60992 7.39545 7.01369
#
# Compressibility (1/GPa) = 0.01697626
#
# Stress axis : x y z
#
# Youngs Moduli (GPa) = 92.65742 171.47688 173.59130
#
# Poissons Ratio (x) = 0.27311 0.25419
# Poissons Ratio (y) = 0.14757 -0.06123
# Poissons Ratio (z) = 0.13568 -0.06049
#
# Static dielectric constant tensor:
#      x y z
#    x 2.686530 0.128700 -0.034800 
#    y 0.128700 2.439920 -0.068950 
#    z -0.034800 -0.068950 2.230330 
# 
# From -- ./inp_files/84582.got.cif
#   From: 2010.05.17/outbox.cif.g08.bks.cpg/sg2_43_cif.got.tgz:84582.got - 2010.06.03 11:33:40.
