data_PCOD9100901
_publ_section_title
;
Structure prediction by ZEFSAII (Michael W. Deem and Ramdas Pophale) SiO2 
 PCOD9100901
Probable space group: P -1
;
_chemical_formula_sum "Si O2"
_cell_formula_units_Z 16
_cell_length_a 14.040388
_cell_length_b 14.735034
_cell_length_c 8.249763
_cell_angle_alpha 51.520568
_cell_angle_beta 31.222287
_cell_angle_gamma 49.094949
_cell_volume 660.163764
_symmetry_space_group_name_H-M "P -1"
_symmetry_group_IT_number 2
_symmetry_cell_setting 'triclinic'
loop_
_space_group_symop_operation_xyz
x,y,z
-x,-y,-z
loop_
_atom_site_type_symbol
_atom_site_label
_atom_site_fract_x
_atom_site_fract_y
_atom_site_fract_z
Si Si1 0.452219 0.835847 0.707443
Si Si2 0.694584 0.393530 0.376236
Si Si3 0.830342 0.946018 0.554068
Si Si4 0.047442 0.460167 0.288589
Si Si5 0.810832 0.301912 0.665275
Si Si6 0.258965 0.061099 0.959457
Si Si7 0.741047 0.783679 0.640201
Si Si8 0.081093 0.820297 0.895185
O O1 0.579859 0.869557 0.345442
O O2 0.603354 0.789400 0.684998
O O3 0.315578 0.961604 0.843523
O O4 0.337064 0.740094 0.957537
O O5 0.500000 0.500000 0.500000
O O6 0.711792 0.340708 0.591738
O O7 0.731180 0.285283 0.312480
O O8 0.879826 0.443125 0.022481
O O9 0.684029 0.897652 0.715621
O O10 0.006980 0.822026 0.469760
O O11 0.877015 0.053834 0.269995
O O12 0.763498 0.995582 0.774142
O O13 0.227874 0.338361 0.171036
O O14 0.000000 0.500000 0.500000
O O15 0.880283 0.413501 0.505278
O O16 0.058021 0.151708 0.091418
O O17 0.948305 0.784622 0.262947
#
# Coordination Sequence:
#
# PCOD9100901 Si02
#       8
#     2   2   2   2   2   2   2   2
#     4  10  21  40  62 101 135 176 219 274 342 396
#     4  12  25  44  71 101 135 179 236 288 330 397
#     4  11  21  38  70 104 129 184 223 270 358 406
#     4  11  24  47  69  94 134 187 231 273 345 401
#     4  11  23  44  73  96 134 179 231 282 334 421
#     4  10  20  37  66  97 142 172 217 274 337 417
#     4  10  23  40  67  95 142 177 219 290 331 410
#     4  11  20  40  70  97 139 181 219 276 353 411
#
# _framework density 24.236408999999998
#
# number of rings (size 3 to 8) (size 9 to 14) (size 15 to 20)
#    0.000    1.250    3.750    2.625    0.000    0.500 
#    0.000    7.500    0.000    0.000    0.000    0.000 
#    0.000    0.000    0.000    0.000    0.000    0.000 
#
# Total GULP energy -89503.644723 kJ/mol
# GULP energy per Si atom -5593.977795 kJ/mol
# Density = 2.418125 g / cm^3
# Si number density = 24.236409 Si / 1000 Ang^3
#
#
#
# Elastic Constant Matrix: (Units=GPa)
#
#
# Indices 1 2 3 4 5 6 
#
# 1 61.4384 18.3610 13.2442 6.2393 -4.1008 -0.8610
# 2 18.3610 99.1514 22.9133 -6.3858 -6.3458 1.2041
# 3 13.2442 22.9133 92.9695 -25.1937 -3.5268 11.0054
# 4 6.2393 -6.3858 -25.1937 44.2120 -0.7663 -6.4151
# 5 -4.1008 -6.3458 -3.5268 -0.7663 34.1122 -3.1109
# 6 -0.8610 1.2041 11.0054 -6.4151 -3.1109 33.4572
#
#
#
# Elastic Compliance Matrix: (Units=1/GPa)
#
#
# Indices 1 2 3 4 5 6 
#
# 1 0.018418 -0.002892 -0.003241 -0.004716 0.001314 0.000862
# 2 -0.002892 0.011266 -0.002114 0.000937 0.001600 0.000544
# 3 -0.003241 -0.002114 0.014255 0.007829 0.000580 -0.003141
# 4 -0.004716 0.000937 0.007829 0.028312 0.001310 0.002820
# 5 0.001314 0.001600 0.000580 0.001310 0.030119 0.002837
# 6 0.000862 0.000544 -0.003141 0.002820 0.002837 0.031729
#
#
# Mechanical properties :
#
#
# Convention : Reuss Voigt Hill
#
# Bulk Modulus (GPa) = 36.43844 40.28848 38.36346
# Shear Modulus (GPa) = 31.30052 35.62567 33.46310
#
# Velocity S-wave (km/s) = 3.59760 3.83812 3.71980
# Velocity P-wave (km/s) = 5.68543 6.02501 5.85768
#
# Compressibility (1/GPa) = 0.02744355
#
# Stress axis : x y z
#
# Youngs Moduli (GPa) = 54.29437 88.76366 70.15318
#
# Poissons Ratio (x) = 0.25668 0.22739
# Poissons Ratio (y) = 0.15701 0.14833
# Poissons Ratio (z) = 0.17599 0.18768
#
# Static dielectric constant tensor:
#      x y z
#    x 1.942300 -0.003070 -0.050500 
#    y -0.003070 1.947180 0.031220 
#    z -0.050500 0.031220 1.931030 
# 
# From -- ./inp_files/272168.got.cif
#   From: 2010.05.17/outbox.cif.g08.bks.cpg/sg2_137_cif.got.tgz:272168.got - 2010.06.03 11:33:40.
