data_PCOD9100961
_publ_section_title
;
Structure prediction by ZEFSAII (Michael W. Deem and Ramdas Pophale) SiO2 
 PCOD9100961
Probable space group: P -1
;
_chemical_formula_sum "Si O2"
_cell_formula_units_Z 16
_cell_length_a 7.959392
_cell_length_b 16.491602
_cell_length_c 5.422306
_cell_angle_alpha 58.277247
_cell_angle_beta 85.563494
_cell_angle_gamma 73.206047
_cell_volume 577.159158
_symmetry_space_group_name_H-M "P -1"
_symmetry_group_IT_number 2
_symmetry_cell_setting 'triclinic'
loop_
_space_group_symop_operation_xyz
x,y,z
-x,-y,-z
loop_
_atom_site_type_symbol
_atom_site_label
_atom_site_fract_x
_atom_site_fract_y
_atom_site_fract_z
Si Si1 0.648796 0.504783 0.673349
Si Si2 0.689159 0.747719 0.812852
Si Si3 0.605658 0.332315 0.210651
Si Si4 0.927584 0.588117 0.667812
Si Si5 0.978439 0.758304 0.141729
Si Si6 0.346509 0.103349 0.792008
Si Si7 0.162543 0.906623 0.679292
Si Si8 0.335929 0.853291 0.239238
O O1 0.500000 0.500000 0.500000
O O2 0.539626 0.583270 0.760773
O O3 0.816492 0.544976 0.546374
O O4 0.713590 0.395239 0.959868
O O5 0.504748 0.719191 0.883104
O O6 0.795022 0.676475 0.698547
O O7 0.657598 0.862852 0.545964
O O8 0.831302 0.732824 0.031175
O O9 0.702813 0.250416 0.531867
O O10 0.051618 0.651931 0.444237
O O11 0.000000 0.500000 0.000000
O O12 0.854862 0.855537 0.157382
O O13 0.103302 0.806610 0.889566
O O14 0.456619 0.174069 0.783754
O O15 0.500000 0.000000 0.000000
O O16 0.277986 0.904677 0.426574
O O17 0.245610 0.916969 0.917356
O O18 0.000000 0.000000 0.500000
#
# Coordination Sequence:
#
# PCOD9100961 Si02
#       8
#     2   2   2   2   2   2   2   2
#     4  10  20  37  67  95 137 176 234 296 361 411
#     4   9  21  40  62  96 137 176 237 289 358 416
#     4   9  21  39  62  98 134 178 231 299 347 422
#     4  10  23  41  64  99 140 181 238 292 360 438
#     4  11  25  43  73  98 145 192 233 297 366 435
#     4  10  23  42  73 101 135 182 245 302 356 431
#     4  12  29  48  72 105 152 192 236 301 373 437
#     4  11  27  46  72 106 144 187 247 297 360 438
#
# _framework density 27.721986999999999
#
# number of rings (size 3 to 8) (size 9 to 14) (size 15 to 20)
#    0.000    1.750    0.000    2.625   12.250    1.000 
#    0.000    0.000    0.000    0.000    0.000    0.000 
#    0.000    0.000    0.000    0.000    0.000    0.000 
#
# Total GULP energy -89336.526780 kJ/mol
# GULP energy per Si atom -5583.532924 kJ/mol
# Density = 2.765889 g / cm^3
# Si number density = 27.721987 Si / 1000 Ang^3
#
#
#
# Elastic Constant Matrix: (Units=GPa)
#
#
# Indices 1 2 3 4 5 6 
#
# 1 74.9908 -9.2107 14.5001 20.8653 -19.1826 0.8412
# 2 -9.2107 52.9787 3.2275 -2.9997 -1.3739 -10.1019
# 3 14.5001 3.2275 155.5523 -23.6842 9.3954 -7.4045
# 4 20.8653 -2.9997 -23.6842 50.9413 -0.5243 12.6255
# 5 -19.1826 -1.3739 9.3954 -0.5243 57.5367 -2.3448
# 6 0.8412 -10.1019 -7.4045 12.6255 -2.3448 44.4942
#
#
#
# Elastic Compliance Matrix: (Units=1/GPa)
#
#
# Indices 1 2 3 4 5 6 
#
# 1 0.019049 0.003741 -0.003652 -0.009972 0.007072 0.003084
# 2 0.003741 0.020498 -0.000964 -0.002017 0.002084 0.005105
# 3 -0.003652 -0.000964 0.007694 0.005102 -0.002469 -0.000447
# 4 -0.009972 -0.002017 0.005102 0.027790 -0.004259 -0.007531
# 5 0.007072 0.002084 -0.002469 -0.004259 0.020242 0.002204
# 6 0.003084 0.005105 -0.000447 -0.007531 0.002204 0.025754
#
#
# Mechanical properties :
#
#
# Convention : Reuss Voigt Hill
#
# Bulk Modulus (GPa) = 21.98229 33.39507 27.68868
# Shear Modulus (GPa) = 36.24742 48.92810 42.58776
#
# Velocity S-wave (km/s) = 3.61991 4.20570 3.92375
# Velocity P-wave (km/s) = 5.04167 5.97130 5.52607
#
# Compressibility (1/GPa) = 0.04549116
#
# Stress axis : x y z
#
# Youngs Moduli (GPa) = 52.49507 48.78560 129.97633
#
# Poissons Ratio (x) = -0.18251 0.47467
# Poissons Ratio (y) = -0.19639 0.12530
# Poissons Ratio (z) = 0.19171 0.04703
#
# Static dielectric constant tensor:
#      x y z
#    x 2.215300 0.053450 0.007710 
#    y 0.053450 2.326210 0.009500 
#    z 0.007710 0.009500 2.301760 
# 
# From -- ./inp_files/46243.got.cif
#   From: 2010.05.17/outbox.cif.g08.bks.cpg/sg2_24_cif.got.tgz:46243.got - 2010.06.03 11:33:40.
