data_PCOD9100698
_publ_section_title
;
Structure prediction by ZEFSAII (Michael W. Deem and Ramdas Pophale) SiO2 
 PCOD9100698
Probable space group: P -1
;
_chemical_formula_sum "Si O2"
_cell_formula_units_Z 16
_cell_length_a 8.979081
_cell_length_b 8.953289
_cell_length_c 11.225996
_cell_angle_alpha 85.783222
_cell_angle_beta 116.395782
_cell_angle_gamma 70.824608
_cell_volume 737.385283
_symmetry_space_group_name_H-M "P -1"
_symmetry_group_IT_number 2
_symmetry_cell_setting 'triclinic'
loop_
_space_group_symop_operation_xyz
x,y,z
-x,-y,-z
loop_
_atom_site_type_symbol
_atom_site_label
_atom_site_fract_x
_atom_site_fract_y
_atom_site_fract_z
Si Si1 0.742151 0.168044 0.812007
Si Si2 0.769560 0.279474 0.236945
Si Si3 0.727141 0.663700 0.814281
Si Si4 0.100655 0.669481 0.959184
Si Si5 0.476211 0.537513 0.656367
Si Si6 0.637129 0.934401 0.943165
Si Si7 0.071527 0.086759 0.773184
Si Si8 0.930277 0.357796 0.510899
O O1 0.598701 0.346516 0.711060
O O2 0.881139 0.092698 0.756978
O O3 0.636955 0.067852 0.839035
O O4 0.858932 0.194019 0.962267
O O5 0.783872 0.368182 0.117098
O O6 0.590624 0.395808 0.237280
O O7 0.923318 0.271668 0.388072
O O8 0.809248 0.093810 0.225280
O O9 0.599077 0.639769 0.667913
O O10 0.617285 0.792063 0.868869
O O11 0.893782 0.714925 0.842843
O O12 0.828906 0.485066 0.919402
O O13 0.282008 0.575131 0.525003
O O14 0.829827 0.869872 0.083222
O O15 0.500000 0.000000 0.000000
O O16 0.042104 0.223590 0.654822
O O17 0.000000 0.500000 0.500000
#
# Coordination Sequence:
#
# PCOD9100698 Si02
#       8
#     2   2   2   2   2   2   2   2
#     4  11  23  42  65 102 136 170 212 268 339 388
#     4  10  22  42  65  90 129 172 219 262 323 379
#     4  10  21  36  59  98 129 164 212 257 337 376
#     4  10  20  37  65  91 132 171 208 262 326 398
#     4   9  24  43  62  95 130 168 220 272 316 385
#     4  12  25  35  66 102 133 164 214 274 327 385
#     4  12  23  44  69  93 137 175 212 270 327 393
#     4  10  26  44  70  94 125 177 234 262 320 384
#
# _framework density 21.698291999999999
#
# number of rings (size 3 to 8) (size 9 to 14) (size 15 to 20)
#    0.750    0.750    2.500    2.250    5.250    1.500 
#    0.000    0.000    0.000    2.250    0.000    0.000 
#    0.000    0.000    0.000    0.000    0.000    0.000 
#
# Total GULP energy -89215.263113 kJ/mol
# GULP energy per Si atom -5575.953945 kJ/mol
# Density = 2.164891 g / cm^3
# Si number density = 21.698292 Si / 1000 Ang^3
#
#
#
# Elastic Constant Matrix: (Units=GPa)
#
#
# Indices 1 2 3 4 5 6 
#
# 1 68.3305 11.5630 -11.5986 3.5349 3.8572 -10.1605
# 2 11.5630 76.8473 5.9086 6.7692 6.0547 3.0056
# 3 -11.5986 5.9086 35.8531 5.9189 0.1371 6.9540
# 4 3.5349 6.7692 5.9189 26.3553 -1.4257 0.4983
# 5 3.8572 6.0547 0.1371 -1.4257 34.8067 5.4660
# 6 -10.1605 3.0056 6.9540 0.4983 5.4660 39.0260
#
#
#
# Elastic Compliance Matrix: (Units=1/GPa)
#
#
# Indices 1 2 3 4 5 6 
#
# 1 0.016919 -0.002696 0.005663 -0.003040 -0.002172 0.003947
# 2 -0.002696 0.014062 -0.002528 -0.002776 -0.002093 -0.001006
# 3 0.005663 -0.002528 0.032104 -0.007245 0.000011 -0.003961
# 4 -0.003040 -0.002776 -0.007245 0.040832 0.002547 -0.000165
# 5 -0.002172 -0.002093 0.000011 0.002547 0.030172 -0.004665
# 6 0.003947 -0.001006 -0.003961 -0.000165 -0.004665 0.028090
#
#
# Mechanical properties :
#
#
# Convention : Reuss Voigt Hill
#
# Bulk Modulus (GPa) = 15.63461 21.41963 18.52712
# Shear Modulus (GPa) = 27.37875 31.71481 29.54678
#
# Velocity S-wave (km/s) = 3.55603 3.82727 3.69414
# Velocity P-wave (km/s) = 4.90729 5.42436 5.17229
#
# Compressibility (1/GPa) = 0.06396065
#
# Stress axis : x y z
#
# Youngs Moduli (GPa) = 59.10508 71.11491 31.14849
#
# Poissons Ratio (x) = 0.19176 -0.17638
# Poissons Ratio (y) = 0.15938 0.07875
# Poissons Ratio (z) = -0.33468 0.17980
#
# Static dielectric constant tensor:
#      x y z
#    x 1.885130 0.001770 0.043200 
#    y 0.001770 1.776000 0.013380 
#    z 0.043200 0.013380 1.799050 
# 
# From -- ./inp_files/382056.got.cif
#   From: 2010.05.17/outbox.cif.g08.bks.cpg/sg2_192_cif.got.tgz:382056.got - 2010.06.03 11:33:40.
