data_PCOD9100171
_publ_section_title
;
Structure prediction by ZEFSAII (Michael W. Deem and Ramdas Pophale) SiO2 
 PCOD9100171
Probable space group: P -1
;
_chemical_formula_sum "Si O2"
_cell_formula_units_Z 14
_cell_length_a 11.699375
_cell_length_b 13.297338
_cell_length_c 8.381363
_cell_angle_alpha 77.623270
_cell_angle_beta 66.876387
_cell_angle_gamma 133.430599
_cell_volume 599.613707
_symmetry_space_group_name_H-M "P -1"
_symmetry_group_IT_number 2
_symmetry_cell_setting 'triclinic'
loop_
_space_group_symop_operation_xyz
x,y,z
-x,-y,-z
loop_
_atom_site_type_symbol
_atom_site_label
_atom_site_fract_x
_atom_site_fract_y
_atom_site_fract_z
Si Si1 0.342377 0.988592 0.120965
Si Si2 0.197491 0.175379 0.201187
Si Si3 0.728439 0.392063 0.601198
Si Si4 0.089590 0.685492 0.582044
Si Si5 0.323891 0.498664 0.964509
Si Si6 0.410661 0.291356 0.588615
Si Si7 0.047816 0.911427 0.094088
O O1 0.134581 0.869350 0.145694
O O2 0.538278 0.214760 0.896308
O O3 0.248734 0.900963 0.381307
O O4 0.500000 0.000000 0.000000
O O5 0.464224 0.347636 0.071141
O O6 0.129836 0.056332 0.129236
O O7 0.202362 0.299253 0.112218
O O8 0.000000 0.000000 0.500000
O O9 0.960943 0.582617 0.514149
O O10 0.612086 0.405413 0.570032
O O11 0.777754 0.330714 0.473741
O O12 0.887198 0.568972 0.861201
O O13 0.460417 0.611812 0.684531
O O14 0.235698 0.266406 0.716408
O O15 0.217784 0.059473 0.799916
#
# Coordination Sequence:
#
# PCOD9100171 Si02
#       7
#     2   2   2   2   2   2   2
#     4   9  18  35  60  84 108 146 197 237 277 340
#     4  11  22  39  57  83 119 155 193 236 290 348
#     4   9  20  40  60  85 115 154 194 237 294 347
#     4  10  20  37  63  85 112 153 198 242 285 343
#     4  11  23  35  58  90 115 151 199 242 283 350
#     4  10  21  38  55  88 117 153 193 238 301 342
#     4  10  20  39  60  80 121 157 187 243 293 345
#
# _framework density 23.348365000000001
#
# number of rings (size 3 to 8) (size 9 to 14) (size 15 to 20)
#    0.000    2.000    1.429    2.571    2.000    1.143 
#    7.714    0.000    0.000    0.857    0.000    0.000 
#    0.000    0.000    0.000    0.000    0.000    0.000 
#
# Total GULP energy -78096.296491 kJ/mol
# GULP energy per Si atom -5578.306892 kJ/mol
# Density = 2.329522 g / cm^3
# Si number density = 23.348365 Si / 1000 Ang^3
#
#
#
# Elastic Constant Matrix: (Units=GPa)
#
#
# Indices 1 2 3 4 5 6 
#
# 1 157.8709 23.9110 44.9338 -4.1045 -5.8782 -5.7641
# 2 23.9110 64.8364 22.5168 -2.1838 1.6268 -1.4298
# 3 44.9338 22.5168 166.3683 9.2529 0.0981 -22.6245
# 4 -4.1045 -2.1838 9.2529 27.5873 0.9857 -5.9126
# 5 -5.8782 1.6268 0.0981 0.9857 43.6472 -5.7447
# 6 -5.7641 -1.4298 -22.6245 -5.9126 -5.7447 28.4852
#
#
#
# Elastic Compliance Matrix: (Units=1/GPa)
#
#
# Indices 1 2 3 4 5 6 
#
# 1 0.007225 -0.002042 -0.001686 0.001561 0.001092 0.000565
# 2 -0.002042 0.016912 -0.001960 0.001511 -0.001070 -0.001023
# 3 -0.001686 -0.001960 0.007553 -0.001825 0.000567 0.005295
# 4 0.001561 0.001511 -0.001825 0.038709 0.000208 0.007019
# 5 0.001092 -0.001070 0.000567 0.000208 0.023811 0.005463
# 6 0.000565 -0.001023 0.005295 0.007019 0.005463 0.041933
#
#
# Mechanical properties :
#
#
# Convention : Reuss Voigt Hill
#
# Bulk Modulus (GPa) = 49.22430 63.53320 56.37875
# Shear Modulus (GPa) = 32.40655 39.79153 36.09904
#
# Velocity S-wave (km/s) = 3.72957 4.13274 3.93632
# Velocity P-wave (km/s) = 6.29878 7.07409 6.69766
#
# Compressibility (1/GPa) = 0.02031517
#
# Stress axis : x y z
#
# Youngs Moduli (GPa) = 138.40526 59.12880 132.40592
#
# Poissons Ratio (x) = 0.12071 0.22320
# Poissons Ratio (y) = 0.28255 0.25953
# Poissons Ratio (z) = 0.23332 0.11590
#
# Static dielectric constant tensor:
#      x y z
#    x 1.918700 0.000520 0.003130 
#    y 0.000520 1.927020 -0.061200 
#    z 0.003130 -0.061200 1.989920 
# 
# From -- ./inp_files/269948.got.cif
#   From: 2010.05.17/outbox.cif.g08.bks.cpg/sg2_135_cif.got.tgz:269948.got - 2010.06.03 11:33:40.
