data_PCOD9100375
_publ_section_title
;
Structure prediction by ZEFSAII (Michael W. Deem and Ramdas Pophale) SiO2 
 PCOD9100375
Probable space group: P -1
;
_chemical_formula_sum "Si O2"
_cell_formula_units_Z 16
_cell_length_a 16.508316
_cell_length_b 8.392083
_cell_length_c 9.377404
_cell_angle_alpha 82.836671
_cell_angle_beta 143.280977
_cell_angle_gamma 87.159857
_cell_volume 745.804303
_symmetry_space_group_name_H-M "P -1"
_symmetry_group_IT_number 2
_symmetry_cell_setting 'triclinic'
loop_
_space_group_symop_operation_xyz
x,y,z
-x,-y,-z
loop_
_atom_site_type_symbol
_atom_site_label
_atom_site_fract_x
_atom_site_fract_y
_atom_site_fract_z
Si Si1 0.603234 0.981076 0.871970
Si Si2 0.795610 0.236086 0.816000
Si Si3 0.691497 0.897731 0.703288
Si Si4 0.604859 0.696624 0.102862
Si Si5 0.260377 0.723888 0.954218
Si Si6 0.026180 0.331904 0.964496
Si Si7 0.456317 0.493923 0.704659
Si Si8 0.892555 0.448111 0.460572
O O1 0.672350 0.863549 0.848596
O O2 0.456055 0.079997 0.585571
O O3 0.581768 0.880911 0.991886
O O4 0.700092 0.102898 0.028261
O O5 0.678089 0.395163 0.575586
O O6 0.935141 0.221041 0.924416
O O7 0.734250 0.074008 0.738139
O O8 0.821537 0.267966 0.014562
O O9 0.812190 0.760985 0.813957
O O10 0.574976 0.653768 0.227014
O O11 0.764571 0.601825 0.305312
O O12 0.505699 0.615075 0.873180
O O13 0.178088 0.677451 0.710287
O O14 0.408616 0.585622 0.191121
O O15 0.967273 0.372001 0.718223
O O16 0.000000 0.500000 0.000000
O O17 0.000000 0.500000 0.500000
#
# Coordination Sequence:
#
# PCOD9100375 Si02
#       8
#     2   2   2   2   2   2   2   2
#     4  10  21  41  67 101 136 170 224 276 333 390
#     4  11  21  43  64  97 135 173 224 266 333 400
#     4  10  23  41  66  99 136 179 217 275 332 392
#     4  10  20  38  64  95 131 174 218 275 332 381
#     4  10  24  39  67 101 130 176 220 275 335 388
#     4  12  26  43  68  96 133 178 226 269 329 406
#     4  10  20  37  63  96 132 172 221 271 326 390
#     4  11  23  44  65  95 136 176 220 270 334 402
#
# _framework density 21.453347000000001
#
# number of rings (size 3 to 8) (size 9 to 14) (size 15 to 20)
#    0.000    1.500    2.500    2.250    1.750    1.500 
#    0.000    8.125    0.000    0.000    0.000    0.000 
#    0.000    0.000    0.000    0.000    0.000    0.000 
#
# Total GULP energy -89516.423328 kJ/mol
# GULP energy per Si atom -5594.776458 kJ/mol
# Density = 2.140452 g / cm^3
# Si number density = 21.453347 Si / 1000 Ang^3
#
#
#
# Elastic Constant Matrix: (Units=GPa)
#
#
# Indices 1 2 3 4 5 6 
#
# 1 125.3290 27.2247 40.4348 -3.2006 5.1626 -7.2132
# 2 27.2247 57.2088 18.2312 2.1992 -8.7448 -0.6849
# 3 40.4348 18.2312 58.1897 -1.3245 2.1438 0.8798
# 4 -3.2006 2.1992 -1.3245 21.5344 8.9352 -2.4883
# 5 5.1626 -8.7448 2.1438 8.9352 25.8663 -1.6366
# 6 -7.2132 -0.6849 0.8798 -2.4883 -1.6366 28.4742
#
#
#
# Elastic Compliance Matrix: (Units=1/GPa)
#
#
# Indices 1 2 3 4 5 6 
#
# 1 0.011405 -0.004145 -0.006428 0.003856 -0.004282 0.003079
# 2 -0.004145 0.023182 -0.005005 -0.008279 0.011916 -0.000376
# 3 -0.006428 -0.005005 0.023422 0.002043 -0.003213 -0.002478
# 4 0.003856 -0.008279 0.002043 0.058284 -0.023590 0.004452
# 5 -0.004282 0.011916 -0.003213 -0.023590 0.051973 0.000227
# 6 0.003079 -0.000376 -0.002478 0.004452 0.000227 0.036369
#
#
# Mechanical properties :
#
#
# Convention : Reuss Voigt Hill
#
# Bulk Modulus (GPa) = 37.23709 45.83431 41.53570
# Shear Modulus (GPa) = 20.42971 25.49742 22.96356
#
# Velocity S-wave (km/s) = 3.08926 3.45121 3.27524
# Velocity P-wave (km/s) = 5.48813 6.10673 5.80568
#
# Compressibility (1/GPa) = 0.02685495
#
# Stress axis : x y z
#
# Youngs Moduli (GPa) = 87.67924 43.13614 42.69512
#
# Poissons Ratio (x) = 0.17880 0.27443
# Poissons Ratio (y) = 0.36344 0.21367
# Poissons Ratio (z) = 0.56357 0.21588
#
# Static dielectric constant tensor:
#      x y z
#    x 1.776360 -0.003180 0.000910 
#    y -0.003180 1.786910 0.001000 
#    z 0.000910 0.001000 1.739640 
# 
# From -- ./inp_files/279365.got.cif
#   From: 2010.05.17/outbox.cif.g08.bks.cpg/sg2_140_cif.got.tgz:279365.got - 2010.06.03 11:33:40.
