data_PCOD9100486
_publ_section_title
;
Structure prediction by ZEFSAII (Michael W. Deem and Ramdas Pophale) SiO2 
 PCOD9100486
Probable space group: P -1
;
_chemical_formula_sum "Si O2"
_cell_formula_units_Z 16
_cell_length_a 23.519962
_cell_length_b 5.676977
_cell_length_c 8.206567
_cell_angle_alpha 62.745999
_cell_angle_beta 56.129177
_cell_angle_gamma 98.774306
_cell_volume 674.185064
_symmetry_space_group_name_H-M "P -1"
_symmetry_group_IT_number 2
_symmetry_cell_setting 'triclinic'
loop_
_space_group_symop_operation_xyz
x,y,z
-x,-y,-z
loop_
_atom_site_type_symbol
_atom_site_label
_atom_site_fract_x
_atom_site_fract_y
_atom_site_fract_z
Si Si1 0.887951 0.405898 0.595191
Si Si2 0.053584 0.985842 0.277270
Si Si3 0.661763 0.739841 0.901417
Si Si4 0.050546 0.350209 0.899502
Si Si5 0.624503 0.711704 0.348617
Si Si6 0.249113 0.558019 0.027445
Si Si7 0.667776 0.253921 0.503810
Si Si8 0.506571 0.786907 0.694014
O O1 0.879124 0.080266 0.755063
O O2 0.879913 0.421538 0.411148
O O3 0.833556 0.482482 0.764532
O O4 0.983700 0.677518 0.386214
O O5 0.000000 0.000000 0.500000
O O6 0.087140 0.289971 0.017671
O O7 0.735107 0.685708 0.827577
O O8 0.680607 0.064636 0.685677
O O9 0.627018 0.659000 0.169093
O O10 0.584236 0.455581 0.014815
O O11 0.000000 0.500000 0.000000
O O12 0.000000 0.000000 0.000000
O O13 0.664010 0.562061 0.441713
O O14 0.538869 0.597354 0.605736
O O15 0.678106 0.091295 0.144544
O O16 0.264990 0.610982 0.791830
O O17 0.577772 0.006225 0.641582
O O18 0.500000 0.000000 0.500000
#
# Coordination Sequence:
#
# PCOD9100486 Si02
#       8
#     2   2   2   2   2   2   2   2
#     4  10  22  39  62  89 120 163 198 251 310 372
#     4  10  20  37  64  91 119 151 202 253 308 364
#     4  11  22  38  60  86 116 158 202 249 307 358
#     4  10  20  38  62  94 127 156 203 257 310 373
#     4  10  21  38  58  82 119 154 200 253 295 360
#     4  10  23  42  59  81 126 161 198 243 305 365
#     4  10  23  38  58  88 119 152 204 251 298 362
#     4  11  19  38  61  84 117 155 197 256 304 350
#
# _framework density 23.732354999999998
#
# number of rings (size 3 to 8) (size 9 to 14) (size 15 to 20)
#    0.000    1.750    5.000    0.750    0.000    5.500 
#    0.000    1.250    0.000    0.000    0.000    0.000 
#    0.000    0.000    0.000    0.000    0.000    0.000 
#
# Total GULP energy -89195.828995 kJ/mol
# GULP energy per Si atom -5574.739312 kJ/mol
# Density = 2.367834 g / cm^3
# Si number density = 23.732355 Si / 1000 Ang^3
#
#
#
# Elastic Constant Matrix: (Units=GPa)
#
#
# Indices 1 2 3 4 5 6 
#
# 1 99.3585 34.6206 52.4817 -17.3635 18.5645 -43.6161
# 2 34.6206 93.7908 29.0498 -4.6219 13.6980 -40.5432
# 3 52.4817 29.0498 93.6648 -11.2215 22.1833 -36.6034
# 4 -17.3635 -4.6219 -11.2215 37.1007 -12.8564 -0.3942
# 5 18.5645 13.6980 22.1833 -12.8564 43.0148 -16.9730
# 6 -43.6161 -40.5432 -36.6034 -0.3942 -16.9730 60.0386
#
#
#
# Elastic Compliance Matrix: (Units=1/GPa)
#
#
# Indices 1 2 3 4 5 6 
#
# 1 0.018906 -0.000578 -0.005827 0.007582 0.001327 0.010217
# 2 -0.000578 0.015250 -0.000445 0.001550 -0.000134 0.009579
# 3 -0.005827 -0.000445 0.016976 0.001041 -0.003927 0.004712
# 4 0.007582 0.001550 0.001041 0.034618 0.010097 0.010271
# 5 0.001327 -0.000134 -0.003927 0.010097 0.030600 0.007196
# 6 0.010217 0.009579 0.004712 0.010271 0.007196 0.035521
#
#
# Mechanical properties :
#
#
# Convention : Reuss Voigt Hill
#
# Bulk Modulus (GPa) = 26.71531 57.67982 42.19756
# Shear Modulus (GPa) = 28.08215 39.40828 33.74522
#
# Velocity S-wave (km/s) = 3.44362 4.07938 3.77491
# Velocity P-wave (km/s) = 5.20507 6.82243 6.06788
#
# Compressibility (1/GPa) = 0.03743172
#
# Stress axis : x y z
#
# Youngs Moduli (GPa) = 52.89382 65.57388 58.90684
#
# Poissons Ratio (x) = 0.03787 0.34328
# Poissons Ratio (y) = 0.03055 0.02622
# Poissons Ratio (z) = 0.30824 0.02918
#
# Static dielectric constant tensor:
#      x y z
#    x 1.977820 0.000210 -0.008550 
#    y 0.000210 2.014510 -0.039130 
#    z -0.008550 -0.039130 1.921240 
# 
# From -- ./inp_files/53343.got.cif
#   From: 2010.05.17/outbox.cif.g08.bks.cpg/sg2_27_cif.got.tgz:53343.got - 2010.06.03 11:33:40.
