data_PCOD9100677
_publ_section_title
;
Structure prediction by ZEFSAII (Michael W. Deem and Ramdas Pophale) SiO2 
 PCOD9100677
Probable space group: P -1
;
_chemical_formula_sum "Si O2"
_cell_formula_units_Z 16
_cell_length_a 7.442419
_cell_length_b 9.737748
_cell_length_c 10.874461
_cell_angle_alpha 64.443196
_cell_angle_beta 111.209935
_cell_angle_gamma 95.103465
_cell_volume 660.713320
_symmetry_space_group_name_H-M "P -1"
_symmetry_group_IT_number 2
_symmetry_cell_setting 'triclinic'
loop_
_space_group_symop_operation_xyz
x,y,z
-x,-y,-z
loop_
_atom_site_type_symbol
_atom_site_label
_atom_site_fract_x
_atom_site_fract_y
_atom_site_fract_z
Si Si1 0.607719 0.135998 0.418475
Si Si2 0.257410 0.690384 0.394607
Si Si3 0.487052 0.821320 0.050787
Si Si4 0.942493 0.672420 0.809388
Si Si5 0.680809 0.651652 0.379280
Si Si6 0.898288 0.321216 0.898663
Si Si7 0.834151 0.889825 0.484057
Si Si8 0.596212 0.341582 0.134662
O O1 0.743166 0.184846 0.545711
O O2 0.545186 0.296974 0.278109
O O3 0.500000 0.000000 0.500000
O O4 0.679366 0.029898 0.360905
O O5 0.475661 0.683811 0.390728
O O6 0.247674 0.523533 0.516539
O O7 0.104382 0.712862 0.235455
O O8 0.637764 0.713294 0.209171
O O9 0.280152 0.768881 0.063738
O O10 0.501281 0.775186 0.932266
O O11 0.500000 0.000000 0.000000
O O12 0.169392 0.662721 0.823617
O O13 0.866745 0.506005 0.831212
O O14 0.827472 0.796752 0.646895
O O15 0.943373 0.711425 0.940327
O O16 0.830792 0.759089 0.434818
O O17 0.000000 0.000000 0.500000
O O18 0.500000 0.500000 0.000000
#
# Coordination Sequence:
#
# PCOD9100677 Si02
#       8
#     2   2   2   2   2   2   2   2
#     4  12  25  40  64 101 137 164 215 275 331 382
#     4  10  20  38  62  95 124 164 219 263 309 388
#     4  10  21  36  64  92 123 161 218 265 311 382
#     4  10  21  41  67  92 125 173 220 257 323 400
#     4  10  20  37  65  90 122 172 215 258 318 385
#     4   9  20  38  66  89 124 167 212 263 313 387
#     4  12  23  41  64  94 130 173 209 263 332 387
#     4  11  24  43  65  92 127 172 220 268 321 384
#
# _framework density 24.216252000000001
#
# number of rings (size 3 to 8) (size 9 to 14) (size 15 to 20)
#    0.000    1.500    3.750    1.500    3.500    4.000 
#    0.000    4.375    0.000    0.000    0.000    0.000 
#    0.000    0.000    0.000    0.000    0.000    0.000 
#
# Total GULP energy -89147.610577 kJ/mol
# GULP energy per Si atom -5571.725661 kJ/mol
# Density = 2.416113 g / cm^3
# Si number density = 24.216252 Si / 1000 Ang^3
#
#
#
# Elastic Constant Matrix: (Units=GPa)
#
#
# Indices 1 2 3 4 5 6 
#
# 1 56.7053 24.3853 13.0463 -12.8935 -5.8554 17.0437
# 2 24.3853 166.7130 53.2717 23.4139 -8.3670 34.7670
# 3 13.0463 53.2717 194.2113 15.9598 -18.6863 5.9684
# 4 -12.8935 23.4139 15.9598 36.6779 0.5831 -4.5355
# 5 -5.8554 -8.3670 -18.6863 0.5831 19.8906 -11.2183
# 6 17.0437 34.7670 5.9684 -4.5355 -11.2183 32.6744
#
#
#
# Elastic Compliance Matrix: (Units=1/GPa)
#
#
# Indices 1 2 3 4 5 6 
#
# 1 0.023708 -0.002737 -0.001423 0.009723 -0.000271 -0.007938
# 2 -0.002737 0.010540 -0.002144 -0.008194 -0.005068 -0.012273
# 3 -0.001423 -0.002144 0.006526 -0.001582 0.007150 0.004067
# 4 0.009723 -0.008194 -0.001582 0.037803 0.002481 0.010036
# 5 -0.000271 -0.005068 0.007150 0.002481 0.071044 0.028965
# 6 -0.007938 -0.012273 0.004067 0.010036 0.028965 0.058400
#
#
# Mechanical properties :
#
#
# Convention : Reuss Voigt Hill
#
# Bulk Modulus (GPa) = 35.50465 66.55958 51.03212
# Shear Modulus (GPa) = 21.73754 39.64366 30.69060
#
# Velocity S-wave (km/s) = 2.99932 4.05046 3.56386
# Velocity P-wave (km/s) = 5.16603 7.02995 6.16879
#
# Compressibility (1/GPa) = 0.02816532
#
# Stress axis : x y z
#
# Youngs Moduli (GPa) = 42.17959 94.87837 153.23930
#
# Poissons Ratio (x) = 0.25966 0.21807
# Poissons Ratio (y) = 0.11544 0.32859
# Poissons Ratio (z) = 0.06002 0.20345
#
# Static dielectric constant tensor:
#      x y z
#    x 2.360410 -0.042410 -0.031920 
#    y -0.042410 1.839980 0.023750 
#    z -0.031920 0.023750 1.908270 
# 
# From -- ./inp_files/329118.got.cif
#   From: 2010.05.17/outbox.cif.g08.bks.cpg/sg2_165_cif.got.tgz:329118.got - 2010.06.03 11:33:40.
