data_PCOD9100995
_publ_section_title
;
Structure prediction by ZEFSAII (Michael W. Deem and Ramdas Pophale) SiO2 
 PCOD9100995
Probable space group: P -1
;
_chemical_formula_sum "Si O2"
_cell_formula_units_Z 14
_cell_length_a 11.595731
_cell_length_b 16.152454
_cell_length_c 8.825926
_cell_angle_alpha 74.370639
_cell_angle_beta 69.402291
_cell_angle_gamma 134.950848
_cell_volume 682.754678
_symmetry_space_group_name_H-M "P -1"
_symmetry_group_IT_number 2
_symmetry_cell_setting 'triclinic'
loop_
_space_group_symop_operation_xyz
x,y,z
-x,-y,-z
loop_
_atom_site_type_symbol
_atom_site_label
_atom_site_fract_x
_atom_site_fract_y
_atom_site_fract_z
Si Si1 0.258284 0.470703 0.239722
Si Si2 0.163632 0.523943 0.988742
Si Si3 0.861947 0.643067 0.307766
Si Si4 0.809519 0.758782 0.708054
Si Si5 0.233179 0.061634 0.589971
Si Si6 0.220614 0.855652 0.778549
Si Si7 0.299616 0.269763 0.577052
O O1 0.192265 0.517332 0.156962
O O2 0.172783 0.418244 0.479418
O O3 0.132012 0.306843 0.300775
O O4 0.573108 0.640593 0.990392
O O5 0.459296 0.726928 0.692361
O O6 0.988289 0.654892 0.909828
O O7 0.000000 0.500000 0.000000
O O8 0.594622 0.452136 0.428173
O O9 0.845915 0.736804 0.285547
O O10 0.141220 0.791606 0.023359
O O11 0.701325 0.713611 0.612975
O O12 0.071859 0.964638 0.554904
O O13 0.157936 0.088810 0.731761
O O14 0.196594 0.942542 0.723264
O O15 0.500000 0.000000 0.500000
#
# Coordination Sequence:
#
# PCOD9100995 Si02
#       7
#     2   2   2   2   2   2   2
#     4  10  21  40  68 100 140 173 218 286 339 396
#     4  12  24  45  70  94 131 184 238 271 323 405
#     4  10  23  42  64 102 144 173 215 288 344 393
#     4  10  20  37  68 105 133 176 218 274 346 411
#     4  12  23  38  72 102 132 176 233 269 333 415
#     4  12  25  45  69  92 130 189 239 271 325 405
#     4  10  21  39  66 102 141 172 208 275 353 405
#
# _framework density 20.505168000000001
#
# number of rings (size 3 to 8) (size 9 to 14) (size 15 to 20)
#    0.000    1.143    5.714    0.429    6.000    0.571 
#    0.000    1.429    0.000    0.000    0.000    0.000 
#    0.000    0.000    0.000    0.000    0.000    0.000 
#
# Total GULP energy -77960.532589 kJ/mol
# GULP energy per Si atom -5568.609471 kJ/mol
# Density = 2.045850 g / cm^3
# Si number density = 20.505168 Si / 1000 Ang^3
#
#
#
# Elastic Constant Matrix: (Units=GPa)
#
#
# Indices 1 2 3 4 5 6 
#
# 1 118.2743 40.0241 34.2060 14.3433 32.3456 -0.7592
# 2 40.0241 123.5055 42.4711 -16.3440 5.9628 -1.3240
# 3 34.2060 42.4711 132.0937 23.5079 9.8955 19.8172
# 4 14.3433 -16.3440 23.5079 36.0191 0.5508 6.8233
# 5 32.3456 5.9628 9.8955 0.5508 27.9955 -7.5124
# 6 -0.7592 -1.3240 19.8172 6.8233 -7.5124 26.1458
#
#
#
# Elastic Compliance Matrix: (Units=1/GPa)
#
#
# Indices 1 2 3 4 5 6 
#
# 1 0.016428 -0.006133 0.001369 -0.009180 -0.019037 -0.003946
# 2 -0.006133 0.013314 -0.005870 0.011443 0.007179 0.004022
# 3 0.001369 -0.005870 0.012785 -0.009643 -0.007212 -0.009504
# 4 -0.009180 0.011443 -0.009643 0.042840 0.010597 -0.000514
# 5 -0.019037 0.007179 -0.007212 0.010597 0.064147 0.020942
# 6 -0.003946 0.004022 -0.009504 -0.000514 0.020942 0.051691
#
#
# Mechanical properties :
#
#
# Convention : Reuss Voigt Hill
#
# Bulk Modulus (GPa) = 47.03614 67.47511 57.25562
# Shear Modulus (GPa) = 21.78097 35.17690 28.47894
#
# Velocity S-wave (km/s) = 3.26271 4.14637 3.73079
# Velocity P-wave (km/s) = 6.09772 7.47670 6.82214
#
# Compressibility (1/GPa) = 0.02126025
#
# Stress axis : x y z
#
# Youngs Moduli (GPa) = 60.86984 75.11060 78.21544
#
# Poissons Ratio (x) = 0.46065 -0.10711
# Poissons Ratio (y) = 0.37331 0.45914
# Poissons Ratio (z) = -0.08336 0.44091
#
# Static dielectric constant tensor:
#      x y z
#    x 1.842900 -0.038270 0.013670 
#    y -0.038270 1.751000 0.025180 
#    z 0.013670 0.025180 1.766900 
# 
# From -- ./inp_files/270166.got.cif
#   From: 2010.05.17/outbox.cif.g08.bks.cpg/sg2_136_cif.got.tgz:270166.got - 2010.06.03 11:33:40.
