data_PCOD9100447
_publ_section_title
;
Structure prediction by ZEFSAII (Michael W. Deem and Ramdas Pophale) SiO2 
 PCOD9100447
Probable space group: P -1
;
_chemical_formula_sum "Si O2"
_cell_formula_units_Z 16
_cell_length_a 7.921384
_cell_length_b 20.174051
_cell_length_c 17.500664
_cell_angle_alpha 21.206398
_cell_angle_beta 49.111658
_cell_angle_gamma 48.248085
_cell_volume 748.794969
_symmetry_space_group_name_H-M "P -1"
_symmetry_group_IT_number 2
_symmetry_cell_setting 'triclinic'
loop_
_space_group_symop_operation_xyz
x,y,z
-x,-y,-z
loop_
_atom_site_type_symbol
_atom_site_label
_atom_site_fract_x
_atom_site_fract_y
_atom_site_fract_z
Si Si1 0.247639 0.860139 0.079418
Si Si2 0.673515 0.632081 0.826762
Si Si3 0.805728 0.452128 0.275997
Si Si4 0.181054 0.542661 0.319894
Si Si5 0.501119 0.694277 0.978078
Si Si6 0.858799 0.374938 0.508188
Si Si7 0.477268 0.829453 0.375608
Si Si8 0.339777 0.128220 0.569318
O O1 0.217020 0.706015 0.190189
O O2 0.277786 0.755344 0.264720
O O3 0.442225 0.981557 0.876638
O O4 0.000000 0.000000 0.000000
O O5 0.640412 0.676968 0.877477
O O6 0.617571 0.805547 0.598892
O O7 0.934899 0.544915 0.823489
O O8 0.500000 0.500000 0.000000
O O9 0.746709 0.244947 0.503016
O O10 0.754099 0.483997 0.346814
O O11 0.656986 0.599591 0.104066
O O12 0.935353 0.512858 0.399723
O O13 0.319993 0.343731 0.522684
O O14 0.298928 0.579338 0.164857
O O15 0.375384 0.906664 0.797747
O O16 0.091779 0.235255 0.558534
O O17 0.480733 0.830461 0.465555
#
# Coordination Sequence:
#
# PCOD9100447 Si02
#       8
#     2   2   2   2   2   2   2   2
#     4  12  20  36  67  95 118 166 224 251 304 365
#     4  11  22  40  66  90 118 164 213 251 307 381
#     4  10  23  41  59  90 131 163 199 254 327 367
#     4  10  20  37  64  88 125 164 209 259 307 358
#     4  11  20  38  63  89 124 163 201 256 314 365
#     4  10  21  38  62  93 124 167 209 256 303 373
#     4  10  21  39  62  86 133 165 197 266 311 365
#     4  10  20  39  61  92 123 156 213 257 298 365
#
# _framework density 21.367664999999999
#
# number of rings (size 3 to 8) (size 9 to 14) (size 15 to 20)
#    0.000    1.500    3.750    4.125    0.000    0.500 
#    0.000   11.250    0.000    0.000    0.000    0.000 
#    0.000    0.000    0.000    0.000    0.000    0.000 
#
# Total GULP energy -89239.301903 kJ/mol
# GULP energy per Si atom -5577.456369 kJ/mol
# Density = 2.131903 g / cm^3
# Si number density = 21.367665 Si / 1000 Ang^3
#
#
#
# Elastic Constant Matrix: (Units=GPa)
#
#
# Indices 1 2 3 4 5 6 
#
# 1 81.8663 25.0994 49.4238 11.1569 -3.4103 3.4939
# 2 25.0994 83.3114 53.8215 15.3091 10.1508 18.5920
# 3 49.4238 53.8215 166.3600 15.0504 0.8934 12.5285
# 4 11.1569 15.3091 15.0504 38.7780 9.1231 -0.7650
# 5 -3.4103 10.1508 0.8934 9.1231 30.7073 8.3500
# 6 3.4939 18.5920 12.5285 -0.7650 8.3500 22.1674
#
#
#
# Elastic Compliance Matrix: (Units=1/GPa)
#
#
# Indices 1 2 3 4 5 6 
#
# 1 0.015675 -0.002223 -0.003689 -0.003013 0.003459 0.000072
# 2 -0.002223 0.019476 -0.004142 -0.005389 -0.001340 -0.013324
# 3 -0.003689 -0.004142 0.008635 -0.001007 0.001383 -0.001380
# 4 -0.003013 -0.005389 -0.001007 0.031963 -0.010955 0.010794
# 5 0.003459 -0.001340 0.001383 -0.010955 0.040960 -0.016010
# 6 0.000072 -0.013324 -0.001380 0.010794 -0.016010 0.063458
#
#
# Mechanical properties :
#
#
# Convention : Reuss Voigt Hill
#
# Bulk Modulus (GPa) = 42.23497 65.35855 53.79676
# Shear Modulus (GPa) = 24.01880 31.87675 27.94777
#
# Velocity S-wave (km/s) = 3.35636 3.86660 3.62048
# Velocity P-wave (km/s) = 5.90160 7.11253 6.53518
#
# Compressibility (1/GPa) = 0.02367706
#
# Stress axis : x y z
#
# Youngs Moduli (GPa) = 63.79410 51.34500 115.80965
#
# Poissons Ratio (x) = 0.11415 0.42725
# Poissons Ratio (y) = 0.14182 0.47972
# Poissons Ratio (z) = 0.23535 0.21269
#
# Static dielectric constant tensor:
#      x y z
#    x 1.818560 0.017330 -0.002430 
#    y 0.017330 1.831240 0.007540 
#    z -0.002430 0.007540 1.798470 
# 
# From -- ./inp_files/562879.got.cif
#   From: 2010.05.17/outbox.cif.g08.bks.cpg/sg2_282_cif.got.tgz:562879.got - 2010.06.03 11:33:40.
