data_PCOD9100407
_publ_section_title
;
Structure prediction by ZEFSAII (Michael W. Deem and Ramdas Pophale) SiO2 
 PCOD9100407
Probable space group: P -1
;
_chemical_formula_sum "Si O2"
_cell_formula_units_Z 16
_cell_length_a 11.985974
_cell_length_b 20.216907
_cell_length_c 19.743032
_cell_angle_alpha 14.419600
_cell_angle_beta 142.040941
_cell_angle_gamma 148.838414
_cell_volume 585.534955
_symmetry_space_group_name_H-M "P -1"
_symmetry_group_IT_number 2
_symmetry_cell_setting 'triclinic'
loop_
_space_group_symop_operation_xyz
x,y,z
-x,-y,-z
loop_
_atom_site_type_symbol
_atom_site_label
_atom_site_fract_x
_atom_site_fract_y
_atom_site_fract_z
Si Si1 0.585469 0.080362 0.193586
Si Si2 0.196358 0.228178 0.446537
Si Si3 0.028880 0.623192 0.716075
Si Si4 0.149872 0.300894 0.574024
Si Si5 0.363724 0.095922 0.785803
Si Si6 0.647216 0.339625 0.365078
Si Si7 0.534278 0.329382 0.122465
Si Si8 0.895169 0.413910 0.610012
O O1 0.782921 0.038322 0.314590
O O2 0.470818 0.891896 0.395796
O O3 0.369674 0.882313 0.234408
O O4 0.371719 0.686579 0.288725
O O5 0.340908 0.300820 0.512692
O O6 0.970569 0.162708 0.435273
O O7 0.310156 0.538073 0.143256
O O8 0.207426 0.544047 0.884763
O O9 0.031332 0.771445 0.497728
O O10 0.783871 0.268312 0.954126
O O11 0.090558 0.298836 0.625476
O O12 0.237859 0.100221 0.787411
O O13 0.919243 0.591739 0.253748
O O14 0.586317 0.065627 0.550715
O O15 0.553252 0.549358 0.098081
O O16 0.500000 0.500000 0.000000
O O17 0.000000 0.500000 0.500000
#
# Coordination Sequence:
#
# PCOD9100407 Si02
#       8
#     2   2   2   2   2   2   2   2
#     4  11  23  44  73 103 148 177 221 287 354 425
#     4  11  21  41  70 104 139 181 218 282 356 413
#     4  11  24  40  71  98 140 179 236 279 355 401
#     4  10  20  37  64 104 135 175 223 282 352 414
#     4  10  21  37  65 103 139 174 218 290 344 424
#     4  11  27  48  69 105 135 187 242 284 339 413
#     4  12  28  49  74  96 139 184 242 295 336 399
#     4  10  22  42  70 101 141 185 226 281 354 421
#
# _framework density 27.325437999999998
#
# number of rings (size 3 to 8) (size 9 to 14) (size 15 to 20)
#    0.000    1.250    2.500    2.250    5.250    3.000 
#    0.000    7.500    0.000    0.000    0.000    0.000 
#    0.000    0.000    0.000    0.000    0.000    0.000 
#
# Total GULP energy -89494.249666 kJ/mol
# GULP energy per Si atom -5593.390604 kJ/mol
# Density = 2.726324 g / cm^3
# Si number density = 27.325438 Si / 1000 Ang^3
#
#
#
# Elastic Constant Matrix: (Units=GPa)
#
#
# Indices 1 2 3 4 5 6 
#
# 1 141.0328 24.5737 22.0107 8.1654 26.5628 -12.8882
# 2 24.5737 109.1087 29.9674 10.8533 18.1720 8.2118
# 3 22.0107 29.9674 150.7691 5.5612 35.4220 11.8180
# 4 8.1654 10.8533 5.5612 33.4056 9.6682 3.6090
# 5 26.5628 18.1720 35.4220 9.6682 38.9574 6.8218
# 6 -12.8882 8.2118 11.8180 3.6090 6.8218 42.1566
#
#
#
# Elastic Compliance Matrix: (Units=1/GPa)
#
#
# Indices 1 2 3 4 5 6 
#
# 1 0.008829 -0.001253 0.000103 -0.000424 -0.006114 0.003940
# 2 -0.001253 0.010459 -0.001192 -0.002104 -0.002145 -0.001559
# 3 0.000103 -0.001192 0.008654 0.001205 -0.007498 -0.001052
# 4 -0.000424 -0.002104 0.001205 0.032930 -0.007712 -0.001629
# 5 -0.006114 -0.002145 -0.007498 -0.007712 0.040488 -0.005241
# 6 0.003940 -0.001559 -0.001052 -0.001629 -0.005241 0.026512
#
#
# Mechanical properties :
#
#
# Convention : Reuss Voigt Hill
#
# Bulk Modulus (GPa) = 42.99496 61.55713 52.27604
# Shear Modulus (GPa) = 35.63612 44.52784 40.08198
#
# Velocity S-wave (km/s) = 3.61520 4.04113 3.83409
# Velocity P-wave (km/s) = 5.76149 6.65963 6.22678
#
# Compressibility (1/GPa) = 0.02325854
#
# Stress axis : x y z
#
# Youngs Moduli (GPa) = 113.26432 95.61452 115.55170
#
# Poissons Ratio (x) = 0.11979 -0.01195
# Poissons Ratio (y) = 0.14191 0.13775
# Poissons Ratio (z) = -0.01171 0.11398
#
# Static dielectric constant tensor:
#      x y z
#    x 2.204220 -0.024530 -0.048390 
#    y -0.024530 2.163330 0.049320 
#    z -0.048390 0.049320 2.110330 
# 
# From -- ./inp_files/570223.got.cif
#   From: 2010.05.17/outbox.cif.g08.bks.cpg/sg2_286_cif.got.tgz:570223.got - 2010.06.03 11:33:40.
