data_PCOD9100561
_publ_section_title
;
Structure prediction by ZEFSAII (Michael W. Deem and Ramdas Pophale) SiO2 
 PCOD9100561
Probable space group: P -1
;
_chemical_formula_sum "Si O2"
_cell_formula_units_Z 16
_cell_length_a 15.624027
_cell_length_b 10.076619
_cell_length_c 15.082370
_cell_angle_alpha 143.656043
_cell_angle_beta 141.018999
_cell_angle_gamma 37.862293
_cell_volume 795.727470
_symmetry_space_group_name_H-M "P -1"
_symmetry_group_IT_number 2
_symmetry_cell_setting 'triclinic'
loop_
_space_group_symop_operation_xyz
x,y,z
-x,-y,-z
loop_
_atom_site_type_symbol
_atom_site_label
_atom_site_fract_x
_atom_site_fract_y
_atom_site_fract_z
Si Si1 0.166282 0.240348 0.053953
Si Si2 0.116543 0.060767 0.569876
Si Si3 0.130822 0.736596 0.241414
Si Si4 0.625229 0.872502 0.106782
Si Si5 0.616146 0.025059 0.674578
Si Si6 0.540703 0.214200 0.904365
Si Si7 0.209441 0.687405 0.083482
Si Si8 0.951450 0.637194 0.775164
O O1 0.226097 0.440469 0.178725
O O2 0.087639 0.350391 0.144596
O O3 0.290137 0.958651 0.016645
O O4 0.040856 0.234485 0.883254
O O5 0.271022 0.992057 0.711431
O O6 0.033303 0.360374 0.653129
O O7 0.150348 0.907311 0.423761
O O8 0.000000 0.000000 0.500000
O O9 0.157559 0.810630 0.204101
O O10 0.563292 0.814273 0.117932
O O11 0.734242 0.603641 0.011845
O O12 0.500000 0.000000 0.000000
O O13 0.542752 0.071767 0.738049
O O14 0.655022 0.255727 0.809811
O O15 0.500000 0.000000 0.500000
O O16 0.786473 0.799390 0.687943
O O17 0.500000 0.500000 0.000000
O O18 0.077613 0.743264 0.934787
#
# Coordination Sequence:
#
# PCOD9100561 Si02
#       8
#     2   2   2   2   2   2   2   2
#     4   9  19  37  64  90 123 165 206 259 316 386
#     4  11  23  39  65  93 128 159 214 277 316 372
#     4  10  20  37  64  95 121 159 216 263 320 368
#     4  11  25  43  65  95 129 169 217 264 319 388
#     4  11  24  40  63  90 130 165 209 262 316 379
#     4  11  23  43  64  91 130 176 210 249 325 390
#     4  10  21  41  62  86 124 169 209 257 313 383
#     4   9  20  40  61  86 120 166 210 255 317 375
#
# _framework density 20.107386999999999
#
# number of rings (size 3 to 8) (size 9 to 14) (size 15 to 20)
#    0.000    1.750    2.500    1.125    5.250    2.000 
#    0.000    1.875    0.000    0.000    0.000    0.000 
#    0.000    0.000    0.000    0.000    0.000    0.000 
#
# Total GULP energy -89196.593277 kJ/mol
# GULP energy per Si atom -5574.787080 kJ/mol
# Density = 2.006162 g / cm^3
# Si number density = 20.107387 Si / 1000 Ang^3
#
#
#
# Elastic Constant Matrix: (Units=GPa)
#
#
# Indices 1 2 3 4 5 6 
#
# 1 83.6379 -2.2103 44.7491 -7.5712 -0.5474 -6.9239
# 2 -2.2103 120.2593 55.8607 -9.6305 -7.3192 2.8076
# 3 44.7491 55.8607 159.5745 -22.7514 -8.9347 0.7834
# 4 -7.5712 -9.6305 -22.7514 35.0411 -1.0387 -1.2352
# 5 -0.5474 -7.3192 -8.9347 -1.0387 26.3267 4.3429
# 6 -6.9239 2.8076 0.7834 -1.2352 4.3429 22.4518
#
#
#
# Elastic Compliance Matrix: (Units=1/GPa)
#
#
# Indices 1 2 3 4 5 6 
#
# 1 0.015251 0.002534 -0.005163 0.000767 -0.001509 0.004901
# 2 0.002534 0.010479 -0.004175 0.000743 0.001689 -0.000669
# 3 -0.005163 -0.004175 0.009925 0.004197 0.002543 -0.001677
# 4 0.000767 0.000743 0.004197 0.031756 0.002698 0.001222
# 5 -0.001509 0.001689 0.002543 0.002698 0.040795 -0.008508
# 6 0.004901 -0.000669 -0.001677 0.001222 -0.008508 0.047906
#
#
# Mechanical properties :
#
#
# Convention : Reuss Voigt Hill
#
# Bulk Modulus (GPa) = 45.35841 62.25229 53.80535
# Shear Modulus (GPa) = 28.23743 34.43542 31.33643
#
# Velocity S-wave (km/s) = 3.75151 4.14282 3.95201
# Velocity P-wave (km/s) = 6.43212 7.34241 6.90229
#
# Compressibility (1/GPa) = 0.02204663
#
# Stress axis : x y z
#
# Youngs Moduli (GPa) = 65.57029 95.42739 100.75566
#
# Poissons Ratio (x) = -0.24178 0.52018
# Poissons Ratio (y) = -0.16613 0.42066
# Poissons Ratio (z) = 0.33853 0.39841
#
# Static dielectric constant tensor:
#      x y z
#    x 1.769490 0.007280 0.028120 
#    y 0.007280 1.784690 0.002210 
#    z 0.028120 0.002210 1.698010 
# 
# From -- ./inp_files/576012.got.cif
#   From: 2010.05.17/outbox.cif.g08.bks.cpg/sg2_289_cif.got.tgz:576012.got - 2010.06.03 11:33:40.
