data_PCOD9100967
_publ_section_title
;
Structure prediction by ZEFSAII (Michael W. Deem and Ramdas Pophale) SiO2 
 PCOD9100967
Probable space group: P -1
;
_chemical_formula_sum "Si O2"
_cell_formula_units_Z 16
_cell_length_a 17.590848
_cell_length_b 10.473210
_cell_length_c 9.898307
_cell_angle_alpha 74.531115
_cell_angle_beta 64.163600
_cell_angle_gamma 25.619193
_cell_volume 671.304050
_symmetry_space_group_name_H-M "P -1"
_symmetry_group_IT_number 2
_symmetry_cell_setting 'triclinic'
loop_
_space_group_symop_operation_xyz
x,y,z
-x,-y,-z
loop_
_atom_site_type_symbol
_atom_site_label
_atom_site_fract_x
_atom_site_fract_y
_atom_site_fract_z
Si Si1 0.751321 0.368388 0.438833
Si Si2 0.893130 0.087806 0.857476
Si Si3 0.900487 0.342193 0.950161
Si Si4 0.137024 0.220883 0.650249
Si Si5 0.286213 0.788185 0.264261
Si Si6 0.477324 0.714247 0.315739
Si Si7 0.824537 0.533332 0.450655
Si Si8 0.290364 0.232246 0.235631
O O1 0.678807 0.383575 0.613241
O O2 0.662625 0.439599 0.347958
O O3 0.715077 0.574662 0.438288
O O4 0.986814 0.021403 0.331700
O O5 0.718343 0.256599 0.872742
O O6 0.039676 0.777706 0.910091
O O7 0.863682 0.252366 0.932848
O O8 0.088622 0.166804 0.802986
O O9 0.723492 0.679787 0.924476
O O10 0.207821 0.267492 0.626415
O O11 0.915931 0.558847 0.667849
O O12 0.292804 0.951789 0.493970
O O13 0.446164 0.667530 0.224348
O O14 0.062127 0.165492 0.358086
O O15 0.463308 0.884975 0.229916
O O16 0.747479 0.629353 0.638411
#
# Coordination Sequence:
#
# PCOD9100967 Si02
#       8
#     2   2   2   2   2   2   2   2
#     4  11  23  29  49  80 110 126 157 212 263 289
#     4  10  20  34  54  76  99 129 170 211 238 301
#     4   9  18  34  55  77  91 130 180 204 239 285
#     4   9  17  31  57  73  97 133 168 206 235 292
#     4  11  18  33  51  72 103 134 167 203 249 294
#     4  11  19  33  51  79 104 131 160 207 257 296
#     4  10  16  32  51  77  98 130 173 206 239 291
#     4   9  16  31  55  73  97 132 167 204 234 290
#
# _framework density 23.834206999999999
#
# number of rings (size 3 to 8) (size 9 to 14) (size 15 to 20)
#    0.750    1.250    2.500    4.875    0.000    2.000 
#    0.000    6.250    0.000    8.250    0.000    0.000 
#    0.000    0.000    0.000    0.000    0.000    0.000 
#
# Total GULP energy -89165.894715 kJ/mol
# GULP energy per Si atom -5572.868420 kJ/mol
# Density = 2.377996 g / cm^3
# Si number density = 23.834207 Si / 1000 Ang^3
#
#
#
# Elastic Constant Matrix: (Units=GPa)
#
#
# Indices 1 2 3 4 5 6 
#
# 1 143.8978 35.4789 44.2005 -14.5612 29.8539 5.1699
# 2 35.4789 45.2247 12.7137 -17.4231 -0.8263 -0.4484
# 3 44.2005 12.7137 93.6548 -18.5115 -4.4934 5.7186
# 4 -14.5612 -17.4231 -18.5115 35.8759 -4.6315 -1.7899
# 5 29.8539 -0.8263 -4.4934 -4.6315 37.8166 -3.8470
# 6 5.1699 -0.4484 5.7186 -1.7899 -3.8470 26.1308
#
#
#
# Elastic Compliance Matrix: (Units=1/GPa)
#
#
# Indices 1 2 3 4 5 6 
#
# 1 0.014163 -0.011528 -0.006530 -0.005120 -0.013229 -0.003869
# 2 -0.011528 0.036962 0.004169 0.017362 0.013050 0.005113
# 3 -0.006530 0.004169 0.015225 0.008258 0.008044 -0.000219
# 4 -0.005120 0.017362 0.008258 0.040060 0.010698 0.003823
# 5 -0.013229 0.013050 0.008044 0.010698 0.040225 0.007736
# 6 -0.003869 0.005113 -0.000219 0.003823 0.007736 0.040571
#
#
# Mechanical properties :
#
#
# Convention : Reuss Voigt Hill
#
# Bulk Modulus (GPa) = 25.92594 51.95152 38.93873
# Shear Modulus (GPa) = 21.94519 32.65695 27.30107
#
# Velocity S-wave (km/s) = 3.03767 3.70560 3.38813
# Velocity P-wave (km/s) = 4.81710 6.33664 5.62838
#
# Compressibility (1/GPa) = 0.03857141
#
# Stress axis : x y z
#
# Youngs Moduli (GPa) = 70.60719 27.05512 65.68221
#
# Poissons Ratio (x) = 0.31189 0.42889
# Poissons Ratio (y) = 0.81395 -0.27381
# Poissons Ratio (z) = 0.46105 -0.11279
#
# Static dielectric constant tensor:
#      x y z
#    x 1.938480 0.001900 -0.013940 
#    y 0.001900 1.942580 0.030810 
#    z -0.013940 0.030810 1.924190 
# 
# From -- ./inp_files/331933.got.cif
#   From: 2010.05.17/outbox.cif.g08.bks.cpg/sg2_166_cif.got.tgz:331933.got - 2010.06.03 11:33:40.
