data_PCOD9100886
_publ_section_title
;
Structure prediction by ZEFSAII (Michael W. Deem and Ramdas Pophale) SiO2 
 PCOD9100886
Probable space group: P -1
;
_chemical_formula_sum "Si O2"
_cell_formula_units_Z 16
_cell_length_a 21.092433
_cell_length_b 7.647374
_cell_length_c 18.768287
_cell_angle_alpha 134.438479
_cell_angle_beta 22.028649
_cell_angle_gamma 144.929667
_cell_volume 627.877122
_symmetry_space_group_name_H-M "P -1"
_symmetry_group_IT_number 2
_symmetry_cell_setting 'triclinic'
loop_
_space_group_symop_operation_xyz
x,y,z
-x,-y,-z
loop_
_atom_site_type_symbol
_atom_site_label
_atom_site_fract_x
_atom_site_fract_y
_atom_site_fract_z
Si Si1 0.634564 0.395251 0.619764
Si Si2 0.132265 0.279261 0.248112
Si Si3 0.700864 0.576518 0.174276
Si Si4 0.750604 0.308184 0.188309
Si Si5 0.415902 0.197705 0.134175
Si Si6 0.128203 0.836427 0.742465
Si Si7 0.241983 0.242119 0.597088
Si Si8 0.042187 0.354963 0.520261
O O1 0.606172 0.659681 0.730795
O O2 0.786924 0.364663 0.402290
O O3 0.743355 0.441088 0.596915
O O4 0.396574 0.064509 0.763703
O O5 0.036384 0.447112 0.364519
O O6 0.085320 0.251586 0.372601
O O7 0.390826 0.502169 0.027506
O O8 0.984118 0.951765 0.265562
O O9 0.732735 0.424893 0.164772
O O10 0.441661 0.341133 0.368113
O O11 0.785358 0.920493 0.212057
O O12 0.866389 0.629873 0.957629
O O13 0.676232 0.430128 0.360722
O O14 0.000000 0.500000 0.000000
O O15 0.160940 0.935834 0.305057
O O16 0.500000 0.000000 0.000000
O O17 0.212689 0.040542 0.639601
#
# Coordination Sequence:
#
# PCOD9100886 Si02
#       8
#     2   2   2   2   2   2   2   2
#     4  12  21  44  67  94 136 172 222 278 326 395
#     4  10  21  41  67  97 131 171 217 268 333 394
#     4  10  20  39  66  94 134 178 220 252 325 403
#     4  11  22  39  65  99 136 171 213 273 335 391
#     4  10  24  44  64  90 127 174 223 283 329 374
#     4  10  20  37  66  96 127 176 222 258 314 398
#     4  11  19  41  67  94 140 173 210 269 326 395
#     4  10  22  42  65  94 128 171 226 272 325 386
#
# _framework density 25.482695
#
# number of rings (size 3 to 8) (size 9 to 14) (size 15 to 20)
#    0.000    1.500    3.750    1.875    0.000    1.500 
#   11.250    1.875    0.000    0.000    0.000    0.000 
#    0.000    0.000    0.000    0.000    0.000    0.000 
#
# Total GULP energy -89505.810558 kJ/mol
# GULP energy per Si atom -5594.113160 kJ/mol
# Density = 2.542469 g / cm^3
# Si number density = 25.482695 Si / 1000 Ang^3
#
#
#
# Elastic Constant Matrix: (Units=GPa)
#
#
# Indices 1 2 3 4 5 6 
#
# 1 80.7930 17.8292 24.8767 -3.0586 -1.3948 13.5590
# 2 17.8292 112.8920 38.5755 9.2055 4.6469 10.1199
# 3 24.8767 38.5755 202.7901 -15.5078 1.9855 4.8977
# 4 -3.0586 9.2055 -15.5078 57.9944 4.6104 -10.9767
# 5 -1.3948 4.6469 1.9855 4.6104 25.7135 -2.8304
# 6 13.5590 10.1199 4.8977 -10.9767 -2.8304 23.6370
#
#
#
# Elastic Compliance Matrix: (Units=1/GPa)
#
#
# Indices 1 2 3 4 5 6 
#
# 1 0.014344 -0.000989 -0.001461 -0.001007 0.000378 -0.007924
# 2 -0.000989 0.010472 -0.001963 -0.003071 -0.001811 -0.005152
# 3 -0.001461 -0.001963 0.005609 0.002031 -0.000366 0.001416
# 4 -0.001007 -0.003071 0.002031 0.020415 -0.002140 0.010696
# 5 0.000378 -0.001811 -0.000366 -0.002140 0.040139 0.004447
# 6 -0.007924 -0.005152 0.001416 0.010696 0.004447 0.054264
#
#
# Mechanical properties :
#
#
# Convention : Reuss Voigt Hill
#
# Bulk Modulus (GPa) = 46.30156 62.11533 54.20844
# Shear Modulus (GPa) = 31.00428 42.48188 36.74308
#
# Velocity S-wave (km/s) = 3.49188 4.08743 3.80133
# Velocity P-wave (km/s) = 5.87085 6.83407 6.37069
#
# Compressibility (1/GPa) = 0.02159755
#
# Stress axis : x y z
#
# Youngs Moduli (GPa) = 69.71724 95.49374 178.29777
#
# Poissons Ratio (x) = 0.09447 0.26044
# Poissons Ratio (y) = 0.06897 0.35005
# Poissons Ratio (z) = 0.10184 0.18748
#
# Static dielectric constant tensor:
#      x y z
#    x 1.996020 -0.068380 -0.041200 
#    y -0.068380 2.102840 0.048130 
#    z -0.041200 0.048130 2.078510 
# 
# From -- ./inp_files/601948.got.cif
#   From: 2010.05.17/outbox.cif.g08.bks.cpg/sg2_301_cif.got.tgz:601948.got - 2010.06.03 11:33:40.
