data_PCOD9100309
_publ_section_title
;
Structure prediction by ZEFSAII (Michael W. Deem and Ramdas Pophale) SiO2 
 PCOD9100309
Probable space group: P -1
;
_chemical_formula_sum "Si O2"
_cell_formula_units_Z 16
_cell_length_a 14.703901
_cell_length_b 9.359959
_cell_length_c 13.468472
_cell_angle_alpha 84.268381
_cell_angle_beta 41.398091
_cell_angle_gamma 54.372205
_cell_volume 776.049222
_symmetry_space_group_name_H-M "P -1"
_symmetry_group_IT_number 2
_symmetry_cell_setting 'triclinic'
loop_
_space_group_symop_operation_xyz
x,y,z
-x,-y,-z
loop_
_atom_site_type_symbol
_atom_site_label
_atom_site_fract_x
_atom_site_fract_y
_atom_site_fract_z
Si Si1 0.642188 0.150549 0.144355
Si Si2 0.028825 0.580307 0.153985
Si Si3 0.523470 0.727875 0.258976
Si Si4 0.178493 0.532091 0.413295
Si Si5 0.002121 0.727235 0.749567
Si Si6 0.341808 0.138141 0.713055
Si Si7 0.542512 0.511266 0.575753
Si Si8 0.134838 0.229183 0.513226
O O1 0.426968 0.369112 0.244682
O O2 0.649985 0.254387 0.223305
O O3 0.609410 0.024069 0.235186
O O4 0.843827 0.963656 0.919399
O O5 0.063043 0.382997 0.161514
O O6 0.892512 0.697854 0.155868
O O7 0.899157 0.747113 0.342230
O O8 0.259395 0.470714 0.967024
O O9 0.614852 0.746515 0.276205
O O10 0.415001 0.669000 0.386844
O O11 0.345148 0.967637 0.334420
O O12 0.171260 0.365360 0.444616
O O13 0.022213 0.720559 0.614457
O O14 0.075619 0.651183 0.383544
O O15 0.249421 0.553642 0.591374
O O16 0.500000 0.000000 0.500000
O O17 0.500000 0.500000 0.500000
#
# Coordination Sequence:
#
# PCOD9100309 Si02
#       8
#     2   2   2   2   2   2   2   2
#     4  11  22  40  61  87 121 167 202 241 304 367
#     4  11  22  36  64  95 120 157 209 253 297 368
#     4  12  23  39  59  95 124 157 204 256 301 355
#     4   9  19  39  63  93 119 156 207 259 300 359
#     4  10  21  41  62  87 121 168 204 243 310 364
#     4  12  20  37  63  87 124 160 198 247 303 360
#     4  11  26  40  57  89 133 163 199 246 305 368
#     4  10  20  37  63  92 126 152 201 265 309 340
#
# _framework density 20.617248
#
# number of rings (size 3 to 8) (size 9 to 14) (size 15 to 20)
#    0.000    1.250    3.750    3.375    1.750    2.500 
#    0.000    6.250    0.000    4.500    0.000    0.000 
#    0.000    0.000    0.000    0.000    0.000    0.000 
#
# Total GULP energy -89320.188666 kJ/mol
# GULP energy per Si atom -5582.511792 kJ/mol
# Density = 2.057032 g / cm^3
# Si number density = 20.617248 Si / 1000 Ang^3
#
#
#
# Elastic Constant Matrix: (Units=GPa)
#
#
# Indices 1 2 3 4 5 6 
#
# 1 57.2998 9.4589 -1.2693 9.6962 9.1596 -15.4078
# 2 9.4589 27.6474 16.9073 5.2214 8.2113 -1.6418
# 3 -1.2693 16.9073 82.9959 21.9427 3.5566 -6.3122
# 4 9.6962 5.2214 21.9427 26.0343 5.6488 -2.7797
# 5 9.1596 8.2113 3.5566 5.6488 19.3402 12.8069
# 6 -15.4078 -1.6418 -6.3122 -2.7797 12.8069 27.7249
#
#
#
# Elastic Compliance Matrix: (Units=1/GPa)
#
#
# Indices 1 2 3 4 5 6 
#
# 1 0.037616 0.000034 0.007306 -0.005489 -0.046320 0.043416
# 2 0.000034 0.051693 -0.009595 0.006785 -0.033459 0.017032
# 3 0.007306 -0.009595 0.018857 -0.015011 -0.003787 0.008030
# 4 -0.005489 0.006785 -0.015011 0.057065 -0.020111 0.008945
# 5 -0.046320 -0.033459 -0.003787 -0.020111 0.165222 -0.106923
# 6 0.043416 0.017032 0.008030 0.008945 -0.106923 0.113321
#
#
# Mechanical properties :
#
#
# Convention : Reuss Voigt Hill
#
# Bulk Modulus (GPa) = 9.64713 24.23742 16.94227
# Shear Modulus (GPa) = 10.35553 24.14296 17.24925
#
# Velocity S-wave (km/s) = 2.24358 3.42571 2.89561
# Velocity P-wave (km/s) = 3.37651 5.23725 4.40622
#
# Compressibility (1/GPa) = 0.10365782
#
# Stress axis : x y z
#
# Youngs Moduli (GPa) = 26.58451 19.34500 53.03168
#
# Poissons Ratio (x) = -0.00067 -0.38746
# Poissons Ratio (y) = -0.00092 0.50881
# Poissons Ratio (z) = -0.19423 0.18561
#
# Static dielectric constant tensor:
#      x y z
#    x 1.769210 0.008680 0.002120 
#    y 0.008680 1.724500 0.013770 
#    z 0.002120 0.013770 1.760960 
# 
# From -- ./inp_files/207547.got.cif
#   From: 2010.05.17/outbox.cif.g08.bks.cpg/sg2_104_cif.got.tgz:207547.got - 2010.06.03 11:33:40.
