data_PCOD9100089
_publ_section_title
;
Structure prediction by ZEFSAII (Michael W. Deem and Ramdas Pophale) SiO2 
 PCOD9100089
Probable space group: P -1
;
_chemical_formula_sum "Si O2"
_cell_formula_units_Z 12
_cell_length_a 23.955280
_cell_length_b 10.680934
_cell_length_c 5.266329
_cell_angle_alpha 116.439011
_cell_angle_beta 113.836789
_cell_angle_gamma 25.756967
_cell_volume 524.288530
_symmetry_space_group_name_H-M "P -1"
_symmetry_group_IT_number 2
_symmetry_cell_setting 'triclinic'
loop_
_space_group_symop_operation_xyz
x,y,z
-x,-y,-z
loop_
_atom_site_type_symbol
_atom_site_label
_atom_site_fract_x
_atom_site_fract_y
_atom_site_fract_z
Si Si1 0.251287 0.678529 0.164539
Si Si2 0.820489 0.629757 0.781492
Si Si3 0.519865 0.617696 0.826821
Si Si4 0.428859 0.789827 0.324019
Si Si5 0.656585 0.671772 0.482595
Si Si6 0.021489 0.625525 0.655430
O O1 0.340377 0.634328 0.247719
O O2 0.293632 0.519244 0.358931
O O3 0.291819 0.498361 0.840535
O O4 0.107002 0.025476 0.215864
O O5 0.735034 0.660889 0.640886
O O6 0.922840 0.436155 0.568832
O O7 0.711543 0.962954 0.811370
O O8 0.882261 0.532441 0.079262
O O9 0.426436 0.867893 0.665036
O O10 0.496693 0.502064 0.735744
O O11 0.502215 0.714464 0.161328
O O12 0.500000 0.000000 0.500000
O O13 0.000000 0.500000 0.500000
#
# Coordination Sequence:
#
# PCOD9100089 Si02
#       6
#     2   2   2   2   2   2
#     4  12  25  44  68  99 141 182 231 279 337 410
#     4  12  25  45  69  98 140 182 231 280 338 409
#     4  10  20  37  62  93 128 169 222 287 346 394
#     4  10  21  37  63  94 127 170 223 286 348 395
#     4  12  27  46  73 104 139 183 230 285 345 409
#     4  12  28  47  72 102 138 185 233 285 342 406
#
# _framework density 22.888159999999999
#
# number of rings (size 3 to 8) (size 9 to 14) (size 15 to 20)
#    0.000    0.667    0.000    8.000    0.000    8.000 
#    0.000    0.000    0.000    0.000    0.000    0.000 
#    0.000    0.000    0.000    0.000    0.000    0.000 
#
# Total GULP energy -67002.709369 kJ/mol
# GULP energy per Si atom -5583.559114 kJ/mol
# Density = 2.283607 g / cm^3
# Si number density = 22.888160 Si / 1000 Ang^3
#
#
#
# Elastic Constant Matrix: (Units=GPa)
#
#
# Indices 1 2 3 4 5 6 
#
# 1 111.3546 24.7835 45.6723 2.4551 -1.5865 -8.9501
# 2 24.7835 137.3165 52.2184 -1.2233 -4.0698 -4.7121
# 3 45.6723 52.2184 150.6366 -19.7066 -18.3660 7.0336
# 4 2.4551 -1.2233 -19.7066 46.2169 2.6363 -5.4531
# 5 -1.5865 -4.0698 -18.3660 2.6363 54.0999 -2.4797
# 6 -8.9501 -4.7121 7.0336 -5.4531 -2.4797 31.4832
#
#
#
# Elastic Compliance Matrix: (Units=1/GPa)
#
#
# Indices 1 2 3 4 5 6 
#
# 1 0.010870 -0.000516 -0.003582 -0.001669 -0.000696 0.003469
# 2 -0.000516 0.008570 -0.003035 -0.000829 -0.000285 0.001648
# 3 -0.003582 -0.003035 0.009724 0.003777 0.002656 -0.002782
# 4 -0.001669 -0.000829 0.003777 0.023620 0.000142 0.002660
# 5 -0.000696 -0.000285 0.002656 0.000142 0.019370 0.000716
# 6 0.003469 0.001648 -0.002782 0.002660 0.000716 0.034134
#
#
# Mechanical properties :
#
#
# Convention : Reuss Voigt Hill
#
# Bulk Modulus (GPa) = 67.11742 71.62847 69.37294
# Shear Modulus (GPa) = 39.83391 44.80221 42.31806
#
# Velocity S-wave (km/s) = 4.17630 4.42910 4.30456
# Velocity P-wave (km/s) = 7.25555 7.58411 7.42165
#
# Compressibility (1/GPa) = 0.01489926
#
# Stress axis : x y z
#
# Youngs Moduli (GPa) = 91.99538 116.68224 102.83533
#
# Poissons Ratio (x) = 0.06023 0.36836
# Poissons Ratio (y) = 0.04748 0.31205
# Poissons Ratio (z) = 0.32953 0.35407
#
# Static dielectric constant tensor:
#      x y z
#    x 1.876880 0.031310 0.025080 
#    y 0.031310 1.872060 0.024470 
#    z 0.025080 0.024470 2.029550 
# 
# From -- ./inp_files/126564.got.cif
#   From: 2010.05.17/outbox.cif.g08.bks.cpg/sg2_64_cif.got.tgz:126564.got - 2010.06.03 11:33:40.
