data_PCOD9100236
_publ_section_title
;
Structure prediction by ZEFSAII (Michael W. Deem and Ramdas Pophale) SiO2 
 PCOD9100236
Probable space group: P -1
;
_chemical_formula_sum "Si O2"
_cell_formula_units_Z 16
_cell_length_a 14.606902
_cell_length_b 21.731950
_cell_length_c 8.519776
_cell_angle_alpha 86.396760
_cell_angle_beta 94.751473
_cell_angle_gamma 18.107025
_cell_volume 745.011426
_symmetry_space_group_name_H-M "P -1"
_symmetry_group_IT_number 2
_symmetry_cell_setting 'triclinic'
loop_
_space_group_symop_operation_xyz
x,y,z
-x,-y,-z
loop_
_atom_site_type_symbol
_atom_site_label
_atom_site_fract_x
_atom_site_fract_y
_atom_site_fract_z
Si Si1 0.249811 0.782558 0.908683
Si Si2 0.084725 0.516690 0.527550
Si Si3 0.056696 0.121167 0.952672
Si Si4 0.879579 0.711133 0.021906
Si Si5 0.429439 0.978759 0.199894
Si Si6 0.342086 0.513763 0.282512
Si Si7 0.707820 0.186227 0.563034
Si Si8 0.644928 0.651022 0.057787
O O1 0.397369 0.652447 0.798174
O O2 0.484533 0.687254 0.002244
O O3 0.908406 0.036271 0.768605
O O4 0.189062 0.772536 0.035688
O O5 0.397220 0.338416 0.494271
O O6 0.192853 0.454354 0.731926
O O7 0.000000 0.500000 0.500000
O O8 0.739942 0.772003 0.391479
O O9 0.872066 0.286349 0.781371
O O10 0.176463 0.084889 0.127514
O O11 0.370751 0.880912 0.971228
O O12 0.082449 0.523814 0.011874
O O13 0.750487 0.839484 0.844911
O O14 0.585251 0.878511 0.062512
O O15 0.099591 0.614699 0.176507
O O16 0.530090 0.367127 0.486208
O O17 0.000000 0.000000 0.500000
#
# Coordination Sequence:
#
# PCOD9100236 Si02
#       8
#     2   2   2   2   2   2   2   2
#     4  10  20  38  59  86 119 164 205 245 305 365
#     4  12  22  39  62  94 120 162 209 257 306 368
#     4  11  20  35  58  92 119 157 201 254 302 363
#     4   9  20  38  59  88 115 161 199 246 309 367
#     4  10  20  38  63  83 120 155 204 246 302 370
#     4   9  19  35  61  87 117 161 207 248 296 368
#     4  10  20  37  63  89 122 164 209 248 302 366
#     4  11  23  37  61  87 124 156 204 257 310 361
#
# _framework density 21.476179999999999
#
# number of rings (size 3 to 8) (size 9 to 14) (size 15 to 20)
#    0.000    1.750    3.750    0.750    0.000    1.000 
#    0.000    0.625    0.000    0.000    0.000    0.000 
#    0.000    0.000    0.000    0.000    0.000    0.000 
#
# Total GULP energy -89223.887277 kJ/mol
# GULP energy per Si atom -5576.492955 kJ/mol
# Density = 2.142730 g / cm^3
# Si number density = 21.476180 Si / 1000 Ang^3
#
#
#
# Elastic Constant Matrix: (Units=GPa)
#
#
# Indices 1 2 3 4 5 6 
#
# 1 85.5144 22.9408 23.7366 -6.8822 -7.2241 8.5676
# 2 22.9408 80.3593 16.5750 -16.5273 -12.8496 18.3948
# 3 23.7366 16.5750 63.4115 -33.1721 -12.5228 15.7015
# 4 -6.8822 -16.5273 -33.1721 34.3279 4.9663 -5.7454
# 5 -7.2241 -12.8496 -12.5228 4.9663 26.0519 -11.9406
# 6 8.5676 18.3948 15.7015 -5.7454 -11.9406 31.7945
#
#
#
# Elastic Compliance Matrix: (Units=1/GPa)
#
#
# Indices 1 2 3 4 5 6 
#
# 1 0.014394 -0.004128 -0.008208 -0.006802 -0.000099 0.001296
# 2 -0.004128 0.017237 0.005572 0.010892 0.004275 -0.008038
# 3 -0.008208 0.005572 0.042036 0.038533 0.007907 -0.011839
# 4 -0.006802 0.010892 0.038533 0.067983 0.004722 -0.009440
# 5 -0.000099 0.004275 0.007907 0.004722 0.049339 0.013032
# 6 0.001296 -0.008038 -0.011839 -0.009440 0.013032 0.044788
#
#
# Mechanical properties :
#
#
# Convention : Reuss Voigt Hill
#
# Bulk Modulus (GPa) = 16.62794 39.53222 28.08008
# Shear Modulus (GPa) = 18.56314 29.50372 24.03343
#
# Velocity S-wave (km/s) = 2.94319 3.71049 3.34889
# Velocity P-wave (km/s) = 4.39421 6.06666 5.29686
#
# Compressibility (1/GPa) = 0.06013973
#
# Stress axis : x y z
#
# Youngs Moduli (GPa) = 69.47408 58.01534 23.78905
#
# Poissons Ratio (x) = 0.23947 0.19525
# Poissons Ratio (y) = 0.28677 -0.13255
# Poissons Ratio (z) = 0.57022 -0.32325
#
# Static dielectric constant tensor:
#      x y z
#    x 1.825870 -0.033840 -0.023600 
#    y -0.033840 1.834360 -0.030430 
#    z -0.023600 -0.030430 1.808560 
# 
# From -- ./inp_files/216568.got.cif
#   From: 2010.05.17/outbox.cif.g08.bks.cpg/sg2_109_cif.got.tgz:216568.got - 2010.06.03 11:33:40.
