data_PCOD9100441
_publ_section_title
;
Structure prediction by ZEFSAII (Michael W. Deem and Ramdas Pophale) SiO2 
 PCOD9100441
Probable space group: P -1
;
_chemical_formula_sum "Si O2"
_cell_formula_units_Z 16
_cell_length_a 13.849625
_cell_length_b 27.864511
_cell_length_c 12.083212
_cell_angle_alpha 32.867367
_cell_angle_beta 31.849438
_cell_angle_gamma 19.558210
_cell_volume 802.878356
_symmetry_space_group_name_H-M "P -1"
_symmetry_group_IT_number 2
_symmetry_cell_setting 'triclinic'
loop_
_space_group_symop_operation_xyz
x,y,z
-x,-y,-z
loop_
_atom_site_type_symbol
_atom_site_label
_atom_site_fract_x
_atom_site_fract_y
_atom_site_fract_z
Si Si1 0.191335 0.746121 0.812083
Si Si2 0.936997 0.928777 0.928995
Si Si3 0.733484 0.880019 0.408580
Si Si4 0.840383 0.157449 0.819330
Si Si5 0.903644 0.419742 0.766005
Si Si6 0.436383 0.259790 0.185057
Si Si7 0.266922 0.801063 0.403089
Si Si8 0.936510 0.506191 0.355342
O O1 0.047723 0.847808 0.861329
O O2 0.556834 0.591835 0.770953
O O3 0.127069 0.820516 0.615782
O O4 0.078531 0.690060 0.021210
O O5 0.247093 0.842330 0.858300
O O6 0.727662 0.095238 0.795439
O O7 0.750095 0.929786 0.182118
O O8 0.667699 0.802696 0.598102
O O9 0.044356 0.798405 0.317828
O O10 0.500000 0.000000 0.500000
O O11 0.890276 0.154692 0.647018
O O12 0.504388 0.267398 0.979885
O O13 0.000000 0.000000 0.000000
O O14 0.023720 0.396858 0.571256
O O15 0.065164 0.407584 0.731568
O O16 0.177648 0.413224 0.203634
O O17 0.595401 0.628274 0.408916
#
# Coordination Sequence:
#
# PCOD9100441 Si02
#       8
#     2   2   2   2   2   2   2   2
#     4  10  20  37  64  88 121 160 202 244 303 364
#     4  11  21  39  62  93 124 155 205 249 305 358
#     4  11  20  37  66  90 114 164 207 243 297 367
#     4  11  21  42  61  87 124 163 199 247 309 354
#     4   9  19  39  60  87 121 166 194 238 309 371
#     4  11  21  39  67  88 114 167 207 245 294 373
#     4  11  22  40  58  88 129 156 194 259 305 345
#     4  10  21  38  62  87 123 157 202 248 301 359
#
# _framework density 19.928298999999999
#
# number of rings (size 3 to 8) (size 9 to 14) (size 15 to 20)
#    0.000    1.500    5.000    1.125    0.000    0.500 
#    6.750    1.250    0.000    0.000    0.000    0.000 
#    0.000    0.000    0.000    0.000    0.000    0.000 
#
# Total GULP energy -89123.086754 kJ/mol
# GULP energy per Si atom -5570.192922 kJ/mol
# Density = 1.988294 g / cm^3
# Si number density = 19.928299 Si / 1000 Ang^3
#
#
#
# Elastic Constant Matrix: (Units=GPa)
#
#
# Indices 1 2 3 4 5 6 
#
# 1 53.6453 2.2983 71.4854 -1.5043 22.9441 -4.4186
# 2 2.2983 36.6332 10.5448 13.7012 14.0136 13.3742
# 3 71.4854 10.5448 106.4057 9.5434 -5.5981 18.5584
# 4 -1.5043 13.7012 9.5434 24.1787 5.5540 9.7494
# 5 22.9441 14.0136 -5.5981 5.5540 37.7522 17.6429
# 6 -4.4186 13.3742 18.5584 9.7494 17.6429 15.0521
#
#
#
# Elastic Compliance Matrix: (Units=1/GPa)
#
#
# Indices 1 2 3 4 5 6 
#
# 1 -0.001701 0.002130 0.007559 0.006255 0.017271 -0.036008
# 2 0.002130 0.041913 -0.001856 -0.014692 -0.007455 -0.016073
# 3 0.007559 -0.001856 0.000180 -0.004606 -0.013929 0.022957
# 4 0.006255 -0.014692 -0.004606 0.059449 0.001338 -0.019505
# 5 0.017271 -0.007455 -0.013929 0.001338 0.007542 0.019161
# 6 -0.036008 -0.016073 0.022957 -0.019505 0.019161 0.032017
#
#
# Mechanical properties :
#
#
# Convention : Reuss Voigt Hill
#
# Bulk Modulus (GPa) = 17.83833 40.59346 29.21590
# Shear Modulus (GPa) = 35.10767 22.88699 28.99733
#
# Velocity S-wave (km/s) = 4.20181 3.39258 3.81869
# Velocity P-wave (km/s) = 5.70184 5.97998 5.84256
#
# Compressibility (1/GPa) = 0.05605905
#
# Stress axis : x y z
#
# Youngs Moduli (GPa) = -587.98987 23.85898 5560.79099
#
# Poissons Ratio (x) = -0.05082 -42.03529
# Poissons Ratio (y) = 1.25255 10.32059
# Poissons Ratio (z) = 4.44475 0.04428
#
# Static dielectric constant tensor:
#      x y z
#    x 1.736790 -0.033040 0.012130 
#    y -0.033040 1.703520 0.026690 
#    z 0.012130 0.026690 1.726300 
# 
# From -- ./inp_files/458364.got.cif
#   From: 2010.05.17/outbox.cif.g08.bks.cpg/sg2_230_cif.got.tgz:458364.got - 2010.06.03 11:33:40.
