data_PCOD9100308
_publ_section_title
;
Structure prediction by ZEFSAII (Michael W. Deem and Ramdas Pophale) SiO2 
 PCOD9100308
Probable space group: P -1
;
_chemical_formula_sum "Si O2"
_cell_formula_units_Z 15
_cell_length_a 8.043681
_cell_length_b 14.270174
_cell_length_c 11.721255
_cell_angle_alpha 50.516536
_cell_angle_beta 123.389089
_cell_angle_gamma 85.247400
_cell_volume 642.407321
_symmetry_space_group_name_H-M "P -1"
_symmetry_group_IT_number 2
_symmetry_cell_setting 'triclinic'
loop_
_space_group_symop_operation_xyz
x,y,z
-x,-y,-z
loop_
_atom_site_type_symbol
_atom_site_label
_atom_site_fract_x
_atom_site_fract_y
_atom_site_fract_z
Si Si1 0.943849 0.343893 0.026020
Si Si2 0.478716 0.619310 0.019930
Si Si3 0.500000 0.000000 0.500000
Si Si4 0.611339 0.991263 0.813760
Si Si5 0.662688 0.092131 0.100542
Si Si6 0.431612 0.318846 0.452093
Si Si7 0.209339 0.777389 0.141535
Si Si8 0.759147 0.267211 0.397868
O O1 0.767571 0.368002 0.046026
O O2 0.853353 0.513368 0.823357
O O3 0.842689 0.299176 0.918117
O O4 0.249521 0.192340 0.281872
O O5 0.438376 0.755332 0.975590
O O6 0.428016 0.676941 0.826284
O O7 0.733231 0.424551 0.285233
O O8 0.451603 0.040157 0.310120
O O9 0.429302 0.184484 0.599971
O O10 0.552036 0.924396 0.945261
O O11 0.920573 0.905593 0.993289
O O12 0.707327 0.135010 0.962150
O O13 0.952196 0.912355 0.379049
O O14 0.567712 0.340123 0.588927
O O15 0.631359 0.252621 0.470518
#
# Coordination Sequence:
#
# PCOD9100308 Si02
#       8
#     2   2   1   2   2   2   2   2
#     4   9  20  40  68  91 126 172 207 271 325 383
#     4   9  20  37  62  93 125 169 224 254 331 390
#     4  10  22  40  58  96 132 154 216 256 326 390
#     4  11  24  38  63  98 125 172 211 265 327 379
#     4  11  22  39  65  90 129 174 210 272 321 379
#     4  11  22  40  65  94 128 170 218 264 319 383
#     4  10  22  44  64  91 128 174 218 258 321 384
#     4  10  20  37  63  92 125 172 214 270 316 387
#
# _framework density 23.349672000000002
#
# number of rings (size 3 to 8) (size 9 to 14) (size 15 to 20)
#    0.000    1.867    1.333    2.000    1.867    1.067 
#    4.800    0.000    0.000    5.600    0.000    0.000 
#    0.000    0.000    0.000    0.000    0.000    0.000 
#
# Total GULP energy -83540.120157 kJ/mol
# GULP energy per Si atom -5569.341344 kJ/mol
# Density = 2.329653 g / cm^3
# Si number density = 23.349672 Si / 1000 Ang^3
#
#
#
# Elastic Constant Matrix: (Units=GPa)
#
#
# Indices 1 2 3 4 5 6 
#
# 1 110.4998 33.9551 39.7708 -4.5380 -23.4046 -2.2545
# 2 33.9551 82.8779 23.5051 -13.5284 -2.8647 -4.6104
# 3 39.7708 23.5051 131.9071 -20.2958 -4.3976 2.0951
# 4 -4.5380 -13.5284 -20.2958 40.1842 -3.0940 -6.8536
# 5 -23.4046 -2.8647 -4.3976 -3.0940 23.1769 -5.1451
# 6 -2.2545 -4.6104 2.0951 -6.8536 -5.1451 16.5228
#
#
#
# Elastic Compliance Matrix: (Units=1/GPa)
#
#
# Indices 1 2 3 4 5 6 
#
# 1 0.014947 -0.004154 -0.003200 0.000987 0.015557 0.006540
# 2 -0.004154 0.015130 -0.000754 0.005186 -0.000499 0.005746
# 3 -0.003200 -0.000754 0.009244 0.003863 -0.001185 -0.000586
# 4 0.000987 0.005186 0.003863 0.032577 0.010701 0.017937
# 5 0.015557 -0.000499 -0.001185 0.010701 0.066021 0.027131
# 6 0.006540 0.005746 -0.000586 0.017937 0.027131 0.078981
#
#
# Mechanical properties :
#
#
# Convention : Reuss Voigt Hill
#
# Bulk Modulus (GPa) = 43.27727 57.74963 50.51345
# Shear Modulus (GPa) = 20.76269 31.18034 25.97151
#
# Velocity S-wave (km/s) = 2.98519 3.65823 3.33871
# Velocity P-wave (km/s) = 5.51874 6.52915 6.04509
#
# Compressibility (1/GPa) = 0.02310682
#
# Stress axis : x y z
#
# Youngs Moduli (GPa) = 66.90416 66.09245 108.17434
#
# Poissons Ratio (x) = 0.27452 0.34614
# Poissons Ratio (y) = 0.27790 0.08155
# Poissons Ratio (z) = 0.21408 0.04982
#
# Static dielectric constant tensor:
#      x y z
#    x 1.871640 0.031430 0.007600 
#    y 0.031430 1.966040 -0.029110 
#    z 0.007600 -0.029110 1.835990 
# 
# From -- ./inp_files/397122.got.cif
#   From: 2010.05.17/outbox.cif.g08.bks.cpg/sg2_199_cif.got.tgz:397122.got - 2010.06.03 11:33:40.
