data_PCOD9100056
_publ_section_title
;
Structure prediction by ZEFSAII (Michael W. Deem and Ramdas Pophale) SiO2 
 PCOD9100056
Probable space group: P -1
;
_chemical_formula_sum "Si O2"
_cell_formula_units_Z 14
_cell_length_a 13.676628
_cell_length_b 21.723301
_cell_length_c 8.759189
_cell_angle_alpha 42.242881
_cell_angle_beta 42.999657
_cell_angle_gamma 22.045724
_cell_volume 646.057875
_symmetry_space_group_name_H-M "P -1"
_symmetry_group_IT_number 2
_symmetry_cell_setting 'triclinic'
loop_
_space_group_symop_operation_xyz
x,y,z
-x,-y,-z
loop_
_atom_site_type_symbol
_atom_site_label
_atom_site_fract_x
_atom_site_fract_y
_atom_site_fract_z
Si Si1 0.824157 0.185669 0.358185
Si Si2 0.932462 0.272879 0.814567
Si Si3 0.491106 0.562483 0.241257
Si Si4 0.689808 0.058536 0.173617
Si Si5 0.246249 0.432952 0.466153
Si Si6 0.925875 0.110729 0.708872
Si Si7 0.793258 0.575097 0.827770
O O1 0.534743 0.305840 0.425388
O O2 0.851297 0.202298 0.472012
O O3 0.907469 0.221498 0.084620
O O4 0.000000 0.000000 0.500000
O O5 0.654897 0.408687 0.785901
O O6 0.930850 0.379382 0.669944
O O7 0.190866 0.101095 0.736330
O O8 0.500000 0.500000 0.500000
O O9 0.267098 0.757657 0.175973
O O10 0.741564 0.494739 0.062763
O O11 0.390675 0.258817 0.162956
O O12 0.853686 0.042770 0.909011
O O13 0.794605 0.013721 0.310529
O O14 0.269215 0.383079 0.359356
O O15 0.097997 0.441962 0.730371
#
# Coordination Sequence:
#
# PCOD9100056 Si02
#       7
#     2   2   2   2   2   2   2
#     4  12  21  36  64  96 124 164 213 265 304 370
#     4  11  22  38  65  97 122 153 229 263 296 358
#     4  10  20  37  62  92 120 165 206 261 305 369
#     4   9  18  39  59  89 118 170 199 255 311 372
#     4  11  24  39  62  96 125 168 203 264 319 361
#     4   9  18  31  58  87 121 152 210 245 312 356
#     4  10  22  41  62  85 136 167 202 247 330 384
#
# _framework density 21.669884
#
# number of rings (size 3 to 8) (size 9 to 14) (size 15 to 20)
#    0.000    1.714    2.857    3.000    2.000    0.571 
#    0.000    6.429    6.286    2.571    0.000    0.000 
#    0.000    0.000    0.000    0.000    0.000    0.000 
#
# Total GULP energy -77948.340912 kJ/mol
# GULP energy per Si atom -5567.738637 kJ/mol
# Density = 2.162056 g / cm^3
# Si number density = 21.669884 Si / 1000 Ang^3
#
#
#
# Elastic Constant Matrix: (Units=GPa)
#
#
# Indices 1 2 3 4 5 6 
#
# 1 47.2728 17.1714 17.9376 3.5601 5.3058 21.9619
# 2 17.1714 70.2330 13.8949 6.3809 -8.6425 27.5480
# 3 17.9376 13.8949 108.2774 7.5978 6.2276 -6.5292
# 4 3.5601 6.3809 7.5978 24.2395 -2.8608 0.9132
# 5 5.3058 -8.6425 6.2276 -2.8608 37.2064 -6.1698
# 6 21.9619 27.5480 -6.5292 0.9132 -6.1698 30.2252
#
#
#
# Elastic Compliance Matrix: (Units=1/GPa)
#
#
# Indices 1 2 3 4 5 6 
#
# 1 0.043158 0.006853 -0.009617 -0.004767 -0.010222 -0.041625
# 2 0.006853 0.025840 -0.005942 -0.004745 0.000760 -0.029516
# 3 -0.009617 -0.005942 0.012599 -0.001512 0.000292 0.015230
# 4 -0.004767 -0.004745 -0.001512 0.043929 0.004374 0.007027
# 5 -0.010222 0.000760 0.000292 0.004374 0.030952 0.012983
# 6 -0.041625 -0.029516 0.015230 0.007027 0.012983 0.095960
#
#
# Mechanical properties :
#
#
# Convention : Reuss Voigt Hill
#
# Bulk Modulus (GPa) = 15.57977 35.97678 25.77828
# Shear Modulus (GPa) = 17.16768 30.11951 23.64360
#
# Velocity S-wave (km/s) = 2.81772 3.73221 3.30673
# Velocity P-wave (km/s) = 4.21797 5.93387 5.14792
#
# Compressibility (1/GPa) = 0.06418579
#
# Stress axis : x y z
#
# Youngs Moduli (GPa) = 23.17069 38.69920 79.37226
#
# Poissons Ratio (x) = -0.26520 0.76330
# Poissons Ratio (y) = -0.15879 0.47162
# Poissons Ratio (z) = 0.22283 0.22995
#
# Static dielectric constant tensor:
#      x y z
#    x 1.978400 0.143660 -0.037090 
#    y 0.143660 1.953240 0.003350 
#    z -0.037090 0.003350 1.792070 
# 
# From -- ./inp_files/225595.got.cif
#   From: 2010.05.17/outbox.cif.g08.bks.cpg/sg2_113_cif.got.tgz:225595.got - 2010.06.03 11:33:40.
