data_PCOD9100406
_publ_section_title
;
Structure prediction by ZEFSAII (Michael W. Deem and Ramdas Pophale) SiO2 
 PCOD9100406
Probable space group: P -1
;
_chemical_formula_sum "Si O2"
_cell_formula_units_Z 16
_cell_length_a 9.765915
_cell_length_b 10.345126
_cell_length_c 8.549331
_cell_angle_alpha 72.101122
_cell_angle_beta 71.994732
_cell_angle_gamma 52.081305
_cell_volume 640.037859
_symmetry_space_group_name_H-M "P -1"
_symmetry_group_IT_number 2
_symmetry_cell_setting 'triclinic'
loop_
_space_group_symop_operation_xyz
x,y,z
-x,-y,-z
loop_
_atom_site_type_symbol
_atom_site_label
_atom_site_fract_x
_atom_site_fract_y
_atom_site_fract_z
Si Si1 0.010585 0.576010 0.655843
Si Si2 0.123031 0.100200 0.605505
Si Si3 0.558274 0.018527 0.237636
Si Si4 0.591423 0.203699 0.564407
Si Si5 0.862992 0.447353 0.060442
Si Si6 0.882336 0.191500 0.923906
Si Si7 0.542024 0.256091 0.916847
Si Si8 0.698318 0.645343 0.607553
O O1 0.111561 0.599301 0.748576
O O2 0.163681 0.423704 0.558449
O O3 0.906000 0.755128 0.546160
O O4 0.851570 0.548309 0.726545
O O5 0.939684 0.181590 0.728194
O O6 0.255360 0.064697 0.713362
O O7 0.221936 0.929678 0.535124
O O8 0.425149 0.177490 0.331947
O O9 0.496793 0.897361 0.325925
O O10 0.562143 0.091167 0.040735
O O11 0.597045 0.254565 0.719178
O O12 0.460957 0.347379 0.431729
O O13 0.661159 0.596100 0.051509
O O14 0.921723 0.290624 0.992478
O O15 0.000000 0.500000 0.000000
O O16 0.675545 0.269659 0.971872
O O17 0.000000 0.000000 0.000000
#
# Coordination Sequence:
#
# PCOD9100406 Si02
#       8
#     2   2   2   2   2   2   2   2
#     4  11  22  41  68 110 146 184 252 318 373 428
#     4  11  24  43  75 104 147 201 250 315 370 449
#     4  11  21  40  70 108 148 196 247 314 375 441
#     4  11  22  42  70 114 148 190 263 306 381 438
#     4  12  30  49  80 115 148 204 261 311 373 453
#     4  12  30  54  74 109 161 205 250 309 392 455
#     4  12  27  48  72 106 158 201 244 311 385 461
#     4  10  20  37  64 103 151 181 237 319 374 428
#
# _framework density 24.998519000000002
#
# number of rings (size 3 to 8) (size 9 to 14) (size 15 to 20)
#    0.000    0.750    5.000    2.250    8.750    0.500 
#    0.000    0.625    0.000    0.000    0.000    0.000 
#    0.000    0.000    0.000    0.000    0.000    0.000 
#
# Total GULP energy -89161.293583 kJ/mol
# GULP energy per Si atom -5572.580849 kJ/mol
# Density = 2.494162 g / cm^3
# Si number density = 24.998519 Si / 1000 Ang^3
#
#
#
# Elastic Constant Matrix: (Units=GPa)
#
#
# Indices 1 2 3 4 5 6 
#
# 1 117.0153 62.6170 42.5694 15.3500 16.1943 -21.8839
# 2 62.6170 114.7696 24.6215 11.2026 23.1013 -25.9568
# 3 42.5694 24.6215 59.5989 14.8269 12.7653 -5.9253
# 4 15.3500 11.2026 14.8269 42.1982 -3.5420 3.7284
# 5 16.1943 23.1013 12.7653 -3.5420 22.7299 2.1371
# 6 -21.8839 -25.9568 -5.9253 3.7284 2.1371 42.9798
#
#
#
# Elastic Compliance Matrix: (Units=1/GPa)
#
#
# Indices 1 2 3 4 5 6 
#
# 1 0.015374 -0.005283 -0.007440 -0.002096 -0.002099 0.003898
# 2 -0.005283 0.017108 0.002712 -0.005822 -0.016934 0.009363
# 3 -0.007440 0.002712 0.026419 -0.008725 -0.013929 0.002941
# 4 -0.002096 -0.005822 -0.008725 0.031422 0.018092 -0.009411
# 5 -0.002099 -0.016934 -0.013929 0.018092 0.075084 -0.018519
# 6 0.003898 0.009363 0.002941 -0.009411 -0.018519 0.033049
#
#
# Mechanical properties :
#
#
# Convention : Reuss Voigt Hill
#
# Bulk Modulus (GPa) = 25.72071 61.22217 43.47144
# Shear Modulus (GPa) = 21.60407 32.35330 26.97868
#
# Velocity S-wave (km/s) = 2.94294 3.60141 3.28870
# Velocity P-wave (km/s) = 4.67537 6.46816 5.64341
#
# Compressibility (1/GPa) = 0.03887918
#
# Stress axis : x y z
#
# Youngs Moduli (GPa) = 65.04470 58.45158 37.85143
#
# Poissons Ratio (x) = 0.30881 0.28161
# Poissons Ratio (y) = 0.34364 -0.10266
# Poissons Ratio (z) = 0.48393 -0.15853
#
# Static dielectric constant tensor:
#      x y z
#    x 2.098620 0.042630 -0.227220 
#    y 0.042630 1.918070 -0.066170 
#    z -0.227220 -0.066170 2.225820 
# 
# From -- ./inp_files/186624.got.cif
#   From: 2010.05.17/outbox.cif.g08.bks.cpg/sg2_94_cif.got.tgz:186624.got - 2010.06.03 11:33:40.
