data_PCOD9100193
_publ_section_title
;
Structure prediction by ZEFSAII (Michael W. Deem and Ramdas Pophale) SiO2 
 PCOD9100193
Probable space group: P -1
;
_chemical_formula_sum "Si O2"
_cell_formula_units_Z 13
_cell_length_a 13.545281
_cell_length_b 11.251289
_cell_length_c 6.780707
_cell_angle_alpha 73.349667
_cell_angle_beta 88.235925
_cell_angle_gamma 145.700039
_cell_volume 484.638469
_symmetry_space_group_name_H-M "P -1"
_symmetry_group_IT_number 2
_symmetry_cell_setting 'triclinic'
loop_
_space_group_symop_operation_xyz
x,y,z
-x,-y,-z
loop_
_atom_site_type_symbol
_atom_site_label
_atom_site_fract_x
_atom_site_fract_y
_atom_site_fract_z
Si Si1 0.796631 0.490090 0.903003
Si Si2 0.787153 0.867836 0.744160
Si Si3 0.780946 0.245134 0.734437
Si Si4 0.239781 0.353383 0.482820
Si Si5 0.500000 0.000000 0.500000
Si Si6 0.594964 0.432103 0.212894
Si Si7 0.173767 0.798756 0.861969
O O1 0.744545 0.314817 0.861403
O O2 0.706071 0.497479 0.769614
O O3 0.038125 0.758473 0.792465
O O4 0.700407 0.414843 0.159089
O O5 0.783548 0.800951 0.557569
O O6 0.624728 0.797900 0.760631
O O7 0.712002 0.679061 0.991553
O O8 0.014249 0.148104 0.656515
O O9 0.000000 0.500000 0.500000
O O10 0.624881 0.096928 0.643907
O O11 0.783208 0.133161 0.941837
O O12 0.386194 0.524084 0.576538
O O13 0.362490 0.954220 0.659061
O O14 0.000000 0.500000 0.000000
#
# Coordination Sequence:
#
# PCOD9100193 Si02
#       7
#     2   2   2   2   1   2   2
#     4  10  23  40  58  95 124 156 208 264 307 361
#     4   9  20  39  59  90 116 163 204 234 316 375
#     4  11  23  44  66  89 129 170 215 265 314 383
#     4  10  20  38  62  87 126 155 200 255 300 373
#     4  12  22  42  74  86 114 184 208 258 332 374
#     4  10  20  37  63  86 123 160 198 254 305 368
#     4  10  22  43  64  90 126 163 212 262 313 377
#
# _framework density 26.824117999999999
#
# number of rings (size 3 to 8) (size 9 to 14) (size 15 to 20)
#    0.000    1.846    3.077    1.385    2.154    0.000 
#   11.077    0.000    0.000    0.000    0.000    0.000 
#    0.000    0.000    0.000    0.000    0.000    0.000 
#
# Total GULP energy -72500.227329 kJ/mol
# GULP energy per Si atom -5576.940564 kJ/mol
# Density = 2.676307 g / cm^3
# Si number density = 26.824118 Si / 1000 Ang^3
#
#
#
# Elastic Constant Matrix: (Units=GPa)
#
#
# Indices 1 2 3 4 5 6 
#
# 1 78.9153 36.4911 28.4588 15.8460 -18.4648 22.3595
# 2 36.4911 126.0893 53.8896 31.6739 9.3188 39.3449
# 3 28.4588 53.8896 159.2571 35.8310 -9.8440 25.1513
# 4 15.8460 31.6739 35.8310 67.6432 19.3995 2.7886
# 5 -18.4648 9.3188 -9.8440 19.3995 32.5460 -3.6479
# 6 22.3595 39.3449 25.1513 2.7886 -3.6479 44.5973
#
#
#
# Elastic Compliance Matrix: (Units=1/GPa)
#
#
# Indices 1 2 3 4 5 6 
#
# 1 0.022151 -0.004322 0.001769 -0.009366 0.019235 -0.006131
# 2 -0.004322 0.014211 -0.002604 -0.001782 -0.007299 -0.009387
# 3 0.001769 -0.002604 0.009158 -0.006203 0.007912 -0.002719
# 4 -0.009366 -0.001782 -0.006203 0.027206 -0.022196 0.006250
# 5 0.019235 -0.007299 0.007912 -0.022196 0.059191 -0.001437
# 6 -0.006131 -0.009387 -0.002719 0.006250 -0.001437 0.034804
#
#
# Mechanical properties :
#
#
# Convention : Reuss Voigt Hill
#
# Bulk Modulus (GPa) = 28.40483 66.88232 47.64358
# Shear Modulus (GPa) = 26.48707 45.31878 35.90292
#
# Velocity S-wave (km/s) = 3.14576 4.11479 3.66246
# Velocity P-wave (km/s) = 4.87921 6.89660 5.97368
#
# Compressibility (1/GPa) = 0.03520528
#
# Stress axis : x y z
#
# Youngs Moduli (GPa) = 45.14425 70.36751 109.18907
#
# Poissons Ratio (x) = 0.30416 -0.19312
# Poissons Ratio (y) = 0.19513 0.28433
# Poissons Ratio (z) = -0.07985 0.18324
#
# Static dielectric constant tensor:
#      x y z
#    x 2.382150 0.046140 0.088140 
#    y 0.046140 2.051330 -0.032220 
#    z 0.088140 -0.032220 1.814740 
# 
# From -- ./inp_files/97951.got.cif
#   From: 2010.05.17/outbox.cif.g08.bks.cpg/sg2_49_cif.got.tgz:97951.got - 2010.06.03 11:33:40.
