data_PCOD9100621
_publ_section_title
;
Structure prediction by ZEFSAII (Michael W. Deem and Ramdas Pophale) SiO2 
 PCOD9100621
Probable space group: P -1
;
_chemical_formula_sum "Si O2"
_cell_formula_units_Z 16
_cell_length_a 9.467528
_cell_length_b 10.948736
_cell_length_c 12.100891
_cell_angle_alpha 116.499854
_cell_angle_beta 142.623589
_cell_angle_gamma 62.923494
_cell_volume 669.662529
_symmetry_space_group_name_H-M "P -1"
_symmetry_group_IT_number 2
_symmetry_cell_setting 'triclinic'
loop_
_space_group_symop_operation_xyz
x,y,z
-x,-y,-z
loop_
_atom_site_type_symbol
_atom_site_label
_atom_site_fract_x
_atom_site_fract_y
_atom_site_fract_z
Si Si1 0.800039 0.917343 0.792831
Si Si2 0.347976 0.088689 0.071670
Si Si3 0.076097 0.655918 0.770006
Si Si4 0.464487 0.314871 0.070873
Si Si5 0.805005 0.114549 0.701147
Si Si6 0.352496 0.618846 0.159941
Si Si7 0.811492 0.646937 0.316445
Si Si8 0.788481 0.950499 0.410561
O O1 0.877729 0.791850 0.706208
O O2 0.680321 0.045708 0.695536
O O3 0.717482 0.847588 0.822278
O O4 0.000000 0.000000 0.000000
O O5 0.742601 0.276504 0.758332
O O6 0.093185 0.063979 0.859760
O O7 0.448580 0.186075 0.087514
O O8 0.282063 0.684395 0.827408
O O9 0.022250 0.504929 0.644093
O O10 0.181256 0.646441 0.956815
O O11 0.387226 0.457780 0.148350
O O12 0.290820 0.333413 0.864257
O O13 0.723757 0.058194 0.514027
O O14 0.443417 0.036369 0.808382
O O15 0.600148 0.639160 0.267470
O O16 0.885062 0.793106 0.444183
O O17 0.000000 0.000000 0.500000
#
# Coordination Sequence:
#
# PCOD9100621 Si02
#       8
#     2   2   2   2   2   2   2   2
#     4  10  20  37  65 100 127 164 222 267 308 395
#     4  11  24  42  66  98 128 171 213 267 331 374
#     4   9  17  37  65  98 126 168 225 259 312 389
#     4   9  20  35  67  97 131 172 209 269 321 384
#     4  11  24  42  68  93 132 171 212 273 317 383
#     4   9  17  38  66 100 126 167 225 258 320 388
#     4   9  20  38  64  92 132 175 213 266 315 385
#     4  12  28  44  62  98 133 167 222 268 321 389
#
# _framework density 23.892631000000002
#
# number of rings (size 3 to 8) (size 9 to 14) (size 15 to 20)
#    0.000    2.000    2.500    3.000    7.000    3.500 
#    2.250    1.250    0.000    0.000    0.000    0.000 
#    0.000    0.000    0.000    0.000    0.000    0.000 
#
# Total GULP energy -89278.024533 kJ/mol
# GULP energy per Si atom -5579.876533 kJ/mol
# Density = 2.383825 g / cm^3
# Si number density = 23.892631 Si / 1000 Ang^3
#
#
#
# Elastic Constant Matrix: (Units=GPa)
#
#
# Indices 1 2 3 4 5 6 
#
# 1 70.0954 12.0917 22.3531 7.3615 -22.1139 7.9332
# 2 12.0917 95.1160 37.1463 27.9348 -20.9174 -9.9371
# 3 22.3531 37.1463 105.6633 8.6844 -15.8329 -0.3848
# 4 7.3615 27.9348 8.6844 35.5583 -10.7371 -11.1483
# 5 -22.1139 -20.9174 -15.8329 -10.7371 36.4262 0.3402
# 6 7.9332 -9.9371 -0.3848 -11.1483 0.3402 38.5626
#
#
#
# Elastic Compliance Matrix: (Units=1/GPa)
#
#
# Indices 1 2 3 4 5 6 
#
# 1 0.018934 0.001169 -0.002685 -0.002453 0.010317 -0.004421
# 2 0.001169 0.016270 -0.004358 -0.010102 0.005171 0.000942
# 3 -0.002685 -0.004358 0.011644 0.001548 0.001385 -0.000019
# 4 -0.002453 -0.010102 0.001548 0.040831 0.005328 0.009674
# 5 0.010317 0.005171 0.001385 0.005328 0.038854 0.000421
# 6 -0.004421 0.000942 -0.000019 0.009674 0.000421 0.029877
#
#
# Mechanical properties :
#
#
# Convention : Reuss Voigt Hill
#
# Bulk Modulus (GPa) = 28.49071 46.00632 37.24852
# Shear Modulus (GPa) = 27.79980 35.39499 31.59740
#
# Velocity S-wave (km/s) = 3.41476 3.85310 3.64053
# Velocity P-wave (km/s) = 5.24383 6.25239 5.77019
#
# Compressibility (1/GPa) = 0.03509916
#
# Stress axis : x y z
#
# Youngs Moduli (GPa) = 52.81620 61.46454 85.87779
#
# Poissons Ratio (x) = -0.07186 0.23058
# Poissons Ratio (y) = -0.06175 0.37428
# Poissons Ratio (z) = 0.14181 0.26788
#
# Static dielectric constant tensor:
#      x y z
#    x 2.231900 -0.472380 -0.054010 
#    y -0.472380 2.426820 0.111000 
#    z -0.054010 0.111000 2.058830 
# 
# From -- ./inp_files/254552.got.cif
#   From: 2010.05.17/outbox.cif.g08.bks.cpg/sg2_128_cif.got.tgz:254552.got - 2010.06.03 11:33:40.
