data_PCOD9100907
_publ_section_title
;
Structure prediction by ZEFSAII (Michael W. Deem and Ramdas Pophale) SiO2 
 PCOD9100907
Probable space group: P -1
;
_chemical_formula_sum "Si O2"
_cell_formula_units_Z 16
_cell_length_a 11.277404
_cell_length_b 9.166303
_cell_length_c 9.178584
_cell_angle_alpha 83.556800
_cell_angle_beta 100.100196
_cell_angle_gamma 124.480141
_cell_volume 769.906227
_symmetry_space_group_name_H-M "P -1"
_symmetry_group_IT_number 2
_symmetry_cell_setting 'triclinic'
loop_
_space_group_symop_operation_xyz
x,y,z
-x,-y,-z
loop_
_atom_site_type_symbol
_atom_site_label
_atom_site_fract_x
_atom_site_fract_y
_atom_site_fract_z
Si Si1 0.472806 0.014512 0.820607
Si Si2 0.970211 0.576896 0.127164
Si Si3 0.341002 0.459346 0.613966
Si Si4 0.245582 0.872906 0.322949
Si Si5 0.318928 0.256651 0.368557
Si Si6 0.274950 0.375465 0.051773
Si Si7 0.584780 0.716547 0.111237
Si Si8 0.783253 0.321539 0.360541
O O1 0.612987 0.094921 0.736676
O O2 0.410918 0.137465 0.805190
O O3 0.353668 0.826603 0.747432
O O4 0.500000 0.000000 0.000000
O O5 0.911603 0.429539 0.259377
O O6 0.112319 0.751795 0.200577
O O7 0.854769 0.623765 0.049269
O O8 0.000000 0.500000 0.000000
O O9 0.273857 0.298633 0.505263
O O10 0.504755 0.623716 0.593941
O O11 0.364399 0.387973 0.774397
O O12 0.243798 0.533828 0.603121
O O13 0.212067 0.774489 0.483065
O O14 0.269751 0.060249 0.342826
O O15 0.265053 0.333776 0.225176
O O16 0.418710 0.575268 0.045593
O O17 0.313327 0.238633 0.011078
#
# Coordination Sequence:
#
# PCOD9100907 Si02
#       8
#     2   2   2   2   2   2   2   2
#     4  12  24  40  71 107 137 171 227 284 337 389
#     4  12  27  47  68  96 138 185 223 275 345 406
#     4  10  21  38  68  98 133 169 220 275 342 389
#     4  12  26  44  67 103 142 177 226 277 334 405
#     4  10  22  39  66 102 130 173 216 280 336 393
#     4  10  21  40  67  94 132 173 227 270 337 397
#     4  10  20  37  66  98 131 169 221 284 324 393
#     4  12  25  45  68 101 134 179 228 278 335 401
#
# _framework density 20.781751
#
# number of rings (size 3 to 8) (size 9 to 14) (size 15 to 20)
#    0.000    1.000    2.500    4.500    8.750    0.500 
#    0.000    0.625    0.000    0.000    0.000    0.000 
#    0.000    0.000    0.000    0.000    0.000    0.000 
#
# Total GULP energy -89326.535932 kJ/mol
# GULP energy per Si atom -5582.908496 kJ/mol
# Density = 2.073445 g / cm^3
# Si number density = 20.781751 Si / 1000 Ang^3
#
#
#
# Elastic Constant Matrix: (Units=GPa)
#
#
# Indices 1 2 3 4 5 6 
#
# 1 53.2360 33.1738 26.2972 1.2858 -2.7062 -8.4562
# 2 33.1738 74.1515 44.8959 4.2775 -7.7445 -7.2651
# 3 26.2972 44.8959 114.4696 15.9362 -11.3632 -6.7838
# 4 1.2858 4.2775 15.9362 30.5757 -0.8790 3.3737
# 5 -2.7062 -7.7445 -11.3632 -0.8790 27.1052 3.3924
# 6 -8.4562 -7.2651 -6.7838 3.3737 3.3924 29.3215
#
#
#
# Elastic Compliance Matrix: (Units=1/GPa)
#
#
# Indices 1 2 3 4 5 6 
#
# 1 0.027079 -0.010630 -0.002060 0.000841 -0.001771 0.004807
# 2 -0.010630 0.022212 -0.006030 0.000485 0.002688 0.000676
# 3 -0.002060 -0.006030 0.012751 -0.005756 0.003084 0.001167
# 4 0.000841 0.000485 -0.005756 0.036152 -0.000382 -0.005085
# 5 -0.001771 0.002688 0.003084 -0.000382 0.039219 -0.003625
# 6 0.004807 0.000676 0.001167 -0.005085 -0.003625 0.036933
#
#
# Mechanical properties :
#
#
# Convention : Reuss Voigt Hill
#
# Bulk Modulus (GPa) = 40.64768 50.06566 45.35667
# Shear Modulus (GPa) = 22.72872 26.56649 24.64761
#
# Velocity S-wave (km/s) = 3.31068 3.57929 3.44760
# Velocity P-wave (km/s) = 5.84944 6.42069 6.14171
#
# Compressibility (1/GPa) = 0.02460165
#
# Stress axis : x y z
#
# Youngs Moduli (GPa) = 36.92890 45.02157 78.42628
#
# Poissons Ratio (x) = 0.47858 0.16153
# Poissons Ratio (y) = 0.39256 0.47292
# Poissons Ratio (z) = 0.07606 0.27149
#
# Static dielectric constant tensor:
#      x y z
#    x 1.783050 0.005110 -0.033680 
#    y 0.005110 1.744750 -0.034150 
#    z -0.033680 -0.034150 1.781680 
# 
# From -- ./inp_files/207374.got.cif
#   From: 2010.05.17/outbox.cif.g08.bks.cpg/sg2_104_cif.got.tgz:207374.got - 2010.06.03 11:33:40.
