data_PCOD9100095
_publ_section_title
;
Structure prediction by ZEFSAII (Michael W. Deem and Ramdas Pophale) SiO2 
 PCOD9100095
Probable space group: P -1
;
_chemical_formula_sum "Si O2"
_cell_formula_units_Z 12
_cell_length_a 12.101289
_cell_length_b 6.610034
_cell_length_c 9.579777
_cell_angle_alpha 113.336872
_cell_angle_beta 84.915626
_cell_angle_gamma 58.431254
_cell_volume 554.903710
_symmetry_space_group_name_H-M "P -1"
_symmetry_group_IT_number 2
_symmetry_cell_setting 'triclinic'
loop_
_space_group_symop_operation_xyz
x,y,z
-x,-y,-z
loop_
_atom_site_type_symbol
_atom_site_label
_atom_site_fract_x
_atom_site_fract_y
_atom_site_fract_z
Si Si1 0.151571 0.698891 0.400448
Si Si2 0.691514 0.327485 0.086635
Si Si3 0.509513 0.763127 0.015574
Si Si4 0.711167 0.046890 0.655981
Si Si5 0.217932 0.443829 0.632277
Si Si6 0.903692 0.715454 0.784023
O O1 0.192495 0.580201 0.520327
O O2 0.139567 0.488365 0.253055
O O3 0.265553 0.737572 0.346069
O O4 0.000000 0.000000 0.500000
O O5 0.655096 0.519377 0.006008
O O6 0.713856 0.461461 0.248186
O O7 0.554555 0.339589 0.110807
O O8 0.818087 0.001672 0.960209
O O9 0.399309 0.883556 0.191090
O O10 0.500000 0.000000 0.000000
O O11 0.696253 0.884764 0.492338
O O12 0.859013 0.823228 0.658851
O O13 0.067401 0.554773 0.740890
#
# Coordination Sequence:
#
# PCOD9100095 Si02
#       6
#     2   2   2   2   2   2
#     4  11  19  38  64  96 132 168 204 246 314 386
#     4  10  24  40  63  93 129 163 214 264 315 371
#     4  10  24  48  65  82 121 174 224 260 311 371
#     4  10  21  39  66  91 124 169 215 254 308 373
#     4  11  21  37  62 101 132 159 206 261 318 378
#     4  10  20  37  62  93 134 169 202 249 321 379
#
# _framework density 21.625374999999998
#
# number of rings (size 3 to 8) (size 9 to 14) (size 15 to 20)
#    0.000    1.667    3.333    1.500    0.000   14.000 
#    0.000    2.500    0.000    0.000    0.000    0.000 
#    0.000    0.000    0.000    0.000    0.000    0.000 
#
# Total GULP energy -66949.005030 kJ/mol
# GULP energy per Si atom -5579.083752 kJ/mol
# Density = 2.157615 g / cm^3
# Si number density = 21.625375 Si / 1000 Ang^3
#
#
#
# Elastic Constant Matrix: (Units=GPa)
#
#
# Indices 1 2 3 4 5 6 
#
# 1 110.7929 59.5366 86.4413 9.1772 6.7456 28.5576
# 2 59.5366 120.2456 32.0340 11.7963 -0.1846 44.7150
# 3 86.4413 32.0340 117.9779 18.0608 25.1669 19.6980
# 4 9.1772 11.7963 18.0608 26.4227 2.3063 2.4331
# 5 6.7456 -0.1846 25.1669 2.3063 50.5662 4.3252
# 6 28.5576 44.7150 19.6980 2.4331 4.3252 39.3142
#
#
#
# Elastic Compliance Matrix: (Units=1/GPa)
#
#
# Indices 1 2 3 4 5 6 
#
# 1 0.031325 -0.009654 -0.022848 0.008594 0.006904 -0.001618
# 2 -0.009654 0.018324 0.005930 -0.007387 0.000139 -0.016359
# 3 -0.022848 0.005930 0.028124 -0.012836 -0.010143 -0.002329
# 4 0.008594 -0.007387 -0.012836 0.046201 0.002642 0.005441
# 5 0.006904 0.000139 -0.010143 0.002642 0.024031 -0.002899
# 6 -0.001618 -0.016359 -0.002329 0.005441 -0.002899 0.046366
#
#
# Mechanical properties :
#
#
# Convention : Reuss Voigt Hill
#
# Bulk Modulus (GPa) = 40.60179 78.33781 59.46980
# Shear Modulus (GPa) = 19.55216 34.66091 27.10654
#
# Velocity S-wave (km/s) = 3.01014 4.00783 3.54426
# Velocity P-wave (km/s) = 5.55851 7.59740 6.65648
#
# Compressibility (1/GPa) = 0.02462946
#
# Stress axis : x y z
#
# Youngs Moduli (GPa) = 31.92383 54.57199 35.55634
#
# Poissons Ratio (x) = 0.52682 0.81240
# Poissons Ratio (y) = 0.30818 -0.21085
# Poissons Ratio (z) = 0.72941 -0.32361
#
# Static dielectric constant tensor:
#      x y z
#    x 1.827780 -0.036140 -0.057110 
#    y -0.036140 1.855270 0.087370 
#    z -0.057110 0.087370 1.860960 
# 
# From -- ./inp_files/59748.got.cif
#   From: 2010.05.17/outbox.cif.g08.bks.cpg/sg2_30_cif.got.tgz:59748.got - 2010.06.03 11:33:40.
