data_PCOD9100855
_publ_section_title
;
Structure prediction by ZEFSAII (Michael W. Deem and Ramdas Pophale) SiO2 
 PCOD9100855
Probable space group: P -1
;
_chemical_formula_sum "Si O2"
_cell_formula_units_Z 16
_cell_length_a 8.252051
_cell_length_b 10.388090
_cell_length_c 14.859843
_cell_angle_alpha 89.825944
_cell_angle_beta 116.487670
_cell_angle_gamma 136.738594
_cell_volume 665.225155
_symmetry_space_group_name_H-M "P -1"
_symmetry_group_IT_number 2
_symmetry_cell_setting 'triclinic'
loop_
_space_group_symop_operation_xyz
x,y,z
-x,-y,-z
loop_
_atom_site_type_symbol
_atom_site_label
_atom_site_fract_x
_atom_site_fract_y
_atom_site_fract_z
Si Si1 0.234308 0.819882 0.572668
Si Si2 0.465008 0.829563 0.104508
Si Si3 0.333424 0.309896 0.566569
Si Si4 0.838877 0.821883 0.665043
Si Si5 0.728835 0.993904 0.986873
Si Si6 0.009077 0.459756 0.646459
Si Si7 0.664870 0.767581 0.806830
Si Si8 0.669640 0.289568 0.742617
O O1 0.124439 0.650242 0.618347
O O2 0.959305 0.766281 0.495897
O O3 0.247974 0.755967 0.479863
O O4 0.523759 0.066344 0.681626
O O5 0.803917 0.009055 0.234754
O O6 0.526506 0.813183 0.018371
O O7 0.242019 0.653822 0.130648
O O8 0.388084 0.933011 0.065780
O O9 0.629785 0.573348 0.626988
O O10 0.265309 0.191817 0.458281
O O11 0.422422 0.260356 0.664111
O O12 0.742366 0.855810 0.724333
O O13 0.720823 0.907195 0.894896
O O14 0.084968 0.198838 0.110106
O O15 0.301277 0.530838 0.723107
O O16 0.917491 0.449193 0.723692
#
# Coordination Sequence:
#
# PCOD9100855 Si02
#       8
#     2   2   2   2   2   2   2   2
#     4  11  23  43  60  95 140 176 203 254 309 395
#     4  10  21  41  65  93 122 166 214 273 321 366
#     4  11  22  38  59 101 131 165 211 249 309 394
#     4  10  20  37  66  93 127 174 205 252 325 378
#     4   9  21  41  69  90 118 165 224 273 323 368
#     4  11  24  41  65  94 135 172 211 251 324 386
#     4  10  20  39  66  93 118 169 218 262 319 378
#     4  12  25  39  64 101 132 168 211 258 316 388
#
# _framework density 24.052004
#
# number of rings (size 3 to 8) (size 9 to 14) (size 15 to 20)
#    0.000    1.500    2.500    3.000    3.500    0.000 
#    2.250    2.500    0.000    0.000    0.000    0.000 
#    0.000    0.000    0.000    0.000    0.000    0.000 
#
# Total GULP energy -89417.131005 kJ/mol
# GULP energy per Si atom -5588.570688 kJ/mol
# Density = 2.399726 g / cm^3
# Si number density = 24.052004 Si / 1000 Ang^3
#
#
#
# Elastic Constant Matrix: (Units=GPa)
#
#
# Indices 1 2 3 4 5 6 
#
# 1 96.4752 12.7303 47.7732 -20.4449 -9.6242 27.0282
# 2 12.7303 62.7476 22.6183 -23.7051 5.9378 3.8765
# 3 47.7732 22.6183 138.0033 -33.5385 -19.4133 7.0550
# 4 -20.4449 -23.7051 -33.5385 43.6796 7.7064 -8.2915
# 5 -9.6242 5.9378 -19.4133 7.7064 30.8859 3.4629
# 6 27.0282 3.8765 7.0550 -8.2915 3.4629 23.5743
#
#
#
# Elastic Compliance Matrix: (Units=1/GPa)
#
#
# Indices 1 2 3 4 5 6 
#
# 1 0.019456 -0.001730 -0.004629 -0.000582 0.006068 -0.021734
# 2 -0.001730 0.022213 -0.001543 0.012602 -0.009441 0.004612
# 3 -0.004629 -0.001543 0.010737 0.005241 0.003890 0.003619
# 4 -0.000582 0.012602 0.005241 0.037457 -0.009964 0.011665
# 5 0.006068 -0.009441 0.003890 -0.009964 0.042849 -0.016368
# 6 -0.021734 0.004612 0.003619 0.011665 -0.016368 0.072002
#
#
# Mechanical properties :
#
#
# Convention : Reuss Voigt Hill
#
# Bulk Modulus (GPa) = 27.32003 51.49665 39.40834
# Shear Modulus (GPa) = 21.48495 33.90156 27.69326
#
# Velocity S-wave (km/s) = 2.99201 3.75842 3.39690
# Velocity P-wave (km/s) = 4.82903 6.34754 5.63963
#
# Compressibility (1/GPa) = 0.03660318
#
# Stress axis : x y z
#
# Youngs Moduli (GPa) = 51.39681 45.01792 93.13313
#
# Poissons Ratio (x) = 0.07790 0.43107
# Poissons Ratio (y) = 0.08894 0.14370
# Poissons Ratio (z) = 0.23789 0.06946
#
# Static dielectric constant tensor:
#      x y z
#    x 1.943790 0.070930 -0.024330 
#    y 0.070930 1.956680 0.031520 
#    z -0.024330 0.031520 1.944290 
# 
# From -- ./inp_files/499125.got.cif
#   From: 2010.05.17/outbox.cif.g08.bks.cpg/sg2_250_cif.got.tgz:499125.got - 2010.06.03 11:33:40.
