data_PCOD9100434
_publ_section_title
;
Structure prediction by ZEFSAII (Michael W. Deem and Ramdas Pophale) SiO2 
 PCOD9100434
Probable space group: P -1
;
_chemical_formula_sum "Si O2"
_cell_formula_units_Z 16
_cell_length_a 7.291221
_cell_length_b 12.615493
_cell_length_c 13.613860
_cell_angle_alpha 68.432241
_cell_angle_beta 106.691145
_cell_angle_gamma 151.208086
_cell_volume 559.176397
_symmetry_space_group_name_H-M "P -1"
_symmetry_group_IT_number 2
_symmetry_cell_setting 'triclinic'
loop_
_space_group_symop_operation_xyz
x,y,z
-x,-y,-z
loop_
_atom_site_type_symbol
_atom_site_label
_atom_site_fract_x
_atom_site_fract_y
_atom_site_fract_z
Si Si1 0.665089 0.785455 0.867621
Si Si2 0.284227 0.826321 0.147660
Si Si3 0.864908 0.078757 0.658081
Si Si4 0.037678 0.387440 0.517292
Si Si5 0.885319 0.703617 0.798726
Si Si6 0.618964 0.896087 0.997260
Si Si7 0.086016 0.175502 0.450043
Si Si8 0.726265 0.435855 0.715142
O O1 0.614229 0.639795 0.851628
O O2 0.457974 0.721749 0.955498
O O3 0.617484 0.862699 0.754686
O O4 0.090267 0.000811 0.909704
O O5 0.187515 0.654840 0.240440
O O6 0.130997 0.877672 0.100301
O O7 0.299999 0.793307 0.048060
O O8 0.704658 0.076922 0.164334
O O9 0.833238 0.198353 0.631036
O O10 0.820931 0.071177 0.536869
O O11 0.287469 0.241725 0.684795
O O12 0.475221 0.578610 0.539935
O O13 0.022950 0.379477 0.397525
O O14 0.000000 0.500000 0.500000
O O15 0.941652 0.801727 0.673121
O O16 0.782677 0.527823 0.797384
O O17 0.000000 0.000000 0.500000
#
# Coordination Sequence:
#
# PCOD9100434 Si02
#       8
#     2   2   2   2   2   2   2   2
#     4  10  20  37  64  88 115 161 206 250 317 358
#     4  10  21  40  64  86 118 163 202 256 315 359
#     4  11  19  37  61  84 121 170 196 237 311 380
#     4  11  24  38  56  91 133 163 203 255 305 365
#     4  11  19  36  61  92 117 154 208 248 295 377
#     4   9  20  40  62  83 121 157 203 263 307 360
#     4  11  19  37  61  84 121 166 203 236 300 385
#     4  11  20  39  62  86 120 167 204 238 308 384
#
# _framework density 28.613513000000001
#
# number of rings (size 3 to 8) (size 9 to 14) (size 15 to 20)
#    0.000    1.500    6.250    1.500    1.750    0.000 
#    2.250    6.875    0.000    0.000    0.000    0.000 
#    0.000    0.000    0.000    0.000    0.000    0.000 
#
# Total GULP energy -89313.086418 kJ/mol
# GULP energy per Si atom -5582.067901 kJ/mol
# Density = 2.854839 g / cm^3
# Si number density = 28.613513 Si / 1000 Ang^3
#
#
#
# Elastic Constant Matrix: (Units=GPa)
#
#
# Indices 1 2 3 4 5 6 
#
# 1 112.4864 28.1365 31.0860 13.8048 -5.2032 -33.6685
# 2 28.1365 92.4921 32.4519 14.0487 1.4612 -23.5802
# 3 31.0860 32.4519 171.5538 7.2997 26.8323 -14.1407
# 4 13.8048 14.0487 7.2997 46.1635 -28.2313 -5.6129
# 5 -5.2032 1.4612 26.8323 -28.2313 55.2121 3.2338
# 6 -33.6685 -23.5802 -14.1407 -5.6129 3.2338 50.6206
#
#
#
# Elastic Compliance Matrix: (Units=1/GPa)
#
#
# Indices 1 2 3 4 5 6 
#
# 1 0.011809 -0.001124 -0.001364 -0.001882 0.000450 0.006712
# 2 -0.001124 0.013592 -0.001420 -0.004398 -0.002308 0.004847
# 3 -0.001364 -0.001420 0.007420 -0.003718 -0.005625 0.000451
# 4 -0.001882 -0.004398 -0.003718 0.036493 0.020500 -0.001603
# 5 0.000450 -0.002308 -0.005625 0.020500 0.031553 -0.002090
# 6 0.006712 0.004847 0.000451 -0.001603 -0.002090 0.026559
#
#
# Mechanical properties :
#
#
# Convention : Reuss Voigt Hill
#
# Bulk Modulus (GPa) = 39.99101 62.20902 51.10002
# Shear Modulus (GPa) = 34.82452 49.38977 42.10714
#
# Velocity S-wave (km/s) = 3.49243 4.15914 3.84028
# Velocity P-wave (km/s) = 5.50176 6.69723 6.12872
#
# Compressibility (1/GPa) = 0.02500562
#
# Stress axis : x y z
#
# Youngs Moduli (GPa) = 84.68162 73.57278 134.77149
#
# Poissons Ratio (x) = 0.08267 0.18387
# Poissons Ratio (y) = 0.09515 0.19134
# Poissons Ratio (z) = 0.11553 0.10446
#
# Static dielectric constant tensor:
#      x y z
#    x 2.563200 -0.636770 -0.068980 
#    y -0.636770 4.333260 0.236330 
#    z -0.068980 0.236330 2.300580 
# 
# From -- ./inp_files/499069.got.cif
#   From: 2010.05.17/outbox.cif.g08.bks.cpg/sg2_250_cif.got.tgz:499069.got - 2010.06.03 11:33:40.
