data_PCOD9100714
_publ_section_title
;
Structure prediction by ZEFSAII (Michael W. Deem and Ramdas Pophale) SiO2 
 PCOD9100714
Probable space group: P -1
;
_chemical_formula_sum "Si O2"
_cell_formula_units_Z 14
_cell_length_a 16.600507
_cell_length_b 7.544245
_cell_length_c 10.977529
_cell_angle_alpha 127.285880
_cell_angle_beta 31.820449
_cell_angle_gamma 124.755328
_cell_volume 571.692366
_symmetry_space_group_name_H-M "P -1"
_symmetry_group_IT_number 2
_symmetry_cell_setting 'triclinic'
loop_
_space_group_symop_operation_xyz
x,y,z
-x,-y,-z
loop_
_atom_site_type_symbol
_atom_site_label
_atom_site_fract_x
_atom_site_fract_y
_atom_site_fract_z
Si Si1 0.644254 0.524928 0.575079
Si Si2 0.302194 0.912061 0.814291
Si Si3 0.478817 0.093053 0.246356
Si Si4 0.664658 0.601874 0.988699
Si Si5 0.988400 0.655540 0.197736
Si Si6 0.962049 0.646692 0.494455
Si Si7 0.259901 0.877180 0.259008
O O1 0.683008 0.282480 0.382400
O O2 0.558758 0.657995 0.637282
O O3 0.518146 0.469592 0.820241
O O4 0.806355 0.685603 0.447940
O O5 0.446793 0.914500 0.721195
O O6 0.308986 0.169287 0.870920
O O7 0.139458 0.837012 0.060465
O O8 0.322352 0.938621 0.340534
O O9 0.611768 0.012451 0.954058
O O10 0.780691 0.658227 0.749937
O O11 0.718185 0.385535 0.893063
O O12 0.999291 0.552242 0.275647
O O13 0.000000 0.500000 0.000000
O O14 0.000000 0.500000 0.500000
O O15 0.081895 0.873651 0.452493
#
# Coordination Sequence:
#
# PCOD9100714 Si02
#       7
#     2   2   2   2   2   2   2
#     4  10  23  42  63  92 137 173 224 270 336 394
#     4  11  22  40  66  96 129 177 224 275 331 395
#     4  10  20  37  65  92 128 169 223 270 330 392
#     4  10  23  38  63  94 133 171 219 271 336 387
#     4  10  23  42  67  96 134 174 224 275 331 394
#     4  10  21  40  66  96 134 173 221 275 333 394
#     4   9  20  38  59  95 131 164 214 278 333 387
#
# _framework density 24.488695
#
# number of rings (size 3 to 8) (size 9 to 14) (size 15 to 20)
#    0.000    2.000    1.429    0.857    2.000    7.429 
#    0.000    0.000    0.000    7.714    0.000    0.000 
#    0.000    0.000    0.000    0.000    0.000    0.000 
#
# Total GULP energy -77982.760037 kJ/mol
# GULP energy per Si atom -5570.197145 kJ/mol
# Density = 2.443296 g / cm^3
# Si number density = 24.488695 Si / 1000 Ang^3
#
#
#
# Elastic Constant Matrix: (Units=GPa)
#
#
# Indices 1 2 3 4 5 6 
#
# 1 96.3119 33.6411 34.8748 -12.2675 -4.3694 24.7836
# 2 33.6411 110.8973 30.8165 -5.3531 -9.7646 7.6196
# 3 34.8748 30.8165 149.7111 -35.7952 -7.9007 6.0329
# 4 -12.2675 -5.3531 -35.7952 44.0154 7.9203 -11.2623
# 5 -4.3694 -9.7646 -7.9007 7.9203 33.3673 -2.9371
# 6 24.7836 7.6196 6.0329 -11.2623 -2.9371 19.5986
#
#
#
# Elastic Compliance Matrix: (Units=1/GPa)
#
#
# Indices 1 2 3 4 5 6 
#
# 1 0.018219 -0.003157 -0.003674 -0.004126 -0.000464 -0.023122
# 2 -0.003157 0.010598 -0.001643 -0.001410 0.002630 -0.000038
# 3 -0.003674 -0.001643 0.009596 0.008423 -0.000059 0.007162
# 4 -0.004126 -0.001410 0.008423 0.034945 -0.005276 0.022464
# 5 -0.000464 0.002630 -0.000059 -0.005276 0.032036 0.001351
# 6 -0.023122 -0.000038 0.007162 0.022464 0.001351 0.091184
#
#
# Mechanical properties :
#
#
# Convention : Reuss Voigt Hill
#
# Bulk Modulus (GPa) = 46.58697 61.73168 54.15932
# Shear Modulus (GPa) = 22.65727 36.56878 29.61303
#
# Velocity S-wave (km/s) = 3.04503 3.86851 3.48120
# Velocity P-wave (km/s) = 5.60608 6.72434 6.19051
#
# Compressibility (1/GPa) = 0.02146523
#
# Stress axis : x y z
#
# Youngs Moduli (GPa) = 54.88728 94.35920 104.21434
#
# Poissons Ratio (x) = 0.29793 0.38283
# Poissons Ratio (y) = 0.17330 0.17120
# Poissons Ratio (z) = 0.20163 0.15501
#
# Static dielectric constant tensor:
#      x y z
#    x 1.996660 -0.003170 -0.045440 
#    y -0.003170 2.065100 -0.009780 
#    z -0.045440 -0.009780 2.057700 
# 
# From -- ./inp_files/397509.got.cif
#   From: 2010.05.17/outbox.cif.g08.bks.cpg/sg2_199_cif.got.tgz:397509.got - 2010.06.03 11:33:40.
