data_PCOD9100027
_publ_section_title
;
Structure prediction by ZEFSAII (Michael W. Deem and Ramdas Pophale) SiO2 
 PCOD9100027
Probable space group: P -1
;
_chemical_formula_sum "Si O2"
_cell_formula_units_Z 14
_cell_length_a 10.990389
_cell_length_b 16.090652
_cell_length_c 13.009085
_cell_angle_alpha 40.511488
_cell_angle_beta 31.570418
_cell_angle_gamma 62.434344
_cell_volume 656.544882
_symmetry_space_group_name_H-M "P -1"
_symmetry_group_IT_number 2
_symmetry_cell_setting 'triclinic'
loop_
_space_group_symop_operation_xyz
x,y,z
-x,-y,-z
loop_
_atom_site_type_symbol
_atom_site_label
_atom_site_fract_x
_atom_site_fract_y
_atom_site_fract_z
Si Si1 0.714239 0.349116 0.817488
Si Si2 0.309649 0.939039 0.795320
Si Si3 0.309705 0.660165 0.400178
Si Si4 0.706895 0.473672 0.264248
Si Si5 0.246863 0.022924 0.147206
Si Si6 0.177751 0.299639 0.201691
Si Si7 0.270044 0.138295 0.802247
O O1 0.722379 0.348804 0.688897
O O2 0.000000 0.500000 0.500000
O O3 0.681742 0.198080 0.030000
O O4 0.441511 0.352403 0.034728
O O5 0.500000 0.000000 0.500000
O O6 0.390974 0.074367 0.691652
O O7 0.996448 0.875820 0.043843
O O8 0.290995 0.530136 0.609329
O O9 0.057008 0.676339 0.606434
O O10 0.609471 0.808946 0.070519
O O11 0.479481 0.308874 0.533937
O O12 0.711755 0.604734 0.072704
O O13 0.000000 0.500000 0.000000
O O14 0.184447 0.029793 0.065959
O O15 0.981326 0.882653 0.523927
O O16 0.500000 0.000000 0.000000
#
# Coordination Sequence:
#
# PCOD9100027 Si02
#       7
#     2   2   2   2   2   2   2
#     4  12  26  40  57  87 122 157 198 238 287 351
#     4  11  24  40  61  86 115 160 204 236 282 344
#     4   9  21  40  60  85 119 155 192 239 294 349
#     4   9  19  38  64  90 116 152 192 239 300 349
#     4   9  17  36  63  87 114 147 189 241 294 343
#     4  10  20  37  62  91 118 149 190 242 297 343
#     4  10  21  41  62  84 120 155 193 244 288 341
#
# _framework density 21.323753
#
# number of rings (size 3 to 8) (size 9 to 14) (size 15 to 20)
#    0.000    2.000    0.000    4.286    0.000    5.143 
#    0.000   11.429    0.000    0.000    0.000    0.000 
#    0.000    0.000    0.000    0.000    0.000    0.000 
#
# Total GULP energy -78122.884857 kJ/mol
# GULP energy per Si atom -5580.206061 kJ/mol
# Density = 2.127522 g / cm^3
# Si number density = 21.323753 Si / 1000 Ang^3
#
#
#
# Elastic Constant Matrix: (Units=GPa)
#
#
# Indices 1 2 3 4 5 6 
#
# 1 159.8053 51.7932 61.6828 -8.4612 26.7894 -7.5505
# 2 51.7932 77.0451 34.8342 1.7559 17.9165 -7.2136
# 3 61.6828 34.8342 133.0537 -10.6241 18.6854 0.0501
# 4 -8.4612 1.7559 -10.6241 24.0068 -2.5536 -0.7593
# 5 26.7894 17.9165 18.6854 -2.5536 50.6955 3.9383
# 6 -7.5505 -7.2136 0.0501 -0.7593 3.9383 49.3752
#
#
#
# Elastic Compliance Matrix: (Units=1/GPa)
#
#
# Indices 1 2 3 4 5 6 
#
# 1 0.009271 -0.004463 -0.002627 0.002216 -0.002318 0.000987
# 2 -0.004463 0.018269 -0.002564 -0.004351 -0.003543 0.002205
# 3 -0.002627 -0.002564 0.009838 0.003477 -0.001106 -0.000645
# 4 0.002216 -0.004351 0.003477 0.044440 0.001302 0.000279
# 5 -0.002318 -0.003543 -0.001106 0.001302 0.022884 -0.002676
# 6 0.000987 0.002205 -0.000645 0.000279 -0.002676 0.020945
#
#
# Mechanical properties :
#
#
# Convention : Reuss Voigt Hill
#
# Bulk Modulus (GPa) = 55.34613 74.05828 64.70220
# Shear Modulus (GPa) = 33.11693 39.58844 36.35268
#
# Velocity S-wave (km/s) = 3.94516 4.31344 4.13340
# Velocity P-wave (km/s) = 6.83841 7.72097 7.29305
#
# Compressibility (1/GPa) = 0.01806811
#
# Stress axis : x y z
#
# Youngs Moduli (GPa) = 107.86416 54.73792 101.64272
#
# Poissons Ratio (x) = 0.24432 0.26704
# Poissons Ratio (y) = 0.48144 0.26065
# Poissons Ratio (z) = 0.28338 0.14037
#
# Static dielectric constant tensor:
#      x y z
#    x 1.778770 0.001840 0.028100 
#    y 0.001840 1.851130 0.017630 
#    z 0.028100 0.017630 1.773770 
# 
# From -- ./inp_files/402804.got.cif
#   From: 2010.05.17/outbox.cif.g08.bks.cpg/sg2_202_cif.got.tgz:402804.got - 2010.06.03 11:33:40.
