data_PCOD9100749
_publ_section_title
;
Structure prediction by ZEFSAII (Michael W. Deem and Ramdas Pophale) SiO2 
 PCOD9100749
Probable space group: P -1
;
_chemical_formula_sum "Si O2"
_cell_formula_units_Z 15
_cell_length_a 16.318315
_cell_length_b 8.593060
_cell_length_c 9.089680
_cell_angle_alpha 127.352253
_cell_angle_beta 45.992912
_cell_angle_gamma 124.882210
_cell_volume 703.090566
_symmetry_space_group_name_H-M "P -1"
_symmetry_group_IT_number 2
_symmetry_cell_setting 'triclinic'
loop_
_space_group_symop_operation_xyz
x,y,z
-x,-y,-z
loop_
_atom_site_type_symbol
_atom_site_label
_atom_site_fract_x
_atom_site_fract_y
_atom_site_fract_z
Si Si1 0.509216 0.224270 0.053692
Si Si2 0.104975 0.309092 0.388358
Si Si3 0.329116 0.704391 0.674533
Si Si4 0.911550 0.636696 0.220614
Si Si5 0.284628 0.746701 0.416895
Si Si6 0.126632 0.957582 0.573787
Si Si7 0.738056 0.950636 0.853934
Si Si8 0.500000 0.500000 0.500000
O O1 0.608262 0.259678 0.826499
O O2 0.380863 0.214466 0.140898
O O3 0.535605 0.382941 0.243546
O O4 0.500000 0.000000 0.000000
O O5 0.064428 0.297328 0.602542
O O6 0.185045 0.534873 0.396140
O O7 0.185347 0.151619 0.193954
O O8 0.989579 0.229436 0.388911
O O9 0.221970 0.500287 0.706306
O O10 0.325843 0.768160 0.545850
O O11 0.447157 0.649780 0.543882
O O12 0.298210 0.869954 0.914444
O O13 0.916649 0.838323 0.236694
O O14 0.000000 0.500000 0.000000
O O15 0.223620 0.922686 0.545804
O O16 0.189718 0.976285 0.344939
#
# Coordination Sequence:
#
# PCOD9100749 Si02
#       8
#     2   2   2   2   2   2   2   1
#     4  12  24  46  69  97 135 174 232 276 340 407
#     4  10  22  39  63  94 132 174 221 277 342 390
#     4  11  24  41  65 100 135 175 228 272 342 398
#     4  10  20  37  65  94 129 174 229 271 325 411
#     4  11  25  43  64 100 136 174 220 292 334 396
#     4  11  20  40  69  92 133 177 223 280 336 395
#     4  11  22  44  68  95 131 181 225 276 330 412
#     4  12  24  44  74  96 126 184 222 272 338 406
#
# _framework density 21.334378000000001
#
# number of rings (size 3 to 8) (size 9 to 14) (size 15 to 20)
#    0.000    1.067    2.667    6.000    0.000    2.667 
#    2.400    8.667    0.000    0.000    0.000    0.000 
#    0.000    0.000    0.000    0.000    0.000    0.000 
#
# Total GULP energy -83618.450670 kJ/mol
# GULP energy per Si atom -5574.563378 kJ/mol
# Density = 2.128582 g / cm^3
# Si number density = 21.334378 Si / 1000 Ang^3
#
#
#
# Elastic Constant Matrix: (Units=GPa)
#
#
# Indices 1 2 3 4 5 6 
#
# 1 65.1793 45.6527 47.6064 -18.4150 -1.9269 -3.2421
# 2 45.6527 42.0594 27.0298 2.6417 -7.4231 -24.1278
# 3 47.6064 27.0298 108.7684 25.9988 -18.8540 -24.6287
# 4 -18.4150 2.6417 25.9988 27.7277 -0.2970 -8.0873
# 5 -1.9269 -7.4231 -18.8540 -0.2970 30.2994 5.8971
# 6 -3.2421 -24.1278 -24.6287 -8.0873 5.8971 21.0908
#
#
#
# Elastic Compliance Matrix: (Units=1/GPa)
#
#
# Indices 1 2 3 4 5 6 
#
# 1 -0.010612 0.028591 0.008227 -0.006662 0.004191 0.036958
# 2 0.028591 0.002870 -0.026280 0.042279 -0.012790 -0.003222
# 3 0.008227 -0.026280 0.009788 -0.007406 0.004268 -0.021403
# 4 -0.006662 0.042279 -0.007406 0.052087 -0.005903 0.060318
# 5 0.004191 -0.012790 0.004268 -0.005903 0.036938 -0.021595
# 6 0.036958 -0.003222 -0.021403 0.060318 -0.021595 0.053582
#
#
# Mechanical properties :
#
#
# Convention : Reuss Voigt Hill
#
# Bulk Modulus (GPa) = 43.24892 50.73165 46.99029
# Shear Modulus (GPa) = 38.08597 22.20478 30.14538
#
# Velocity S-wave (km/s) = 4.22974 3.22964 3.76306
# Velocity P-wave (km/s) = 6.64607 6.14316 6.39955
#
# Compressibility (1/GPa) = 0.02312196
#
# Stress axis : x y z
#
# Youngs Moduli (GPa) = -94.22880 348.47437 102.17112
#
# Poissons Ratio (x) = -9.96331 -0.84057
# Poissons Ratio (y) = 2.69412 2.68502
# Poissons Ratio (z) = 0.77523 9.15779
#
# Static dielectric constant tensor:
#      x y z
#    x 1.797670 0.016290 -0.027460 
#    y 0.016290 1.797550 0.012950 
#    z -0.027460 0.012950 1.746140 
# 
# From -- ./inp_files/296608.got.cif
#   From: 2010.05.17/outbox.cif.g08.bks.cpg/sg2_149_cif.got.tgz:296608.got - 2010.06.03 11:33:40.
