data_PCOD9100495
_publ_section_title
;
Structure prediction by ZEFSAII (Michael W. Deem and Ramdas Pophale) SiO2 
 PCOD9100495
Probable space group: P -1
;
_chemical_formula_sum "Si O2"
_cell_formula_units_Z 16
_cell_length_a 13.319633
_cell_length_b 10.625834
_cell_length_c 11.246222
_cell_angle_alpha 58.161271
_cell_angle_beta 82.751747
_cell_angle_gamma 44.292854
_cell_volume 855.285214
_symmetry_space_group_name_H-M "P -1"
_symmetry_group_IT_number 2
_symmetry_cell_setting 'triclinic'
loop_
_space_group_symop_operation_xyz
x,y,z
-x,-y,-z
loop_
_atom_site_type_symbol
_atom_site_label
_atom_site_fract_x
_atom_site_fract_y
_atom_site_fract_z
Si Si1 0.050342 0.021717 0.294762
Si Si2 0.897861 0.333878 0.384945
Si Si3 0.394211 0.697882 0.316599
Si Si4 0.542402 0.858034 0.185094
Si Si5 0.528008 0.044376 0.346124
Si Si6 0.467110 0.449943 0.192321
Si Si7 0.119949 0.243345 0.570939
Si Si8 0.224971 0.836961 0.845788
O O1 0.109839 0.810105 0.466100
O O2 0.208989 0.913752 0.272354
O O3 0.951362 0.234039 0.294490
O O4 0.917376 0.116583 0.174334
O O5 0.731907 0.608128 0.281286
O O6 0.045242 0.253924 0.460705
O O7 0.500000 0.500000 0.500000
O O8 0.458105 0.791020 0.231007
O O9 0.417323 0.557694 0.275022
O O10 0.498592 0.991442 0.251003
O O11 0.500000 0.000000 0.000000
O O12 0.450707 0.295351 0.239180
O O13 0.500000 0.000000 0.500000
O O14 0.713448 0.868478 0.411066
O O15 0.651141 0.290052 0.220965
O O16 0.345675 0.671181 0.015033
O O17 0.000000 0.500000 0.500000
O O18 0.142549 0.088624 0.740776
#
# Coordination Sequence:
#
# PCOD9100495 Si02
#       8
#     2   2   2   2   2   2   2   2
#     4  10  22  39  67  96 122 168 225 277 324 388
#     4  10  21  40  66  91 128 169 219 273 329 397
#     4  12  25  41  68  98 131 173 231 275 327 399
#     4  12  27  43  68 100 142 177 217 274 349 401
#     4  11  25  42  66  97 134 174 220 275 336 394
#     4  10  23  41  68  93 129 170 221 276 323 401
#     4  10  20  37  64  91 122 169 219 260 323 405
#     4   9  21  39  67  92 123 163 222 263 332 381
#
# _framework density 18.70721
#
# number of rings (size 3 to 8) (size 9 to 14) (size 15 to 20)
#    0.000    1.500    2.500    1.500   14.000    0.500 
#    0.000    1.875    0.000    0.000    0.000    0.000 
#    0.000    0.000    0.000    0.000    0.000    0.000 
#
# Total GULP energy -89175.556344 kJ/mol
# GULP energy per Si atom -5573.472271 kJ/mol
# Density = 1.866463 g / cm^3
# Si number density = 18.707210 Si / 1000 Ang^3
#
#
#
# Elastic Constant Matrix: (Units=GPa)
#
#
# Indices 1 2 3 4 5 6 
#
# 1 76.2384 23.4412 27.7538 -5.4981 3.7240 4.1206
# 2 23.4412 100.9478 39.0787 4.3078 4.7102 24.2286
# 3 27.7538 39.0787 89.6205 -6.3368 9.6332 6.6195
# 4 -5.4981 4.3078 -6.3368 27.4431 -5.1860 -1.4527
# 5 3.7240 4.7102 9.6332 -5.1860 16.5806 -5.7940
# 6 4.1206 24.2286 6.6195 -1.4527 -5.7940 21.8593
#
#
#
# Elastic Compliance Matrix: (Units=1/GPa)
#
#
# Indices 1 2 3 4 5 6 
#
# 1 0.015337 -0.002753 -0.003563 0.002944 0.000914 0.001677
# 2 -0.002753 0.018817 -0.004931 -0.008174 -0.012336 -0.022657
# 3 -0.003563 -0.004931 0.015198 0.002483 -0.005795 0.000164
# 4 0.002944 -0.008174 0.002483 0.043363 0.019284 0.015747
# 5 0.000914 -0.012336 -0.005795 0.019284 0.086830 0.039553
# 6 0.001677 -0.022657 0.000164 0.015747 0.039553 0.082024
#
#
# Mechanical properties :
#
#
# Convention : Reuss Voigt Hill
#
# Bulk Modulus (GPa) = 37.23297 49.70602 43.46950
# Shear Modulus (GPa) = 17.06388 24.94545 21.00467
#
# Velocity S-wave (km/s) = 3.02347 3.65563 3.35447
# Velocity P-wave (km/s) = 5.66875 6.66681 6.18793
#
# Compressibility (1/GPa) = 0.02685791
#
# Stress axis : x y z
#
# Youngs Moduli (GPa) = 65.20023 53.14475 65.79749
#
# Poissons Ratio (x) = 0.14630 0.23446
# Poissons Ratio (y) = 0.17949 0.32444
# Poissons Ratio (z) = 0.23233 0.26205
#
# Static dielectric constant tensor:
#      x y z
#    x 1.630860 0.044920 -0.000120 
#    y 0.044920 1.708670 0.038610 
#    z -0.000120 0.038610 1.624240 
# 
# From -- ./inp_files/277788.got.cif
#   From: 2010.05.17/outbox.cif.g08.bks.cpg/sg2_139_cif.got.tgz:277788.got - 2010.06.03 11:33:40.
