data_PCOD9100686
_publ_section_title
;
Structure prediction by ZEFSAII (Michael W. Deem and Ramdas Pophale) SiO2 
 PCOD9100686
Probable space group: P -1
;
_chemical_formula_sum "Si O2"
_cell_formula_units_Z 16
_cell_length_a 8.577519
_cell_length_b 9.200157
_cell_length_c 21.689826
_cell_angle_alpha 44.712109
_cell_angle_beta 141.294173
_cell_angle_gamma 137.322573
_cell_volume 686.639252
_symmetry_space_group_name_H-M "P -1"
_symmetry_group_IT_number 2
_symmetry_cell_setting 'triclinic'
loop_
_space_group_symop_operation_xyz
x,y,z
-x,-y,-z
loop_
_atom_site_type_symbol
_atom_site_label
_atom_site_fract_x
_atom_site_fract_y
_atom_site_fract_z
Si Si1 0.047292 0.048977 0.706953
Si Si2 0.314398 0.202578 0.905836
Si Si3 0.837537 0.294030 0.965415
Si Si4 0.478578 0.074082 0.346433
Si Si5 0.758818 0.792347 0.571982
Si Si6 0.220553 0.626595 0.755353
Si Si7 0.301120 0.529898 0.602886
Si Si8 0.779348 0.353044 0.105888
O O1 0.826172 0.065033 0.681179
O O2 0.911864 0.965767 0.622749
O O3 0.125169 0.849495 0.814790
O O4 0.282625 0.293488 0.694425
O O5 0.522023 0.228550 0.905441
O O6 0.170683 0.371452 0.800901
O O7 0.516153 0.299388 0.998173
O O8 0.133220 0.939389 0.942167
O O9 0.972898 0.409634 0.908195
O O10 0.000000 0.500000 0.000000
O O11 0.528134 0.197924 0.259217
O O12 0.592150 0.276764 0.370703
O O13 0.650385 0.921775 0.451002
O O14 0.499334 0.606372 0.582579
O O15 0.961900 0.684897 0.643820
O O16 0.277888 0.655975 0.836855
O O17 0.000000 0.500000 0.500000
#
# Coordination Sequence:
#
# PCOD9100686 Si02
#       8
#     2   2   2   2   2   2   2   2
#     4  10  20  37  65  91 114 158 215 260 305 354
#     4  10  21  41  66  90 121 161 207 259 302 361
#     4   9  20  40  68  88 115 154 212 261 304 350
#     4  11  21  38  62  88 125 164 204 260 309 363
#     4  10  21  39  61  87 123 164 201 258 313 364
#     4  11  24  39  58  92 133 170 200 244 320 379
#     4  11  19  38  67  88 116 157 218 263 303 354
#     4  10  22  39  61  90 126 165 204 250 306 369
#
# _framework density 23.301901000000001
#
# number of rings (size 3 to 8) (size 9 to 14) (size 15 to 20)
#    0.000    1.750    2.500    2.250    0.000    6.500 
#    0.000    9.375    0.000    0.000    0.000    0.000 
#    0.000    0.000    0.000    0.000    0.000    0.000 
#
# Total GULP energy -89546.750617 kJ/mol
# GULP energy per Si atom -5596.671914 kJ/mol
# Density = 2.324886 g / cm^3
# Si number density = 23.301901 Si / 1000 Ang^3
#
#
#
# Elastic Constant Matrix: (Units=GPa)
#
#
# Indices 1 2 3 4 5 6 
#
# 1 84.1260 27.7815 41.3125 -19.0041 -10.9052 9.8067
# 2 27.7815 103.6279 46.1472 -32.9815 -6.0926 19.3015
# 3 41.3125 46.1472 112.0057 -43.2341 3.9388 -5.8977
# 4 -19.0041 -32.9815 -43.2341 47.5526 -2.1644 -8.7655
# 5 -10.9052 -6.0926 3.9388 -2.1644 46.0391 -12.2508
# 6 9.8067 19.3015 -5.8977 -8.7655 -12.2508 26.3728
#
#
#
# Elastic Compliance Matrix: (Units=1/GPa)
#
#
# Indices 1 2 3 4 5 6 
#
# 1 0.016089 -0.000345 -0.006498 -0.000741 0.002635 -0.006206
# 2 -0.000345 0.015366 -0.005467 0.003425 -0.000457 -0.011414
# 3 -0.006498 -0.005467 0.020230 0.015090 0.001098 0.016467
# 4 -0.000741 0.003425 0.015090 0.040211 0.005406 0.017020
# 5 0.002635 -0.000457 0.001098 0.005406 0.026034 0.013490
# 6 -0.006206 -0.011414 0.016467 0.017020 0.013490 0.064185
#
#
# Mechanical properties :
#
#
# Convention : Reuss Voigt Hill
#
# Bulk Modulus (GPa) = 36.94553 58.91577 47.93065
# Shear Modulus (GPa) = 23.17425 36.29414 29.73419
#
# Velocity S-wave (km/s) = 3.15703 3.95088 3.57605
# Velocity P-wave (km/s) = 5.40173 6.79346 6.13717
#
# Compressibility (1/GPa) = 0.02706687
#
# Stress axis : x y z
#
# Youngs Moduli (GPa) = 62.15279 65.07972 49.43089
#
# Poissons Ratio (x) = 0.02244 0.32119
# Poissons Ratio (y) = 0.02143 0.27022
# Poissons Ratio (z) = 0.40385 0.35577
#
# Static dielectric constant tensor:
#      x y z
#    x 1.869660 -0.005380 0.003180 
#    y -0.005380 1.869960 0.027100 
#    z 0.003180 0.027100 1.913200 
# 
# From -- ./inp_files/480576.got.cif
#   From: 2010.05.17/outbox.cif.g08.bks.cpg/sg2_241_cif.got.tgz:480576.got - 2010.06.03 11:33:40.
