data_PCOD9100444
_publ_section_title
;
Structure prediction by ZEFSAII (Michael W. Deem and Ramdas Pophale) SiO2 
 PCOD9100444
Probable space group: P -1
;
_chemical_formula_sum "Si O2"
_cell_formula_units_Z 14
_cell_length_a 15.066321
_cell_length_b 9.281535
_cell_length_c 8.645467
_cell_angle_alpha 132.971559
_cell_angle_beta 64.928371
_cell_angle_gamma 131.302019
_cell_volume 663.790709
_symmetry_space_group_name_H-M "P -1"
_symmetry_group_IT_number 2
_symmetry_cell_setting 'triclinic'
loop_
_space_group_symop_operation_xyz
x,y,z
-x,-y,-z
loop_
_atom_site_type_symbol
_atom_site_label
_atom_site_fract_x
_atom_site_fract_y
_atom_site_fract_z
Si Si1 0.753005 0.040992 0.595171
Si Si2 0.873515 0.274732 0.377407
Si Si3 0.045221 0.943683 0.074982
Si Si4 0.294353 0.775870 0.769634
Si Si5 0.281281 0.196371 0.227806
Si Si6 0.484666 0.667339 0.514467
Si Si7 0.885877 0.503894 0.042707
O O1 0.827322 0.092487 0.421673
O O2 0.752423 0.891208 0.632265
O O3 0.615217 0.886064 0.535493
O O4 0.810001 0.303960 0.820604
O O5 0.906659 0.203697 0.142490
O O6 0.762969 0.280035 0.401200
O O7 0.000000 0.500000 0.500000
O O8 0.940480 0.769118 0.138448
O O9 0.162271 0.160357 0.223329
O O10 0.000000 0.000000 0.000000
O O11 0.411430 0.776425 0.701668
O O12 0.197575 0.569494 0.802708
O O13 0.312326 0.018694 0.999100
O O14 0.392963 0.462378 0.314632
O O15 0.500000 0.500000 0.500000
O O16 0.000000 0.500000 0.000000
#
# Coordination Sequence:
#
# PCOD9100444 Si02
#       7
#     2   2   2   2   2   2   2
#     4  10  20  37  64  88 122 162 211 255 302 379
#     4  11  21  37  61  92 120 159 212 254 318 378
#     4  11  23  37  58  94 128 157 204 268 319 368
#     4  10  22  39  66  87 123 176 206 257 322 369
#     4   9  21  41  61  87 132 159 210 257 312 377
#     4  10  23  40  61  94 125 163 220 261 304 377
#     4  11  18  40  64  89 122 169 210 253 323 385
#
# _framework density 21.090986999999998
#
# number of rings (size 3 to 8) (size 9 to 14) (size 15 to 20)
#    0.000    1.714    5.714    0.000    2.000    8.000 
#    0.000    4.286    0.000    0.000    0.000    0.000 
#    0.000    0.000    0.000    0.000    0.000    0.000 
#
# Total GULP energy -77944.500586 kJ/mol
# GULP energy per Si atom -5567.464328 kJ/mol
# Density = 2.104298 g / cm^3
# Si number density = 21.090987 Si / 1000 Ang^3
#
#
#
# Elastic Constant Matrix: (Units=GPa)
#
#
# Indices 1 2 3 4 5 6 
#
# 1 79.6523 66.5047 7.0853 6.9819 16.6462 4.4679
# 2 66.5047 102.3731 31.9989 10.5102 12.1589 30.4921
# 3 7.0853 31.9989 48.8162 8.7891 12.2692 5.3881
# 4 6.9819 10.5102 8.7891 30.4388 5.0071 10.5143
# 5 16.6462 12.1589 12.2692 5.0071 33.8550 8.6676
# 6 4.4679 30.4921 5.3881 10.5143 8.6676 36.5738
#
#
#
# Elastic Compliance Matrix: (Units=1/GPa)
#
#
# Indices 1 2 3 4 5 6 
#
# 1 0.088051 -0.086929 0.051856 -0.022257 -0.045839 0.071340
# 2 -0.086929 0.102236 -0.060985 0.023448 0.045976 -0.083269
# 3 0.051856 -0.060985 0.059780 -0.019465 -0.035082 0.049612
# 4 -0.022257 0.023448 -0.019465 0.043782 0.010538 -0.029046
# 5 -0.045839 0.045976 -0.035082 0.010538 0.058076 -0.044356
# 6 0.071340 -0.083269 0.049612 -0.029046 -0.044356 0.099603
#
#
# Mechanical properties :
#
#
# Convention : Reuss Voigt Hill
#
# Bulk Modulus (GPa) = 17.25588 49.11329 33.18458
# Shear Modulus (GPa) = 7.54194 28.52369 18.03282
#
# Velocity S-wave (km/s) = 1.89306 3.68150 2.92721
# Velocity P-wave (km/s) = 3.60245 6.43492 5.21468
#
# Compressibility (1/GPa) = 0.05795127
#
# Stress axis : x y z
#
# Youngs Moduli (GPa) = 11.35705 9.78131 16.72809
#
# Poissons Ratio (x) = 0.85028 -0.86745
# Poissons Ratio (y) = 0.98725 1.02016
# Poissons Ratio (z) = -0.58893 0.59651
#
# Static dielectric constant tensor:
#      x y z
#    x 1.988500 -0.020000 -0.013640 
#    y -0.020000 1.741070 0.055180 
#    z -0.013640 0.055180 1.845260 
# 
# From -- ./inp_files/180107.got.cif
#   From: 2010.05.17/outbox.cif.g08.bks.cpg/sg2_91_cif.got.tgz:180107.got - 2010.06.03 11:33:40.
