data_PCOD9100582
_publ_section_title
;
Structure prediction by ZEFSAII (Michael W. Deem and Ramdas Pophale) SiO2 
 PCOD9100582
Probable space group: P -1
;
_chemical_formula_sum "Si O2"
_cell_formula_units_Z 16
_cell_length_a 12.531341
_cell_length_b 18.279379
_cell_length_c 21.483766
_cell_angle_alpha 161.329603
_cell_angle_beta 140.842023
_cell_angle_gamma 29.583638
_cell_volume 740.286861
_symmetry_space_group_name_H-M "P -1"
_symmetry_group_IT_number 2
_symmetry_cell_setting 'triclinic'
loop_
_space_group_symop_operation_xyz
x,y,z
-x,-y,-z
loop_
_atom_site_type_symbol
_atom_site_label
_atom_site_fract_x
_atom_site_fract_y
_atom_site_fract_z
Si Si1 0.557863 0.106877 0.029537
Si Si2 0.241709 0.088692 0.580559
Si Si3 0.468663 0.844196 0.304162
Si Si4 0.762167 0.292747 0.827837
Si Si5 0.869451 0.704783 0.959650
Si Si6 0.091466 0.167157 0.287233
Si Si7 0.600157 0.056115 0.865546
Si Si8 0.597094 0.561298 0.409909
O O1 0.330931 0.160065 0.973212
O O2 0.489590 0.425503 0.276697
O O3 0.646573 0.043126 0.948239
O O4 0.742463 0.842025 0.946817
O O5 0.322385 0.262892 0.730438
O O6 0.042152 0.335158 0.735586
O O7 0.174250 0.976153 0.404894
O O8 0.457307 0.774628 0.458252
O O9 0.421571 0.647144 0.158034
O O10 0.500000 0.000000 0.500000
O O11 0.256160 0.043903 0.321590
O O12 0.635758 0.606756 0.985967
O O13 0.984499 0.202229 0.885097
O O14 0.000000 0.500000 0.500000
O O15 0.858337 0.252277 0.266126
O O16 0.222390 0.989851 0.139827
O O17 0.595037 0.789783 0.634987
#
# Coordination Sequence:
#
# PCOD9100582 Si02
#       8
#     2   2   2   2   2   2   2   2
#     4  11  27  46  69  96 130 175 227 280 337 385
#     4  11  22  43  68 100 135 171 222 268 335 394
#     4  10  21  37  64  98 137 173 210 266 328 396
#     4  11  23  42  67  99 135 177 219 270 330 401
#     4  11  26  48  67  97 131 171 230 282 329 397
#     4  10  20  37  64  95 135 173 213 267 324 395
#     4  11  23  42  67 100 134 174 224 267 330 401
#     4  11  22  44  67 100 137 171 220 275 323 400
#
# _framework density 21.613243000000001
#
# number of rings (size 3 to 8) (size 9 to 14) (size 15 to 20)
#    0.000    1.250    5.000    0.750    0.000   10.500 
#    0.000    2.500    0.000    0.000    0.000    0.000 
#    0.000    0.000    0.000    0.000    0.000    0.000 
#
# Total GULP energy -89239.036174 kJ/mol
# GULP energy per Si atom -5577.439761 kJ/mol
# Density = 2.156405 g / cm^3
# Si number density = 21.613243 Si / 1000 Ang^3
#
#
#
# Elastic Constant Matrix: (Units=GPa)
#
#
# Indices 1 2 3 4 5 6 
#
# 1 46.6749 45.7785 26.0785 -9.1536 3.6681 1.4698
# 2 45.7785 107.0824 42.4965 -19.1333 -13.9428 -9.4801
# 3 26.0785 42.4965 80.1706 -12.7974 2.8102 -7.9499
# 4 -9.1536 -19.1333 -12.7974 16.8299 0.7809 7.3391
# 5 3.6681 -13.9428 2.8102 0.7809 26.2898 -6.7496
# 6 1.4698 -9.4801 -7.9499 7.3391 -6.7496 36.5436
#
#
#
# Elastic Compliance Matrix: (Units=1/GPa)
#
#
# Indices 1 2 3 4 5 6 
#
# 1 0.048779 -0.022572 -0.003679 0.005074 -0.022054 -0.013710
# 2 -0.022572 0.025651 -0.004696 0.008805 0.019126 0.008305
# 3 -0.003679 -0.004696 0.017269 0.005588 -0.003766 0.000869
# 4 0.005074 0.008805 0.005588 0.082563 -0.002623 -0.013770
# 5 -0.022054 0.019126 -0.003766 -0.002623 0.055812 0.015865
# 6 -0.013710 0.008305 0.000869 -0.013770 0.015865 0.035955
#
#
# Mechanical properties :
#
#
# Convention : Reuss Voigt Hill
#
# Bulk Modulus (GPa) = 33.55093 51.40388 42.47741
# Shear Modulus (GPa) = 14.79917 23.90430 19.35174
#
# Velocity S-wave (km/s) = 2.61957 3.32927 2.99551
# Velocity P-wave (km/s) = 4.97057 6.21400 5.62674
#
# Compressibility (1/GPa) = 0.02980543
#
# Stress axis : x y z
#
# Youngs Moduli (GPa) = 20.50074 38.98538 57.90614
#
# Poissons Ratio (x) = 0.87998 0.21302
# Poissons Ratio (y) = 0.46275 0.27191
# Poissons Ratio (z) = 0.07542 0.18307
#
# Static dielectric constant tensor:
#      x y z
#    x 1.837040 -0.045140 -0.026740 
#    y -0.045140 1.815430 0.000360 
#    z -0.026740 0.000360 1.801660 
# 
# From -- ./inp_files/596067.got.cif
#   From: 2010.05.17/outbox.cif.g08.bks.cpg/sg2_299_cif.got.tgz:596067.got - 2010.06.03 11:33:40.
