data_PCOD9100829
_publ_section_title
;
Structure prediction by ZEFSAII (Michael W. Deem and Ramdas Pophale) SiO2 
 PCOD9100829
Probable space group: P -1
;
_chemical_formula_sum "Si O2"
_cell_formula_units_Z 16
_cell_length_a 9.530109
_cell_length_b 9.230790
_cell_length_c 15.446736
_cell_angle_alpha 77.860688
_cell_angle_beta 139.062429
_cell_angle_gamma 76.946657
_cell_volume 695.997728
_symmetry_space_group_name_H-M "P -1"
_symmetry_group_IT_number 2
_symmetry_cell_setting 'triclinic'
loop_
_space_group_symop_operation_xyz
x,y,z
-x,-y,-z
loop_
_atom_site_type_symbol
_atom_site_label
_atom_site_fract_x
_atom_site_fract_y
_atom_site_fract_z
Si Si1 0.660871 0.768408 0.206763
Si Si2 0.584442 0.479092 0.240317
Si Si3 0.836006 0.876949 0.424534
Si Si4 0.387910 0.603741 0.316215
Si Si5 0.568540 0.244161 0.138564
Si Si6 0.822878 0.832545 0.113367
Si Si7 0.543440 0.735386 0.522227
Si Si8 0.115874 0.134199 0.347707
O O1 0.690388 0.582920 0.230583
O O2 0.701704 0.795347 0.321987
O O3 0.862736 0.781168 0.239818
O O4 0.371806 0.947890 0.019553
O O5 0.412451 0.603294 0.225394
O O6 0.444957 0.425724 0.116197
O O7 0.848673 0.283151 0.420203
O O8 0.789434 0.911023 0.501092
O O9 0.723175 0.064232 0.296481
O O10 0.548660 0.660264 0.438578
O O11 0.471377 0.402372 0.406838
O O12 0.088540 0.742343 0.195229
O O13 0.803489 0.221252 0.193706
O O14 0.345743 0.239691 0.988554
O O15 0.797314 0.736778 0.656217
O O16 0.286843 0.946057 0.395142
#
# Coordination Sequence:
#
# PCOD9100829 Si02
#       8
#     2   2   2   2   2   2   2   2
#     4  10  23  40  62  89 120 163 214 244 294 366
#     4  11  22  38  63  95 118 157 208 256 303 348
#     4  10  20  37  66  89 123 156 204 257 300 354
#     4  11  24  39  61  89 126 162 196 255 304 360
#     4  10  22  40  64  88 127 161 204 243 304 368
#     4  10  25  42  60  87 126 171 199 242 305 366
#     4  10  23  37  61  91 128 153 202 251 311 356
#     4  10  20  39  61  95 118 159 200 256 304 352
#
# _framework density 22.988581
#
# number of rings (size 3 to 8) (size 9 to 14) (size 15 to 20)
#    0.000    1.750    0.000    4.125   12.250    1.500 
#    0.000    0.000    0.000    0.000    0.000    0.000 
#    0.000    0.000    0.000    0.000    0.000    0.000 
#
# Total GULP energy -89477.795439 kJ/mol
# GULP energy per Si atom -5592.362215 kJ/mol
# Density = 2.293626 g / cm^3
# Si number density = 22.988581 Si / 1000 Ang^3
#
#
#
# Elastic Constant Matrix: (Units=GPa)
#
#
# Indices 1 2 3 4 5 6 
#
# 1 58.4687 4.8705 5.6442 -6.4326 2.7294 -8.3326
# 2 4.8705 119.0803 12.4013 14.5671 4.0491 4.0349
# 3 5.6442 12.4013 35.2557 6.7686 -0.6243 2.7254
# 4 -6.4326 14.5671 6.7686 17.7259 -8.8025 13.3215
# 5 2.7294 4.0491 -0.6243 -8.8025 23.3091 7.4405
# 6 -8.3326 4.0349 2.7254 13.3215 7.4405 32.2064
#
#
#
# Elastic Compliance Matrix: (Units=1/GPa)
#
#
# Indices 1 2 3 4 5 6 
#
# 1 0.018809 -0.001507 -0.004316 0.009049 0.000891 0.001472
# 2 -0.001507 0.012541 0.000549 -0.032864 -0.019537 0.016100
# 3 -0.004316 0.000549 0.033636 -0.031063 -0.014288 0.012117
# 4 0.009049 -0.032864 -0.031063 0.288428 0.159698 -0.147109
# 5 0.000891 -0.019537 -0.014288 0.159698 0.135990 -0.093585
# 6 0.001472 0.016100 0.012117 -0.147109 -0.093585 0.110857
#
#
# Mechanical properties :
#
#
# Convention : Reuss Voigt Hill
#
# Bulk Modulus (GPa) = 18.36970 28.73740 23.55355
# Shear Modulus (GPa) = 7.94968 27.30753 17.62861
#
# Velocity S-wave (km/s) = 1.86161 3.45029 2.77220
# Velocity P-wave (km/s) = 3.55372 5.32922 4.52932
#
# Compressibility (1/GPa) = 0.05443748
#
# Stress axis : x y z
#
# Youngs Moduli (GPa) = 53.16596 79.73675 29.72995
#
# Poissons Ratio (x) = 0.12015 0.12832
# Poissons Ratio (y) = 0.08011 -0.01631
# Poissons Ratio (z) = 0.22948 -0.04376
#
# Static dielectric constant tensor:
#      x y z
#    x 1.845840 -0.001020 -0.001590 
#    y -0.001020 1.875920 0.030700 
#    z -0.001590 0.030700 1.872300 
# 
# From -- ./inp_files/226151.got.cif
#   From: 2010.05.17/outbox.cif.g08.bks.cpg/sg2_114_cif.got.tgz:226151.got - 2010.06.03 11:33:40.
