data_PCOD9100393
_publ_section_title
;
Structure prediction by ZEFSAII (Michael W. Deem and Ramdas Pophale) SiO2 
 PCOD9100393
Probable space group: P -1
;
_chemical_formula_sum "Si O2"
_cell_formula_units_Z 14
_cell_length_a 11.285366
_cell_length_b 9.136450
_cell_length_c 10.415905
_cell_angle_alpha 63.644909
_cell_angle_beta 57.492712
_cell_angle_gamma 40.952355
_cell_volume 592.215251
_symmetry_space_group_name_H-M "P -1"
_symmetry_group_IT_number 2
_symmetry_cell_setting 'triclinic'
loop_
_space_group_symop_operation_xyz
x,y,z
-x,-y,-z
loop_
_atom_site_type_symbol
_atom_site_label
_atom_site_fract_x
_atom_site_fract_y
_atom_site_fract_z
Si Si1 0.367212 0.988564 0.169505
Si Si2 0.056497 0.275616 0.598452
Si Si3 0.067777 0.952819 0.330397
Si Si4 0.492500 0.874267 0.413003
Si Si5 0.520354 0.740476 0.711542
Si Si6 0.178624 0.465463 0.153221
Si Si7 0.159143 0.793332 0.889588
O O1 0.202476 0.253873 0.199771
O O2 0.253868 0.919648 0.214041
O O3 0.488915 0.831600 0.283009
O O4 0.500000 0.000000 0.000000
O O5 0.000000 0.500000 0.500000
O O6 0.913810 0.250221 0.640246
O O7 0.023746 0.320402 0.751187
O O8 0.265368 0.060235 0.511470
O O9 0.000000 0.000000 0.500000
O O10 0.914699 0.133853 0.241832
O O11 0.590356 0.692695 0.539431
O O12 0.555110 0.012721 0.326663
O O13 0.663120 0.617301 0.797376
O O14 0.353685 0.740826 0.816526
O O15 0.202635 0.569785 0.982202
O O16 0.000000 0.000000 0.000000
#
# Coordination Sequence:
#
# PCOD9100393 Si02
#       7
#     2   2   2   2   2   2   2
#     4  11  25  44  66 100 145 182 223 285 355 405
#     4  12  20  42  69 105 127 177 235 285 333 414
#     4  12  24  44  71  96 141 182 220 285 351 409
#     4  10  20  39  67  95 132 175 228 279 344 400
#     4  10  20  37  63  98 129 170 223 289 325 398
#     4  11  24  42  69  99 135 176 236 283 339 409
#     4  12  24  40  68 103 133 176 236 282 348 409
#
# _framework density 23.640053999999999
#
# number of rings (size 3 to 8) (size 9 to 14) (size 15 to 20)
#    0.000    0.857    7.143    0.429    4.000    1.714 
#    0.000    1.429    0.000    3.429    0.000    0.000 
#    0.000    0.000    0.000    0.000    0.000    0.000 
#
# Total GULP energy -78123.815210 kJ/mol
# GULP energy per Si atom -5580.272515 kJ/mol
# Density = 2.358625 g / cm^3
# Si number density = 23.640054 Si / 1000 Ang^3
#
#
#
# Elastic Constant Matrix: (Units=GPa)
#
#
# Indices 1 2 3 4 5 6 
#
# 1 121.5509 21.3062 41.7468 -18.4630 -10.9591 -1.6121
# 2 21.3062 54.7425 31.5313 -19.9488 6.9913 -0.1086
# 3 41.7468 31.5313 115.2606 -23.7501 0.0731 -9.8448
# 4 -18.4630 -19.9488 -23.7501 50.2308 -2.9810 3.2874
# 5 -10.9591 6.9913 0.0731 -2.9810 50.5295 -16.4188
# 6 -1.6121 -0.1086 -9.8448 3.2874 -16.4188 37.5496
#
#
#
# Elastic Compliance Matrix: (Units=1/GPa)
#
#
# Indices 1 2 3 4 5 6 
#
# 1 0.010030 -0.002127 -0.002629 0.001714 0.002844 0.000829
# 2 -0.002127 0.025074 -0.005036 0.006773 -0.004839 -0.004048
# 3 -0.002629 -0.005036 0.011800 0.002474 0.001339 0.003335
# 4 0.001714 0.006773 0.002474 0.024504 0.000490 -0.001189
# 5 0.002844 -0.004839 0.001339 0.000490 0.024756 0.011241
# 6 0.000829 -0.004048 0.003335 -0.001189 0.011241 0.032549
#
#
# Mechanical properties :
#
#
# Convention : Reuss Voigt Hill
#
# Bulk Modulus (GPa) = 36.60292 53.41360 45.00826
# Shear Modulus (GPa) = 31.76524 40.79331 36.27928
#
# Velocity S-wave (km/s) = 3.66963 4.15854 3.92171
# Velocity P-wave (km/s) = 5.78550 6.76029 6.29180
#
# Compressibility (1/GPa) = 0.02732022
#
# Stress axis : x y z
#
# Youngs Moduli (GPa) = 99.69654 39.88203 84.74749
#
# Poissons Ratio (x) = 0.08482 0.22281
# Poissons Ratio (y) = 0.21202 0.42681
# Poissons Ratio (z) = 0.26211 0.20085
#
# Static dielectric constant tensor:
#      x y z
#    x 1.961540 -0.053220 0.013870 
#    y -0.053220 1.972790 0.061850 
#    z 0.013870 0.061850 2.039170 
# 
# From -- ./inp_files/419088.got.cif
#   From: 2010.05.17/outbox.cif.g08.bks.cpg/sg2_210_cif.got.tgz:419088.got - 2010.06.03 11:33:40.
