data_PCOD9100899
_publ_section_title
;
Structure prediction by ZEFSAII (Michael W. Deem and Ramdas Pophale) SiO2 
 PCOD9100899
Probable space group: P -1
;
_chemical_formula_sum "Si O2"
_cell_formula_units_Z 16
_cell_length_a 8.092941
_cell_length_b 11.696322
_cell_length_c 14.990970
_cell_angle_alpha 151.098591
_cell_angle_beta 90.152532
_cell_angle_gamma 81.263785
_cell_volume 652.149418
_symmetry_space_group_name_H-M "P -1"
_symmetry_group_IT_number 2
_symmetry_cell_setting 'triclinic'
loop_
_space_group_symop_operation_xyz
x,y,z
-x,-y,-z
loop_
_atom_site_type_symbol
_atom_site_label
_atom_site_fract_x
_atom_site_fract_y
_atom_site_fract_z
Si Si1 0.865899 0.877967 0.625056
Si Si2 0.312242 0.302972 0.031006
Si Si3 0.687475 0.847958 0.433499
Si Si4 0.748580 0.556073 0.525222
Si Si5 0.182293 0.812678 0.447754
Si Si6 0.291509 0.081484 0.062073
Si Si7 0.714466 0.277627 0.046085
Si Si8 0.635060 0.193114 0.385840
O O1 0.707059 0.928749 0.589850
O O2 0.877903 0.620675 0.500105
O O3 0.026340 0.851438 0.542653
O O4 0.829035 0.094143 0.846089
O O5 0.208962 0.592925 0.226014
O O6 0.234933 0.202666 0.049507
O O7 0.515449 0.281893 0.029678
O O8 0.310031 0.104800 0.820182
O O9 0.725275 0.553435 0.229598
O O10 0.500000 0.000000 0.500000
O O11 0.816624 0.941259 0.435034
O O12 0.752932 0.717069 0.722604
O O13 0.752815 0.290602 0.382387
O O14 0.558324 0.680665 0.565373
O O15 0.344543 0.723182 0.456687
O O16 0.500000 0.000000 0.000000
O O17 0.240119 0.848631 0.942009
#
# Coordination Sequence:
#
# PCOD9100899 Si02
#       8
#     2   2   2   2   2   2   2   2
#     4  11  26  46  65  97 138 172 209 278 337 379
#     4  11  21  39  66 101 133 170 216 273 315 389
#     4  12  26  44  74  95 124 175 231 269 314 396
#     4  10  20  37  66  97 129 170 222 268 317 385
#     4  12  27  44  63  99 139 172 214 270 335 386
#     4   9  16  34  61  97 130 161 209 273 316 366
#     4  10  23  41  68  99 128 169 224 270 319 386
#     4  11  22  37  68  98 128 174 221 262 322 384
#
# _framework density 24.534257
#
# number of rings (size 3 to 8) (size 9 to 14) (size 15 to 20)
#    0.000    1.250    6.250    1.125    1.750    3.500 
#    0.000    0.625    0.000    0.000    0.000    0.000 
#    0.000    0.000    0.000    0.000    0.000    0.000 
#
# Total GULP energy -89553.266175 kJ/mol
# GULP energy per Si atom -5597.079136 kJ/mol
# Density = 2.447842 g / cm^3
# Si number density = 24.534257 Si / 1000 Ang^3
#
#
#
# Elastic Constant Matrix: (Units=GPa)
#
#
# Indices 1 2 3 4 5 6 
#
# 1 52.5594 29.2604 33.9620 8.3840 -14.9374 24.1872
# 2 29.2604 109.6255 31.8883 17.1364 9.0986 32.4092
# 3 33.9620 31.8883 114.0199 24.4087 8.0676 16.8267
# 4 8.3840 17.1364 24.4087 43.6196 12.2464 9.1082
# 5 -14.9374 9.0986 8.0676 12.2464 29.2937 2.4315
# 6 24.1872 32.4092 16.8267 9.1082 2.4315 56.0939
#
#
#
# Elastic Compliance Matrix: (Units=1/GPa)
#
#
# Indices 1 2 3 4 5 6 
#
# 1 0.046105 -0.007027 -0.010765 -0.006482 0.032441 -0.012944
# 2 -0.007027 0.012940 -0.000284 -0.000830 -0.006851 -0.003930
# 3 -0.010765 -0.000284 0.013054 -0.003315 -0.007757 0.001764
# 4 -0.006482 -0.000830 -0.003315 0.030545 -0.014901 -0.000045
# 5 0.032441 -0.006851 -0.007757 -0.014901 0.061834 -0.007964
# 6 -0.012944 -0.003930 0.001764 -0.000045 -0.007964 0.025502
#
#
# Mechanical properties :
#
#
# Convention : Reuss Voigt Hill
#
# Bulk Modulus (GPa) = 27.81768 51.82512 39.82140
# Shear Modulus (GPa) = 20.99829 37.87437 29.43633
#
# Velocity S-wave (km/s) = 2.92871 3.93330 3.46758
# Velocity P-wave (km/s) = 4.77487 6.46508 5.68316
#
# Compressibility (1/GPa) = 0.03594836
#
# Stress axis : x y z
#
# Youngs Moduli (GPa) = 21.68975 77.27872 76.60311
#
# Poissons Ratio (x) = 0.54304 0.82463
# Poissons Ratio (y) = 0.15241 0.02172
# Poissons Ratio (z) = 0.23349 0.02191
#
# Static dielectric constant tensor:
#      x y z
#    x 2.106330 0.001110 0.035370 
#    y 0.001110 1.962580 0.027430 
#    z 0.035370 0.027430 1.891140 
# 
# From -- ./inp_files/501139.got.cif
#   From: 2010.05.17/outbox.cif.g08.bks.cpg/sg2_251_cif.got.tgz:501139.got - 2010.06.03 11:33:40.
