data_PCOD9100629
_publ_section_title
;
Structure prediction by ZEFSAII (Michael W. Deem and Ramdas Pophale) SiO2 
 PCOD9100629
Probable space group: P -1
;
_chemical_formula_sum "Si O2"
_cell_formula_units_Z 16
_cell_length_a 14.804434
_cell_length_b 17.220668
_cell_length_c 19.308145
_cell_angle_alpha 21.041855
_cell_angle_beta 21.584767
_cell_angle_gamma 35.138285
_cell_volume 601.597166
_symmetry_space_group_name_H-M "P -1"
_symmetry_group_IT_number 2
_symmetry_cell_setting 'triclinic'
loop_
_space_group_symop_operation_xyz
x,y,z
-x,-y,-z
loop_
_atom_site_type_symbol
_atom_site_label
_atom_site_fract_x
_atom_site_fract_y
_atom_site_fract_z
Si Si1 0.103122 0.829251 0.109468
Si Si2 0.170934 0.630919 0.876038
Si Si3 0.804326 0.866404 0.926661
Si Si4 0.217691 0.628876 0.511771
Si Si5 0.816266 0.464306 0.820298
Si Si6 0.517782 0.562747 0.788945
Si Si7 0.725648 0.787471 0.860023
Si Si8 0.241794 0.931959 0.076281
O O1 0.823735 0.627310 0.500937
O O2 0.242795 0.721093 0.044588
O O3 0.257254 0.954116 0.964337
O O4 0.000000 0.000000 0.000000
O O5 0.062022 0.811834 0.769860
O O6 0.918742 0.466688 0.238104
O O7 0.254391 0.447932 0.925040
O O8 0.407220 0.727559 0.683923
O O9 0.527960 0.686706 0.244337
O O10 0.818036 0.122656 0.681244
O O11 0.771869 0.864167 0.035410
O O12 0.046019 0.457819 0.715856
O O13 0.423126 0.564306 0.933127
O O14 0.968276 0.717429 0.467662
O O15 0.356159 0.314356 0.074773
O O16 0.486007 0.866991 0.983137
O O17 0.000000 0.000000 0.500000
#
# Coordination Sequence:
#
# PCOD9100629 Si02
#       8
#     2   2   2   2   2   2   2   2
#     4  12  27  47  68 104 149 194 249 306 360 443
#     4   9  19  38  64  95 141 180 234 295 353 431
#     4  10  20  37  65 104 137 186 247 288 361 446
#     4   9  19  35  64 101 138 182 238 294 359 436
#     4  10  21  44  71 100 141 190 240 306 365 435
#     4   9  23  44  71 103 141 188 242 303 366 432
#     4  10  21  42  70 105 149 187 237 306 368 443
#     4  11  24  43  74 104 144 196 244 301 375 432
#
# _framework density 26.595872
#
# number of rings (size 3 to 8) (size 9 to 14) (size 15 to 20)
#    0.750    1.250    1.250    1.500    3.500    1.000 
#    2.250    0.000    0.000    9.000    0.000    0.000 
#    0.000    0.000    0.000    0.000    0.000    0.000 
#
# Total GULP energy -89490.440558 kJ/mol
# GULP energy per Si atom -5593.152535 kJ/mol
# Density = 2.653534 g / cm^3
# Si number density = 26.595872 Si / 1000 Ang^3
#
#
#
# Elastic Constant Matrix: (Units=GPa)
#
#
# Indices 1 2 3 4 5 6 
#
# 1 148.4270 42.5761 28.8433 -5.5626 -21.1483 21.8562
# 2 42.5761 175.8837 44.2168 21.7363 -6.2359 0.5725
# 3 28.8433 44.2168 96.5493 17.8580 -11.1175 6.8550
# 4 -5.5626 21.7363 17.8580 40.3692 -3.4555 -2.3738
# 5 -21.1483 -6.2359 -11.1175 -3.4555 32.7773 2.2941
# 6 21.8562 0.5725 6.8550 -2.3738 2.2941 49.2156
#
#
#
# Elastic Compliance Matrix: (Units=1/GPa)
#
#
# Indices 1 2 3 4 5 6 
#
# 1 0.009100 -0.002023 -0.001468 0.003242 0.005604 -0.003918
# 2 -0.002023 0.007088 -0.002266 -0.003129 -0.001128 0.001033
# 3 -0.001468 -0.002266 0.013107 -0.004638 0.002683 -0.001496
# 4 0.003242 -0.003129 -0.004638 0.029239 0.002970 0.000515
# 5 0.005604 -0.001128 0.002683 0.002970 0.035439 -0.004358
# 6 -0.003918 0.001033 -0.001496 0.000515 -0.004358 0.022483
#
#
# Mechanical properties :
#
#
# Convention : Reuss Voigt Hill
#
# Bulk Modulus (GPa) = 56.24239 72.45916 64.35077
# Shear Modulus (GPa) = 37.34197 44.82068 41.08133
#
# Velocity S-wave (km/s) = 3.75113 4.10963 3.93447
# Velocity P-wave (km/s) = 6.32094 7.05850 6.69988
#
# Compressibility (1/GPa) = 0.01778018
#
# Stress axis : x y z
#
# Youngs Moduli (GPa) = 109.89173 141.07682 76.29470
#
# Poissons Ratio (x) = 0.28538 0.11201
# Poissons Ratio (y) = 0.22230 0.17292
# Poissons Ratio (z) = 0.16134 0.31975
#
# Static dielectric constant tensor:
#      x y z
#    x 2.179870 -0.072590 0.021520 
#    y -0.072590 2.100630 -0.025370 
#    z 0.021520 -0.025370 2.056100 
# 
# From -- ./inp_files/612240.got.cif
#   From: 2010.05.17/outbox.cif.g08.bks.cpg/sg2_307_cif.got.tgz:612240.got - 2010.06.03 11:33:40.
