data_PCOD9100836
_publ_section_title
;
Structure prediction by ZEFSAII (Michael W. Deem and Ramdas Pophale) SiO2 
 PCOD9100836
Probable space group: P -1
;
_chemical_formula_sum "Si O2"
_cell_formula_units_Z 12
_cell_length_a 5.329390
_cell_length_b 8.497817
_cell_length_c 17.077257
_cell_angle_alpha 132.132533
_cell_angle_beta 127.232291
_cell_angle_gamma 58.124102
_cell_volume 446.768075
_symmetry_space_group_name_H-M "P -1"
_symmetry_group_IT_number 2
_symmetry_cell_setting 'triclinic'
loop_
_space_group_symop_operation_xyz
x,y,z
-x,-y,-z
loop_
_atom_site_type_symbol
_atom_site_label
_atom_site_fract_x
_atom_site_fract_y
_atom_site_fract_z
Si Si1 0.528288 0.626456 0.741859
Si Si2 0.180506 0.077527 0.658167
Si Si3 0.520091 0.241601 0.917856
Si Si4 0.839871 0.716045 0.992041
Si Si5 0.138815 0.288882 0.557239
Si Si6 0.199632 0.270426 0.337255
O O1 0.457054 0.384467 0.637302
O O2 0.162855 0.764987 0.730944
O O3 0.704681 0.698936 0.724766
O O4 0.717285 0.644504 0.862994
O O5 0.266332 0.186008 0.789736
O O6 0.111368 0.243552 0.629259
O O7 0.921541 0.925481 0.566671
O O8 0.509790 0.911022 0.638331
O O9 0.446448 0.171543 0.967422
O O10 0.500000 0.500000 0.000000
O O11 0.118974 0.847821 0.073777
O O12 0.000000 0.500000 0.000000
O O13 0.849931 0.493367 0.551362
#
# Coordination Sequence:
#
# PCOD9100836 Si02
#       6
#     2   2   2   2   2   2
#     4  10  22  44  69  97 137 178 213 280 341 382
#     4  11  22  46  69 105 129 183 222 273 338 395
#     4  10  22  38  64  94 129 173 216 274 320 388
#     4  10  20  37  66  90 127 175 218 267 324 387
#     4   9  23  44  72  99 137 173 224 275 333 405
#     4  10  24  44  67 103 139 168 221 280 332 399
#
# _framework density 26.859570999999999
#
# number of rings (size 3 to 8) (size 9 to 14) (size 15 to 20)
#    1.000    1.000    0.000    3.500    4.667    2.000 
#    6.000    6.667    0.000    0.000    0.000    0.000 
#    0.000    0.000    0.000    0.000    0.000    0.000 
#
# Total GULP energy -67234.366999 kJ/mol
# GULP energy per Si atom -5602.863917 kJ/mol
# Density = 2.679844 g / cm^3
# Si number density = 26.859571 Si / 1000 Ang^3
#
#
#
# Elastic Constant Matrix: (Units=GPa)
#
#
# Indices 1 2 3 4 5 6 
#
# 1 180.0928 28.8731 51.5524 -4.9897 -14.3745 34.5141
# 2 28.8731 86.2394 36.2221 7.1746 -3.7503 -6.7411
# 3 51.5524 36.2221 180.3209 -8.4066 13.8364 36.1298
# 4 -4.9897 7.1746 -8.4066 49.0689 8.4068 -8.3390
# 5 -14.3745 -3.7503 13.8364 8.4068 37.5274 -1.3339
# 6 34.5141 -6.7411 36.1298 -8.3390 -1.3339 38.1254
#
#
#
# Elastic Compliance Matrix: (Units=1/GPa)
#
#
# Indices 1 2 3 4 5 6 
#
# 1 0.007675 -0.002758 -0.000468 -0.000554 0.002711 -0.007018
# 2 -0.002758 0.015414 -0.004454 -0.002265 0.002955 0.009050
# 3 -0.000468 -0.004454 0.008668 0.001417 -0.004437 -0.008424
# 4 -0.000554 -0.002265 0.001417 0.022494 -0.005877 0.003472
# 5 0.002711 0.002955 -0.004437 -0.005877 0.031007 0.002073
# 6 -0.007018 0.009050 -0.008424 0.003472 0.002073 0.042998
#
#
# Mechanical properties :
#
#
# Convention : Reuss Voigt Hill
#
# Bulk Modulus (GPa) = 60.97963 75.54980 68.26471
# Shear Modulus (GPa) = 33.53877 46.94468 40.24173
#
# Velocity S-wave (km/s) = 3.53749 4.18518 3.87489
# Velocity P-wave (km/s) = 6.27993 7.17935 6.74465
#
# Compressibility (1/GPa) = 0.01639892
#
# Stress axis : x y z
#
# Youngs Moduli (GPa) = 130.29582 64.87643 115.36086
#
# Poissons Ratio (x) = 0.17891 0.05397
# Poissons Ratio (y) = 0.35931 0.51377
# Poissons Ratio (z) = 0.06096 0.28893
#
# Static dielectric constant tensor:
#      x y z
#    x 2.279470 -0.160170 -0.055490 
#    y -0.160170 2.166010 0.085230 
#    z -0.055490 0.085230 2.080920 
# 
# From -- ./inp_files/375803.got.cif
#   From: 2010.05.17/outbox.cif.g08.bks.cpg/sg2_188_cif.got.tgz:375803.got - 2010.06.03 11:33:40.
