data_PCOD9100813
_publ_section_title
;
Structure prediction by ZEFSAII (Michael W. Deem and Ramdas Pophale) SiO2 
 PCOD9100813
Probable space group: P -1
;
_chemical_formula_sum "Si O2"
_cell_formula_units_Z 16
_cell_length_a 9.713613
_cell_length_b 13.504794
_cell_length_c 19.299835
_cell_angle_alpha 155.775507
_cell_angle_beta 83.624890
_cell_angle_gamma 80.703965
_cell_volume 789.403833
_symmetry_space_group_name_H-M "P -1"
_symmetry_group_IT_number 2
_symmetry_cell_setting 'triclinic'
loop_
_space_group_symop_operation_xyz
x,y,z
-x,-y,-z
loop_
_atom_site_type_symbol
_atom_site_label
_atom_site_fract_x
_atom_site_fract_y
_atom_site_fract_z
Si Si1 0.590791 0.333214 0.055861
Si Si2 0.289458 0.749652 0.152514
Si Si3 0.515168 0.271330 0.565095
Si Si4 0.191029 0.346518 0.925234
Si Si5 0.108585 0.316558 0.306794
Si Si6 0.445719 0.994433 0.805833
Si Si7 0.229546 0.367367 0.554729
Si Si8 0.584261 0.694286 0.752508
O O1 0.708787 0.276042 0.947003
O O2 0.489053 0.657902 0.308901
O O3 0.457481 0.265542 0.997701
O O4 0.730745 0.047376 0.917489
O O5 0.192691 0.632358 0.116364
O O6 0.500000 0.500000 0.000000
O O7 0.224253 0.087340 0.391349
O O8 0.315705 0.413493 0.642536
O O9 0.568643 0.455821 0.638588
O O10 0.654085 0.910430 0.302107
O O11 0.267907 0.148863 0.867363
O O12 0.000000 0.500000 0.000000
O O13 0.209403 0.448712 0.362033
O O14 0.000000 0.500000 0.500000
O O15 0.969153 0.357779 0.286990
O O16 0.621572 0.762572 0.598214
O O17 0.480949 0.812940 0.759488
O O18 0.500000 0.000000 0.000000
#
# Coordination Sequence:
#
# PCOD9100813 Si02
#       8
#     2   2   2   2   2   2   2   2
#     4  10  20  37  66  86 120 158 202 249 308 364
#     4  11  19  41  64  80 111 171 203 240 304 361
#     4  11  23  40  60  93 126 154 203 261 312 359
#     4  11  25  41  60  90 121 157 217 259 290 366
#     4  11  19  38  63  92 118 160 211 240 294 385
#     4   9  18  40  61  83 124 160 199 242 311 364
#     4  10  21  37  61  91 121 157 207 251 297 362
#     4  11  21  38  64  92 124 166 190 250 330 364
#
# _framework density 20.268460000000001
#
# number of rings (size 3 to 8) (size 9 to 14) (size 15 to 20)
#    0.000    1.500   10.000    0.000    1.750    3.000 
#    2.250    0.625    0.000    0.000    0.000    0.000 
#    0.000    0.000    0.000    0.000    0.000    0.000 
#
# Total GULP energy -89238.683096 kJ/mol
# GULP energy per Si atom -5577.417694 kJ/mol
# Density = 2.022233 g / cm^3
# Si number density = 20.268460 Si / 1000 Ang^3
#
#
#
# Elastic Constant Matrix: (Units=GPa)
#
#
# Indices 1 2 3 4 5 6 
#
# 1 104.6787 23.3565 0.3310 9.3905 -9.7340 -23.6921
# 2 23.3565 37.2691 -5.7189 7.1863 -3.0035 -13.1245
# 3 0.3310 -5.7189 40.9193 -7.7821 7.2880 -1.8722
# 4 9.3905 7.1863 -7.7821 30.7058 -5.7146 1.2552
# 5 -9.7340 -3.0035 7.2880 -5.7146 23.0498 10.5550
# 6 -23.6921 -13.1245 -1.8722 1.2552 10.5550 43.6848
#
#
#
# Elastic Compliance Matrix: (Units=1/GPa)
#
#
# Indices 1 2 3 4 5 6 
#
# 1 0.012269 -0.005706 -0.001594 -0.002573 0.002293 0.004391
# 2 -0.005706 0.035262 0.005080 -0.006573 -0.005252 0.009175
# 3 -0.001594 0.005080 0.027894 0.004418 -0.009589 0.004047
# 4 -0.002573 -0.006573 0.004418 0.037955 0.009024 -0.006452
# 5 0.002293 -0.005252 -0.009589 0.009024 0.055543 -0.014425
# 6 0.004391 0.009175 0.004047 -0.006452 -0.014425 0.031874
#
#
# Mechanical properties :
#
#
# Convention : Reuss Voigt Hill
#
# Bulk Modulus (GPa) = 14.08732 24.31160 19.19946
# Shear Modulus (GPa) = 21.84357 30.48132 26.16244
#
# Velocity S-wave (km/s) = 3.28641 3.88220 3.59666
# Velocity P-wave (km/s) = 4.62235 5.66711 5.17118
#
# Compressibility (1/GPa) = 0.07098582
#
# Stress axis : x y z
#
# Youngs Moduli (GPa) = 81.50438 28.35876 35.84941
#
# Poissons Ratio (x) = 0.16182 0.05713
# Poissons Ratio (y) = 0.46508 -0.18210
# Poissons Ratio (z) = 0.12989 -0.14405
#
# Static dielectric constant tensor:
#      x y z
#    x 1.730140 0.003620 0.005610 
#    y 0.003620 1.806000 -0.008580 
#    z 0.005610 -0.008580 1.735110 
# 
# From -- ./inp_files/351652.got.cif
#   From: 2010.05.17/outbox.cif.g08.bks.cpg/sg2_176_cif.got.tgz:351652.got - 2010.06.03 11:33:40.
