data_PCOD9100077
_publ_section_title
;
Structure prediction by ZEFSAII (Michael W. Deem and Ramdas Pophale) SiO2 
 PCOD9100077
Probable space group: P -1
;
_chemical_formula_sum "Si O2"
_cell_formula_units_Z 16
_cell_length_a 17.773105
_cell_length_b 9.549853
_cell_length_c 5.002952
_cell_angle_alpha 133.542520
_cell_angle_beta 77.352081
_cell_angle_gamma 84.428680
_cell_volume 562.476892
_symmetry_space_group_name_H-M "P -1"
_symmetry_group_IT_number 2
_symmetry_cell_setting 'triclinic'
loop_
_space_group_symop_operation_xyz
x,y,z
-x,-y,-z
loop_
_atom_site_type_symbol
_atom_site_label
_atom_site_fract_x
_atom_site_fract_y
_atom_site_fract_z
Si Si1 0.306304 0.936711 0.908154
Si Si2 0.084810 0.297459 0.688788
Si Si3 0.365805 0.549111 0.985232
Si Si4 0.619683 0.796680 0.039979
Si Si5 0.457339 0.792355 0.002484
Si Si6 0.858281 0.420809 0.670080
Si Si7 0.966369 0.836088 0.943933
Si Si8 0.218123 0.703351 0.949109
O O1 0.314289 0.770009 0.452406
O O2 0.304007 0.155266 0.087034
O O3 0.393372 0.848385 0.883502
O O4 0.236593 0.907371 0.114350
O O5 0.192484 0.604826 0.579067
O O6 0.099291 0.201024 0.256520
O O7 0.000000 0.500000 0.000000
O O8 0.061820 0.144771 0.706450
O O9 0.447869 0.591079 0.886630
O O10 0.306532 0.549781 0.785198
O O11 0.371574 0.374156 0.964357
O O12 0.550638 0.777015 0.860923
O O13 0.577876 0.014380 0.515908
O O14 0.949017 0.358757 0.395825
O O15 0.843648 0.278487 0.732794
O O16 0.848657 0.627025 0.115038
O O17 0.000000 0.000000 0.000000
#
# Coordination Sequence:
#
# PCOD9100077 Si02
#       8
#     2   2   2   2   2   2   2   2
#     4  10  21  38  60  87 128 167 212 271 320 382
#     4  10  20  38  65  97 122 163 207 247 312 372
#     4  10  21  38  61  89 126 167 218 268 316 383
#     4  10  20  37  62  93 122 165 213 273 329 386
#     4   9  20  36  60  92 129 158 211 268 345 383
#     4  11  21  40  70  88 125 174 211 251 306 383
#     4  11  22  39  67 101 134 156 198 269 323 357
#     4  11  22  40  63  88 121 177 219 251 316 375
#
# _framework density 28.445611
#
# number of rings (size 3 to 8) (size 9 to 14) (size 15 to 20)
#    0.000    1.750    1.250    4.875    0.000    2.500 
#    0.000    1.250   16.500    0.000    0.000    0.000 
#    0.000    0.000    0.000    0.000    0.000    0.000 
#
# Total GULP energy -89646.377106 kJ/mol
# GULP energy per Si atom -5602.898569 kJ/mol
# Density = 2.838087 g / cm^3
# Si number density = 28.445611 Si / 1000 Ang^3
#
#
#
# Elastic Constant Matrix: (Units=GPa)
#
#
# Indices 1 2 3 4 5 6 
#
# 1 139.7518 60.4753 47.0751 -8.9349 31.2473 16.1338
# 2 60.4753 250.3312 46.2275 0.4102 20.5551 36.2964
# 3 47.0751 46.2275 82.7231 -10.2013 32.5207 -0.4345
# 4 -8.9349 0.4102 -10.2013 55.9079 6.1889 3.6682
# 5 31.2473 20.5551 32.5207 6.1889 71.9577 -13.5948
# 6 16.1338 36.2964 -0.4345 3.6682 -13.5948 48.4862
#
#
#
# Elastic Compliance Matrix: (Units=1/GPa)
#
#
# Indices 1 2 3 4 5 6 
#
# 1 0.010082 -0.000938 -0.003770 0.001532 -0.003239 -0.003711
# 2 -0.000938 0.005238 -0.002111 -0.000228 -0.000842 -0.003847
# 3 -0.003770 -0.002111 0.018225 0.003344 -0.006088 0.001038
# 4 0.001532 -0.000228 0.003344 0.019421 -0.004348 -0.002998
# 5 -0.003239 -0.000842 -0.006088 -0.004348 0.020109 0.007621
# 6 -0.003711 -0.003847 0.001038 -0.002998 0.007621 0.027112
#
#
# Mechanical properties :
#
#
# Convention : Reuss Voigt Hill
#
# Bulk Modulus (GPa) = 50.23348 86.70688 68.47018
# Shear Modulus (GPa) = 41.50689 56.53892 49.02290
#
# Velocity S-wave (km/s) = 3.82405 4.46310 4.15588
# Velocity P-wave (km/s) = 6.09882 7.55691 6.86668
#
# Compressibility (1/GPa) = 0.01990704
#
# Stress axis : x y z
#
# Youngs Moduli (GPa) = 99.18678 190.89643 54.87020
#
# Poissons Ratio (x) = 0.17904 0.20689
# Poissons Ratio (y) = 0.09303 0.11582
# Poissons Ratio (z) = 0.37398 0.40293
#
# Static dielectric constant tensor:
#      x y z
#    x 2.293690 -0.050480 -0.119660 
#    y -0.050480 2.201750 0.066230 
#    z -0.119660 0.066230 2.358600 
# 
# From -- ./inp_files/115741.got.cif
#   From: 2010.05.17/outbox.cif.g08.bks.cpg/sg2_58_cif.got.tgz:115741.got - 2010.06.03 11:33:40.
