data_PCOD9100496
_publ_section_title
;
Structure prediction by ZEFSAII (Michael W. Deem and Ramdas Pophale) SiO2 
 PCOD9100496
Probable space group: P -1
;
_chemical_formula_sum "Si O2"
_cell_formula_units_Z 16
_cell_length_a 8.696696
_cell_length_b 10.322918
_cell_length_c 21.661879
_cell_angle_alpha 148.671059
_cell_angle_beta 56.403442
_cell_angle_gamma 137.635320
_cell_volume 664.349488
_symmetry_space_group_name_H-M "P -1"
_symmetry_group_IT_number 2
_symmetry_cell_setting 'triclinic'
loop_
_space_group_symop_operation_xyz
x,y,z
-x,-y,-z
loop_
_atom_site_type_symbol
_atom_site_label
_atom_site_fract_x
_atom_site_fract_y
_atom_site_fract_z
Si Si1 0.278743 0.821251 0.654819
Si Si2 0.162835 0.692522 0.262370
Si Si3 0.103685 0.159204 0.443977
Si Si4 0.730053 0.038546 0.771298
Si Si5 0.981796 0.879269 0.140890
Si Si6 0.505258 0.295944 0.969929
Si Si7 0.364524 0.055983 0.602518
Si Si8 0.256005 0.305007 0.146176
O O1 0.185260 0.502315 0.580546
O O2 0.553625 0.090825 0.714608
O O3 0.129694 0.938867 0.752710
O O4 0.265823 0.795784 0.572682
O O5 0.107897 0.657128 0.187172
O O6 0.091603 0.398479 0.198400
O O7 0.102460 0.919233 0.391710
O O8 0.288339 0.215817 0.373162
O O9 0.848692 0.979123 0.396881
O O10 0.504059 0.014819 0.829475
O O11 0.863300 0.058305 0.809750
O O12 0.761911 0.518901 0.034769
O O13 0.130504 0.013928 0.100901
O O14 0.500000 0.500000 0.000000
O O15 0.336434 0.238317 0.038635
O O16 0.535850 0.393094 0.736827
O O17 0.500000 0.000000 0.500000
#
# Coordination Sequence:
#
# PCOD9100496 Si02
#       8
#     2   2   2   2   2   2   2   2
#     4  11  19  39  63  93 131 176 216 267 335 391
#     4   9  20  41  62  93 134 171 216 271 325 385
#     4  10  20  37  64  91 124 174 221 258 326 389
#     4  10  22  39  68  93 127 178 214 272 328 377
#     4  12  24  41  70  98 127 173 223 272 327 396
#     4  12  22  47  70  91 138 176 215 277 332 382
#     4  11  22  37  62  96 134 172 212 273 327 389
#     4  11  24  43  66 100 132 172 227 263 333 395
#
# _framework density 24.08371
#
# number of rings (size 3 to 8) (size 9 to 14) (size 15 to 20)
#    0.750    0.500    5.000    1.875    1.750    1.000 
#    0.000    9.375    0.000    0.000    0.000    0.000 
#    0.000    0.000    0.000    0.000    0.000    0.000 
#
# Total GULP energy -89364.305804 kJ/mol
# GULP energy per Si atom -5585.269113 kJ/mol
# Density = 2.402889 g / cm^3
# Si number density = 24.083710 Si / 1000 Ang^3
#
#
#
# Elastic Constant Matrix: (Units=GPa)
#
#
# Indices 1 2 3 4 5 6 
#
# 1 106.8056 13.1859 18.7398 -4.5849 -13.5168 6.3298
# 2 13.1859 54.6647 13.6639 -18.4144 10.7041 -1.6799
# 3 18.7398 13.6639 109.0462 -18.5240 -16.0708 20.6361
# 4 -4.5849 -18.4144 -18.5240 41.1282 0.1499 -5.8218
# 5 -13.5168 10.7041 -16.0708 0.1499 30.9018 -15.2632
# 6 6.3298 -1.6799 20.6361 -5.8218 -15.2632 25.1907
#
#
#
# Elastic Compliance Matrix: (Units=1/GPa)
#
#
# Indices 1 2 3 4 5 6 
#
# 1 0.010648 -0.003776 -0.000815 -0.000704 0.006206 0.001338
# 2 -0.003776 0.025513 -0.002604 0.009843 -0.011995 -0.000209
# 3 -0.000815 -0.002604 0.011991 0.003128 0.003264 -0.007091
# 4 -0.000704 0.009843 0.003128 0.030867 0.000612 0.005775
# 5 0.006206 -0.011995 0.003264 0.000612 0.054955 0.028406
# 6 0.001338 -0.000209 -0.007091 0.005775 0.028406 0.063702
#
#
# Mechanical properties :
#
#
# Convention : Reuss Voigt Hill
#
# Bulk Modulus (GPa) = 29.61846 40.18843 34.90345
# Shear Modulus (GPa) = 22.38939 34.43927 28.41433
#
# Velocity S-wave (km/s) = 3.05232 3.78561 3.43857
# Velocity P-wave (km/s) = 4.97464 5.98590 5.50355
#
# Compressibility (1/GPa) = 0.03376273
#
# Stress axis : x y z
#
# Youngs Moduli (GPa) = 93.91598 39.19543 83.39467
#
# Poissons Ratio (x) = 0.14800 0.06795
# Poissons Ratio (y) = 0.35462 0.21716
# Poissons Ratio (z) = 0.07653 0.10206
#
# Static dielectric constant tensor:
#      x y z
#    x 1.944620 -0.015150 -0.001990 
#    y -0.015150 1.939980 0.010170 
#    z -0.001990 0.010170 1.992640 
# 
# From -- ./inp_files/607658.got.cif
#   From: 2010.05.17/outbox.cif.g08.bks.cpg/sg2_304_cif.got.tgz:607658.got - 2010.06.03 11:33:40.
