data_PCOD9100933
_publ_section_title
;
Structure prediction by ZEFSAII (Michael W. Deem and Ramdas Pophale) SiO2 
 PCOD9100933
Probable space group: P -1
;
_chemical_formula_sum "Si O2"
_cell_formula_units_Z 16
_cell_length_a 10.524219
_cell_length_b 8.964092
_cell_length_c 11.615996
_cell_angle_alpha 57.413650
_cell_angle_beta 56.333984
_cell_angle_gamma 70.097506
_cell_volume 767.114114
_symmetry_space_group_name_H-M "P -1"
_symmetry_group_IT_number 2
_symmetry_cell_setting 'triclinic'
loop_
_space_group_symop_operation_xyz
x,y,z
-x,-y,-z
loop_
_atom_site_type_symbol
_atom_site_label
_atom_site_fract_x
_atom_site_fract_y
_atom_site_fract_z
Si Si1 0.737680 0.085344 0.364542
Si Si2 0.980905 0.868255 0.955181
Si Si3 0.663832 0.795674 0.375142
Si Si4 0.883950 0.542108 0.248433
Si Si5 0.375037 0.761720 0.212773
Si Si6 0.421934 0.571859 0.674609
Si Si7 0.125417 0.836167 0.500943
Si Si8 0.645599 0.990720 0.072507
O O1 0.642858 0.258300 0.291665
O O2 0.757145 0.115978 0.477118
O O3 0.901934 0.085428 0.220908
O O4 0.668045 0.900609 0.447875
O O5 0.997289 0.662471 0.072166
O O6 0.806331 0.896498 0.988379
O O7 0.000000 0.000000 0.000000
O O8 0.816756 0.672618 0.328327
O O9 0.525719 0.667655 0.488543
O O10 0.652988 0.950587 0.220944
O O11 0.729924 0.511678 0.263675
O O12 0.939819 0.350392 0.347036
O O13 0.460183 0.569591 0.266827
O O14 0.221353 0.794837 0.352829
O O15 0.497589 0.894150 0.145787
O O16 0.354063 0.817948 0.066675
O O17 0.000000 0.000000 0.500000
#
# Coordination Sequence:
#
# PCOD9100933 Si02
#       8
#     2   2   2   2   2   2   2   2
#     4  11  24  36  64  95 124 163 212 264 311 369
#     4  11  20  40  62  90 127 164 211 257 312 374
#     4  11  19  40  63  94 121 163 213 255 313 374
#     4  10  20  37  67  86 120 173 210 254 308 382
#     4  11  21  40  61  93 126 164 206 258 316 368
#     4  11  21  37  65  94 123 162 217 261 303 377
#     4  11  24  42  62  94 128 162 214 268 315 375
#     4  10  21  36  66  86 121 170 207 248 313 375
#
# _framework density 20.857392999999998
#
# number of rings (size 3 to 8) (size 9 to 14) (size 15 to 20)
#    0.000    1.250    6.250    3.000    0.000    2.000 
#    4.500    2.500    0.000    0.000    0.000    0.000 
#    0.000    0.000    0.000    0.000    0.000    0.000 
#
# Total GULP energy -89172.982075 kJ/mol
# GULP energy per Si atom -5573.311380 kJ/mol
# Density = 2.080992 g / cm^3
# Si number density = 20.857393 Si / 1000 Ang^3
#
#
#
# Elastic Constant Matrix: (Units=GPa)
#
#
# Indices 1 2 3 4 5 6 
#
# 1 24.0740 14.6757 27.5910 -18.3816 -5.0294 -15.8707
# 2 14.6757 91.6244 11.8154 -33.8055 13.2488 -9.4705
# 3 27.5910 11.8154 90.2546 -26.1450 1.7076 -7.3937
# 4 -18.3816 -33.8055 -26.1450 33.6802 -9.3314 4.1778
# 5 -5.0294 13.2488 1.7076 -9.3314 38.2418 -7.5757
# 6 -15.8707 -9.4705 -7.3937 4.1778 -7.5757 41.3282
#
#
#
# Elastic Compliance Matrix: (Units=1/GPa)
#
#
# Indices 1 2 3 4 5 6 
#
# 1 0.271601 0.012124 -0.036142 0.144199 0.088579 0.102272
# 2 0.012124 0.019162 0.002310 0.027582 0.003014 0.007224
# 3 -0.036142 0.002310 0.020249 -0.002902 -0.009375 -0.011152
# 4 0.144199 0.027582 -0.002902 0.142133 0.055509 0.056983
# 5 0.088579 0.003014 -0.009375 0.055509 0.058265 0.038098
# 6 0.102272 0.007224 -0.011152 0.056983 0.038098 0.064354
#
#
# Mechanical properties :
#
#
# Convention : Reuss Voigt Hill
#
# Bulk Modulus (GPa) = 3.73699 34.90192 19.31946
# Shear Modulus (GPa) = 7.05836 32.77476 19.91656
#
# Velocity S-wave (km/s) = 1.84159 3.96836 3.09349
# Velocity P-wave (km/s) = 2.51347 6.14549 4.69492
#
# Compressibility (1/GPa) = 0.26759497
#
# Stress axis : x y z
#
# Youngs Moduli (GPa) = 3.68188 52.18701 49.38452
#
# Poissons Ratio (x) = -0.63270 1.78486
# Poissons Ratio (y) = -0.04464 -0.11408
# Poissons Ratio (z) = 0.13307 -0.12055
#
# Static dielectric constant tensor:
#      x y z
#    x 1.790590 -0.016200 0.015890 
#    y -0.016200 1.774590 -0.000230 
#    z 0.015890 -0.000230 1.803290 
# 
# From -- ./inp_files/416259.got.cif
#   From: 2010.05.17/outbox.cif.g08.bks.cpg/sg2_209_cif.got.tgz:416259.got - 2010.06.03 11:33:40.
