data_PCOD9100348
_publ_section_title
;
Structure prediction by ZEFSAII (Michael W. Deem and Ramdas Pophale) SiO2 
 PCOD9100348
Probable space group: P -1
;
_chemical_formula_sum "Si O2"
_cell_formula_units_Z 14
_cell_length_a 12.149198
_cell_length_b 12.019860
_cell_length_c 7.426680
_cell_angle_alpha 49.105177
_cell_angle_beta 93.223173
_cell_angle_gamma 63.849106
_cell_volume 633.821951
_symmetry_space_group_name_H-M "P -1"
_symmetry_group_IT_number 2
_symmetry_cell_setting 'triclinic'
loop_
_space_group_symop_operation_xyz
x,y,z
-x,-y,-z
loop_
_atom_site_type_symbol
_atom_site_label
_atom_site_fract_x
_atom_site_fract_y
_atom_site_fract_z
Si Si1 0.251829 0.178259 0.741832
Si Si2 0.596341 0.512944 0.776753
Si Si3 0.136189 0.081277 0.131422
Si Si4 0.128142 0.283150 0.265430
Si Si5 0.179014 0.577266 0.398199
Si Si6 0.704433 0.358214 0.342711
Si Si7 0.423351 0.143914 0.502171
O O1 0.242569 0.088386 0.010949
O O2 0.145031 0.204522 0.551234
O O3 0.197099 0.388619 0.559190
O O4 0.400249 0.068599 0.762130
O O5 0.704586 0.438499 0.700571
O O6 0.777639 0.426319 0.389181
O O7 0.458724 0.526668 0.725005
O O8 0.532438 0.728952 0.585553
O O9 0.978204 0.235291 0.870059
O O10 0.133218 0.155516 0.250228
O O11 0.197469 0.866179 0.371804
O O12 0.261703 0.280877 0.271810
O O13 0.000000 0.500000 0.000000
O O14 0.316114 0.605605 0.911091
O O15 0.500000 0.000000 0.500000
#
# Coordination Sequence:
#
# PCOD9100348 Si02
#       7
#     2   2   2   2   2   2   2
#     4   9  23  38  67  96 131 163 209 269 325 374
#     4  10  23  47  62  89 130 178 217 255 327 376
#     4  12  23  41  67 102 129 165 218 265 327 381
#     4  10  20  37  63  94 128 166 201 263 319 377
#     4  11  23  42  66  96 130 169 214 263 324 388
#     4  11  26  42  66  90 134 175 213 267 314 389
#     4   9  19  40  64  92 123 160 215 262 311 375
#
# _framework density 22.088221000000001
#
# number of rings (size 3 to 8) (size 9 to 14) (size 15 to 20)
#    0.857    0.857    1.429    2.143    2.000    2.857 
#    5.143    2.143    0.000    0.000    0.000    0.000 
#    0.000    0.000    0.000    0.000    0.000    0.000 
#
# Total GULP energy -78175.067912 kJ/mol
# GULP energy per Si atom -5583.933422 kJ/mol
# Density = 2.203795 g / cm^3
# Si number density = 22.088221 Si / 1000 Ang^3
#
#
#
# Elastic Constant Matrix: (Units=GPa)
#
#
# Indices 1 2 3 4 5 6 
#
# 1 46.2763 19.0521 17.1798 9.0622 12.4117 2.5435
# 2 19.0521 100.8920 43.9756 13.8290 3.4250 2.1150
# 3 17.1798 43.9756 69.1577 13.9164 11.6305 -9.9708
# 4 9.0622 13.8290 13.9164 19.9655 8.7030 14.2751
# 5 12.4117 3.4250 11.6305 8.7030 24.1396 11.9459
# 6 2.5435 2.1150 -9.9708 14.2751 11.9459 29.9232
#
#
#
# Elastic Compliance Matrix: (Units=1/GPa)
#
#
# Indices 1 2 3 4 5 6 
#
# 1 0.028792 -0.004576 0.002830 -0.012944 -0.016603 0.011622
# 2 -0.004576 0.015816 -0.012866 0.003191 0.010459 -0.010714
# 3 0.002830 -0.012866 0.041321 -0.041686 -0.026787 0.045018
# 4 -0.012944 0.003191 -0.041686 0.135273 0.019806 -0.085455
# 5 -0.016603 0.010459 -0.026787 0.019806 0.078515 -0.049047
# 6 0.011622 -0.010714 0.045018 -0.085455 -0.049047 0.108536
#
#
# Mechanical properties :
#
#
# Convention : Reuss Voigt Hill
#
# Bulk Modulus (GPa) = 17.63525 41.86012 29.74768
# Shear Modulus (GPa) = 10.95582 23.88022 17.41802
#
# Velocity S-wave (km/s) = 2.22953 3.29162 2.81119
# Velocity P-wave (km/s) = 3.82480 5.78263 4.90244
#
# Compressibility (1/GPa) = 0.05670460
#
# Stress axis : x y z
#
# Youngs Moduli (GPa) = 34.73227 63.22872 24.20067
#
# Poissons Ratio (x) = 0.28935 -0.06849
# Poissons Ratio (y) = 0.15894 0.31136
# Poissons Ratio (z) = -0.09829 0.81348
#
# Static dielectric constant tensor:
#      x y z
#    x 1.847920 0.002620 -0.003690 
#    y 0.002620 1.807270 0.036830 
#    z -0.003690 0.036830 1.823760 
# 
# From -- ./inp_files/300229.got.cif
#   From: 2010.05.17/outbox.cif.g08.bks.cpg/sg2_151_cif.got.tgz:300229.got - 2010.06.03 11:33:40.
