data_PCOD9100753
_publ_section_title
;
Structure prediction by ZEFSAII (Michael W. Deem and Ramdas Pophale) SiO2 
 PCOD9100753
Probable space group: P -1
;
_chemical_formula_sum "Si O2"
_cell_formula_units_Z 13
_cell_length_a 8.179334
_cell_length_b 12.763211
_cell_length_c 8.418712
_cell_angle_alpha 56.571859
_cell_angle_beta 61.495173
_cell_angle_gamma 91.582073
_cell_volume 591.843630
_symmetry_space_group_name_H-M "P -1"
_symmetry_group_IT_number 2
_symmetry_cell_setting 'triclinic'
loop_
_space_group_symop_operation_xyz
x,y,z
-x,-y,-z
loop_
_atom_site_type_symbol
_atom_site_label
_atom_site_fract_x
_atom_site_fract_y
_atom_site_fract_z
Si Si1 0.237638 0.219883 0.703638
Si Si2 0.605849 0.675569 0.949682
Si Si3 0.009009 0.152340 0.165857
Si Si4 0.216203 0.441427 0.322210
Si Si5 0.030185 0.436434 0.871972
Si Si6 0.375239 0.091609 0.456461
Si Si7 0.500000 0.500000 0.500000
O O1 0.133594 0.306772 0.579809
O O2 0.326144 0.146402 0.599063
O O3 0.417203 0.338606 0.612933
O O4 0.087098 0.124871 0.982626
O O5 0.794065 0.773836 0.880113
O O6 0.694814 0.602790 0.839309
O O7 0.525675 0.775577 0.810317
O O8 0.416520 0.554718 0.224369
O O9 0.927574 0.272144 0.075301
O O10 0.839338 0.014709 0.424268
O O11 0.066389 0.506525 0.272538
O O12 0.264501 0.471331 0.698037
O O13 0.000000 0.500000 0.000000
O O14 0.500000 0.000000 0.500000
#
# Coordination Sequence:
#
# PCOD9100753 Si02
#       7
#     2   2   2   2   2   2   1
#     4  10  23  41  64  92 132 166 209 276 320 383
#     4  10  21  37  63  96 125 166 225 269 311 394
#     4  11  22  40  61  92 128 169 216 266 324 383
#     4  10  20  37  65  95 125 169 216 267 331 380
#     4  11  22  38  67  95 132 171 214 270 332 390
#     4  11  24  40  63  90 127 178 218 258 320 397
#     4  10  24  38  60 100 130 158 216 274 322 376
#
# _framework density 21.965261999999999
#
# number of rings (size 3 to 8) (size 9 to 14) (size 15 to 20)
#    0.000    1.538    1.538    3.692    6.462    2.462 
#    0.000    3.846    0.000    0.000    0.000    0.000 
#    0.000    0.000    0.000    0.000    0.000    0.000 
#
# Total GULP energy -72437.505483 kJ/mol
# GULP energy per Si atom -5572.115806 kJ/mol
# Density = 2.191527 g / cm^3
# Si number density = 21.965262 Si / 1000 Ang^3
#
#
#
# Elastic Constant Matrix: (Units=GPa)
#
#
# Indices 1 2 3 4 5 6 
#
# 1 114.7369 36.0506 4.6977 -3.1154 -6.7254 -10.9101
# 2 36.0506 123.8452 4.4308 3.1055 -7.6940 -7.2543
# 3 4.6977 4.4308 73.3498 -9.2592 -13.4995 -8.7601
# 4 -3.1154 3.1055 -9.2592 24.7345 3.8422 6.1195
# 5 -6.7254 -7.6940 -13.4995 3.8422 25.2935 -11.3582
# 6 -10.9101 -7.2543 -8.7601 6.1195 -11.3582 41.0355
#
#
#
# Elastic Compliance Matrix: (Units=1/GPa)
#
#
# Indices 1 2 3 4 5 6 
#
# 1 0.010024 -0.002532 0.000631 0.000435 0.003646 0.003297
# 2 -0.002532 0.009244 0.000265 -0.002570 0.003768 0.002444
# 3 0.000631 0.000265 0.016916 0.002891 0.011832 0.006670
# 4 0.000435 -0.002570 0.002891 0.045818 -0.010308 -0.009408
# 5 0.003646 0.003768 0.011832 -0.010308 0.059485 0.022163
# 6 0.003297 0.002444 0.006670 -0.009408 0.022163 0.034639
#
#
# Mechanical properties :
#
#
# Convention : Reuss Voigt Hill
#
# Bulk Modulus (GPa) = 30.38540 44.69889 37.54215
# Shear Modulus (GPa) = 26.26476 35.99621 31.13048
#
# Velocity S-wave (km/s) = 3.46170 4.05258 3.76874
# Velocity P-wave (km/s) = 5.46271 6.50322 6.00554
#
# Compressibility (1/GPa) = 0.03291054
#
# Stress axis : x y z
#
# Youngs Moduli (GPa) = 99.75786 108.18079 59.11552
#
# Poissons Ratio (x) = 0.27390 -0.03727
# Poissons Ratio (y) = 0.25257 -0.01564
# Poissons Ratio (z) = -0.06290 -0.02862
#
# Static dielectric constant tensor:
#      x y z
#    x 1.534090 -0.061650 -0.089230 
#    y -0.061650 1.749040 -0.015820 
#    z -0.089230 -0.015820 1.783100 
# 
# From -- ./inp_files/167396.got.cif
#   From: 2010.05.17/outbox.cif.g08.bks.cpg/sg2_84_cif.got.tgz:167396.got - 2010.06.03 11:33:40.
