data_PCOD9100090
_publ_section_title
;
Structure prediction by ZEFSAII (Michael W. Deem and Ramdas Pophale) SiO2 
 PCOD9100090
Probable space group: P -1
;
_chemical_formula_sum "Si O2"
_cell_formula_units_Z 15
_cell_length_a 14.290574
_cell_length_b 7.919654
_cell_length_c 8.692094
_cell_angle_alpha 107.059797
_cell_angle_beta 46.934168
_cell_angle_gamma 124.711698
_cell_volume 583.270553
_symmetry_space_group_name_H-M "P -1"
_symmetry_group_IT_number 2
_symmetry_cell_setting 'triclinic'
loop_
_space_group_symop_operation_xyz
x,y,z
-x,-y,-z
loop_
_atom_site_type_symbol
_atom_site_label
_atom_site_fract_x
_atom_site_fract_y
_atom_site_fract_z
Si Si1 0.634433 0.354019 0.090433
Si Si2 0.047209 0.567897 0.292316
Si Si3 0.690103 0.931857 0.754227
Si Si4 0.401194 0.320569 0.933930
Si Si5 0.793568 0.135350 0.370776
Si Si6 0.632658 0.320659 0.435225
Si Si7 0.104125 0.233072 0.645862
Si Si8 0.000000 0.000000 0.000000
O O1 0.488222 0.194898 0.116808
O O2 0.684435 0.584141 0.034937
O O3 0.583939 0.307052 0.311119
O O4 0.776738 0.331590 0.903194
O O5 0.000000 0.500000 0.500000
O O6 0.955386 0.355499 0.239809
O O7 0.989849 0.719981 0.356441
O O8 0.786096 0.826670 0.572870
O O9 0.748283 0.099918 0.592807
O O10 0.685239 0.895987 0.934857
O O11 0.514865 0.318384 0.684209
O O12 0.500000 0.500000 0.000000
O O13 0.677430 0.159706 0.403895
O O14 0.833557 0.971976 0.221643
O O15 0.786293 0.547191 0.334439
O O16 0.994557 0.068271 0.848509
#
# Coordination Sequence:
#
# PCOD9100090 Si02
#       8
#     2   2   2   2   2   2   2   1
#     4  11  22  37  66  98 122 165 221 273 306 379
#     4  11  24  42  67  97 131 166 221 264 323 389
#     4  10  22  41  66  90 129 171 214 260 329 378
#     4  10  20  37  62  93 128 171 209 267 326 382
#     4  10  24  42  66  92 133 176 209 263 334 386
#     4  11  21  38  65  94 126 167 223 263 320 380
#     4  10  20  39  64  88 130 171 211 259 326 388
#     4  10  20  40  62  90 124 170 212 254 318 392
#
# _framework density 25.717051999999999
#
# number of rings (size 3 to 8) (size 9 to 14) (size 15 to 20)
#    0.000    1.600    2.667    2.800    5.600    3.200 
#    0.000    7.333    0.000    0.000    0.000    0.000 
#    0.000    0.000    0.000    0.000    0.000    0.000 
#
# Total GULP energy -83674.715295 kJ/mol
# GULP energy per Si atom -5578.314353 kJ/mol
# Density = 2.565852 g / cm^3
# Si number density = 25.717052 Si / 1000 Ang^3
#
#
#
# Elastic Constant Matrix: (Units=GPa)
#
#
# Indices 1 2 3 4 5 6 
#
# 1 123.3062 35.7392 24.8410 0.0260 5.8098 -50.9057
# 2 35.7392 64.0058 3.3007 -21.9631 0.1000 -12.3703
# 3 24.8410 3.3007 103.2673 -17.1561 18.2559 -4.3149
# 4 0.0260 -21.9631 -17.1561 34.1311 -5.9199 2.4388
# 5 5.8098 0.1000 18.2559 -5.9199 50.2824 -13.8268
# 6 -50.9057 -12.3703 -4.3149 2.4388 -13.8268 40.7826
#
#
#
# Elastic Compliance Matrix: (Units=1/GPa)
#
#
# Indices 1 2 3 4 5 6 
#
# 1 0.025424 -0.012399 -0.007786 -0.012908 0.006697 0.030193
# 2 -0.012399 0.028080 0.005329 0.021279 -0.000178 -0.007728
# 3 -0.007786 0.005329 0.013618 0.009997 -0.005376 -0.009082
# 4 -0.012908 0.021279 0.009997 0.048917 0.000452 -0.011372
# 5 0.006697 -0.000178 -0.005376 0.000452 0.025628 0.016398
# 6 0.030193 -0.007728 -0.009082 -0.011372 0.016398 0.065142
#
#
# Mechanical properties :
#
#
# Convention : Reuss Voigt Hill
#
# Bulk Modulus (GPa) = 26.73128 46.48236 36.60682
# Shear Modulus (GPa) = 20.08094 40.15246 30.11670
#
# Velocity S-wave (km/s) = 2.79739 3.95564 3.42582
# Velocity P-wave (km/s) = 4.56626 6.24312 5.46934
#
# Compressibility (1/GPa) = 0.03740935
#
# Stress axis : x y z
#
# Youngs Moduli (GPa) = 39.33277 35.61207 73.43307
#
# Poissons Ratio (x) = 0.44155 0.57176
# Poissons Ratio (y) = 0.48769 -0.39130
# Poissons Ratio (z) = 0.30625 -0.18977
#
# Static dielectric constant tensor:
#      x y z
#    x 2.102700 0.002020 0.040820 
#    y 0.002020 2.284790 0.017040 
#    z 0.040820 0.017040 1.921480 
# 
# From -- ./inp_files/184090.got.cif
#   From: 2010.05.17/outbox.cif.g08.bks.cpg/sg2_93_cif.got.tgz:184090.got - 2010.06.03 11:33:40.
