data_PCOD9100747
_publ_section_title
;
Structure prediction by ZEFSAII (Michael W. Deem and Ramdas Pophale) SiO2 
 PCOD9100747
Probable space group: P -1
;
_chemical_formula_sum "Si O2"
_cell_formula_units_Z 14
_cell_length_a 7.416283
_cell_length_b 12.290606
_cell_length_c 8.580143
_cell_angle_alpha 115.162801
_cell_angle_beta 123.273043
_cell_angle_gamma 81.550484
_cell_volume 587.959683
_symmetry_space_group_name_H-M "P -1"
_symmetry_group_IT_number 2
_symmetry_cell_setting 'triclinic'
loop_
_space_group_symop_operation_xyz
x,y,z
-x,-y,-z
loop_
_atom_site_type_symbol
_atom_site_label
_atom_site_fract_x
_atom_site_fract_y
_atom_site_fract_z
Si Si1 0.507070 0.842260 0.557049
Si Si2 0.636677 0.395112 0.437772
Si Si3 0.029612 0.137789 0.158726
Si Si4 0.448651 0.918980 0.075571
Si Si5 0.064877 0.420928 0.830731
Si Si6 0.860030 0.260348 0.879606
Si Si7 0.483739 0.660061 0.008299
O O1 0.437724 0.730747 0.578263
O O2 0.336034 0.834366 0.332110
O O3 0.756234 0.828741 0.620722
O O4 0.524418 0.974691 0.720020
O O5 0.500000 0.500000 0.500000
O O6 0.889767 0.434931 0.622532
O O7 0.593278 0.383593 0.226722
O O8 0.793279 0.147424 0.118804
O O9 0.034189 0.218525 0.055162
O O10 0.000000 0.000000 0.000000
O O11 0.563674 0.803780 0.109620
O O12 0.500000 0.000000 0.000000
O O13 0.984775 0.295112 0.802317
O O14 0.310004 0.408024 0.889508
O O15 0.000000 0.500000 0.000000
O O16 0.716171 0.346903 0.965780
#
# Coordination Sequence:
#
# PCOD9100747 Si02
#       7
#     2   2   2   2   2   2   2
#     4  10  21  42  64  91 134 169 211 265 325 372
#     4  11  22  41  67  93 126 171 216 269 320 379
#     4   9  20  35  63  88 125 171 202 253 321 370
#     4  10  20  37  65  94 128 167 212 263 313 391
#     4  11  24  43  67  92 128 173 214 267 330 376
#     4  10  24  41  63  98 130 164 219 267 311 387
#     4  11  23  42  66  93 131 163 220 263 323 384
#
# _framework density 23.811156
#
# number of rings (size 3 to 8) (size 9 to 14) (size 15 to 20)
#    0.000    1.714    2.857    0.857    2.000    8.000 
#    0.000    5.000    0.000    0.000    0.000    0.000 
#    0.000    0.000    0.000    0.000    0.000    0.000 
#
# Total GULP energy -78031.925938 kJ/mol
# GULP energy per Si atom -5573.708996 kJ/mol
# Density = 2.375696 g / cm^3
# Si number density = 23.811156 Si / 1000 Ang^3
#
#
#
# Elastic Constant Matrix: (Units=GPa)
#
#
# Indices 1 2 3 4 5 6 
#
# 1 78.4967 4.4664 15.7360 -2.5347 2.6247 -22.1407
# 2 4.4664 83.1009 -2.1300 -0.0113 2.0190 -28.5817
# 3 15.7360 -2.1300 88.4509 4.6696 5.3121 -22.7947
# 4 -2.5347 -0.0113 4.6696 22.8371 -3.3080 -3.4487
# 5 2.6247 2.0190 5.3121 -3.3080 37.5398 -9.7950
# 6 -22.1407 -28.5817 -22.7947 -3.4487 -9.7950 35.4017
#
#
#
# Elastic Compliance Matrix: (Units=1/GPa)
#
#
# Indices 1 2 3 4 5 6 
#
# 1 0.016894 0.004568 0.000822 0.004579 0.003054 0.016074
# 2 0.004568 0.020159 0.005456 0.003711 0.004478 0.024246
# 3 0.000822 0.005456 0.015093 -0.000534 0.001371 0.014965
# 4 0.004579 0.003711 -0.000534 0.047214 0.006850 0.012011
# 5 0.003054 0.004478 0.001371 0.006850 0.030653 0.015556
# 6 0.016074 0.024246 0.014965 0.012011 0.015556 0.072985
#
#
# Mechanical properties :
#
#
# Convention : Reuss Voigt Hill
#
# Bulk Modulus (GPa) = 13.54308 31.79925 22.67117
# Shear Modulus (GPa) = 24.28144 34.62080 29.45112
#
# Velocity S-wave (km/s) = 3.19682 3.81724 3.52072
# Velocity P-wave (km/s) = 4.39616 5.72819 5.10580
#
# Compressibility (1/GPa) = 0.07383842
#
# Stress axis : x y z
#
# Youngs Moduli (GPa) = 59.19132 49.60642 66.25437
#
# Poissons Ratio (x) = -0.22660 -0.05444
# Poissons Ratio (y) = -0.27039 -0.36150
# Poissons Ratio (z) = -0.04864 -0.27067
#
# Static dielectric constant tensor:
#      x y z
#    x 1.697250 0.476280 -0.490720 
#    y 0.476280 1.337510 0.726190 
#    z -0.490720 0.726190 1.203920 
# 
# From -- ./inp_files/190475.got.cif
#   From: 2010.05.17/outbox.cif.g08.bks.cpg/sg2_96_cif.got.tgz:190475.got - 2010.06.03 11:33:40.
