data_PCOD9100962
_publ_section_title
;
Structure prediction by ZEFSAII (Michael W. Deem and Ramdas Pophale) SiO2 
 PCOD9100962
Probable space group: P -1
;
_chemical_formula_sum "Si O2"
_cell_formula_units_Z 16
_cell_length_a 26.026162
_cell_length_b 9.846352
_cell_length_c 9.136155
_cell_angle_alpha 136.367135
_cell_angle_beta 23.630890
_cell_angle_gamma 134.843733
_cell_volume 640.039432
_symmetry_space_group_name_H-M "P -1"
_symmetry_group_IT_number 2
_symmetry_cell_setting 'triclinic'
loop_
_space_group_symop_operation_xyz
x,y,z
-x,-y,-z
loop_
_atom_site_type_symbol
_atom_site_label
_atom_site_fract_x
_atom_site_fract_y
_atom_site_fract_z
Si Si1 0.757418 0.188305 0.936002
Si Si2 0.273475 0.237300 0.460291
Si Si3 0.597466 0.797936 0.415024
Si Si4 0.035624 0.087075 0.132462
Si Si5 0.227693 0.373088 0.370465
Si Si6 0.321941 0.775297 0.505429
Si Si7 0.037197 0.809637 0.170796
Si Si8 0.633400 0.503307 0.353251
O O1 0.907835 0.179975 0.582517
O O2 0.708783 0.980937 0.814543
O O3 0.673426 0.213753 0.321526
O O4 0.745905 0.374013 0.005720
O O5 0.216986 0.335875 0.542874
O O6 0.391879 0.378933 0.337770
O O7 0.170588 0.222138 0.850723
O O8 0.640060 0.668190 0.336080
O O9 0.472097 0.676823 0.572782
O O10 0.595987 0.030345 0.628412
O O11 0.710614 0.804212 0.002577
O O12 0.060979 0.903616 0.021881
O O13 0.000000 0.000000 0.000000
O O14 0.334982 0.568771 0.229951
O O15 0.089496 0.357302 0.639368
O O16 0.168603 0.762806 0.858203
O O17 0.000000 0.000000 0.500000
#
# Coordination Sequence:
#
# PCOD9100962 Si02
#       8
#     2   2   2   2   2   2   2   2
#     4  11  22  44  68 101 133 177 227 271 329 408
#     4  11  22  43  66 103 138 170 222 279 329 398
#     4  11  26  50  66  98 135 171 228 288 331 393
#     4  10  20  37  67  95 140 173 208 272 334 388
#     4  12  24  43  68 102 135 175 226 267 337 403
#     4  12  24  43  69  99 136 182 223 268 335 403
#     4  12  20  40  67  98 140 179 208 274 331 396
#     4  11  27  45  73  96 128 180 228 278 344 387
#
# _framework density 24.998459
#
# number of rings (size 3 to 8) (size 9 to 14) (size 15 to 20)
#    0.000    0.750    7.500    1.125    0.000    5.500 
#    2.250    2.500    0.000    0.000    0.000    0.000 
#    0.000    0.000    0.000    0.000    0.000    0.000 
#
# Total GULP energy -89319.512876 kJ/mol
# GULP energy per Si atom -5582.469555 kJ/mol
# Density = 2.494156 g / cm^3
# Si number density = 24.998459 Si / 1000 Ang^3
#
#
#
# Elastic Constant Matrix: (Units=GPa)
#
#
# Indices 1 2 3 4 5 6 
#
# 1 115.0908 32.2187 7.2135 -1.6775 -2.1386 24.2186
# 2 32.2187 161.6788 -0.3582 15.6664 0.9823 31.0763
# 3 7.2135 -0.3582 24.5769 1.3041 0.2490 -2.1924
# 4 -1.6775 15.6664 1.3041 34.7079 0.7819 3.4230
# 5 -2.1386 0.9823 0.2490 0.7819 30.2180 -0.6245
# 6 24.2186 31.0763 -2.1924 3.4230 -0.6245 39.7694
#
#
#
# Elastic Compliance Matrix: (Units=1/GPa)
#
#
# Indices 1 2 3 4 5 6 
#
# 1 0.010512 -0.001151 -0.003722 0.001729 0.000646 -0.005846
# 2 -0.001151 0.007678 0.000165 -0.003023 -0.000358 -0.005035
# 3 -0.003722 0.000165 0.042326 -0.002294 -0.000462 0.004661
# 4 0.001729 -0.003023 -0.002294 0.030502 -0.000580 -0.001452
# 5 0.000646 -0.000358 -0.000462 -0.000580 0.033178 0.000432
# 6 -0.005846 -0.005035 0.004661 -0.001452 0.000432 0.033028
#
#
# Mechanical properties :
#
#
# Convention : Reuss Voigt Hill
#
# Bulk Modulus (GPa) = 19.56994 42.16606 30.86800
# Shear Modulus (GPa) = 27.22239 38.42391 32.82315
#
# Velocity S-wave (km/s) = 3.30352 3.92478 3.62747
# Velocity P-wave (km/s) = 4.73249 6.11903 5.46987
#
# Compressibility (1/GPa) = 0.05109879
#
# Stress axis : x y z
#
# Youngs Moduli (GPa) = 95.13296 130.24851 23.62631
#
# Poissons Ratio (x) = 0.14989 0.08793
# Poissons Ratio (y) = 0.10948 -0.00389
# Poissons Ratio (z) = 0.35407 -0.02143
#
# Static dielectric constant tensor:
#      x y z
#    x 1.919450 0.084340 -0.075410 
#    y 0.084340 2.049840 -0.050950 
#    z -0.075410 -0.050950 2.084800 
# 
# From -- ./inp_files/352373.got.cif
#   From: 2010.05.17/outbox.cif.g08.bks.cpg/sg2_177_cif.got.tgz:352373.got - 2010.06.03 11:33:40.
