data_PCOD9100627
_publ_section_title
;
Structure prediction by ZEFSAII (Michael W. Deem and Ramdas Pophale) SiO2 
 PCOD9100627
Probable space group: P -1
;
_chemical_formula_sum "Si O2"
_cell_formula_units_Z 16
_cell_length_a 11.033868
_cell_length_b 7.078980
_cell_length_c 12.011344
_cell_angle_alpha 77.392687
_cell_angle_beta 47.669149
_cell_angle_gamma 76.256615
_cell_volume 671.493234
_symmetry_space_group_name_H-M "P -1"
_symmetry_group_IT_number 2
_symmetry_cell_setting 'triclinic'
loop_
_space_group_symop_operation_xyz
x,y,z
-x,-y,-z
loop_
_atom_site_type_symbol
_atom_site_label
_atom_site_fract_x
_atom_site_fract_y
_atom_site_fract_z
Si Si1 0.526237 0.163446 0.746149
Si Si2 0.735146 0.167744 0.838714
Si Si3 0.245306 0.346688 0.432698
Si Si4 0.339269 0.941903 0.543599
Si Si5 0.106260 0.816641 0.898142
Si Si6 0.186601 0.263956 0.046014
Si Si7 0.419284 0.730150 0.860378
Si Si8 0.067728 0.480672 0.310379
O O1 0.654145 0.143700 0.772069
O O2 0.602682 0.206418 0.574024
O O3 0.466469 0.950254 0.788511
O O4 0.358549 0.286412 0.876977
O O5 0.878016 0.305989 0.727308
O O6 0.792767 0.958239 0.886934
O O7 0.600999 0.281812 0.992588
O O8 0.256554 0.140967 0.512831
O O9 0.426919 0.394695 0.279658
O O10 0.150743 0.344262 0.374270
O O11 0.129159 0.500264 0.558848
O O12 0.500000 0.000000 0.500000
O O13 0.214719 0.871825 0.719001
O O14 0.243093 0.723392 0.912529
O O15 0.962890 0.705750 0.951679
O O16 0.000000 0.000000 0.000000
O O17 0.140312 0.401261 0.160773
#
# Coordination Sequence:
#
# PCOD9100627 Si02
#       8
#     2   2   2   2   2   2   2   2
#     4  10  20  37  65 103 129 170 227 276 333 399
#     4  11  22  41  72  98 131 180 225 276 343 392
#     4  10  22  41  64  94 144 173 215 280 341 385
#     4  11  20  39  70 101 130 180 224 273 337 400
#     4  12  21  39  69 101 131 177 230 274 331 404
#     4  11  22  41  67  99 135 178 228 272 332 403
#     4  10  20  40  66  99 134 178 224 275 331 401
#     4  11  25  43  66 102 142 173 223 287 327 400
#
# _framework density 23.827490999999998
#
# number of rings (size 3 to 8) (size 9 to 14) (size 15 to 20)
#    0.000    1.250    5.000    4.500    0.000    4.000 
#    0.000    7.500    2.750    0.000    0.000    0.000 
#    0.000    0.000    0.000    0.000    0.000    0.000 
#
# Total GULP energy -89528.424055 kJ/mol
# GULP energy per Si atom -5595.526503 kJ/mol
# Density = 2.377326 g / cm^3
# Si number density = 23.827491 Si / 1000 Ang^3
#
#
#
# Elastic Constant Matrix: (Units=GPa)
#
#
# Indices 1 2 3 4 5 6 
#
# 1 124.8260 56.0294 68.9698 33.1238 -2.2981 3.5615
# 2 56.0294 82.4431 40.9210 8.4191 0.0955 -7.4339
# 3 68.9698 40.9210 194.7792 28.6323 9.8038 -9.1867
# 4 33.1238 8.4191 28.6323 25.0903 -4.9549 -10.8314
# 5 -2.2981 0.0955 9.8038 -4.9549 45.1886 3.2483
# 6 3.5615 -7.4339 -9.1867 -10.8314 3.2483 27.0699
#
#
#
# Elastic Compliance Matrix: (Units=1/GPa)
#
#
# Indices 1 2 3 4 5 6 
#
# 1 0.026937 -0.015686 -0.001606 -0.038932 -0.000801 -0.023878
# 2 -0.015686 0.022895 -0.001809 0.022422 0.000811 0.016612
# 3 -0.001606 -0.001809 0.007039 -0.005710 -0.002237 0.000087
# 4 -0.038932 0.022422 -0.005710 0.115363 0.007940 0.054549
# 5 -0.000801 0.000811 -0.002237 0.007940 0.023448 -0.000068
# 6 -0.023878 0.016612 0.000087 0.054549 -0.000068 0.066509
#
#
# Mechanical properties :
#
#
# Convention : Reuss Voigt Hill
#
# Bulk Modulus (GPa) = 53.56375 81.54320 67.55347
# Shear Modulus (GPa) = 16.30713 35.21162 25.75938
#
# Velocity S-wave (km/s) = 2.61891 3.84835 3.29154
# Velocity P-wave (km/s) = 5.62792 7.35140 6.54662
#
# Compressibility (1/GPa) = 0.01866934
#
# Stress axis : x y z
#
# Youngs Moduli (GPa) = 37.12412 43.67733 142.07305
#
# Poissons Ratio (x) = 0.68512 0.22810
# Poissons Ratio (y) = 0.58233 0.25701
# Poissons Ratio (z) = 0.05960 0.07901
#
# Static dielectric constant tensor:
#      x y z
#    x 1.893650 0.011480 -0.006830 
#    y 0.011480 1.965400 0.003980 
#    z -0.006830 0.003980 1.955520 
# 
# From -- ./inp_files/414596.got.cif
#   From: 2010.05.17/outbox.cif.g08.bks.cpg/sg2_208_cif.got.tgz:414596.got - 2010.06.03 11:33:40.
