data_PCOD9100583
_publ_section_title
;
Structure prediction by ZEFSAII (Michael W. Deem and Ramdas Pophale) SiO2 
 PCOD9100583
Probable space group: P -1
;
_chemical_formula_sum "Si O2"
_cell_formula_units_Z 14
_cell_length_a 15.716870
_cell_length_b 14.711613
_cell_length_c 15.254630
_cell_angle_alpha 160.553193
_cell_angle_beta 37.799480
_cell_angle_gamma 142.630179
_cell_volume 698.102800
_symmetry_space_group_name_H-M "P -1"
_symmetry_group_IT_number 2
_symmetry_cell_setting 'triclinic'
loop_
_space_group_symop_operation_xyz
x,y,z
-x,-y,-z
loop_
_atom_site_type_symbol
_atom_site_label
_atom_site_fract_x
_atom_site_fract_y
_atom_site_fract_z
Si Si1 0.420322 0.744777 0.772703
Si Si2 0.638973 0.065530 0.385951
Si Si3 0.826028 0.625819 0.814248
Si Si4 0.088716 0.643742 0.976481
Si Si5 0.074602 0.244605 0.473093
Si Si6 0.310218 0.742709 0.673641
Si Si7 0.032027 0.988972 0.104556
O O1 0.500000 0.500000 0.500000
O O2 0.254755 0.637858 0.838699
O O3 0.412006 0.826415 0.750892
O O4 0.500000 0.000000 0.000000
O O5 0.759131 0.303401 0.553714
O O6 0.621063 0.193745 0.420488
O O7 0.500000 0.000000 0.500000
O O8 0.698903 0.789532 0.071930
O O9 0.926155 0.768162 0.781488
O O10 0.921187 0.724439 0.912145
O O11 0.027875 0.461979 0.774050
O O12 0.000000 0.500000 0.000000
O O13 0.088513 0.970049 0.265054
O O14 0.225789 0.419228 0.467153
O O15 0.980983 0.115485 0.348328
O O16 0.179063 0.896395 0.920585
#
# Coordination Sequence:
#
# PCOD9100583 Si02
#       7
#     2   2   2   2   2   2   2
#     4  11  23  40  65  93 119 164 222 263 308 389
#     4  11  23  41  60  89 131 174 204 251 319 382
#     4  10  23  35  62  92 126 153 210 261 301 369
#     4  11  24  41  63  92 126 163 205 270 336 377
#     4  11  19  37  64  90 117 163 208 248 316 394
#     4  10  22  39  67  87 123 168 211 258 319 376
#     4  10  20  37  64  96 117 155 212 266 306 361
#
# _framework density 20.054354
#
# number of rings (size 3 to 8) (size 9 to 14) (size 15 to 20)
#    0.000    1.429    4.286    2.571    2.000    1.714 
#    0.000    4.286    0.000    0.000    0.000    0.000 
#    0.000    0.000    0.000    0.000    0.000    0.000 
#
# Total GULP energy -78193.197713 kJ/mol
# GULP energy per Si atom -5585.228408 kJ/mol
# Density = 2.000871 g / cm^3
# Si number density = 20.054354 Si / 1000 Ang^3
#
#
#
# Elastic Constant Matrix: (Units=GPa)
#
#
# Indices 1 2 3 4 5 6 
#
# 1 130.0038 33.2818 28.5672 -0.2607 28.7624 -10.0525
# 2 33.2818 106.3416 28.8381 -9.7172 9.6651 -26.3313
# 3 28.5672 28.8381 88.4553 12.0293 10.1375 -8.4444
# 4 -0.2607 -9.7172 12.0293 31.6732 -2.8321 5.2551
# 5 28.7624 9.6651 10.1375 -2.8321 42.3877 -0.5604
# 6 -10.0525 -26.3313 -8.4444 5.2551 -0.5604 27.7505
#
#
#
# Elastic Compliance Matrix: (Units=1/GPa)
#
#
# Indices 1 2 3 4 5 6 
#
# 1 0.009959 -0.001828 -0.001733 -0.000574 -0.005947 0.001334
# 2 -0.001828 0.013979 -0.003341 0.003670 -0.000759 0.010875
# 3 -0.001733 -0.003341 0.014293 -0.006942 -0.001920 0.001827
# 4 -0.000574 0.003670 -0.006942 0.036596 0.003583 -0.005695
# 5 -0.005947 -0.000759 -0.001920 0.003583 0.028452 -0.003562
# 6 0.001334 0.010875 0.001827 -0.005695 -0.003562 0.048400
#
#
# Mechanical properties :
#
#
# Convention : Reuss Voigt Hill
#
# Bulk Modulus (GPa) = 40.94147 56.24165 48.59156
# Shear Modulus (GPa) = 28.79783 35.96986 32.38384
#
# Velocity S-wave (km/s) = 3.79356 4.23971 4.02282
# Velocity P-wave (km/s) = 6.29664 7.21612 6.77200
#
# Compressibility (1/GPa) = 0.02442511
#
# Stress axis : x y z
#
# Youngs Moduli (GPa) = 100.41458 71.53618 69.96577
#
# Poissons Ratio (x) = 0.13080 0.12127
# Poissons Ratio (y) = 0.18360 0.23375
# Poissons Ratio (z) = 0.17404 0.23900
#
# Static dielectric constant tensor:
#      x y z
#    x 1.766820 -0.016420 0.008490 
#    y -0.016420 1.683440 0.007540 
#    z 0.008490 0.007540 1.739530 
# 
# From -- ./inp_files/56212.got.cif
#   From: 2010.05.17/outbox.cif.g08.bks.cpg/sg2_29_cif.got.tgz:56212.got - 2010.06.03 11:33:40.
