data_PCOD9100575
_publ_section_title
;
Structure prediction by ZEFSAII (Michael W. Deem and Ramdas Pophale) SiO2 
 PCOD9100575
Probable space group: P -1
;
_chemical_formula_sum "Si O2"
_cell_formula_units_Z 16
_cell_length_a 12.453121
_cell_length_b 15.759246
_cell_length_c 9.604026
_cell_angle_alpha 64.389883
_cell_angle_beta 138.921200
_cell_angle_gamma 139.461718
_cell_volume 760.081364
_symmetry_space_group_name_H-M "P -1"
_symmetry_group_IT_number 2
_symmetry_cell_setting 'triclinic'
loop_
_space_group_symop_operation_xyz
x,y,z
-x,-y,-z
loop_
_atom_site_type_symbol
_atom_site_label
_atom_site_fract_x
_atom_site_fract_y
_atom_site_fract_z
Si Si1 0.401343 0.550017 0.944398
Si Si2 0.757331 0.159563 0.798270
Si Si3 0.648333 0.145179 0.378406
Si Si4 0.262292 0.151942 0.996878
Si Si5 0.921438 0.570479 0.540492
Si Si6 0.411195 0.557654 0.444422
Si Si7 0.142249 0.155997 0.193908
Si Si8 0.914535 0.542554 0.052315
O O1 0.617777 0.713394 0.066901
O O2 0.221064 0.518782 0.675145
O O3 0.253308 0.468808 0.996538
O O4 0.500000 0.500000 0.000000
O O5 0.736386 0.164616 0.607870
O O6 0.847335 0.295275 0.852580
O O7 0.503188 0.010234 0.704829
O O8 0.958284 0.165474 0.017579
O O9 0.457229 0.150152 0.193782
O O10 0.871753 0.270203 0.415025
O O11 0.218157 0.171604 0.096209
O O12 0.013260 0.001965 0.807206
O O13 0.729208 0.528939 0.490999
O O14 0.032363 0.528720 0.759204
O O15 0.500000 0.500000 0.500000
O O16 0.626041 0.718169 0.581185
O O17 0.228984 0.529753 0.178477
#
# Coordination Sequence:
#
# PCOD9100575 Si02
#       8
#     2   2   2   2   2   2   2   2
#     4  12  22  37  65  99 127 161 216 268 314 372
#     4  10  20  37  64  95 129 162 207 256 324 369
#     4  10  21  38  63  97 130 160 206 271 320 370
#     4  10  20  38  64  94 127 157 211 267 314 366
#     4  12  24  41  64  95 126 166 220 266 317 375
#     4  12  25  44  63  92 129 175 214 261 321 391
#     4  10  21  39  63  92 128 169 206 259 322 375
#     4  12  23  40  64  94 128 171 212 263 320 380
#
# _framework density 21.050379
#
# number of rings (size 3 to 8) (size 9 to 14) (size 15 to 20)
#    0.000    1.000    5.000    3.000    0.000    0.000 
#    0.000    1.250    0.000    0.000    0.000    0.000 
#    0.000    0.000    0.000    0.000    0.000    0.000 
#
# Total GULP energy -89486.521883 kJ/mol
# GULP energy per Si atom -5592.907618 kJ/mol
# Density = 2.100247 g / cm^3
# Si number density = 21.050379 Si / 1000 Ang^3
#
#
#
# Elastic Constant Matrix: (Units=GPa)
#
#
# Indices 1 2 3 4 5 6 
#
# 1 62.5675 19.6861 12.4622 13.0943 -5.9588 11.4808
# 2 19.6861 185.1587 54.9846 44.6400 -4.2337 8.0323
# 3 12.4622 54.9846 104.1936 28.4385 -7.1183 -5.7794
# 4 13.0943 44.6400 28.4385 40.9370 -4.8262 4.5496
# 5 -5.9588 -4.2337 -7.1183 -4.8262 23.4746 3.6727
# 6 11.4808 8.0323 -5.7794 4.5496 3.6727 24.0886
#
#
#
# Elastic Compliance Matrix: (Units=1/GPa)
#
#
# Indices 1 2 3 4 5 6 
#
# 1 0.019301 -0.000330 -0.001463 -0.003103 0.005269 -0.009657
# 2 -0.000330 0.007805 -0.002405 -0.006604 -0.000497 -0.001699
# 3 -0.001463 -0.002405 0.013239 -0.006639 0.000939 0.005786
# 4 -0.003103 -0.006604 -0.006639 0.038462 0.004841 -0.005914
# 5 0.005269 -0.000497 0.000939 0.004841 0.046716 -0.010157
# 6 -0.009657 -0.001699 0.005786 -0.005914 -0.010157 0.050736
#
#
# Mechanical properties :
#
#
# Convention : Reuss Voigt Hill
#
# Bulk Modulus (GPa) = 31.30040 58.46505 44.88273
# Shear Modulus (GPa) = 25.60107 35.35251 30.47679
#
# Velocity S-wave (km/s) = 3.49116 4.10252 3.80913
# Velocity P-wave (km/s) = 5.58144 7.09049 6.38074
#
# Compressibility (1/GPa) = 0.03194847
#
# Stress axis : x y z
#
# Youngs Moduli (GPa) = 51.80989 128.13116 75.53650
#
# Poissons Ratio (x) = 0.04230 0.11052
# Poissons Ratio (y) = 0.01710 0.18165
# Poissons Ratio (z) = 0.07580 0.30813
#
# Static dielectric constant tensor:
#      x y z
#    x 1.806840 -0.044180 0.058800 
#    y -0.044180 1.788010 0.004800 
#    z 0.058800 0.004800 1.765230 
# 
# From -- ./inp_files/208713.got.cif
#   From: 2010.05.17/outbox.cif.g08.bks.cpg/sg2_105_cif.got.tgz:208713.got - 2010.06.03 11:33:40.
