data_PCOD9100052
_publ_section_title
;
Structure prediction by ZEFSAII (Michael W. Deem and Ramdas Pophale) SiO2 
 PCOD9100052
Probable space group: P -1
;
_chemical_formula_sum "Si O2"
_cell_formula_units_Z 16
_cell_length_a 18.805262
_cell_length_b 8.596797
_cell_length_c 8.708039
_cell_angle_alpha 104.402927
_cell_angle_beta 41.053434
_cell_angle_gamma 124.847714
_cell_volume 714.136129
_symmetry_space_group_name_H-M "P -1"
_symmetry_group_IT_number 2
_symmetry_cell_setting 'triclinic'
loop_
_space_group_symop_operation_xyz
x,y,z
-x,-y,-z
loop_
_atom_site_type_symbol
_atom_site_label
_atom_site_fract_x
_atom_site_fract_y
_atom_site_fract_z
Si Si1 0.999291 0.862461 0.598708
Si Si2 0.139089 0.142545 0.720304
Si Si3 0.677613 0.476560 0.645311
Si Si4 0.711602 0.632495 0.184805
Si Si5 0.236657 0.894177 0.211110
Si Si6 0.623950 0.068871 0.703923
Si Si7 0.397400 0.349484 0.937535
Si Si8 0.566438 0.172234 0.302502
O O1 0.077664 0.771761 0.395303
O O2 0.107535 0.012088 0.589310
O O3 0.000000 0.000000 0.500000
O O4 0.853283 0.720074 0.883006
O O5 0.184781 0.350166 0.620061
O O6 0.248568 0.223797 0.698121
O O7 0.000000 0.000000 0.000000
O O8 0.666662 0.277373 0.616182
O O9 0.661425 0.543435 0.856285
O O10 0.550740 0.449811 0.761999
O O11 0.638252 0.400847 0.292584
O O12 0.622153 0.644629 0.208755
O O13 0.266189 0.897399 0.346440
O O14 0.314226 0.122080 0.077827
O O15 0.315769 0.822240 0.976564
O O16 0.555022 0.904346 0.641068
O O17 0.500000 0.000000 0.000000
O O18 0.500000 0.000000 0.500000
#
# Coordination Sequence:
#
# PCOD9100052 Si02
#       8
#     2   2   2   2   2   2   2   2
#     4  11  22  44  68  93 122 163 216 273 305 369
#     4  10  23  41  63  90 127 166 210 259 318 370
#     4  11  20  37  64  95 126 163 215 263 310 373
#     4  11  24  40  63  92 130 171 206 261 322 372
#     4  11  22  41  66  95 125 167 215 261 317 370
#     4  10  20  37  62  91 128 164 202 258 315 370
#     4  11  21  35  66  98 122 161 218 265 316 363
#     4  11  24  43  61  93 137 168 203 257 323 384
#
# _framework density 22.404691
#
# number of rings (size 3 to 8) (size 9 to 14) (size 15 to 20)
#    0.000    1.250    5.000    2.250    1.750    1.000 
#    2.250    0.000    0.000    3.000    0.000    0.000 
#    0.000    0.000    0.000    0.000    0.000    0.000 
#
# Total GULP energy -89269.509071 kJ/mol
# GULP energy per Si atom -5579.344317 kJ/mol
# Density = 2.235370 g / cm^3
# Si number density = 22.404691 Si / 1000 Ang^3
#
#
#
# Elastic Constant Matrix: (Units=GPa)
#
#
# Indices 1 2 3 4 5 6 
#
# 1 143.5413 34.7698 35.2821 13.2973 7.5140 7.3979
# 2 34.7698 79.4954 26.1958 -11.3003 -3.1375 10.4769
# 3 35.2821 26.1958 108.8033 -19.0834 3.4107 -14.0129
# 4 13.2973 -11.3003 -19.0834 38.6458 -3.4166 9.2624
# 5 7.5140 -3.1375 3.4107 -3.4166 33.6015 13.5507
# 6 7.3979 10.4769 -14.0129 9.2624 13.5507 28.6588
#
#
#
# Elastic Compliance Matrix: (Units=1/GPa)
#
#
# Indices 1 2 3 4 5 6 
#
# 1 0.009486 -0.004545 -0.002825 -0.006723 -0.003638 0.001724
# 2 -0.004545 0.020015 -0.004019 0.010421 0.011097 -0.016724
# 3 -0.002825 -0.004019 0.013079 0.003544 -0.004589 0.009618
# 4 -0.006723 0.010421 0.003544 0.038892 0.013935 -0.019500
# 5 -0.003638 0.011097 -0.004589 0.013935 0.046300 -0.031758
# 6 0.001724 -0.016724 0.009618 -0.019500 -0.031758 0.066583
#
#
# Mechanical properties :
#
#
# Convention : Reuss Voigt Hill
#
# Bulk Modulus (GPa) = 50.49882 58.25949 54.37915
# Shear Modulus (GPa) = 22.34802 35.88737 29.11769
#
# Velocity S-wave (km/s) = 3.16170 4.00657 3.60894
# Velocity P-wave (km/s) = 5.99306 6.88935 6.45678
#
# Compressibility (1/GPa) = 0.01980244
#
# Stress axis : x y z
#
# Youngs Moduli (GPa) = 105.41622 49.96279 76.45933
#
# Poissons Ratio (x) = 0.22706 0.21600
# Poissons Ratio (y) = 0.47908 0.30730
# Poissons Ratio (z) = 0.29780 0.20081
#
# Static dielectric constant tensor:
#      x y z
#    x 1.841920 0.015620 0.011130 
#    y 0.015620 1.851980 0.101880 
#    z 0.011130 0.101880 1.850170 
# 
# From -- ./inp_files/327538.got.cif
#   From: 2010.05.17/outbox.cif.g08.bks.cpg/sg2_164_cif.got.tgz:327538.got - 2010.06.03 11:33:40.
