data_PCOD9100736
_publ_section_title
;
Structure prediction by ZEFSAII (Michael W. Deem and Ramdas Pophale) SiO2 
 PCOD9100736
Probable space group: P -1
;
_chemical_formula_sum "Si O2"
_cell_formula_units_Z 10
_cell_length_a 5.985989
_cell_length_b 15.905645
_cell_length_c 6.510645
_cell_angle_alpha 52.549165
_cell_angle_beta 97.194709
_cell_angle_gamma 72.361214
_cell_volume 427.936815
_symmetry_space_group_name_H-M "P -1"
_symmetry_group_IT_number 2
_symmetry_cell_setting 'triclinic'
loop_
_space_group_symop_operation_xyz
x,y,z
-x,-y,-z
loop_
_atom_site_type_symbol
_atom_site_label
_atom_site_fract_x
_atom_site_fract_y
_atom_site_fract_z
Si Si1 0.063012 0.323649 0.823526
Si Si2 0.306190 0.942333 0.060602
Si Si3 0.505318 0.724484 0.723971
Si Si4 0.754327 0.217930 0.008356
Si Si5 0.293723 0.424199 0.402876
O O1 0.836925 0.439311 0.740929
O O2 0.105402 0.372990 0.538653
O O3 0.014957 0.210327 0.965335
O O4 0.298679 0.287406 0.057984
O O5 0.443545 0.829112 0.399600
O O6 0.299605 0.888228 0.914831
O O7 0.500000 0.000000 0.000000
O O8 0.000000 0.000000 0.000000
O O9 0.255753 0.760933 0.780652
O O10 0.630960 0.602529 0.785865
O O11 0.548026 0.338768 0.687140
#
# Coordination Sequence:
#
# PCOD9100736 Si02
#       5
#     2   2   2   2   2
#     4  10  20  37  65  93 133 168 211 257 319 393
#     4  11  28  47  69  93 129 172 220 281 337 379
#     4  10  23  39  63  95 126 168 215 268 320 392
#     4  10  23  39  64  95 125 169 215 268 319 394
#     4   9  20  38  59  96 136 169 204 256 324 387
#
# _framework density 23.367934000000002
#
# number of rings (size 3 to 8) (size 9 to 14) (size 15 to 20)
#    0.000    2.000    0.000    1.200   11.200    4.000 
#    0.000    0.000    0.000    0.000    0.000    0.000 
#    0.000    0.000    0.000    0.000    0.000    0.000 
#
# Total GULP energy -55704.616170 kJ/mol
# GULP energy per Si atom -5570.461617 kJ/mol
# Density = 2.331475 g / cm^3
# Si number density = 23.367934 Si / 1000 Ang^3
#
#
#
# Elastic Constant Matrix: (Units=GPa)
#
#
# Indices 1 2 3 4 5 6 
#
# 1 97.1603 65.3389 1.7300 2.9335 -19.5822 17.0562
# 2 65.3389 109.1759 19.8219 22.1146 -22.6918 -7.3132
# 3 1.7300 19.8219 40.3297 13.6721 -11.3917 0.1939
# 4 2.9335 22.1146 13.6721 32.3713 -10.9779 -7.0813
# 5 -19.5822 -22.6918 -11.3917 -10.9779 35.2546 -12.1560
# 6 17.0562 -7.3132 0.1939 -7.0813 -12.1560 40.9881
#
#
#
# Elastic Compliance Matrix: (Units=1/GPa)
#
#
# Indices 1 2 3 4 5 6 
#
# 1 0.023530 -0.016501 0.006106 0.004751 0.001986 -0.011355
# 2 -0.016501 0.023706 -0.006938 -0.007387 0.005512 0.011487
# 3 0.006106 -0.006938 0.032370 -0.008465 0.005447 -0.003779
# 4 0.004751 -0.007387 -0.008465 0.044869 0.011887 0.008022
# 5 0.001986 0.005512 0.005447 0.011887 0.043700 0.015145
# 6 -0.011355 0.011487 -0.003779 0.008022 0.015145 0.037067
#
#
# Mechanical properties :
#
#
# Convention : Reuss Voigt Hill
#
# Bulk Modulus (GPa) = 22.25163 46.71639 34.48401
# Shear Modulus (GPa) = 19.61645 32.37447 25.99546
#
# Velocity S-wave (km/s) = 2.90049 3.72616 3.33895
# Velocity P-wave (km/s) = 4.55632 6.20866 5.44553
#
# Compressibility (1/GPa) = 0.04494053
#
# Stress axis : x y z
#
# Youngs Moduli (GPa) = 42.49809 42.18323 30.89295
#
# Poissons Ratio (x) = 0.69607 -0.18862
# Poissons Ratio (y) = 0.70127 0.21432
# Poissons Ratio (z) = -0.25948 0.29265
#
# Static dielectric constant tensor:
#      x y z
#    x 2.097760 -0.081780 -0.036200 
#    y -0.081780 1.945930 0.015260 
#    z -0.036200 0.015260 1.815670 
# 
# From -- ./inp_files/1436.got.cif
#   From: 2010.05.17/outbox.cif.g08.bks.cpg/sg2_1_cif.got.tgz:1436.got - 2010.06.03 11:33:40.
