data_PCOD9100512
_publ_section_title
;
Structure prediction by ZEFSAII (Michael W. Deem and Ramdas Pophale) SiO2 
 PCOD9100512
Probable space group: P -1
;
_chemical_formula_sum "Si O2"
_cell_formula_units_Z 14
_cell_length_a 11.537702
_cell_length_b 15.059854
_cell_length_c 14.769163
_cell_angle_alpha 153.510611
_cell_angle_beta 28.109791
_cell_angle_gamma 136.544442
_cell_volume 514.063299
_symmetry_space_group_name_H-M "P -1"
_symmetry_group_IT_number 2
_symmetry_cell_setting 'triclinic'
loop_
_space_group_symop_operation_xyz
x,y,z
-x,-y,-z
loop_
_atom_site_type_symbol
_atom_site_label
_atom_site_fract_x
_atom_site_fract_y
_atom_site_fract_z
Si Si1 0.363997 0.826778 0.682982
Si Si2 0.479371 0.621191 0.809808
Si Si3 0.882792 0.847738 0.161404
Si Si4 0.682981 0.939263 0.730149
Si Si5 0.143231 0.501695 0.807860
Si Si6 0.401108 0.740191 0.310334
Si Si7 0.899174 0.726472 0.731817
O O1 0.493259 0.589150 0.340098
O O2 0.548002 0.867737 0.671885
O O3 0.108837 0.815510 0.902243
O O4 0.274738 0.055288 0.903749
O O5 0.421172 0.528746 0.669874
O O6 0.731195 0.686391 0.725216
O O7 0.267986 0.851484 0.152774
O O8 0.647543 0.791031 0.225616
O O9 0.753458 0.088722 0.500514
O O10 0.997191 0.698575 0.028787
O O11 0.869658 0.713222 0.424800
O O12 0.500000 0.000000 0.000000
O O13 0.000000 0.500000 0.000000
O O14 0.166713 0.769862 0.567795
O O15 0.500000 0.500000 0.000000
O O16 0.000000 0.500000 0.500000
#
# Coordination Sequence:
#
# PCOD9100512 Si02
#       7
#     2   2   2   2   2   2   2
#     4   9  19  38  61  90 120 160 217 261 322 372
#     4  10  21  39  60  87 125 162 207 264 315 386
#     4  10  21  39  63  88 128 164 210 264 315 387
#     4  10  20  37  64  92 121 165 217 261 311 385
#     4  11  25  40  59  97 136 172 207 262 339 390
#     4  10  22  41  62  92 120 166 218 264 316 376
#     4  10  22  38  61  90 121 164 219 268 319 380
#
# _framework density 27.234000000000002
#
# number of rings (size 3 to 8) (size 9 to 14) (size 15 to 20)
#    0.000    2.000    0.000    2.571    2.000    6.857 
#    7.714    0.000    0.000    0.000    0.000    0.000 
#    0.000    0.000    0.000    0.000    0.000    0.000 
#
# Total GULP energy -78026.486136 kJ/mol
# GULP energy per Si atom -5573.320438 kJ/mol
# Density = 2.717201 g / cm^3
# Si number density = 27.234000 Si / 1000 Ang^3
#
#
#
# Elastic Constant Matrix: (Units=GPa)
#
#
# Indices 1 2 3 4 5 6 
#
# 1 91.0496 20.3690 42.3031 15.2577 -32.9636 3.2128
# 2 20.3690 96.6371 40.9609 20.8831 -8.5592 5.5257
# 3 42.3031 40.9609 242.4503 81.2427 -33.1643 -16.1019
# 4 15.2577 20.8831 81.2427 75.0773 -9.0008 -5.6612
# 5 -32.9636 -8.5592 -33.1643 -9.0008 56.7860 10.7509
# 6 3.2128 5.5257 -16.1019 -5.6612 10.7509 43.8824
#
#
#
# Elastic Compliance Matrix: (Units=1/GPa)
#
#
# Indices 1 2 3 4 5 6 
#
# 1 0.015195 -0.001600 -0.001298 -0.000495 0.008407 -0.003511
# 2 -0.001600 0.011721 -0.001224 -0.001739 0.000243 -0.002092
# 3 -0.001298 -0.001224 0.007221 -0.006865 0.001898 0.001548
# 4 -0.000495 -0.001739 -0.006865 0.021232 -0.001346 0.000805
# 5 0.008407 0.000243 0.001898 -0.001346 0.024586 -0.006147
# 6 -0.003511 -0.002092 0.001548 0.000805 -0.006147 0.025486
#
#
# Mechanical properties :
#
#
# Convention : Reuss Voigt Hill
#
# Bulk Modulus (GPa) = 38.62173 70.82255 54.72214
# Shear Modulus (GPa) = 40.87775 56.91605 48.89690
#
# Velocity S-wave (km/s) = 3.87845 4.57649 4.24186
# Velocity P-wave (km/s) = 5.85395 7.34761 6.64289
#
# Compressibility (1/GPa) = 0.02589216
#
# Stress axis : x y z
#
# Youngs Moduli (GPa) = 65.81222 85.31666 138.49115
#
# Poissons Ratio (x) = 0.13652 0.17979
# Poissons Ratio (y) = 0.10531 0.16949
# Poissons Ratio (z) = 0.08544 0.10441
#
# Static dielectric constant tensor:
#      x y z
#    x 2.093050 0.023290 -0.165610 
#    y 0.023290 2.096670 0.151440 
#    z -0.165610 0.151440 2.159280 
# 
# From -- ./inp_files/69403.got.cif
#   From: 2010.05.17/outbox.cif.g08.bks.cpg/sg2_35_cif.got.tgz:69403.got - 2010.06.03 11:33:40.
