data_PCOD9100996
_publ_section_title
;
Structure prediction by ZEFSAII (Michael W. Deem and Ramdas Pophale) SiO2 
 PCOD9100996
Probable space group: P -1
;
_chemical_formula_sum "Si O2"
_cell_formula_units_Z 16
_cell_length_a 11.179587
_cell_length_b 8.935703
_cell_length_c 9.477052
_cell_angle_alpha 77.853772
_cell_angle_beta 104.825392
_cell_angle_gamma 128.033738
_cell_volume 719.136390
_symmetry_space_group_name_H-M "P -1"
_symmetry_group_IT_number 2
_symmetry_cell_setting 'triclinic'
loop_
_space_group_symop_operation_xyz
x,y,z
-x,-y,-z
loop_
_atom_site_type_symbol
_atom_site_label
_atom_site_fract_x
_atom_site_fract_y
_atom_site_fract_z
Si Si1 0.787073 0.961715 0.730912
Si Si2 0.371040 0.272838 0.010173
Si Si3 0.915662 0.726867 0.747639
Si Si4 0.896390 0.713127 0.174676
Si Si5 0.870703 0.535361 0.474680
Si Si6 0.171879 0.572971 0.000935
Si Si7 0.285194 0.949110 0.849496
Si Si8 0.658070 0.107901 0.443691
O O1 0.855660 0.855429 0.709566
O O2 0.753064 0.055265 0.577479
O O3 0.647875 0.819634 0.823742
O O4 0.924498 0.132803 0.834515
O O5 0.208676 0.236069 0.934795
O O6 0.381675 0.152991 0.914758
O O7 0.500000 0.500000 0.000000
O O8 0.885648 0.615109 0.617235
O O9 0.101082 0.857483 0.803951
O O10 0.812110 0.556758 0.863228
O O11 0.883123 0.686800 0.342566
O O12 0.838175 0.508528 0.139643
O O13 0.721977 0.326271 0.437598
O O14 0.000000 0.500000 0.500000
O O15 0.284486 0.798360 0.979998
O O16 0.000000 0.500000 0.000000
O O17 0.338495 0.944489 0.707968
O O18 0.500000 0.000000 0.500000
#
# Coordination Sequence:
#
# PCOD9100996 Si02
#       8
#     2   2   2   2   2   2   2   2
#     4  12  25  45  74 108 141 188 241 296 352 425
#     4  12  29  46  69 106 147 189 231 290 368 426
#     4  11  22  40  73 115 137 179 245 299 347 413
#     4  12  22  44  72 101 143 181 244 296 340 416
#     4  12  23  43  72 107 141 187 242 292 346 417
#     4  10  20  37  68 105 141 173 232 297 344 405
#     4  11  23  46  73 101 144 189 235 292 358 417
#     4  12  29  48  69 106 149 190 234 292 366 431
#
# _framework density 22.248909000000001
#
# number of rings (size 3 to 8) (size 9 to 14) (size 15 to 20)
#    0.000    0.500    6.250    2.625    5.250    2.000 
#    0.000    2.500    0.000    0.000    0.000    0.000 
#    0.000    0.000    0.000    0.000    0.000    0.000 
#
# Total GULP energy -89419.316812 kJ/mol
# GULP energy per Si atom -5588.707301 kJ/mol
# Density = 2.219827 g / cm^3
# Si number density = 22.248909 Si / 1000 Ang^3
#
#
#
# Elastic Constant Matrix: (Units=GPa)
#
#
# Indices 1 2 3 4 5 6 
#
# 1 54.8155 10.5206 22.5319 4.7846 -8.3582 -10.5355
# 2 10.5206 154.7894 50.7226 3.4881 -22.5585 -7.7287
# 3 22.5319 50.7226 112.4738 -6.9097 -18.6796 -6.5380
# 4 4.7846 3.4881 -6.9097 41.8290 -14.2781 -9.8414
# 5 -8.3582 -22.5585 -18.6796 -14.2781 32.7781 -5.8346
# 6 -10.5355 -7.7287 -6.5380 -9.8414 -5.8346 34.9995
#
#
#
# Elastic Compliance Matrix: (Units=1/GPa)
#
#
# Indices 1 2 3 4 5 6 
#
# 1 0.021647 0.000785 -0.003292 0.000550 0.005701 0.007179
# 2 0.000785 0.008186 -0.002729 0.001241 0.005312 0.002768
# 3 -0.003292 -0.002729 0.012727 0.006355 0.007998 0.003904
# 4 0.000550 0.001241 0.006355 0.036452 0.023300 0.015761
# 5 0.005701 0.005312 0.007998 0.023300 0.053870 0.019915
# 6 0.007179 0.002768 0.003904 0.015761 0.019915 0.039825
#
#
# Mechanical properties :
#
#
# Convention : Reuss Voigt Hill
#
# Bulk Modulus (GPa) = 31.16700 54.40320 42.78510
# Shear Modulus (GPa) = 25.78963 37.80823 31.79893
#
# Velocity S-wave (km/s) = 3.40831 4.12676 3.78462
# Velocity P-wave (km/s) = 5.43392 6.87110 6.19434
#
# Compressibility (1/GPa) = 0.03208521
#
# Stress axis : x y z
#
# Youngs Moduli (GPa) = 46.19594 122.16229 78.57233
#
# Poissons Ratio (x) = -0.09584 0.25870
# Poissons Ratio (y) = -0.03624 0.21445
# Poissons Ratio (z) = 0.15210 0.33343
#
# Static dielectric constant tensor:
#      x y z
#    x 1.979000 0.232250 -0.083510 
#    y 0.232250 2.175670 -0.167980 
#    z -0.083510 -0.167980 1.912130 
# 
# From -- ./inp_files/186814.got.cif
#   From: 2010.05.17/outbox.cif.g08.bks.cpg/sg2_94_cif.got.tgz:186814.got - 2010.06.03 11:33:40.
