data_PCOD9100207
_publ_section_title
;
Structure prediction by ZEFSAII (Michael W. Deem and Ramdas Pophale) SiO2 
 PCOD9100207
Probable space group: P -1
;
_chemical_formula_sum "Si O2"
_cell_formula_units_Z 16
_cell_length_a 9.084467
_cell_length_b 14.798601
_cell_length_c 17.495926
_cell_angle_alpha 155.724991
_cell_angle_beta 126.884370
_cell_angle_gamma 66.909438
_cell_volume 682.195962
_symmetry_space_group_name_H-M "P -1"
_symmetry_group_IT_number 2
_symmetry_cell_setting 'triclinic'
loop_
_space_group_symop_operation_xyz
x,y,z
-x,-y,-z
loop_
_atom_site_type_symbol
_atom_site_label
_atom_site_fract_x
_atom_site_fract_y
_atom_site_fract_z
Si Si1 0.454325 0.052870 0.438278
Si Si2 0.097837 0.097036 0.438892
Si Si3 0.628341 0.896079 0.090842
Si Si4 0.718261 0.561873 0.428540
Si Si5 0.591364 0.768025 0.692416
Si Si6 0.706630 0.480622 0.075262
Si Si7 0.090234 0.708724 0.253363
Si Si8 0.816198 0.121108 0.168038
O O1 0.250599 0.083533 0.412530
O O2 0.676944 0.249776 0.624884
O O3 0.500000 0.000000 0.500000
O O4 0.374796 0.810444 0.175151
O O5 0.197434 0.385682 0.712848
O O6 0.125380 0.965207 0.423051
O O7 0.851743 0.960576 0.244325
O O8 0.555839 0.096930 0.251621
O O9 0.668711 0.938530 0.045455
O O10 0.454014 0.607879 0.818452
O O11 0.644004 0.702736 0.574921
O O12 0.763565 0.348231 0.317095
O O13 0.952982 0.762088 0.636063
O O14 0.500000 0.500000 0.500000
O O15 0.778487 0.969628 0.960163
O O16 0.906973 0.611254 0.182602
O O17 0.500000 0.500000 0.000000
O O18 0.000000 0.500000 0.000000
#
# Coordination Sequence:
#
# PCOD9100207 Si02
#       8
#     2   2   2   2   2   2   2   2
#     4  10  20  39  59  87 111 151 201 242 298 359
#     4  11  24  40  59  89 124 155 195 261 304 353
#     4  11  23  40  55  89 129 152 192 250 312 341
#     4  10  20  38  63  88 116 160 206 236 285 363
#     4  11  18  37  66  87 115 161 201 241 285 357
#     4  12  21  39  66  89 115 156 209 248 292 367
#     4  11  20  40  66  85 111 157 206 245 293 361
#     4  10  20  37  63  88 115 162 203 239 287 356
#
# _framework density 23.453672999999998
#
# number of rings (size 3 to 8) (size 9 to 14) (size 15 to 20)
#    0.000    1.250    7.500    1.500    0.000    1.000 
#    4.500    0.000    0.000    0.000    0.000    0.000 
#    0.000    0.000    0.000    0.000    0.000    0.000 
#
# Total GULP energy -89316.611878 kJ/mol
# GULP energy per Si atom -5582.288242 kJ/mol
# Density = 2.340029 g / cm^3
# Si number density = 23.453673 Si / 1000 Ang^3
#
#
#
# Elastic Constant Matrix: (Units=GPa)
#
#
# Indices 1 2 3 4 5 6 
#
# 1 155.4918 23.1507 74.2071 -7.3461 12.9523 -35.4907
# 2 23.1507 68.5942 27.0355 -19.0467 9.9574 -32.5162
# 3 74.2071 27.0355 175.6074 -20.7581 -5.2293 -35.5696
# 4 -7.3461 -19.0467 -20.7581 33.8318 -8.5809 15.7780
# 5 12.9523 9.9574 -5.2293 -8.5809 61.6509 0.1835
# 6 -35.4907 -32.5162 -35.5696 15.7780 0.1835 38.3915
#
#
#
# Elastic Compliance Matrix: (Units=1/GPa)
#
#
# Indices 1 2 3 4 5 6 
#
# 1 0.009866 0.001661 -0.003106 -0.003972 -0.003185 0.009297
# 2 0.001661 0.026174 0.000100 0.003719 -0.004117 0.022288
# 3 -0.003106 0.000100 0.008113 0.003223 0.001763 0.003397
# 4 -0.003972 0.003719 0.003223 0.041099 0.006271 -0.014457
# 5 -0.003185 -0.004117 0.001763 0.006271 0.018599 -0.007464
# 6 0.009297 0.022288 0.003397 -0.014457 -0.007464 0.062644
#
#
# Mechanical properties :
#
#
# Convention : Reuss Voigt Hill
#
# Bulk Modulus (GPa) = 24.11774 72.05333 48.08554
# Shear Modulus (GPa) = 27.32141 45.12818 36.22480
#
# Velocity S-wave (km/s) = 3.41678 4.39126 3.93431
# Velocity P-wave (km/s) = 5.08639 7.51659 6.41757
#
# Compressibility (1/GPa) = 0.04146325
#
# Stress axis : x y z
#
# Youngs Moduli (GPa) = 101.35858 38.20588 123.25537
#
# Poissons Ratio (x) = -0.06346 0.38283
# Poissons Ratio (y) = -0.16837 -0.01232
# Poissons Ratio (z) = 0.31482 -0.00382
#
# Static dielectric constant tensor:
#      x y z
#    x 1.880960 0.078330 0.104910 
#    y 0.078330 1.894260 -0.157220 
#    z 0.104910 -0.157220 1.625020 
# 
# From -- ./inp_files/591102.got.cif
#   From: 2010.05.17/outbox.cif.g08.bks.cpg/sg2_296_cif.got.tgz:591102.got - 2010.06.03 11:33:40.
