data_PCOD9100898
_publ_section_title
;
Structure prediction by ZEFSAII (Michael W. Deem and Ramdas Pophale) SiO2 
 PCOD9100898
Probable space group: P -1
;
_chemical_formula_sum "Si O2"
_cell_formula_units_Z 14
_cell_length_a 14.250023
_cell_length_b 8.736149
_cell_length_c 20.505444
_cell_angle_alpha 136.831372
_cell_angle_beta 160.363019
_cell_angle_gamma 40.545269
_cell_volume 556.567641
_symmetry_space_group_name_H-M "P -1"
_symmetry_group_IT_number 2
_symmetry_cell_setting 'triclinic'
loop_
_space_group_symop_operation_xyz
x,y,z
-x,-y,-z
loop_
_atom_site_type_symbol
_atom_site_label
_atom_site_fract_x
_atom_site_fract_y
_atom_site_fract_z
Si Si1 0.838990 0.483623 0.956404
Si Si2 0.650998 0.007518 0.015934
Si Si3 0.661548 0.114232 0.793061
Si Si4 0.132011 0.340764 0.599528
Si Si5 0.158585 0.648406 0.828781
Si Si6 0.774469 0.624328 0.693268
Si Si7 0.019856 0.112733 0.670275
O O1 0.667291 0.295341 0.795608
O O2 0.630258 0.748043 0.912396
O O3 0.068702 0.431183 0.150788
O O4 0.000000 0.500000 0.000000
O O5 0.837171 0.994951 0.199993
O O6 0.831888 0.094356 0.107067
O O7 0.308674 0.163462 0.844777
O O8 0.476258 0.249539 0.775392
O O9 0.550938 0.893005 0.633380
O O10 0.000000 0.000000 0.000000
O O11 0.033777 0.513717 0.649787
O O12 0.000000 0.500000 0.500000
O O13 0.058000 0.097089 0.481872
O O14 0.987434 0.659076 0.786203
O O15 0.500000 0.500000 0.000000
O O16 0.757197 0.364429 0.582067
#
# Coordination Sequence:
#
# PCOD9100898 Si02
#       7
#     2   2   2   2   2   2   2
#     4  10  20  37  66  97 128 174 233 276 330 410
#     4  10  20  38  68  96 138 181 229 275 342 409
#     4  10  22  42  69 101 137 178 226 283 346 406
#     4  12  25  43  72 104 140 179 234 284 338 412
#     4  12  22  40  70 103 138 183 226 282 348 406
#     4  10  22  40  62  93 137 174 223 279 341 401
#     4  10  21  40  66  98 137 180 228 280 335 408
#
# _framework density 25.154174000000001
#
# number of rings (size 3 to 8) (size 9 to 14) (size 15 to 20)
#    0.000    1.429    2.857    3.429    2.000    2.286 
#    0.000    0.714   12.571    0.000    0.000    0.000 
#    0.000    0.000    0.000    0.000    0.000    0.000 
#
# Total GULP energy -78170.198954 kJ/mol
# GULP energy per Si atom -5583.585640 kJ/mol
# Density = 2.509692 g / cm^3
# Si number density = 25.154174 Si / 1000 Ang^3
#
#
#
# Elastic Constant Matrix: (Units=GPa)
#
#
# Indices 1 2 3 4 5 6 
#
# 1 151.9415 16.6776 19.5375 19.3794 14.9693 12.8351
# 2 16.6776 146.5633 23.4437 47.0368 1.5946 1.5902
# 3 19.5375 23.4437 67.1120 21.1280 9.0697 7.8553
# 4 19.3794 47.0368 21.1280 53.8001 10.4638 17.9481
# 5 14.9693 1.5946 9.0697 10.4638 25.4130 11.8369
# 6 12.8351 1.5902 7.8553 17.9481 11.8369 38.6570
#
#
#
# Elastic Compliance Matrix: (Units=1/GPa)
#
#
# Indices 1 2 3 4 5 6 
#
# 1 0.007263 -0.000239 -0.001185 -0.001111 -0.003052 -0.000711
# 2 -0.000239 0.010217 -0.001058 -0.010172 0.002245 0.003909
# 3 -0.001185 -0.001058 0.017633 -0.004958 -0.003609 0.000261
# 4 -0.001111 -0.010172 -0.004958 0.035178 -0.005425 -0.012877
# 5 -0.003052 0.002245 -0.003609 -0.005425 0.049668 -0.011036
# 6 -0.000711 0.003909 0.000261 -0.012877 -0.011036 0.035249
#
#
# Mechanical properties :
#
#
# Convention : Reuss Voigt Hill
#
# Bulk Modulus (GPa) = 33.17097 53.88160 43.52629
# Shear Modulus (GPa) = 29.37324 43.97122 36.67223
#
# Velocity S-wave (km/s) = 3.42091 4.18553 3.82239
# Velocity P-wave (km/s) = 5.36835 6.69516 6.06813
#
# Compressibility (1/GPa) = 0.03014684
#
# Stress axis : x y z
#
# Youngs Moduli (GPa) = 137.69353 97.87546 56.71143
#
# Poissons Ratio (x) = 0.02344 0.06723
# Poissons Ratio (y) = 0.03297 0.06000
# Poissons Ratio (z) = 0.16322 0.10356
#
# Static dielectric constant tensor:
#      x y z
#    x 1.982640 -0.029970 -0.013660 
#    y -0.029970 2.107840 0.038200 
#    z -0.013660 0.038200 2.093790 
# 
# From -- ./inp_files/611720.got.cif
#   From: 2010.05.17/outbox.cif.g08.bks.cpg/sg2_306_cif.got.tgz:611720.got - 2010.06.03 11:33:40.
