data_PCOD9100070
_publ_section_title
;
Structure prediction by ZEFSAII (Michael W. Deem and Ramdas Pophale) SiO2 
 PCOD9100070
Probable space group: P -1
;
_chemical_formula_sum "Si O2"
_cell_formula_units_Z 12
_cell_length_a 6.921697
_cell_length_b 11.323688
_cell_length_c 12.921180
_cell_angle_alpha 33.060315
_cell_angle_beta 89.652499
_cell_angle_gamma 104.527856
_cell_volume 487.890383
_symmetry_space_group_name_H-M "P -1"
_symmetry_group_IT_number 2
_symmetry_cell_setting 'triclinic'
loop_
_space_group_symop_operation_xyz
x,y,z
-x,-y,-z
loop_
_atom_site_type_symbol
_atom_site_label
_atom_site_fract_x
_atom_site_fract_y
_atom_site_fract_z
Si Si1 0.954179 0.329668 0.957044
Si Si2 0.193566 0.773017 0.403150
Si Si3 0.450003 0.532598 0.818884
Si Si4 0.415253 0.825551 0.788206
Si Si5 0.092943 0.809512 0.151846
Si Si6 0.914663 0.800384 0.555115
O O1 0.805864 0.183767 0.966334
O O2 0.977242 0.597726 0.747891
O O3 0.196467 0.362339 0.918561
O O4 0.826073 0.223819 0.141699
O O5 0.227716 0.856455 0.222564
O O6 0.088812 0.478032 0.623757
O O7 0.028626 0.853297 0.403466
O O8 0.409455 0.908329 0.371219
O O9 0.442527 0.744210 0.734404
O O10 0.652885 0.671754 0.639389
O O11 0.527034 0.360730 0.008437
O O12 0.000000 0.000000 0.000000
O O13 0.000000 0.000000 0.500000
#
# Coordination Sequence:
#
# PCOD9100070 Si02
#       6
#     2   2   2   2   2   2
#     4  10  22  38  60  93 128 168 213 262 317 381
#     4  10  21  41  68  92 128 172 213 268 322 377
#     4  10  20  37  62  92 135 169 202 264 323 385
#     4  10  20  37  62  94 128 169 211 259 327 380
#     4  10  22  43  64  91 129 170 221 267 314 383
#     4  10  20  39  61  93 130 166 207 263 326 378
#
# _framework density 24.595687999999999
#
# number of rings (size 3 to 8) (size 9 to 14) (size 15 to 20)
#    0.000    2.000    1.667    1.500    0.000    1.333 
#    3.000    5.000    0.000    0.000    0.000    0.000 
#    0.000    0.000    0.000    0.000    0.000    0.000 
#
# Total GULP energy -67043.510995 kJ/mol
# GULP energy per Si atom -5586.959250 kJ/mol
# Density = 2.453971 g / cm^3
# Si number density = 24.595688 Si / 1000 Ang^3
#
#
#
# Elastic Constant Matrix: (Units=GPa)
#
#
# Indices 1 2 3 4 5 6 
#
# 1 131.3124 20.2601 27.5532 5.9248 -14.6000 0.6141
# 2 20.2601 114.4099 21.1176 -13.6291 4.2694 -3.1016
# 3 27.5532 21.1176 65.7677 -13.3876 8.1808 -2.3952
# 4 5.9248 -13.6291 -13.3876 42.0754 -6.7367 3.5560
# 5 -14.6000 4.2694 8.1808 -6.7367 43.2885 -4.6304
# 6 0.6141 -3.1016 -2.3952 3.5560 -4.6304 30.0596
#
#
#
# Elastic Compliance Matrix: (Units=1/GPa)
#
#
# Indices 1 2 3 4 5 6 
#
# 1 0.009272 -0.001257 -0.004455 -0.002552 0.003717 0.000200
# 2 -0.001257 0.009664 -0.001971 0.002551 -0.000556 0.000478
# 3 -0.004455 -0.001971 0.019333 0.005472 -0.004094 0.000150
# 4 -0.002552 0.002551 0.005472 0.027174 0.001849 -0.002178
# 5 0.003717 -0.000556 -0.004094 0.001849 0.025824 0.003300
# 6 0.000200 0.000478 0.000150 -0.002178 0.003300 0.034090
#
#
# Mechanical properties :
#
#
# Convention : Reuss Voigt Hill
#
# Bulk Modulus (GPa) = 43.66182 49.92798 46.79490
# Shear Modulus (GPa) = 33.70230 39.25531 36.47881
#
# Velocity S-wave (km/s) = 3.70571 3.99936 3.85533
# Velocity P-wave (km/s) = 6.00833 6.45524 6.23579
#
# Compressibility (1/GPa) = 0.02290331
#
# Stress axis : x y z
#
# Youngs Moduli (GPa) = 107.85475 103.47220 51.72487
#
# Poissons Ratio (x) = 0.13004 0.23045
# Poissons Ratio (y) = 0.13555 0.10194
# Poissons Ratio (z) = 0.48054 0.20392
#
# Static dielectric constant tensor:
#      x y z
#    x 1.940500 0.025120 0.005970 
#    y 0.025120 2.010050 0.040090 
#    z 0.005970 0.040090 2.029300 
# 
# From -- ./inp_files/287619.got.cif
#   From: 2010.05.17/outbox.cif.g08.bks.cpg/sg2_144_cif.got.tgz:287619.got - 2010.06.03 11:33:40.
