data_PCOD9100307
_publ_section_title
;
Structure prediction by ZEFSAII (Michael W. Deem and Ramdas Pophale) SiO2 
 PCOD9100307
Probable space group: P -1
;
_chemical_formula_sum "Si O2"
_cell_formula_units_Z 15
_cell_length_a 12.819559
_cell_length_b 9.351125
_cell_length_c 9.566231
_cell_angle_alpha 57.328914
_cell_angle_beta 128.707220
_cell_angle_gamma 140.171002
_cell_volume 569.086921
_symmetry_space_group_name_H-M "P -1"
_symmetry_group_IT_number 2
_symmetry_cell_setting 'triclinic'
loop_
_space_group_symop_operation_xyz
x,y,z
-x,-y,-z
loop_
_atom_site_type_symbol
_atom_site_label
_atom_site_fract_x
_atom_site_fract_y
_atom_site_fract_z
Si Si1 0.902400 0.499052 0.284555
Si Si2 0.974936 0.602383 0.794661
Si Si3 0.423696 0.715792 0.361885
Si Si4 0.201916 0.019129 0.188909
Si Si5 0.746009 0.672963 0.176151
Si Si6 0.500000 0.000000 0.500000
Si Si7 0.093672 0.066647 0.367810
Si Si8 0.423013 0.349958 0.692099
O O1 0.739297 0.478555 0.210810
O O2 0.000000 0.500000 0.500000
O O3 0.889233 0.342504 0.239817
O O4 0.037724 0.750422 0.196842
O O5 0.771470 0.402895 0.681910
O O6 0.971054 0.794181 0.738494
O O7 0.000000 0.500000 0.000000
O O8 0.461426 0.567522 0.546039
O O9 0.440863 0.678988 0.233890
O O10 0.540297 0.961447 0.392294
O O11 0.377483 0.053059 0.312000
O O12 0.178238 0.105431 0.266693
O O13 0.205010 0.152038 0.994019
O O14 0.596146 0.628620 0.171822
O O15 0.917006 0.806301 0.353740
O O16 0.239759 0.148392 0.564452
#
# Coordination Sequence:
#
# PCOD9100307 Si02
#       8
#     2   2   2   2   2   1   2   2
#     4  11  22  40  66  96 129 165 214 262 313 381
#     4  11  21  38  65  96 128 159 209 269 321 367
#     4  10  22  40  66  88 126 171 214 260 313 392
#     4  11  23  41  63  91 129 171 215 261 322 377
#     4  11  23  40  64  97 133 166 212 268 317 380
#     4  12  22  42  68  86 126 180 216 258 322 382
#     4  10  20  37  63  92 125 170 206 256 322 387
#     4  10  21  41  63  91 124 168 216 252 326 381
#
# _framework density 26.358011999999999
#
# number of rings (size 3 to 8) (size 9 to 14) (size 15 to 20)
#    0.000    1.333    2.667    5.200    0.000    1.067 
#    0.000    2.667    0.000    0.000    0.000    0.000 
#    0.000    0.000    0.000    0.000    0.000    0.000 
#
# Total GULP energy -83669.070270 kJ/mol
# GULP energy per Si atom -5577.938018 kJ/mol
# Density = 2.629802 g / cm^3
# Si number density = 26.358012 Si / 1000 Ang^3
#
#
#
# Elastic Constant Matrix: (Units=GPa)
#
#
# Indices 1 2 3 4 5 6 
#
# 1 215.1957 40.5477 51.7193 -5.1656 -27.2799 -67.1168
# 2 40.5477 82.1412 11.9779 -14.4638 0.8284 -33.8313
# 3 51.7193 11.9779 72.6111 -19.0950 -2.9065 -12.3231
# 4 -5.1656 -14.4638 -19.0950 23.5588 -0.9801 0.5525
# 5 -27.2799 0.8284 -2.9065 -0.9801 57.8667 6.9381
# 6 -67.1168 -33.8313 -12.3231 0.5525 6.9381 60.7034
#
#
#
# Elastic Compliance Matrix: (Units=1/GPa)
#
#
# Indices 1 2 3 4 5 6 
#
# 1 0.008929 -0.000927 -0.005589 -0.003204 0.002939 0.007914
# 2 -0.000927 0.018683 0.002663 0.013127 -0.001546 0.009986
# 3 -0.005589 0.002663 0.022008 0.018203 -0.001229 -0.000252
# 4 -0.003204 0.013127 0.018203 0.064373 -0.000526 0.006943
# 5 0.002939 -0.001546 -0.001229 -0.000526 0.018616 0.000015
# 6 0.007914 0.009986 -0.000252 0.006943 0.000015 0.030673
#
#
# Mechanical properties :
#
#
# Convention : Reuss Voigt Hill
#
# Bulk Modulus (GPa) = 23.85756 64.27085 44.06421
# Shear Modulus (GPa) = 27.03306 46.13932 36.58619
#
# Velocity S-wave (km/s) = 3.20599 4.18842 3.72969
# Velocity P-wave (km/s) = 4.77237 6.91572 5.94149
#
# Compressibility (1/GPa) = 0.04191544
#
# Stress axis : x y z
#
# Youngs Moduli (GPa) = 111.99843 53.52412 45.43746
#
# Poissons Ratio (x) = 0.04961 0.25394
# Poissons Ratio (y) = 0.10380 -0.12101
# Poissons Ratio (z) = 0.62593 -0.14254
#
# Static dielectric constant tensor:
#      x y z
#    x 3.549050 1.800700 0.040210 
#    y 1.800700 4.395230 0.171180 
#    z 0.040210 0.171180 2.059880 
# 
# From -- ./inp_files/175507.got.cif
#   From: 2010.05.17/outbox.cif.g08.bks.cpg/sg2_88_cif.got.tgz:175507.got - 2010.06.03 11:33:40.
