data_PCOD9100767
_publ_section_title
;
Structure prediction by ZEFSAII (Michael W. Deem and Ramdas Pophale) SiO2 
 PCOD9100767
Probable space group: P -1
;
_chemical_formula_sum "Si O2"
_cell_formula_units_Z 16
_cell_length_a 10.060895
_cell_length_b 9.000578
_cell_length_c 8.096830
_cell_angle_alpha 81.243176
_cell_angle_beta 83.705172
_cell_angle_gamma 119.806649
_cell_volume 613.930296
_symmetry_space_group_name_H-M "P -1"
_symmetry_group_IT_number 2
_symmetry_cell_setting 'triclinic'
loop_
_space_group_symop_operation_xyz
x,y,z
-x,-y,-z
loop_
_atom_site_type_symbol
_atom_site_label
_atom_site_fract_x
_atom_site_fract_y
_atom_site_fract_z
Si Si1 0.175291 0.621028 0.025616
Si Si2 0.409997 0.158321 0.645394
Si Si3 0.826664 0.364631 0.496873
Si Si4 0.309990 0.500534 0.309522
Si Si5 0.601876 0.192684 0.289796
Si Si6 0.119522 0.150938 0.831142
Si Si7 0.193473 0.902846 0.197116
Si Si8 0.659040 0.690976 0.931928
O O1 0.200547 0.536337 0.199390
O O2 0.188643 0.801344 0.049627
O O3 0.337013 0.680590 0.895648
O O4 0.000000 0.500000 0.000000
O O5 0.516237 0.327534 0.720918
O O6 0.481489 0.191162 0.441429
O O7 0.235366 0.117741 0.708346
O O8 0.434746 0.999773 0.719128
O O9 0.750577 0.487240 0.505125
O O10 0.772892 0.280370 0.341389
O O11 0.765759 0.191466 0.648686
O O12 0.000000 0.500000 0.500000
O O13 0.291987 0.331052 0.257473
O O14 0.987637 0.155543 0.738917
O O15 0.230818 0.295084 0.930304
O O16 0.000000 0.000000 0.000000
O O17 0.311889 0.111459 0.117367
O O18 0.500000 0.500000 0.000000
#
# Coordination Sequence:
#
# PCOD9100767 Si02
#       8
#     2   2   2   2   2   2   2   2
#     4  11  22  41  71 104 131 174 236 285 337 401
#     4  10  21  40  60  96 135 180 217 278 347 402
#     4  10  22  43  69  93 134 176 229 282 336 404
#     4  10  22  39  66  98 133 171 227 278 334 402
#     4  10  21  39  66  93 135 175 226 279 342 398
#     4  10  20  37  65  96 138 174 224 281 337 408
#     4  10  23  41  70 105 131 176 231 279 345 408
#     4  11  21  39  64 101 139 169 218 283 343 397
#
# _framework density 26.061589999999999
#
# number of rings (size 3 to 8) (size 9 to 14) (size 15 to 20)
#    0.000    1.750    1.250    3.750    0.000    3.500 
#    6.750    2.500    0.000    6.750    0.000    0.000 
#    0.000    0.000    0.000    0.000    0.000    0.000 
#
# Total GULP energy -89135.623102 kJ/mol
# GULP energy per Si atom -5570.976444 kJ/mol
# Density = 2.600227 g / cm^3
# Si number density = 26.061590 Si / 1000 Ang^3
#
#
#
# Elastic Constant Matrix: (Units=GPa)
#
#
# Indices 1 2 3 4 5 6 
#
# 1 119.4059 58.3935 25.2447 -6.1405 -28.4179 21.5054
# 2 58.3935 192.2358 26.9301 15.3390 -18.0015 6.3155
# 3 25.2447 26.9301 68.9278 -8.2469 -34.4502 -2.5388
# 4 -6.1405 15.3390 -8.2469 36.0746 6.3110 -6.2309
# 5 -28.4179 -18.0015 -34.4502 6.3110 39.5703 -0.7629
# 6 21.5054 6.3155 -2.5388 -6.2309 -0.7629 51.1885
#
#
#
# Elastic Compliance Matrix: (Units=1/GPa)
#
#
# Indices 1 2 3 4 5 6 
#
# 1 0.012519 -0.003115 0.000465 0.001433 0.007661 -0.004563
# 2 -0.003115 0.006717 -0.002180 -0.003820 -0.000472 -0.000100
# 3 0.000465 -0.002180 0.026743 0.003631 0.022088 0.002171
# 4 0.001433 -0.003820 0.003631 0.031521 -0.002500 0.003849
# 5 0.007661 -0.000472 0.022088 -0.002500 0.050156 -0.001622
# 6 -0.004563 -0.000100 0.002171 0.003849 -0.001622 0.022017
#
#
# Mechanical properties :
#
#
# Convention : Reuss Voigt Hill
#
# Bulk Modulus (GPa) = 27.53412 66.85621 47.19517
# Shear Modulus (GPa) = 29.16460 43.36675 36.26568
#
# Velocity S-wave (km/s) = 3.34887 4.08365 3.73438
# Velocity P-wave (km/s) = 5.05383 6.92415 6.06156
#
# Compressibility (1/GPa) = 0.03631857
#
# Stress axis : x y z
#
# Youngs Moduli (GPa) = 79.88001 148.86720 37.39238
#
# Poissons Ratio (x) = 0.46368 -0.01737
# Poissons Ratio (y) = 0.24881 0.08153
# Poissons Ratio (z) = -0.03710 0.32457
#
# Static dielectric constant tensor:
#      x y z
#    x 2.230160 -0.005300 -0.057940 
#    y -0.005300 2.034870 -0.026820 
#    z -0.057940 -0.026820 2.257370 
# 
# From -- ./inp_files/243976.got.cif
#   From: 2010.05.17/outbox.cif.g08.bks.cpg/sg2_122_cif.got.tgz:243976.got - 2010.06.03 11:33:40.
