data_PCOD9100384
_publ_section_title
;
Structure prediction by ZEFSAII (Michael W. Deem and Ramdas Pophale) SiO2 
 PCOD9100384
Probable space group: P -1
;
_chemical_formula_sum "Si O2"
_cell_formula_units_Z 16
_cell_length_a 10.025703
_cell_length_b 15.767387
_cell_length_c 9.436865
_cell_angle_alpha 115.857195
_cell_angle_beta 72.379332
_cell_angle_gamma 145.139423
_cell_volume 762.879527
_symmetry_space_group_name_H-M "P -1"
_symmetry_group_IT_number 2
_symmetry_cell_setting 'triclinic'
loop_
_space_group_symop_operation_xyz
x,y,z
-x,-y,-z
loop_
_atom_site_type_symbol
_atom_site_label
_atom_site_fract_x
_atom_site_fract_y
_atom_site_fract_z
Si Si1 0.279058 0.137356 0.526047
Si Si2 0.776649 0.377323 0.086021
Si Si3 0.095117 0.835966 0.700816
Si Si4 0.301795 0.319118 0.474278
Si Si5 0.087211 0.668881 0.358522
Si Si6 0.515658 0.798872 0.219069
Si Si7 0.112262 0.852531 0.302387
Si Si8 0.778783 0.166455 0.036777
O O1 0.390500 0.267386 0.469641
O O2 0.346743 0.193071 0.707974
O O3 0.295859 0.035106 0.410665
O O4 0.000000 0.000000 0.500000
O O5 0.793062 0.286194 0.092882
O O6 0.837004 0.493061 0.260894
O O7 0.561404 0.272070 0.967355
O O8 0.000000 0.500000 0.000000
O O9 0.080348 0.730079 0.541941
O O10 0.115088 0.816022 0.840653
O O11 0.874269 0.778203 0.674419
O O12 0.319224 0.020235 0.720599
O O13 0.500000 0.500000 0.500000
O O14 0.130308 0.261064 0.616576
O O15 0.280063 0.691722 0.308583
O O16 0.190526 0.795070 0.297812
O O17 0.097971 0.825896 0.122512
O O18 0.500000 0.000000 0.000000
#
# Coordination Sequence:
#
# PCOD9100384 Si02
#       8
#     2   2   2   2   2   2   2   2
#     4  10  20  38  69  92 121 170 226 262 313 383
#     4  10  21  37  58  92 145 161 202 265 325 392
#     4  11  22  38  67  90 129 166 222 266 318 387
#     4  10  23  45  66  93 127 167 224 283 313 366
#     4  10  20  37  63  97 128 168 209 261 335 379
#     4  11  18  35  68  95 124 174 208 265 324 389
#     4  10  20  41  66  89 134 167 212 262 325 386
#     4  12  23  38  62 102 138 166 208 263 329 395
#
# _framework density 20.973167
#
# number of rings (size 3 to 8) (size 9 to 14) (size 15 to 20)
#    0.000    1.500    7.500    0.375    1.750    2.500 
#    4.500    1.250    8.250    0.000    0.000    0.000 
#    0.000    0.000    0.000    0.000    0.000    0.000 
#
# Total GULP energy -89132.453770 kJ/mol
# GULP energy per Si atom -5570.778361 kJ/mol
# Density = 2.092543 g / cm^3
# Si number density = 20.973167 Si / 1000 Ang^3
#
#
#
# Elastic Constant Matrix: (Units=GPa)
#
#
# Indices 1 2 3 4 5 6 
#
# 1 58.0280 39.2104 33.0012 0.7328 32.0976 -18.2856
# 2 39.2104 120.4559 48.2634 11.3946 11.6326 -31.4697
# 3 33.0012 48.2634 147.6342 -2.1974 41.6415 -11.4692
# 4 0.7328 11.3946 -2.1974 37.5214 -6.1399 5.8798
# 5 32.0976 11.6326 41.6415 -6.1399 38.2381 -3.3081
# 6 -18.2856 -31.4697 -11.4692 5.8798 -3.3081 34.9992
#
#
#
# Elastic Compliance Matrix: (Units=1/GPa)
#
#
# Indices 1 2 3 4 5 6 
#
# 1 0.051677 -0.009324 0.005941 -0.008236 -0.046818 0.017520
# 2 -0.009324 0.015113 -0.004554 -0.004711 0.008193 0.008791
# 3 0.005941 -0.004554 0.011627 -0.000943 -0.016290 0.001437
# 4 -0.008236 -0.004711 -0.000943 0.032430 0.013454 -0.013025
# 5 -0.046818 0.008193 -0.016290 0.013454 0.081388 -0.016999
# 6 0.017520 0.008791 0.001437 -0.013025 -0.016999 0.046682
#
#
# Mechanical properties :
#
#
# Convention : Reuss Voigt Hill
#
# Bulk Modulus (GPa) = 15.98972 63.00757 39.49864
# Shear Modulus (GPa) = 18.13958 35.86127 27.00043
#
# Velocity S-wave (km/s) = 2.94410 4.13954 3.59190
# Velocity P-wave (km/s) = 4.38148 7.27701 6.00634
#
# Compressibility (1/GPa) = 0.06254020
#
# Stress axis : x y z
#
# Youngs Moduli (GPa) = 19.35102 66.16902 86.00842
#
# Poissons Ratio (x) = 0.61697 -0.51094
# Poissons Ratio (y) = 0.18043 0.39172
# Poissons Ratio (z) = -0.11496 0.30136
#
# Static dielectric constant tensor:
#      x y z
#    x 1.992050 -0.033420 -0.069220 
#    y -0.033420 1.780100 0.053830 
#    z -0.069220 0.053830 1.860590 
# 
# From -- ./inp_files/279619.got.cif
#   From: 2010.05.17/outbox.cif.g08.bks.cpg/sg2_140_cif.got.tgz:279619.got - 2010.06.03 11:33:40.
