data_PCOD9100638
_publ_section_title
;
Structure prediction by ZEFSAII (Michael W. Deem and Ramdas Pophale) SiO2 
 PCOD9100638
Probable space group: P -1
;
_chemical_formula_sum "Si O2"
_cell_formula_units_Z 16
_cell_length_a 9.539547
_cell_length_b 11.840757
_cell_length_c 24.742595
_cell_angle_alpha 163.255148
_cell_angle_beta 56.015956
_cell_angle_gamma 124.980636
_cell_volume 659.159576
_symmetry_space_group_name_H-M "P -1"
_symmetry_group_IT_number 2
_symmetry_cell_setting 'triclinic'
loop_
_space_group_symop_operation_xyz
x,y,z
-x,-y,-z
loop_
_atom_site_type_symbol
_atom_site_label
_atom_site_fract_x
_atom_site_fract_y
_atom_site_fract_z
Si Si1 0.741852 0.771603 0.689333
Si Si2 0.936706 0.020905 0.204779
Si Si3 0.538674 0.412926 0.257061
Si Si4 0.371042 0.667851 0.308370
Si Si5 0.299432 0.312156 0.457337
Si Si6 0.889880 0.249502 0.674273
Si Si7 0.873935 0.375056 0.109254
Si Si8 0.727842 0.823679 0.253457
O O1 0.567809 0.829278 0.783752
O O2 0.744305 0.926843 0.698877
O O3 0.911202 0.870266 0.734145
O O4 0.725069 0.292367 0.466528
O O5 0.830234 0.364594 0.367028
O O6 0.803421 0.715874 0.130228
O O7 0.027203 0.878509 0.067955
O O8 0.394265 0.481417 0.275963
O O9 0.685989 0.240899 0.114471
O O10 0.619434 0.856967 0.463640
O O11 0.203422 0.513031 0.240002
O O12 0.537167 0.625125 0.217830
O O13 0.500000 0.500000 0.500000
O O14 0.255439 0.037285 0.392670
O O15 0.006787 0.488077 0.803194
O O16 0.000000 0.000000 0.500000
O O17 0.838102 0.725733 0.236262
#
# Coordination Sequence:
#
# PCOD9100638 Si02
#       8
#     2   2   2   2   2   2   2   2
#     4  10  20  37  65  85 117 157 210 243 296 356
#     4  11  22  37  59  89 125 157 196 258 302 353
#     4   9  18  35  59  87 113 155 198 254 290 345
#     4   9  18  34  60  85 111 147 209 250 279 345
#     4  11  24  42  64  92 122 161 201 248 303 360
#     4  12  23  37  65  89 118 163 209 239 293 369
#     4  11  22  36  58  92 125 153 202 252 306 351
#     4   9  18  37  61  85 112 157 204 247 293 356
#
# _framework density 24.273333999999998
#
# number of rings (size 3 to 8) (size 9 to 14) (size 15 to 20)
#    0.000    1.750    1.250    6.375    1.750    0.500 
#    0.000    5.625    0.000    0.000    0.000    0.000 
#    0.000    0.000    0.000    0.000    0.000    0.000 
#
# Total GULP energy -89542.643956 kJ/mol
# GULP energy per Si atom -5596.415247 kJ/mol
# Density = 2.421809 g / cm^3
# Si number density = 24.273334 Si / 1000 Ang^3
#
#
#
# Elastic Constant Matrix: (Units=GPa)
#
#
# Indices 1 2 3 4 5 6 
#
# 1 145.8755 24.4471 32.5072 -25.5371 16.1182 -15.2222
# 2 24.4471 144.4075 35.2161 -40.2175 0.1824 4.0524
# 3 32.5072 35.2161 80.5907 -37.4932 0.1954 -5.4039
# 4 -25.5371 -40.2175 -37.4932 43.2490 -2.5690 0.0028
# 5 16.1182 0.1824 0.1954 -2.5690 28.6400 -4.2718
# 6 -15.2222 4.0524 -5.4039 0.0028 -4.2718 40.3668
#
#
#
# Elastic Compliance Matrix: (Units=1/GPa)
#
#
# Indices 1 2 3 4 5 6 
#
# 1 0.008545 -0.000233 -0.001726 0.003087 -0.004134 0.002577
# 2 -0.000233 0.009398 -0.000098 0.008558 0.000695 -0.000972
# 3 -0.001726 -0.000098 0.021572 0.017757 0.002797 0.002542
# 4 0.003087 0.008558 0.017757 0.048467 0.002880 0.002983
# 5 -0.004134 0.000695 0.002797 0.002880 0.037889 0.002755
# 6 0.002577 -0.000972 0.002542 0.002983 0.002755 0.026474
#
#
# Mechanical properties :
#
#
# Convention : Reuss Voigt Hill
#
# Bulk Modulus (GPa) = 28.24821 61.69051 44.96936
# Shear Modulus (GPa) = 29.71610 41.03138 35.37374
#
# Velocity S-wave (km/s) = 3.50269 4.11589 3.82161
# Velocity P-wave (km/s) = 5.29351 6.93236 6.16761
#
# Compressibility (1/GPa) = 0.03540047
#
# Stress axis : x y z
#
# Youngs Moduli (GPa) = 117.02835 106.40572 46.35629
#
# Poissons Ratio (x) = 0.02481 0.08001
# Poissons Ratio (y) = 0.02728 0.00455
# Poissons Ratio (z) = 0.20199 0.01044
#
# Static dielectric constant tensor:
#      x y z
#    x 1.890730 0.026380 0.013880 
#    y 0.026380 1.941610 0.041210 
#    z 0.013880 0.041210 2.027640 
# 
# From -- ./inp_files/260403.got.cif
#   From: 2010.05.17/outbox.cif.g08.bks.cpg/sg2_131_cif.got.tgz:260403.got - 2010.06.03 11:33:40.
