data_PCOD9100651
_publ_section_title
;
Structure prediction by ZEFSAII (Michael W. Deem and Ramdas Pophale) SiO2 
 PCOD9100651
Probable space group: P -1
;
_chemical_formula_sum "Si O2"
_cell_formula_units_Z 14
_cell_length_a 13.341548
_cell_length_b 16.804375
_cell_length_c 9.051124
_cell_angle_alpha 59.893824
_cell_angle_beta 60.791124
_cell_angle_gamma 18.137944
_cell_volume 546.008808
_symmetry_space_group_name_H-M "P -1"
_symmetry_group_IT_number 2
_symmetry_cell_setting 'triclinic'
loop_
_space_group_symop_operation_xyz
x,y,z
-x,-y,-z
loop_
_atom_site_type_symbol
_atom_site_label
_atom_site_fract_x
_atom_site_fract_y
_atom_site_fract_z
Si Si1 0.965114 0.979194 0.781666
Si Si2 0.216070 0.472004 0.453181
Si Si3 0.887312 0.211677 0.470152
Si Si4 0.695399 0.732339 0.670355
Si Si5 0.970326 0.800888 0.113578
Si Si6 0.734931 0.521773 0.273277
Si Si7 0.871820 0.717764 0.032782
O O1 0.038032 0.032575 0.654584
O O2 0.576481 0.265766 0.798404
O O3 0.061647 0.864002 0.661221
O O4 0.064848 0.834821 0.974032
O O5 0.847084 0.717588 0.533243
O O6 0.200316 0.577923 0.273133
O O7 0.355424 0.287688 0.423251
O O8 0.385989 0.355742 0.595208
O O9 0.500000 0.500000 0.500000
O O10 0.958324 0.265924 0.378258
O O11 0.389274 0.944956 0.797434
O O12 0.003111 0.451230 0.786093
O O13 0.971505 0.739721 0.019032
O O14 0.943867 0.434951 0.110761
O O15 0.500000 0.000000 0.000000
#
# Coordination Sequence:
#
# PCOD9100651 Si02
#       7
#     2   2   2   2   2   2   2
#     4  10  20  37  65  88 112 153 196 242 303 344
#     4  10  24  36  57  83 123 161 195 237 293 348
#     4   9  20  37  62  91 116 142 194 252 297 350
#     4  10  22  41  53  80 123 167 197 236 288 350
#     4  11  21  39  59  84 116 162 194 239 297 348
#     4  11  21  38  59  90 117 151 198 249 287 345
#     4  11  23  34  59  90 118 152 205 246 283 342
#
# _framework density 25.640609999999999
#
# number of rings (size 3 to 8) (size 9 to 14) (size 15 to 20)
#    0.000    1.714    2.857    1.286    2.000    4.571 
#    0.000    0.714    0.000    8.571    0.000    0.000 
#    0.000    0.000    0.000    0.000    0.000    0.000 
#
# Total GULP energy -78319.625527 kJ/mol
# GULP energy per Si atom -5594.258966 kJ/mol
# Density = 2.558225 g / cm^3
# Si number density = 25.640610 Si / 1000 Ang^3
#
#
#
# Elastic Constant Matrix: (Units=GPa)
#
#
# Indices 1 2 3 4 5 6 
#
# 1 42.6307 -8.0863 28.6770 -7.2605 -4.9451 15.5719
# 2 -8.0863 74.4294 19.4117 8.7519 2.4319 -5.5922
# 3 28.6770 19.4117 162.0831 -6.8783 -24.7029 11.3234
# 4 -7.2605 8.7519 -6.8783 41.6706 6.4924 -0.3219
# 5 -4.9451 2.4319 -24.7029 6.4924 46.1734 -5.5591
# 6 15.5719 -5.5922 11.3234 -0.3219 -5.5591 31.2356
#
#
#
# Elastic Compliance Matrix: (Units=1/GPa)
#
#
# Indices 1 2 3 4 5 6 
#
# 1 0.033600 0.003535 -0.005458 0.004390 -0.001862 -0.014425
# 2 0.003535 0.015071 -0.002875 -0.002800 -0.001354 0.001708
# 3 -0.005458 -0.002875 0.008083 0.000390 0.003832 -0.000038
# 4 0.004390 -0.002800 0.000390 0.025888 -0.003191 -0.003132
# 5 -0.001862 -0.001354 0.003832 -0.003191 0.024464 0.003618
# 6 -0.014425 0.001708 -0.000038 -0.003132 0.003618 0.040137
#
#
# Mechanical properties :
#
#
# Convention : Reuss Voigt Hill
#
# Bulk Modulus (GPa) = 21.20534 39.90535 30.55534
# Shear Modulus (GPa) = 28.97573 39.75863 34.36718
#
# Velocity S-wave (km/s) = 3.36530 3.94205 3.66504
# Velocity P-wave (km/s) = 4.83617 6.02634 5.46376
#
# Compressibility (1/GPa) = 0.04715794
#
# Stress axis : x y z
#
# Youngs Moduli (GPa) = 29.76203 66.35176 123.71933
#
# Poissons Ratio (x) = -0.23453 0.67523
# Poissons Ratio (y) = -0.10520 0.35568
# Poissons Ratio (z) = 0.16243 0.19075
#
# Static dielectric constant tensor:
#      x y z
#    x 2.039780 0.002010 -0.047590 
#    y 0.002010 2.036420 -0.057110 
#    z -0.047590 -0.057110 2.033140 
# 
# From -- ./inp_files/28454.got.cif
#   From: 2010.05.17/outbox.cif.g08.bks.cpg/sg2_15_cif.got.tgz:28454.got - 2010.06.03 11:33:40.
