data_PCOD9100023
_publ_section_title
;
Structure prediction by ZEFSAII (Michael W. Deem and Ramdas Pophale) SiO2 
 PCOD9100023
Probable space group: P -1
;
_chemical_formula_sum "Si O2"
_cell_formula_units_Z 16
_cell_length_a 19.641427
_cell_length_b 24.097923
_cell_length_c 8.748350
_cell_angle_alpha 34.293077
_cell_angle_beta 40.761540
_cell_angle_gamma 17.361675
_cell_volume 684.166073
_symmetry_space_group_name_H-M "P -1"
_symmetry_group_IT_number 2
_symmetry_cell_setting 'triclinic'
loop_
_space_group_symop_operation_xyz
x,y,z
-x,-y,-z
loop_
_atom_site_type_symbol
_atom_site_label
_atom_site_fract_x
_atom_site_fract_y
_atom_site_fract_z
Si Si1 0.599952 0.573127 0.323520
Si Si2 0.829525 0.062070 0.226505
Si Si3 0.959394 0.527592 0.828029
Si Si4 0.510243 0.138124 0.281541
Si Si5 0.060424 0.763826 0.774404
Si Si6 0.878621 0.502450 0.640194
Si Si7 0.937667 0.759279 0.594162
Si Si8 0.410629 0.549724 0.870064
O O1 0.745309 0.414907 0.286004
O O2 0.460153 0.601284 0.562531
O O3 0.787711 0.451358 0.408421
O O4 0.451902 0.792220 0.030535
O O5 0.852607 0.938121 0.386441
O O6 0.888311 0.984071 0.480177
O O7 0.576903 0.320592 0.056709
O O8 0.000000 0.000000 0.000000
O O9 0.108699 0.484876 0.588398
O O10 0.690229 0.751177 0.722822
O O11 0.058823 0.331603 0.079346
O O12 0.000000 0.500000 0.000000
O O13 0.371594 0.281908 0.346368
O O14 0.756251 0.885146 0.483695
O O15 0.156491 0.728594 0.848252
O O16 0.996758 0.705066 0.058559
O O17 0.000000 0.500000 0.500000
O O18 0.500000 0.500000 0.000000
#
# Coordination Sequence:
#
# PCOD9100023 Si02
#       8
#     2   2   2   2   2   2   2   2
#     4   9  19  37  59  84 118 162 201 253 296 370
#     4  11  21  38  65  92 116 165 213 251 297 374
#     4  10  22  39  60  90 126 157 196 257 318 361
#     4   9  19  35  62  88 112 158 207 244 302 369
#     4  10  21  37  63  88 120 166 214 248 309 377
#     4   9  18  38  62  86 118 154 200 259 303 358
#     4  10  20  37  62  91 114 154 216 244 295 375
#     4  12  25  38  58  93 131 164 204 259 318 364
#
# _framework density 23.386133000000001
#
# number of rings (size 3 to 8) (size 9 to 14) (size 15 to 20)
#    0.000    2.000    2.500    4.125    1.750    3.500 
#    0.000    3.750    0.000    1.500    0.000    0.000 
#    0.000    0.000    0.000    0.000    0.000    0.000 
#
# Total GULP energy -89220.967223 kJ/mol
# GULP energy per Si atom -5576.310451 kJ/mol
# Density = 2.333291 g / cm^3
# Si number density = 23.386133 Si / 1000 Ang^3
#
#
#
# Elastic Constant Matrix: (Units=GPa)
#
#
# Indices 1 2 3 4 5 6 
#
# 1 107.9950 16.5693 47.0526 2.6706 15.8467 -21.3294
# 2 16.5693 31.7449 39.4158 -14.0210 1.9474 -13.7304
# 3 47.0526 39.4158 168.0798 2.7479 -11.4172 -19.6053
# 4 2.6706 -14.0210 2.7479 37.6449 -10.8400 11.1513
# 5 15.8467 1.9474 -11.4172 -10.8400 38.4295 -4.5054
# 6 -21.3294 -13.7304 -19.6053 11.1513 -4.5054 30.1591
#
#
#
# Elastic Compliance Matrix: (Units=1/GPa)
#
#
# Indices 1 2 3 4 5 6 
#
# 1 0.013554 -0.002688 -0.002624 -0.006130 -0.007039 0.007872
# 2 -0.002688 0.063461 -0.013172 0.022101 0.001441 0.010472
# 3 -0.002624 -0.013172 0.010220 -0.004759 0.003570 0.001084
# 4 -0.006130 0.022101 -0.004759 0.041952 0.010502 -0.011309
# 5 -0.007039 0.001441 0.003570 0.010502 0.032758 -0.000990
# 6 0.007872 0.010472 0.001084 -0.011309 -0.000990 0.048230
#
#
# Mechanical properties :
#
#
# Convention : Reuss Voigt Hill
#
# Bulk Modulus (GPa) = 19.89312 57.09949 38.49630
# Shear Modulus (GPa) = 18.94673 34.89885 26.92279
#
# Velocity S-wave (km/s) = 2.84944 3.86721 3.39666
# Velocity P-wave (km/s) = 4.39893 6.66403 5.64623
#
# Compressibility (1/GPa) = 0.05026864
#
# Stress axis : x y z
#
# Youngs Moduli (GPa) = 73.77703 15.75775 97.85026
#
# Poissons Ratio (x) = 0.04235 0.25675
# Poissons Ratio (y) = 0.19829 1.28884
# Poissons Ratio (z) = 0.19358 0.20755
#
# Static dielectric constant tensor:
#      x y z
#    x 2.082330 0.031850 0.023350 
#    y 0.031850 1.887890 0.019780 
#    z 0.023350 0.019780 1.901320 
# 
# From -- ./inp_files/350225.got.cif
#   From: 2010.05.17/outbox.cif.g08.bks.cpg/sg2_176_cif.got.tgz:350225.got - 2010.06.03 11:33:40.
