data_PCOD9100033
_publ_section_title
;
Structure prediction by ZEFSAII (Michael W. Deem and Ramdas Pophale) SiO2 
 PCOD9100033
Probable space group: P -1
;
_chemical_formula_sum "Si O2"
_cell_formula_units_Z 12
_cell_length_a 9.006751
_cell_length_b 9.324415
_cell_length_c 12.030645
_cell_angle_alpha 71.443948
_cell_angle_beta 41.559780
_cell_angle_gamma 90.929601
_cell_volume 581.148835
_symmetry_space_group_name_H-M "P -1"
_symmetry_group_IT_number 2
_symmetry_cell_setting 'triclinic'
loop_
_space_group_symop_operation_xyz
x,y,z
-x,-y,-z
loop_
_atom_site_type_symbol
_atom_site_label
_atom_site_fract_x
_atom_site_fract_y
_atom_site_fract_z
Si Si1 0.942024 0.497593 0.661357
Si Si2 0.577301 0.242386 0.090326
Si Si3 0.793969 0.554397 0.047860
Si Si4 0.478747 0.967768 0.386192
Si Si5 0.089186 0.209434 0.281163
Si Si6 0.504450 0.363135 0.613526
O O1 0.847758 0.638621 0.706031
O O2 0.000000 0.500000 0.500000
O O3 0.208589 0.572833 0.544670
O O4 0.772027 0.328899 0.860458
O O5 0.621357 0.397030 0.110575
O O6 0.313697 0.159445 0.195965
O O7 0.618134 0.114687 0.184186
O O8 0.647268 0.615928 0.202566
O O9 0.899518 0.704667 0.865287
O O10 0.000000 0.500000 0.000000
O O11 0.565953 0.820275 0.348780
O O12 0.192497 0.917869 0.524493
O O13 0.500000 0.000000 0.500000
O O14 0.500000 0.500000 0.500000
#
# Coordination Sequence:
#
# PCOD9100033 Si02
#       6
#     2   2   2   2   2   2
#     4  10  20  37  62  91 120 158 207 250 301 373
#     4  11  21  39  63  91 124 162 205 260 308 360
#     4  11  21  40  65  90 120 163 210 254 305 372
#     4  11  24  41  61  92 128 162 206 260 312 362
#     4  10  21  38  61  87 123 166 204 250 310 368
#     4  11  22  39  62  89 121 163 207 252 308 373
#
# _framework density 20.648755000000001
#
# number of rings (size 3 to 8) (size 9 to 14) (size 15 to 20)
#    0.000    1.333    0.000    9.500    0.000    0.000 
#    0.000   18.333    0.000    0.000    0.000    0.000 
#    0.000    0.000    0.000    0.000    0.000    0.000 
#
# Total GULP energy -66842.450229 kJ/mol
# GULP energy per Si atom -5570.204186 kJ/mol
# Density = 2.060176 g / cm^3
# Si number density = 20.648755 Si / 1000 Ang^3
#
#
#
# Elastic Constant Matrix: (Units=GPa)
#
#
# Indices 1 2 3 4 5 6 
#
# 1 101.4009 25.8339 32.3126 1.4659 7.1318 -3.9687
# 2 25.8339 86.2383 59.7998 3.0112 17.6493 -5.1662
# 3 32.3126 59.7998 124.9488 6.6119 36.0249 5.2663
# 4 1.4659 3.0112 6.6119 30.6125 -3.4049 0.3589
# 5 7.1318 17.6493 36.0249 -3.4049 46.8819 2.7488
# 6 -3.9687 -5.1662 5.2663 0.3589 2.7488 18.4596
#
#
#
# Elastic Compliance Matrix: (Units=1/GPa)
#
#
# Indices 1 2 3 4 5 6 
#
# 1 0.011091 -0.001667 -0.002366 0.000184 0.000625 0.002496
# 2 -0.001667 0.018648 -0.008642 -0.000038 -0.000564 0.007410
# 3 -0.002366 -0.008642 0.015546 -0.003236 -0.008211 -0.006076
# 4 0.000184 -0.000038 -0.003236 0.033918 0.004963 -0.000446
# 5 0.000625 -0.000564 -0.008211 0.004963 0.028233 -0.001981
# 6 0.002496 0.007410 -0.006076 -0.000446 -0.001981 0.058820
#
#
# Mechanical properties :
#
#
# Convention : Reuss Voigt Hill
#
# Bulk Modulus (GPa) = 50.15906 60.94230 55.55068
# Shear Modulus (GPa) = 25.22061 32.16692 28.69377
#
# Velocity S-wave (km/s) = 3.49866 3.95120 3.73179
# Velocity P-wave (km/s) = 6.37692 7.09886 6.74755
#
# Compressibility (1/GPa) = 0.01993658
#
# Stress axis : x y z
#
# Youngs Moduli (GPa) = 90.15927 53.62502 64.32643
#
# Poissons Ratio (x) = 0.08939 0.15218
# Poissons Ratio (y) = 0.15029 0.55588
# Poissons Ratio (z) = 0.21329 0.46341
#
# Static dielectric constant tensor:
#      x y z
#    x 1.689180 -0.013940 -0.048580 
#    y -0.013940 1.937780 0.084570 
#    z -0.048580 0.084570 1.809430 
# 
# From -- ./inp_files/150846.got.cif
#   From: 2010.05.17/outbox.cif.g08.bks.cpg/sg2_76_cif.got.tgz:150846.got - 2010.06.03 11:33:40.
