data_PCOD9100635
_publ_section_title
;
Structure prediction by ZEFSAII (Michael W. Deem and Ramdas Pophale) SiO2 
 PCOD9100635
Probable space group: P -1
;
_chemical_formula_sum "Si O2"
_cell_formula_units_Z 16
_cell_length_a 11.714664
_cell_length_b 13.861419
_cell_length_c 11.731423
_cell_angle_alpha 44.587336
_cell_angle_beta 38.290834
_cell_angle_gamma 32.935776
_cell_volume 633.664978
_symmetry_space_group_name_H-M "P -1"
_symmetry_group_IT_number 2
_symmetry_cell_setting 'triclinic'
loop_
_space_group_symop_operation_xyz
x,y,z
-x,-y,-z
loop_
_atom_site_type_symbol
_atom_site_label
_atom_site_fract_x
_atom_site_fract_y
_atom_site_fract_z
Si Si1 0.116865 0.254595 0.069420
Si Si2 0.620943 0.135165 0.801566
Si Si3 0.371306 0.817020 0.518806
Si Si4 0.169379 0.248630 0.781789
Si Si5 0.252246 0.657295 0.123767
Si Si6 0.406701 0.895834 0.793685
Si Si7 0.854321 0.845627 0.441281
Si Si8 0.401559 0.505230 0.694566
O O1 0.870345 0.412567 0.188274
O O2 0.152769 0.072359 0.183652
O O3 0.368223 0.180011 0.988027
O O4 0.097545 0.325023 0.899389
O O5 0.627230 0.160847 0.637925
O O6 0.577048 0.297512 0.766592
O O7 0.630215 0.742701 0.427710
O O8 0.366074 0.655066 0.676601
O O9 0.180681 0.016285 0.554207
O O10 0.939982 0.322319 0.826595
O O11 0.319687 0.033608 0.849399
O O12 0.122751 0.683173 0.324457
O O13 0.500000 0.500000 0.000000
O O14 0.289810 0.803724 0.974139
O O15 0.692738 0.789632 0.648005
O O16 0.281061 0.022935 0.673390
O O17 0.500000 0.500000 0.500000
#
# Coordination Sequence:
#
# PCOD9100635 Si02
#       8
#     2   2   2   2   2   2   2   2
#     4  10  20  37  65  83 123 162 198 251 303 354
#     4   9  20  40  60  91 117 160 209 244 301 362
#     4   9  19  35  63  85 117 156 203 248 298 354
#     4   9  19  39  59  84 112 157 202 245 298 363
#     4  11  23  38  60  90 126 154 199 252 307 370
#     4   9  19  36  63  84 113 151 204 244 299 366
#     4   9  18  37  63  85 114 160 196 246 305 358
#     4  10  21  35  58  87 122 157 201 254 299 355
#
# _framework density 25.249935000000001
#
# number of rings (size 3 to 8) (size 9 to 14) (size 15 to 20)
#    0.000    2.500    0.000    2.625    3.500    2.500 
#    2.250    1.250   19.250    0.000    0.000    0.000 
#    0.000    0.000    0.000    0.000    0.000    0.000 
#
# Total GULP energy -89257.762895 kJ/mol
# GULP energy per Si atom -5578.610181 kJ/mol
# Density = 2.519246 g / cm^3
# Si number density = 25.249935 Si / 1000 Ang^3
#
#
#
# Elastic Constant Matrix: (Units=GPa)
#
#
# Indices 1 2 3 4 5 6 
#
# 1 84.0347 29.0723 17.0359 10.2379 -21.5474 13.4077
# 2 29.0723 131.4552 37.5226 27.5487 -15.5972 8.7027
# 3 17.0359 37.5226 56.0466 33.9048 -13.6378 4.3899
# 4 10.2379 27.5487 33.9048 56.8916 6.6578 -9.2611
# 5 -21.5474 -15.5972 -13.6378 6.6578 30.1197 -0.7587
# 6 13.4077 8.7027 4.3899 -9.2611 -0.7587 25.9896
#
#
#
# Elastic Compliance Matrix: (Units=1/GPa)
#
#
# Indices 1 2 3 4 5 6 
#
# 1 0.019607 -0.000595 0.008519 -0.013187 0.020101 -0.015467
# 2 -0.000595 0.010239 -0.002332 -0.004712 0.004754 -0.004268
# 3 0.008519 -0.002332 0.051501 -0.039464 0.036291 -0.025316
# 4 -0.013187 -0.004712 -0.039464 0.056089 -0.041289 0.033828
# 5 0.020101 0.004754 0.036291 -0.041289 0.074830 -0.030620
# 6 -0.015467 -0.004268 -0.025316 0.033828 -0.030620 0.063321
#
#
# Mechanical properties :
#
#
# Convention : Reuss Voigt Hill
#
# Bulk Modulus (GPa) = 10.80737 48.75535 29.78136
# Shear Modulus (GPa) = 16.93486 35.12722 26.03104
#
# Velocity S-wave (km/s) = 2.59258 3.73390 3.21430
# Velocity P-wave (km/s) = 3.64025 6.15957 5.05924
#
# Compressibility (1/GPa) = 0.09252942
#
# Stress axis : x y z
#
# Youngs Moduli (GPa) = 51.00153 97.66978 19.41697
#
# Poissons Ratio (x) = 0.05815 -0.16541
# Poissons Ratio (y) = 0.03037 0.04528
# Poissons Ratio (z) = -0.43447 0.22779
#
# Static dielectric constant tensor:
#      x y z
#    x 2.021250 0.046170 -0.036360 
#    y 0.046170 2.065730 -0.046790 
#    z -0.036360 -0.046790 2.054550 
# 
# From -- ./inp_files/534240.got.cif
#   From: 2010.05.17/outbox.cif.g08.bks.cpg/sg2_268_cif.got.tgz:534240.got - 2010.06.03 11:33:40.
