data_PCOD9100527
_publ_section_title
;
Structure prediction by ZEFSAII (Michael W. Deem and Ramdas Pophale) SiO2 
 PCOD9100527
Probable space group: P -1
;
_chemical_formula_sum "Si O2"
_cell_formula_units_Z 16
_cell_length_a 10.224473
_cell_length_b 14.873310
_cell_length_c 8.654719
_cell_angle_alpha 73.362927
_cell_angle_beta 41.910868
_cell_angle_gamma 90.354213
_cell_volume 791.374365
_symmetry_space_group_name_H-M "P -1"
_symmetry_group_IT_number 2
_symmetry_cell_setting 'triclinic'
loop_
_space_group_symop_operation_xyz
x,y,z
-x,-y,-z
loop_
_atom_site_type_symbol
_atom_site_label
_atom_site_fract_x
_atom_site_fract_y
_atom_site_fract_z
Si Si1 0.490374 0.664292 0.672505
Si Si2 0.600041 0.474816 0.617781
Si Si3 0.530215 0.141204 0.906603
Si Si4 0.786759 0.489698 0.773269
Si Si5 0.853152 0.028922 0.739571
Si Si6 0.176169 0.329041 0.130282
Si Si7 0.745005 0.324250 0.422166
Si Si8 0.745314 0.820693 0.622440
O O1 0.593431 0.585427 0.553928
O O2 0.388117 0.703578 0.602573
O O3 0.645330 0.746570 0.606688
O O4 0.303075 0.596536 0.980224
O O5 0.630132 0.467133 0.778706
O O6 0.761123 0.437290 0.399623
O O7 0.376103 0.391201 0.824492
O O8 0.715991 0.095331 0.769210
O O9 0.625788 0.252053 0.701615
O O10 0.428882 0.139732 0.166484
O O11 0.335833 0.073335 0.006124
O O12 0.827723 0.594047 0.769186
O O13 0.000000 0.500000 0.500000
O O14 0.034969 0.095866 0.659523
O O15 0.000000 0.000000 0.500000
O O16 0.199068 0.236535 0.249997
O O17 0.967328 0.310185 0.226114
#
# Coordination Sequence:
#
# PCOD9100527 Si02
#       8
#     2   2   2   2   2   2   2   2
#     4  11  24  38  55  89 127 158 201 248 293 340
#     4  11  21  40  57  82 120 166 208 242 279 349
#     4  10  20  37  64  93 115 148 198 244 297 355
#     4  11  20  36  58  80 113 160 212 246 277 335
#     4   9  20  37  67  94 111 144 200 248 290 355
#     4  11  20  34  60  80 114 157 199 243 287 342
#     4  12  23  37  58  89 126 158 194 250 302 345
#     4  11  19  38  62  86 115 156 202 240 283 355
#
# _framework density 20.21799
#
# number of rings (size 3 to 8) (size 9 to 14) (size 15 to 20)
#    0.000    1.250    6.250    1.125    0.000    2.000 
#    2.250    0.625    0.000    6.750    0.000    0.000 
#    0.000    0.000    0.000    0.000    0.000    0.000 
#
# Total GULP energy -89209.510312 kJ/mol
# GULP energy per Si atom -5575.594395 kJ/mol
# Density = 2.017197 g / cm^3
# Si number density = 20.217990 Si / 1000 Ang^3
#
#
#
# Elastic Constant Matrix: (Units=GPa)
#
#
# Indices 1 2 3 4 5 6 
#
# 1 98.1557 27.1033 20.3533 6.2851 -12.7339 0.0891
# 2 27.1033 75.2650 16.2978 3.6136 -16.5100 -2.4670
# 3 20.3533 16.2978 44.2198 9.5993 -18.4797 2.5144
# 4 6.2851 3.6136 9.5993 25.8819 3.3129 -15.2284
# 5 -12.7339 -16.5100 -18.4797 3.3129 32.2220 4.7286
# 6 0.0891 -2.4670 2.5144 -15.2284 4.7286 21.0194
#
#
#
# Elastic Compliance Matrix: (Units=1/GPa)
#
#
# Indices 1 2 3 4 5 6 
#
# 1 0.012187 -0.003183 -0.001532 -0.005257 0.003559 -0.004851
# 2 -0.003183 0.016290 -0.000378 -0.003816 0.007633 -0.002511
# 3 -0.001532 -0.000378 0.070433 -0.080541 0.059650 -0.080233
# 4 -0.005257 -0.003816 -0.080541 0.173213 -0.090798 0.155126
# 5 0.003559 0.007633 0.059650 -0.090798 0.093558 -0.093084
# 6 -0.004851 -0.002511 -0.080233 0.155126 -0.093084 0.190226
#
#
# Mechanical properties :
#
#
# Convention : Reuss Voigt Hill
#
# Bulk Modulus (GPa) = 11.27083 38.34990 24.81036
# Shear Modulus (GPa) = 8.39396 26.08376 17.23886
#
# Velocity S-wave (km/s) = 2.03979 3.59573 2.92318
# Velocity P-wave (km/s) = 3.33683 6.02067 4.86738
#
# Compressibility (1/GPa) = 0.08872464
#
# Stress axis : x y z
#
# Youngs Moduli (GPa) = 82.05349 61.38904 14.19789
#
# Poissons Ratio (x) = 0.19539 0.02175
# Poissons Ratio (y) = 0.26116 0.00537
# Poissons Ratio (z) = 0.12569 0.02320
#
# Static dielectric constant tensor:
#      x y z
#    x 1.823200 -0.029750 -0.097740 
#    y -0.029750 1.767120 0.011050 
#    z -0.097740 0.011050 1.764740 
# 
# From -- ./inp_files/200639.got.cif
#   From: 2010.05.17/outbox.cif.g08.bks.cpg/sg2_101_cif.got.tgz:200639.got - 2010.06.03 11:33:40.
