data_PCOD9100684
_publ_section_title
;
Structure prediction by ZEFSAII (Michael W. Deem and Ramdas Pophale) SiO2 
 PCOD9100684
Probable space group: P -1
;
_chemical_formula_sum "Si O2"
_cell_formula_units_Z 16
_cell_length_a 8.115558
_cell_length_b 20.232739
_cell_length_c 6.277821
_cell_angle_alpha 127.196583
_cell_angle_beta 116.770048
_cell_angle_gamma 67.417800
_cell_volume 724.008070
_symmetry_space_group_name_H-M "P -1"
_symmetry_group_IT_number 2
_symmetry_cell_setting 'triclinic'
loop_
_space_group_symop_operation_xyz
x,y,z
-x,-y,-z
loop_
_atom_site_type_symbol
_atom_site_label
_atom_site_fract_x
_atom_site_fract_y
_atom_site_fract_z
Si Si1 0.480934 0.032015 0.302394
Si Si2 0.114919 0.141571 0.230268
Si Si3 0.781596 0.716916 0.689788
Si Si4 0.322768 0.521344 0.711433
Si Si5 0.029526 0.445050 0.701108
Si Si6 0.042986 0.751039 0.269868
Si Si7 0.423746 0.636748 0.346056
Si Si8 0.132185 0.908958 0.349352
O O1 0.261477 0.065067 0.240643
O O2 0.650885 0.085364 0.503615
O O3 0.500000 0.000000 0.500000
O O4 0.500000 0.000000 0.000000
O O5 0.214882 0.188855 0.197437
O O6 0.076758 0.204910 0.523798
O O7 0.931576 0.116133 0.970684
O O8 0.871911 0.651106 0.434643
O O9 0.574684 0.698904 0.572592
O O10 0.918876 0.702549 0.945942
O O11 0.175495 0.487338 0.723012
O O12 0.485921 0.442701 0.611339
O O13 0.179233 0.553267 0.506347
O O14 0.414451 0.592905 0.022669
O O15 0.000000 0.500000 0.000000
O O16 0.217791 0.688382 0.345974
O O17 0.101060 0.830349 0.328189
O O18 0.000000 0.000000 0.500000
#
# Coordination Sequence:
#
# PCOD9100684 Si02
#       8
#     2   2   2   2   2   2   2   2
#     4  12  27  46  76 109 146 185 237 295 356 428
#     4  11  26  43  70 102 134 181 228 286 357 420
#     4  10  23  41  61  95 137 174 223 288 344 418
#     4   9  20  38  61  91 124 175 221 281 343 408
#     4  10  20  37  65  90 127 174 229 281 342 413
#     4  11  24  42  68  95 138 180 222 285 354 421
#     4  10  20  41  65  89 133 173 222 281 349 411
#     4  11  24  46  72 100 138 179 231 283 349 424
#
# _framework density 22.099198999999999
#
# number of rings (size 3 to 8) (size 9 to 14) (size 15 to 20)
#    0.000    1.500    2.500    1.500    5.250    2.000 
#    0.000   11.875    0.000    0.000    0.000    0.000 
#    0.000    0.000    0.000    0.000    0.000    0.000 
#
# Total GULP energy -89126.380321 kJ/mol
# GULP energy per Si atom -5570.398770 kJ/mol
# Density = 2.204890 g / cm^3
# Si number density = 22.099199 Si / 1000 Ang^3
#
#
#
# Elastic Constant Matrix: (Units=GPa)
#
#
# Indices 1 2 3 4 5 6 
#
# 1 70.4068 0.8202 25.1283 -12.1266 12.5027 -0.8414
# 2 0.8202 45.4796 4.4872 -15.6060 -4.5895 -7.6082
# 3 25.1283 4.4872 94.4632 -4.4358 18.8835 6.1962
# 4 -12.1266 -15.6060 -4.4358 27.2628 -7.1910 8.0112
# 5 12.5027 -4.5895 18.8835 -7.1910 51.1739 6.0958
# 6 -0.8414 -7.6082 6.1962 8.0112 6.0958 32.3266
#
#
#
# Elastic Compliance Matrix: (Units=1/GPa)
#
#
# Indices 1 2 3 4 5 6 
#
# 1 0.017286 0.002808 -0.004087 0.008256 -0.001314 0.000096
# 2 0.002808 0.029363 -0.002441 0.018482 0.005221 0.001887
# 3 -0.004087 -0.002441 0.012616 -0.001603 -0.003866 -0.001973
# 4 0.008256 0.018482 -0.001603 0.056359 0.009447 -0.010877
# 5 -0.001314 0.005221 -0.003866 0.009447 0.023665 -0.004868
# 6 0.000096 0.001887 -0.001973 -0.010877 -0.004868 0.035372
#
#
# Mechanical properties :
#
#
# Convention : Reuss Voigt Hill
#
# Bulk Modulus (GPa) = 19.29626 30.13568 24.71597
# Shear Modulus (GPa) = 25.07811 34.14693 29.61252
#
# Velocity S-wave (km/s) = 3.37233 3.93512 3.66455
# Velocity P-wave (km/s) = 4.89020 5.85774 5.39570
#
# Compressibility (1/GPa) = 0.05182352
#
# Stress axis : x y z
#
# Youngs Moduli (GPa) = 57.85080 34.05690 79.26197
#
# Poissons Ratio (x) = -0.09563 0.32398
# Poissons Ratio (y) = -0.16245 0.19350
# Poissons Ratio (z) = 0.23646 0.08314
#
# Static dielectric constant tensor:
#      x y z
#    x 1.799080 0.048670 -0.027380 
#    y 0.048670 1.884560 -0.018770 
#    z -0.027380 -0.018770 1.809770 
# 
# From -- ./inp_files/54008.got.cif
#   From: 2010.05.17/outbox.cif.g08.bks.cpg/sg2_28_cif.got.tgz:54008.got - 2010.06.03 11:33:40.
