data_PCOD9100484
_publ_section_title
;
Structure prediction by ZEFSAII (Michael W. Deem and Ramdas Pophale) SiO2 
 PCOD9100484
Probable space group: P -1
;
_chemical_formula_sum "Si O2"
_cell_formula_units_Z 16
_cell_length_a 14.032980
_cell_length_b 9.059593
_cell_length_c 9.909336
_cell_angle_alpha 70.958800
_cell_angle_beta 54.327702
_cell_angle_gamma 112.157134
_cell_volume 651.885092
_symmetry_space_group_name_H-M "P -1"
_symmetry_group_IT_number 2
_symmetry_cell_setting 'triclinic'
loop_
_space_group_symop_operation_xyz
x,y,z
-x,-y,-z
loop_
_atom_site_type_symbol
_atom_site_label
_atom_site_fract_x
_atom_site_fract_y
_atom_site_fract_z
Si Si1 0.575960 0.809464 0.489254
Si Si2 0.198560 0.248969 0.783553
Si Si3 0.245436 0.717799 0.723823
Si Si4 0.905042 0.684914 0.888444
Si Si5 0.639862 0.988117 0.888169
Si Si6 0.171258 0.080759 0.380325
Si Si7 0.682437 0.320830 0.597255
Si Si8 0.602636 0.413399 0.018026
O O1 0.658675 0.745626 0.360341
O O2 0.411142 0.756871 0.595874
O O3 0.720165 0.085829 0.294306
O O4 0.519601 0.692370 0.718333
O O5 0.240057 0.436110 0.589778
O O6 0.191167 0.291377 0.935560
O O7 0.000000 0.000000 0.000000
O O8 0.252526 0.733301 0.554168
O O9 0.089369 0.468562 0.989485
O O10 0.782702 0.530309 0.905175
O O11 0.097308 0.930612 0.620701
O O12 0.786610 0.004668 0.742893
O O13 0.711644 0.233156 0.728533
O O14 0.525771 0.862163 0.155312
O O15 0.505391 0.796410 0.936528
O O16 0.324994 0.357052 0.178403
O O17 0.000000 0.000000 0.500000
#
# Coordination Sequence:
#
# PCOD9100484 Si02
#       8
#     2   2   2   2   2   2   2   2
#     4  10  20  37  64  91 116 160 209 246 306 356
#     4  11  25  39  59  91 131 165 199 255 306 368
#     4   9  19  39  63  87 121 159 202 256 296 364
#     4   9  22  39  60  90 126 163 203 247 310 367
#     4  11  22  38  67  90 121 164 205 261 303 364
#     4  10  22  38  60  93 126 158 202 248 309 371
#     4  10  23  41  61  92 123 159 214 252 307 359
#     4  10  20  37  65  89 117 161 205 258 298 357
#
# _framework density 24.544204000000001
#
# number of rings (size 3 to 8) (size 9 to 14) (size 15 to 20)
#    0.000    2.000    1.250    1.125    3.500    7.500 
#    0.000    2.500    0.000    3.000    0.000    0.000 
#    0.000    0.000    0.000    0.000    0.000    0.000 
#
# Total GULP energy -89144.261005 kJ/mol
# GULP energy per Si atom -5571.516313 kJ/mol
# Density = 2.448834 g / cm^3
# Si number density = 24.544204 Si / 1000 Ang^3
#
#
#
# Elastic Constant Matrix: (Units=GPa)
#
#
# Indices 1 2 3 4 5 6 
#
# 1 67.5799 13.3351 20.1342 -5.7951 -11.1862 -17.5294
# 2 13.3351 83.1515 34.1532 -1.4880 -4.2314 -28.5857
# 3 20.1342 34.1532 169.5578 -22.5416 18.9947 -23.4823
# 4 -5.7951 -1.4880 -22.5416 50.9270 -9.1390 -4.6203
# 5 -11.1862 -4.2314 18.9947 -9.1390 39.0327 -1.4503
# 6 -17.5294 -28.5857 -23.4823 -4.6203 -1.4503 43.9665
#
#
#
# Elastic Compliance Matrix: (Units=1/GPa)
#
#
# Indices 1 2 3 4 5 6 
#
# 1 0.018627 0.000754 -0.001675 0.003404 0.007316 0.007621
# 2 0.000754 0.016517 -0.002293 0.001141 0.003764 0.010059
# 3 -0.001675 -0.002293 0.007612 0.002627 -0.003741 0.002059
# 4 0.003404 0.001141 0.002627 0.022734 0.005369 0.006069
# 5 0.007316 0.003764 -0.003741 0.005369 0.031386 0.004965
# 6 0.007621 0.010059 0.002059 0.006069 0.004965 0.034225
#
#
# Mechanical properties :
#
#
# Convention : Reuss Voigt Hill
#
# Bulk Modulus (GPa) = 27.52730 50.61491 39.07110
# Shear Modulus (GPa) = 33.41359 43.62966 38.52163
#
# Velocity S-wave (km/s) = 3.69367 4.22073 3.96596
# Velocity P-wave (km/s) = 5.42500 6.66479 6.07660
#
# Compressibility (1/GPa) = 0.03632758
#
# Stress axis : x y z
#
# Youngs Moduli (GPa) = 53.68456 60.54270 131.36892
#
# Poissons Ratio (x) = -0.04565 0.22008
# Poissons Ratio (y) = -0.04048 0.30128
# Poissons Ratio (z) = 0.08993 0.13885
#
# Static dielectric constant tensor:
#      x y z
#    x 2.581810 0.153350 0.624870 
#    y 0.153350 2.042480 0.218020 
#    z 0.624870 0.218020 2.820220 
# 
# From -- ./inp_files/461160.got.cif
#   From: 2010.05.17/outbox.cif.g08.bks.cpg/sg2_231_cif.got.tgz:461160.got - 2010.06.03 11:33:40.
