data_PCOD9100748
_publ_section_title
;
Structure prediction by ZEFSAII (Michael W. Deem and Ramdas Pophale) SiO2 
 PCOD9100748
Probable space group: P -1
;
_chemical_formula_sum "Si O2"
_cell_formula_units_Z 16
_cell_length_a 15.571693
_cell_length_b 5.511480
_cell_length_c 15.450885
_cell_angle_alpha 54.835647
_cell_angle_beta 142.480401
_cell_angle_gamma 126.195029
_cell_volume 635.952065
_symmetry_space_group_name_H-M "P -1"
_symmetry_group_IT_number 2
_symmetry_cell_setting 'triclinic'
loop_
_space_group_symop_operation_xyz
x,y,z
-x,-y,-z
loop_
_atom_site_type_symbol
_atom_site_label
_atom_site_fract_x
_atom_site_fract_y
_atom_site_fract_z
Si Si1 0.124385 0.378688 0.930463
Si Si2 0.569355 0.708066 0.378155
Si Si3 0.714336 0.560973 0.112963
Si Si4 0.465108 0.025606 0.069768
Si Si5 0.362028 0.143236 0.413696
Si Si6 0.158868 0.500440 0.371654
Si Si7 0.905257 0.737216 0.872904
Si Si8 0.997462 0.357599 0.433758
O O1 0.275502 0.462976 0.979250
O O2 0.003076 0.579525 0.785244
O O3 0.151984 0.290725 0.068094
O O4 0.020199 0.058797 0.875430
O O5 0.481084 0.357336 0.403038
O O6 0.566052 0.885516 0.430090
O O7 0.740866 0.733057 0.498316
O O8 0.500103 0.808896 0.216612
O O9 0.595283 0.338983 0.124845
O O10 0.855480 0.440091 0.266165
O O11 0.687900 0.890538 0.049246
O O12 0.500000 0.000000 0.000000
O O13 0.236573 0.329269 0.287213
O O14 0.261314 0.830674 0.356844
O O15 0.128756 0.540195 0.441037
O O16 0.000000 0.500000 0.000000
O O17 0.000000 0.500000 0.500000
O O18 0.000000 0.000000 0.500000
#
# Coordination Sequence:
#
# PCOD9100748 Si02
#       8
#     2   2   2   2   2   2   2   2
#     4   9  21  40  61  96 131 169 226 284 354 433
#     4  11  24  43  66  98 137 182 244 291 367 435
#     4  10  25  46  64 103 140 182 241 297 370 438
#     4  11  27  44  69  98 136 191 242 301 362 443
#     4  10  24  41  64 102 132 185 231 302 359 435
#     4  10  22  42  67  97 140 179 236 297 364 432
#     4  10  20  37  65  94 128 173 221 285 353 426
#     4  11  26  45  77 110 144 197 242 309 373 436
#
# _framework density 25.159130999999999
#
# number of rings (size 3 to 8) (size 9 to 14) (size 15 to 20)
#    0.000    1.750    0.000    1.875   10.500    1.000 
#    9.000    0.000    0.000    0.000    0.000    0.000 
#    0.000    0.000    0.000    0.000    0.000    0.000 
#
# Total GULP energy -89166.094163 kJ/mol
# GULP energy per Si atom -5572.880885 kJ/mol
# Density = 2.510187 g / cm^3
# Si number density = 25.159131 Si / 1000 Ang^3
#
#
#
# Elastic Constant Matrix: (Units=GPa)
#
#
# Indices 1 2 3 4 5 6 
#
# 1 127.4655 31.7172 62.0332 -17.0251 -4.9868 2.6520
# 2 31.7172 46.1014 33.0878 -9.8042 -6.1045 1.7627
# 3 62.0332 33.0878 148.9998 -20.1390 -11.0086 -13.5195
# 4 -17.0251 -9.8042 -20.1390 33.2753 -2.5347 5.6952
# 5 -4.9868 -6.1045 -11.0086 -2.5347 57.1640 -2.2081
# 6 2.6520 1.7627 -13.5195 5.6952 -2.2081 45.7986
#
#
#
# Elastic Compliance Matrix: (Units=1/GPa)
#
#
# Indices 1 2 3 4 5 6 
#
# 1 0.011000 -0.004538 -0.003403 0.002527 -0.000137 -0.001788
# 2 -0.004538 0.029002 -0.004038 0.004359 0.002021 -0.002490
# 3 -0.003403 -0.004038 0.009743 0.002561 0.001377 0.002976
# 4 0.002527 0.004359 0.002561 0.035025 0.002586 -0.003789
# 5 -0.000137 0.002021 0.001377 0.002586 0.018111 0.000888
# 6 -0.001788 -0.002490 0.002976 -0.003789 0.000888 0.023427
#
#
# Mechanical properties :
#
#
# Convention : Reuss Voigt Hill
#
# Bulk Modulus (GPa) = 38.78055 64.02704 51.40379
# Shear Modulus (GPa) = 31.47407 40.29615 35.88511
#
# Velocity S-wave (km/s) = 3.54078 4.00640 3.78077
# Velocity P-wave (km/s) = 5.67131 6.84878 6.28767
#
# Compressibility (1/GPa) = 0.02578612
#
# Stress axis : x y z
#
# Youngs Moduli (GPa) = 90.91142 34.48069 102.64023
#
# Poissons Ratio (x) = 0.15647 0.34924
# Poissons Ratio (y) = 0.41256 0.41451
# Poissons Ratio (z) = 0.30933 0.13925
#
# Static dielectric constant tensor:
#      x y z
#    x 2.390010 -0.078470 -0.124660 
#    y -0.078470 2.194000 -0.034560 
#    z -0.124660 -0.034560 2.154550 
# 
# From -- ./inp_files/525572.got.cif
#   From: 2010.05.17/outbox.cif.g08.bks.cpg/sg2_263_cif.got.tgz:525572.got - 2010.06.03 11:33:40.
