data_PCOD9100346
_publ_section_title
;
Structure prediction by ZEFSAII (Michael W. Deem and Ramdas Pophale) SiO2 
 PCOD9100346
Probable space group: P -1
;
_chemical_formula_sum "Si O2"
_cell_formula_units_Z 16
_cell_length_a 6.834533
_cell_length_b 12.008213
_cell_length_c 9.795084
_cell_angle_alpha 81.213089
_cell_angle_beta 126.932808
_cell_angle_gamma 100.843569
_cell_volume 630.298399
_symmetry_space_group_name_H-M "P -1"
_symmetry_group_IT_number 2
_symmetry_cell_setting 'triclinic'
loop_
_space_group_symop_operation_xyz
x,y,z
-x,-y,-z
loop_
_atom_site_type_symbol
_atom_site_label
_atom_site_fract_x
_atom_site_fract_y
_atom_site_fract_z
Si Si1 0.574772 0.796172 0.315407
Si Si2 0.351790 0.405889 0.051007
Si Si3 0.471501 0.831159 0.803551
Si Si4 0.222030 0.955831 0.011908
Si Si5 0.794770 0.910633 0.660985
Si Si6 0.896129 0.166548 0.574536
Si Si7 0.384407 0.460152 0.637121
Si Si8 0.938345 0.398590 0.682830
O O1 0.348600 0.858309 0.158237
O O2 0.687131 0.847811 0.493741
O O3 0.521884 0.660601 0.324760
O O4 0.808310 0.826108 0.305819
O O5 0.459418 0.287734 0.091629
O O6 0.417320 0.447964 0.223519
O O7 0.500000 0.500000 0.000000
O O8 0.070725 0.397949 0.884403
O O9 0.632822 0.859435 0.728378
O O10 0.202681 0.821333 0.623461
O O11 0.571123 0.934734 0.924340
O O12 0.077092 0.906652 0.826480
O O13 0.000000 0.000000 0.000000
O O14 0.787195 0.044651 0.608136
O O15 0.831301 0.272102 0.615881
O O16 0.160737 0.432534 0.659645
O O17 0.253889 0.513124 0.444597
#
# Coordination Sequence:
#
# PCOD9100346 Si02
#       8
#     2   2   2   2   2   2   2   2
#     4  11  24  41  63  99 132 165 214 268 314 374
#     4  10  20  37  63  94 125 166 217 262 301 373
#     4  11  22  41  67  95 126 172 219 252 321 389
#     4  10  24  42  65  94 129 168 216 258 322 391
#     4  11  24  42  64  91 133 176 202 264 325 379
#     4  11  21  39  67  99 130 163 217 265 311 377
#     4   9  19  36  59  92 128 161 210 263 310 370
#     4   9  18  35  61  92 125 165 207 261 318 360
#
# _framework density 25.384803999999999
#
# number of rings (size 3 to 8) (size 9 to 14) (size 15 to 20)
#    0.000    1.750    2.500    1.500    3.500    1.500 
#    4.500    0.625    0.000    3.750    0.000    0.000 
#    0.000    0.000    0.000    0.000    0.000    0.000 
#
# Total GULP energy -89649.641285 kJ/mol
# GULP energy per Si atom -5603.102580 kJ/mol
# Density = 2.532703 g / cm^3
# Si number density = 25.384804 Si / 1000 Ang^3
#
#
#
# Elastic Constant Matrix: (Units=GPa)
#
#
# Indices 1 2 3 4 5 6 
#
# 1 66.3916 19.6074 14.4546 -11.1167 20.2233 -7.2112
# 2 19.6074 170.5328 98.7005 -5.4944 5.8674 -9.2601
# 3 14.4546 98.7005 241.3239 -4.7836 28.0428 -27.2952
# 4 -11.1167 -5.4944 -4.7836 54.4660 -4.4073 -3.1136
# 5 20.2233 5.8674 28.0428 -4.4073 40.1469 -1.8939
# 6 -7.2112 -9.2601 -27.2952 -3.1136 -1.8939 37.7819
#
#
#
# Elastic Compliance Matrix: (Units=1/GPa)
#
#
# Indices 1 2 3 4 5 6 
#
# 1 0.019470 -0.002446 0.001506 0.003281 -0.009954 0.003976
# 2 -0.002446 0.008065 -0.003543 0.000154 0.002502 -0.000912
# 3 0.001506 -0.003543 0.006479 0.000375 -0.004541 0.003903
# 4 0.003281 0.000154 0.000375 0.019247 0.000296 0.002535
# 5 -0.009954 0.002502 -0.004541 0.000296 0.032624 -0.002908
# 6 0.003976 -0.000912 0.003903 0.002535 -0.002908 0.029886
#
#
# Mechanical properties :
#
#
# Convention : Reuss Voigt Hill
#
# Bulk Modulus (GPa) = 39.92337 82.64150 61.28243
# Shear Modulus (GPa) = 37.56920 49.51134 43.54027
#
# Velocity S-wave (km/s) = 3.85123 4.42116 4.14600
# Velocity P-wave (km/s) = 5.96133 7.66084 6.86388
#
# Compressibility (1/GPa) = 0.02504799
#
# Stress axis : x y z
#
# Youngs Moduli (GPa) = 51.36089 123.99080 154.33869
#
# Poissons Ratio (x) = 0.30327 -0.23238
# Poissons Ratio (y) = 0.12563 0.54681
# Poissons Ratio (z) = -0.07733 0.43929
#
# Static dielectric constant tensor:
#      x y z
#    x 2.192870 -0.005410 0.022230 
#    y -0.005410 1.914920 0.021350 
#    z 0.022230 0.021350 2.020260 
# 
# From -- ./inp_files/390125.got.cif
#   From: 2010.05.17/outbox.cif.g08.bks.cpg/sg2_196_cif.got.tgz:390125.got - 2010.06.03 11:33:40.
