data_PCOD9100785
_publ_section_title
;
Structure prediction by ZEFSAII (Michael W. Deem and Ramdas Pophale) SiO2 
 PCOD9100785
Probable space group: P -1
;
_chemical_formula_sum "Si O2"
_cell_formula_units_Z 14
_cell_length_a 10.263036
_cell_length_b 12.991623
_cell_length_c 14.876138
_cell_angle_alpha 150.424980
_cell_angle_beta 39.592528
_cell_angle_gamma 128.103252
_cell_volume 614.965072
_symmetry_space_group_name_H-M "P -1"
_symmetry_group_IT_number 2
_symmetry_cell_setting 'triclinic'
loop_
_space_group_symop_operation_xyz
x,y,z
-x,-y,-z
loop_
_atom_site_type_symbol
_atom_site_label
_atom_site_fract_x
_atom_site_fract_y
_atom_site_fract_z
Si Si1 0.064524 0.182011 0.167074
Si Si2 0.770141 0.606853 0.318473
Si Si3 0.110411 0.785005 0.158343
Si Si4 0.028750 0.439259 0.213808
Si Si5 0.355326 0.724574 0.257524
Si Si6 0.835968 0.983744 0.286618
Si Si7 0.542493 0.033283 0.788879
O O1 0.000241 0.385853 0.292770
O O2 0.951518 0.141410 0.287507
O O3 0.311336 0.138042 0.017142
O O4 0.000000 0.000000 0.000000
O O5 0.568749 0.782637 0.570030
O O6 0.958619 0.724079 0.270981
O O7 0.832705 0.490032 0.290662
O O8 0.761785 0.433092 0.114613
O O9 0.277775 0.923009 0.206184
O O10 0.965472 0.890199 0.234578
O O11 0.135050 0.645673 0.308699
O O12 0.167438 0.226036 0.932662
O O13 0.358790 0.858808 0.448396
O O14 0.401969 0.865204 0.256820
O O15 0.500000 0.500000 0.000000
#
# Coordination Sequence:
#
# PCOD9100785 Si02
#       7
#     2   2   2   2   2   2   2
#     4  10  24  47  62  88 134 176 208 256 317 378
#     4  10  20  37  66  99 127 159 205 267 321 367
#     4  10  20  37  65  99 126 161 208 260 322 373
#     4  10  21  42  64  93 130 164 208 256 321 372
#     4  12  23  38  64 100 122 162 219 264 311 373
#     4  10  23  43  64  88 135 169 201 262 319 373
#     4  12  22  40  66  96 128 162 215 265 308 375
#
# _framework density 22.765519999999999
#
# number of rings (size 3 to 8) (size 9 to 14) (size 15 to 20)
#    0.000    1.429    4.286    1.286    0.000    1.714 
#    5.143    7.857    0.000    0.000    0.000    0.000 
#    0.000    0.000    0.000    0.000    0.000    0.000 
#
# Total GULP energy -78186.615498 kJ/mol
# GULP energy per Si atom -5584.758250 kJ/mol
# Density = 2.271371 g / cm^3
# Si number density = 22.765520 Si / 1000 Ang^3
#
#
#
# Elastic Constant Matrix: (Units=GPa)
#
#
# Indices 1 2 3 4 5 6 
#
# 1 42.8136 27.9537 14.5703 -1.8013 5.7935 -11.3525
# 2 27.9537 76.3032 34.2125 -2.7607 5.0669 -17.5956
# 3 14.5703 34.2125 95.8755 18.8863 8.7402 -10.2992
# 4 -1.8013 -2.7607 18.8863 24.9512 -4.1661 0.2991
# 5 5.7935 5.0669 8.7402 -4.1661 23.0859 14.1418
# 6 -11.3525 -17.5956 -10.2992 0.2991 14.1418 36.0000
#
#
#
# Elastic Compliance Matrix: (Units=1/GPa)
#
#
# Indices 1 2 3 4 5 6 
#
# 1 0.034302 -0.009303 0.001281 -0.002208 -0.015179 0.012617
# 2 -0.009303 0.021361 -0.006357 0.005908 -0.003075 0.006847
# 3 0.001281 -0.006357 0.017793 -0.016409 -0.013393 0.007785
# 4 -0.002208 0.005908 -0.016409 0.057003 0.023151 -0.012071
# 5 -0.015179 -0.003075 -0.013393 0.023151 0.083447 -0.043094
# 6 0.012617 0.006847 0.007785 -0.012071 -0.043094 0.054359
#
#
# Mechanical properties :
#
#
# Convention : Reuss Voigt Hill
#
# Bulk Modulus (GPa) = 22.37199 40.94060 31.65630
# Shear Modulus (GPa) = 16.02961 26.02449 21.02705
#
# Velocity S-wave (km/s) = 2.65640 3.38472 3.04243
# Velocity P-wave (km/s) = 4.38829 5.77042 5.12615
#
# Compressibility (1/GPa) = 0.04469875
#
# Stress axis : x y z
#
# Youngs Moduli (GPa) = 29.15273 46.81445 56.20097
#
# Poissons Ratio (x) = 0.43553 -0.07200
# Poissons Ratio (y) = 0.27122 0.35724
# Poissons Ratio (z) = -0.03735 0.29758
#
# Static dielectric constant tensor:
#      x y z
#    x 1.850610 0.019560 -0.018160 
#    y 0.019560 1.836440 -0.001500 
#    z -0.018160 -0.001500 1.914630 
# 
# From -- ./inp_files/283431.got.cif
#   From: 2010.05.17/outbox.cif.g08.bks.cpg/sg2_142_cif.got.tgz:283431.got - 2010.06.03 11:33:40.
