data_PCOD9100489
_publ_section_title
;
Structure prediction by ZEFSAII (Michael W. Deem and Ramdas Pophale) SiO2 
 PCOD9100489
Probable space group: P -1
;
_chemical_formula_sum "Si O2"
_cell_formula_units_Z 16
_cell_length_a 8.955959
_cell_length_b 17.173431
_cell_length_c 9.059131
_cell_angle_alpha 27.140252
_cell_angle_beta 75.577111
_cell_angle_gamma 80.739660
_cell_volume 609.722694
_symmetry_space_group_name_H-M "P -1"
_symmetry_group_IT_number 2
_symmetry_cell_setting 'triclinic'
loop_
_space_group_symop_operation_xyz
x,y,z
-x,-y,-z
loop_
_atom_site_type_symbol
_atom_site_label
_atom_site_fract_x
_atom_site_fract_y
_atom_site_fract_z
Si Si1 0.244421 0.382913 0.804728
Si Si2 0.509456 0.395422 0.922791
Si Si3 0.371504 0.878878 0.834767
Si Si4 0.834500 0.250830 0.409432
Si Si5 0.476456 0.119736 0.642268
Si Si6 0.281739 0.272442 0.655883
Si Si7 0.924965 0.948226 0.448002
Si Si8 0.994635 0.419703 0.368151
O O1 0.388880 0.469360 0.719130
O O2 0.282753 0.286933 0.808363
O O3 0.111935 0.503487 0.614317
O O4 0.176769 0.233815 0.186582
O O5 0.610849 0.551057 0.715414
O O6 0.438214 0.256193 0.295356
O O7 0.615727 0.302612 0.939027
O O8 0.434012 0.933141 0.890494
O O9 0.197730 0.927119 0.780744
O O10 0.500000 0.000000 0.500000
O O11 0.655940 0.187570 0.520085
O O12 0.936527 0.095787 0.615782
O O13 0.877324 0.324330 0.436902
O O14 0.901736 0.413638 0.013382
O O15 0.362846 0.131718 0.787451
O O16 0.109066 0.292249 0.612941
O O17 0.000000 0.000000 0.500000
#
# Coordination Sequence:
#
# PCOD9100489 Si02
#       8
#     2   2   2   2   2   2   2   2
#     4  11  24  40  60  93 128 160 199 253 314 373
#     4  11  22  39  64  93 124 162 210 252 299 366
#     4  10  20  37  64  91 120 154 212 259 292 353
#     4  10  21  35  63  93 117 156 212 257 297 349
#     4  11  21  39  65  93 119 163 212 254 297 361
#     4  12  24  39  64  91 130 164 199 254 316 363
#     4  11  21  37  65  90 122 160 209 253 304 363
#     4  10  22  37  58  90 126 156 200 259 304 362
#
# _framework density 26.241437000000001
#
# number of rings (size 3 to 8) (size 9 to 14) (size 15 to 20)
#    0.000    1.250    3.750    4.125    5.250    0.000 
#    0.000    0.625    2.750    1.500    0.000    0.000 
#    0.000    0.000    0.000    0.000    0.000    0.000 
#
# Total GULP energy -89641.800448 kJ/mol
# GULP energy per Si atom -5602.612528 kJ/mol
# Density = 2.618171 g / cm^3
# Si number density = 26.241437 Si / 1000 Ang^3
#
#
#
# Elastic Constant Matrix: (Units=GPa)
#
#
# Indices 1 2 3 4 5 6 
#
# 1 192.0458 79.2341 19.3769 1.6025 12.2801 -3.0513
# 2 79.2341 190.7453 10.6581 -10.6087 5.9801 -18.9733
# 3 19.3769 10.6581 67.7451 7.3621 -1.0859 -3.6202
# 4 1.6025 -10.6087 7.3621 40.4040 -1.4556 -0.1455
# 5 12.2801 5.9801 -1.0859 -1.4556 30.1654 -1.6798
# 6 -3.0513 -18.9733 -3.6202 -0.1455 -1.6798 47.7411
#
#
#
# Elastic Compliance Matrix: (Units=1/GPa)
#
#
# Indices 1 2 3 4 5 6 
#
# 1 0.006618 -0.002725 -0.001460 -0.000798 -0.002293 -0.000854
# 2 -0.002725 0.006751 -0.000362 0.001955 -0.000009 0.002487
# 3 -0.001460 -0.000362 0.015615 -0.002838 0.001146 0.000978
# 4 -0.000798 0.001955 -0.002838 0.025855 0.001118 0.000629
# 5 -0.002293 -0.000009 0.001146 0.001118 0.034245 0.001145
# 6 -0.000854 0.002487 0.000978 0.000629 0.001145 0.021997
#
#
# Mechanical properties :
#
#
# Convention : Reuss Voigt Hill
#
# Bulk Modulus (GPa) = 50.27782 74.34159 62.30971
# Shear Modulus (GPa) = 39.43053 46.41324 42.92189
#
# Velocity S-wave (km/s) = 3.88055 4.21015 4.04871
# Velocity P-wave (km/s) = 6.26734 7.21285 6.75665
#
# Compressibility (1/GPa) = 0.01988948
#
# Stress axis : x y z
#
# Youngs Moduli (GPa) = 151.09402 148.12080 64.04148
#
# Poissons Ratio (x) = 0.40364 0.09350
# Poissons Ratio (y) = 0.41174 0.02321
# Poissons Ratio (z) = 0.22060 0.05369
#
# Static dielectric constant tensor:
#      x y z
#    x 2.048510 -0.023000 -0.029580 
#    y -0.023000 2.008310 -0.002720 
#    z -0.029580 -0.002720 2.122540 
# 
# From -- ./inp_files/205034.got.cif
#   From: 2010.05.17/outbox.cif.g08.bks.cpg/sg2_103_cif.got.tgz:205034.got - 2010.06.03 11:33:40.
