data_PCOD9100834
_publ_section_title
;
Structure prediction by ZEFSAII (Michael W. Deem and Ramdas Pophale) SiO2 
 PCOD9100834
Probable space group: P -1
;
_chemical_formula_sum "Si O2"
_cell_formula_units_Z 16
_cell_length_a 17.968223
_cell_length_b 8.500888
_cell_length_c 7.553702
_cell_angle_alpha 123.552100
_cell_angle_beta 98.483122
_cell_angle_gamma 116.264771
_cell_volume 734.075195
_symmetry_space_group_name_H-M "P -1"
_symmetry_group_IT_number 2
_symmetry_cell_setting 'triclinic'
loop_
_space_group_symop_operation_xyz
x,y,z
-x,-y,-z
loop_
_atom_site_type_symbol
_atom_site_label
_atom_site_fract_x
_atom_site_fract_y
_atom_site_fract_z
Si Si1 0.195308 0.940194 0.473280
Si Si2 0.413793 0.764064 0.436763
Si Si3 0.598199 0.661858 0.015756
Si Si4 0.893908 0.618678 0.269689
Si Si5 0.532777 0.764104 0.730731
Si Si6 0.294114 0.818096 0.195285
Si Si7 0.015292 0.456635 0.277945
Si Si8 0.038221 0.957226 0.246946
O O1 0.235468 0.905284 0.290999
O O2 0.124981 0.685416 0.398680
O O3 0.123306 0.990534 0.413380
O O4 0.295793 0.150760 0.740440
O O5 0.445600 0.770146 0.653546
O O6 0.325227 0.756866 0.346435
O O7 0.500000 0.000000 0.500000
O O8 0.398168 0.532592 0.204183
O O9 0.500000 0.500000 0.000000
O O10 0.575990 0.801011 0.962652
O O11 0.944160 0.495880 0.184064
O O12 0.938802 0.798138 0.227750
O O13 0.926936 0.770877 0.558374
O O14 0.778721 0.424249 0.094660
O O15 0.500000 0.500000 0.500000
O O16 0.616755 0.969188 0.757359
O O17 0.000000 0.500000 0.500000
O O18 0.981810 0.198758 0.031514
#
# Coordination Sequence:
#
# PCOD9100834 Si02
#       8
#     2   2   2   2   2   2   2   2
#     4  11  21  37  63  89 117 168 212 260 330 384
#     4   9  19  37  58  87 118 164 210 268 324 374
#     4  11  22  38  61  90 125 165 215 265 329 396
#     4  10  20  37  66  90 123 167 212 270 317 389
#     4   9  20  37  59  85 123 166 214 267 325 382
#     4  11  19  37  66  89 124 166 220 270 325 384
#     4  11  23  40  62  90 134 164 209 269 325 391
#     4  10  20  40  62  93 122 164 219 258 329 391
#
# _framework density 21.796132
#
# number of rings (size 3 to 8) (size 9 to 14) (size 15 to 20)
#    0.000    1.750    2.500    3.750    1.750    0.500 
#    0.000    5.625    8.250    0.000    0.000    0.000 
#    0.000    0.000    0.000    0.000    0.000    0.000 
#
# Total GULP energy -89123.411259 kJ/mol
# GULP energy per Si atom -5570.213204 kJ/mol
# Density = 2.174652 g / cm^3
# Si number density = 21.796132 Si / 1000 Ang^3
#
#
#
# Elastic Constant Matrix: (Units=GPa)
#
#
# Indices 1 2 3 4 5 6 
#
# 1 83.4025 28.9544 35.9774 4.8954 9.9824 -2.1535
# 2 28.9544 72.2089 36.0392 -6.1975 19.5560 -4.7175
# 3 35.9774 36.0392 155.4603 10.6817 14.8570 0.9982
# 4 4.8954 -6.1975 10.6817 29.1300 0.0173 -0.4874
# 5 9.9824 19.5560 14.8570 0.0173 47.8030 2.4858
# 6 -2.1535 -4.7175 0.9982 -0.4874 2.4858 29.8222
#
#
#
# Elastic Compliance Matrix: (Units=1/GPa)
#
#
# Indices 1 2 3 4 5 6 
#
# 1 0.014842 -0.005042 -0.002034 -0.002815 -0.000421 0.000331
# 2 -0.005042 0.020017 -0.003335 0.006392 -0.006286 0.003542
# 3 -0.002034 -0.003335 0.007971 -0.003306 -0.000638 -0.000942
# 4 -0.002815 0.006392 -0.003306 0.037402 -0.001097 0.001621
# 5 -0.000421 -0.006286 -0.000638 -0.001097 0.023934 -0.003016
# 6 0.000331 0.003542 -0.000942 0.001621 -0.003016 0.034426
#
#
# Mechanical properties :
#
#
# Convention : Reuss Voigt Hill
#
# Bulk Modulus (GPa) = 45.43924 57.00152 51.22038
# Shear Modulus (GPa) = 29.98488 35.35774 32.67131
#
# Velocity S-wave (km/s) = 3.71306 4.03203 3.87583
# Velocity P-wave (km/s) = 6.26698 6.91992 6.60153
#
# Compressibility (1/GPa) = 0.02200741
#
# Stress axis : x y z
#
# Youngs Moduli (GPa) = 67.37518 49.95656 125.46149
#
# Poissons Ratio (x) = 0.25189 0.25525
# Poissons Ratio (y) = 0.33971 0.41839
# Poissons Ratio (z) = 0.13707 0.16659
#
# Static dielectric constant tensor:
#      x y z
#    x 1.789150 -0.069290 -0.015480 
#    y -0.069290 1.832870 -0.024750 
#    z -0.015480 -0.024750 1.831670 
# 
# From -- ./inp_files/329603.got.cif
#   From: 2010.05.17/outbox.cif.g08.bks.cpg/sg2_165_cif.got.tgz:329603.got - 2010.06.03 11:33:40.
