data_PCOD9100073
_publ_section_title
;
Structure prediction by ZEFSAII (Michael W. Deem and Ramdas Pophale) SiO2 
 PCOD9100073
Probable space group: P -1
;
_chemical_formula_sum "Si O2"
_cell_formula_units_Z 16
_cell_length_a 10.400056
_cell_length_b 11.897956
_cell_length_c 8.982864
_cell_angle_alpha 123.670607
_cell_angle_beta 113.667654
_cell_angle_gamma 98.524509
_cell_volume 740.252057
_symmetry_space_group_name_H-M "P -1"
_symmetry_group_IT_number 2
_symmetry_cell_setting 'triclinic'
loop_
_space_group_symop_operation_xyz
x,y,z
-x,-y,-z
loop_
_atom_site_type_symbol
_atom_site_label
_atom_site_fract_x
_atom_site_fract_y
_atom_site_fract_z
Si Si1 0.779125 0.596568 0.062860
Si Si2 0.581187 0.906221 0.395148
Si Si3 0.442276 0.280552 0.006815
Si Si4 0.118360 0.757075 0.702533
Si Si5 0.598404 0.304609 0.601039
Si Si6 0.145830 0.802396 0.390050
Si Si7 0.784145 0.495101 0.321331
Si Si8 0.605805 0.931167 0.920920
O O1 0.783002 0.507018 0.148636
O O2 0.961885 0.710908 0.190751
O O3 0.678124 0.683117 0.114541
O O4 0.682023 0.486433 0.798978
O O5 0.541236 0.773860 0.398487
O O6 0.500000 0.000000 0.500000
O O7 0.758305 0.027523 0.511733
O O8 0.496934 0.813721 0.138897
O O9 0.601748 0.434370 0.242074
O O10 0.350712 0.163710 0.010223
O O11 0.148055 0.795906 0.567233
O O12 0.172544 0.632979 0.688694
O O13 0.925421 0.662198 0.562997
O O14 0.232993 0.920928 0.954251
O O15 0.751346 0.277162 0.676843
O O16 0.511968 0.202020 0.343023
O O17 0.500000 0.000000 0.000000
#
# Coordination Sequence:
#
# PCOD9100073 Si02
#       8
#     2   2   2   2   2   2   2   2
#     4  11  25  38  60  95 129 167 201 253 321 370
#     4  10  21  37  61  94 118 156 208 257 308 354
#     4  12  22  41  65  91 127 168 205 252 314 378
#     4  10  20  37  62  93 115 162 209 260 301 354
#     4  11  22  38  63  91 125 165 208 261 305 362
#     4  10  20  40  61  94 123 157 214 259 302 367
#     4  10  21  37  60  91 127 154 205 257 305 371
#     4  12  21  40  65  89 121 162 217 254 301 371
#
# _framework density 21.614258
#
# number of rings (size 3 to 8) (size 9 to 14) (size 15 to 20)
#    0.000    1.250    5.000    1.500    0.000    1.000 
#    0.000    1.250    0.000    1.500    0.000    0.000 
#    0.000    0.000    0.000    0.000    0.000    0.000 
#
# Total GULP energy -89159.193767 kJ/mol
# GULP energy per Si atom -5572.449610 kJ/mol
# Density = 2.156506 g / cm^3
# Si number density = 21.614258 Si / 1000 Ang^3
#
#
#
# Elastic Constant Matrix: (Units=GPa)
#
#
# Indices 1 2 3 4 5 6 
#
# 1 64.1940 33.9408 42.7452 11.9961 20.8567 6.5907
# 2 33.9408 72.1527 36.0547 9.9156 29.6415 19.7917
# 3 42.7452 36.0547 133.9925 18.4856 23.3689 2.7579
# 4 11.9961 9.9156 18.4856 30.6954 14.4571 13.1288
# 5 20.8567 29.6415 23.3689 14.4571 27.8914 9.0614
# 6 6.5907 19.7917 2.7579 13.1288 9.0614 19.0200
#
#
#
# Elastic Compliance Matrix: (Units=1/GPa)
#
#
# Indices 1 2 3 4 5 6 
#
# 1 0.024890 -0.008344 -0.004145 -0.004523 -0.006100 0.006686
# 2 -0.008344 0.043473 -0.005863 0.028303 -0.035365 -0.044183
# 3 -0.004145 -0.005863 0.011180 -0.008386 0.000600 0.011419
# 4 -0.004523 0.028303 -0.008386 0.073782 -0.038694 -0.059163
# 5 -0.006100 -0.035365 0.000600 -0.038694 0.090226 0.022550
# 6 0.006686 -0.044183 0.011419 -0.059163 0.022550 0.124674
#
#
# Mechanical properties :
#
#
# Convention : Reuss Voigt Hill
#
# Bulk Modulus (GPa) = 23.34309 55.09117 39.21713
# Shear Modulus (GPa) = 11.92723 26.02791 18.97757
#
# Velocity S-wave (km/s) = 2.35164 3.47392 2.96634
# Velocity P-wave (km/s) = 4.26578 6.45248 5.46953
#
# Compressibility (1/GPa) = 0.04283924
#
# Stress axis : x y z
#
# Youngs Moduli (GPa) = 40.17705 23.00296 89.44312
#
# Poissons Ratio (x) = 0.19193 0.37072
# Poissons Ratio (y) = 0.33522 0.52445
# Poissons Ratio (z) = 0.16653 0.13488
#
# Static dielectric constant tensor:
#      x y z
#    x 1.773540 0.002640 -0.006760 
#    y 0.002640 1.842230 -0.009470 
#    z -0.006760 -0.009470 1.886720 
# 
# From -- ./inp_files/260235.got.cif
#   From: 2010.05.17/outbox.cif.g08.bks.cpg/sg2_131_cif.got.tgz:260235.got - 2010.06.03 11:33:40.
