data_PCOD9100190
_publ_section_title
;
Structure prediction by ZEFSAII (Michael W. Deem and Ramdas Pophale) SiO2 
 PCOD9100190
Probable space group: P -1
;
_chemical_formula_sum "Si O2"
_cell_formula_units_Z 16
_cell_length_a 11.348932
_cell_length_b 7.962291
_cell_length_c 17.610123
_cell_angle_alpha 114.928761
_cell_angle_beta 44.368181
_cell_angle_gamma 80.546861
_cell_volume 685.132919
_symmetry_space_group_name_H-M "P -1"
_symmetry_group_IT_number 2
_symmetry_cell_setting 'triclinic'
loop_
_space_group_symop_operation_xyz
x,y,z
-x,-y,-z
loop_
_atom_site_type_symbol
_atom_site_label
_atom_site_fract_x
_atom_site_fract_y
_atom_site_fract_z
Si Si1 0.347491 0.886780 0.297778
Si Si2 0.822084 0.484027 0.112354
Si Si3 0.825918 0.743361 0.289237
Si Si4 0.240459 0.309113 0.517990
Si Si5 0.347579 0.223972 0.998286
Si Si6 0.476925 0.425752 0.078868
Si Si7 0.247589 0.919102 0.747435
Si Si8 0.936016 0.870433 0.827121
O O1 0.577996 0.678809 0.210852
O O2 0.305516 0.705808 0.259096
O O3 0.181141 0.176506 0.470102
O O4 0.427010 0.924196 0.190082
O O5 0.761711 0.607536 0.246925
O O6 0.000000 0.500000 0.000000
O O7 0.007108 0.163956 0.956430
O O8 0.735667 0.790088 0.425598
O O9 0.121313 0.513805 0.118093
O O10 0.758222 0.969120 0.309950
O O11 0.500086 0.202348 0.356208
O O12 0.034788 0.635883 0.678190
O O13 0.385756 0.292743 0.074838
O O14 0.242786 0.102372 0.029958
O O15 0.500000 0.500000 0.000000
O O16 0.752614 0.173980 0.937037
O O17 0.186295 0.757004 0.724699
#
# Coordination Sequence:
#
# PCOD9100190 Si02
#       8
#     2   2   2   2   2   2   2   2
#     4  11  19  38  62  88 112 155 202 239 280 343
#     4  10  16  31  63  82 117 148 205 237 265 333
#     4  10  19  35  59  89 118 156 196 237 286 341
#     4  11  23  35  57  91 129 150 182 244 306 342
#     4  10  20  38  60  87 114 154 197 246 284 334
#     4  10  21  40  68  84 103 154 209 244 278 343
#     4  11  18  35  57  85 120 161 190 229 280 357
#     4  11  23  38  56  88 123 152 187 240 303 343
#
# _framework density 23.353133
#
# number of rings (size 3 to 8) (size 9 to 14) (size 15 to 20)
#    0.000    1.500    6.250    1.875    0.000    0.000 
#    0.000   13.125    0.000    0.000    0.000    0.000 
#    0.000    0.000    0.000    0.000    0.000    0.000 
#
# Total GULP energy -89160.902687 kJ/mol
# GULP energy per Si atom -5572.556418 kJ/mol
# Density = 2.329998 g / cm^3
# Si number density = 23.353133 Si / 1000 Ang^3
#
#
#
# Elastic Constant Matrix: (Units=GPa)
#
#
# Indices 1 2 3 4 5 6 
#
# 1 92.1962 19.5112 9.1291 -6.8727 26.9174 23.6906
# 2 19.5112 88.0359 19.1150 1.5220 4.1951 19.4707
# 3 9.1291 19.1150 69.3740 12.6723 36.9996 15.4451
# 4 -6.8727 1.5220 12.6723 27.4961 3.1205 0.1756
# 5 26.9174 4.1951 36.9996 3.1205 43.7401 6.4478
# 6 23.6906 19.4707 15.4451 0.1756 6.4478 25.3674
#
#
#
# Elastic Compliance Matrix: (Units=1/GPa)
#
#
# Indices 1 2 3 4 5 6 
#
# 1 0.022205 -0.002070 0.014116 0.001829 -0.022281 -0.022092
# 2 -0.002070 0.014232 -0.004715 0.000352 0.004961 -0.007383
# 3 0.014116 -0.004715 0.042898 -0.011283 -0.039966 -0.025446
# 4 0.001829 0.000352 -0.011283 0.041425 0.004936 0.003350
# 5 -0.022281 0.004961 -0.039966 0.004936 0.065935 0.024540
# 6 -0.022092 -0.007383 -0.025446 0.003350 0.024540 0.074952
#
#
# Mechanical properties :
#
#
# Convention : Reuss Voigt Hill
#
# Bulk Modulus (GPa) = 10.63881 38.34631 24.49256
# Shear Modulus (GPa) = 17.96514 32.77743 25.37128
#
# Velocity S-wave (km/s) = 2.77660 3.75047 3.29966
# Velocity P-wave (km/s) = 3.85290 5.93385 5.00277
#
# Compressibility (1/GPa) = 0.09399549
#
# Stress axis : x y z
#
# Youngs Moduli (GPa) = 45.03497 70.26423 23.31138
#
# Poissons Ratio (x) = 0.14544 -0.32906
# Poissons Ratio (y) = 0.09322 0.10992
# Poissons Ratio (z) = -0.63571 0.33133
#
# Static dielectric constant tensor:
#      x y z
#    x 1.998550 0.044410 0.042820 
#    y 0.044410 1.917000 0.049910 
#    z 0.042820 0.049910 1.982320 
# 
# From -- ./inp_files/559056.got.cif
#   From: 2010.05.17/outbox.cif.g08.bks.cpg/sg2_280_cif.got.tgz:559056.got - 2010.06.03 11:33:40.
