data_PCOD9100353
_publ_section_title
;
Structure prediction by ZEFSAII (Michael W. Deem and Ramdas Pophale) SiO2 
 PCOD9100353
Probable space group: P -1
;
_chemical_formula_sum "Si O2"
_cell_formula_units_Z 14
_cell_length_a 8.136036
_cell_length_b 7.444221
_cell_length_c 12.682952
_cell_angle_alpha 50.644675
_cell_angle_beta 71.287106
_cell_angle_gamma 77.600745
_cell_volume 562.499305
_symmetry_space_group_name_H-M "P -1"
_symmetry_group_IT_number 2
_symmetry_cell_setting 'triclinic'
loop_
_space_group_symop_operation_xyz
x,y,z
-x,-y,-z
loop_
_atom_site_type_symbol
_atom_site_label
_atom_site_fract_x
_atom_site_fract_y
_atom_site_fract_z
Si Si1 0.103104 0.943234 0.764273
Si Si2 0.765197 0.138535 0.449408
Si Si3 0.564544 0.797391 0.850071
Si Si4 0.458995 0.230141 0.596392
Si Si5 0.847095 0.315045 0.597640
Si Si6 0.795515 0.401111 0.956453
Si Si7 0.733839 0.610077 0.690490
O O1 0.265213 0.125307 0.678298
O O2 0.930107 0.087936 0.720577
O O3 0.156388 0.798883 0.701938
O O4 0.093721 0.762740 0.929621
O O5 0.558026 0.173266 0.488406
O O6 0.822588 0.268123 0.495473
O O7 0.807142 0.863727 0.556156
O O8 0.385696 0.738821 0.963468
O O9 0.571435 0.680304 0.774159
O O10 0.562152 0.069346 0.722904
O O11 0.724658 0.652382 0.921498
O O12 0.500000 0.500000 0.500000
O O13 0.713143 0.451763 0.652341
O O14 0.000000 0.500000 0.500000
O O15 0.854077 0.464497 0.803215
#
# Coordination Sequence:
#
# PCOD9100353 Si02
#       7
#     2   2   2   2   2   2   2
#     4  11  22  38  64  94 127 161 206 267 306 367
#     4  11  23  41  63  90 125 167 208 255 320 359
#     4   7  15  35  64  87 123 163 200 252 319 359
#     4  10  20  37  63  95 121 155 216 259 301 366
#     4  12  24  39  63  92 128 167 209 252 312 378
#     4   8  16  37  65  88 119 168 203 253 317 367
#     4   9  19  38  66  84 121 173 201 249 312 372
#
# _framework density 24.888922999999998
#
# number of rings (size 3 to 8) (size 9 to 14) (size 15 to 20)
#    0.857    1.429    1.429    1.714    0.000    0.571 
#    0.000    0.714    9.429    6.000    0.000    0.000 
#    0.000    0.000    0.000    0.000    0.000    0.000 
#
# Total GULP energy -77993.512251 kJ/mol
# GULP energy per Si atom -5570.965161 kJ/mol
# Density = 2.483227 g / cm^3
# Si number density = 24.888923 Si / 1000 Ang^3
#
#
#
# Elastic Constant Matrix: (Units=GPa)
#
#
# Indices 1 2 3 4 5 6 
#
# 1 58.6464 34.3065 5.2525 2.0424 20.8014 -1.6381
# 2 34.3065 181.2557 52.0664 -6.0631 15.6629 16.8985
# 3 5.2525 52.0664 129.3067 -14.2990 28.8087 6.8558
# 4 2.0424 -6.0631 -14.2990 40.0958 -2.8423 5.1858
# 5 20.8014 15.6629 28.8087 -2.8423 41.1503 -4.0161
# 6 -1.6381 16.8985 6.8558 5.1858 -4.0161 43.0815
#
#
#
# Elastic Compliance Matrix: (Units=1/GPa)
#
#
# Indices 1 2 3 4 5 6 
#
# 1 0.024103 -0.004622 0.003495 -0.001746 -0.012877 0.001183
# 2 -0.004622 0.007362 -0.002853 0.000759 0.001333 -0.002577
# 3 0.003495 -0.002853 0.011011 0.002937 -0.008346 -0.001632
# 4 -0.001746 0.000759 0.002937 0.026714 -0.000012 -0.004048
# 5 -0.012877 0.001333 -0.008346 -0.000012 0.036508 0.003721
# 6 0.001183 -0.002577 -0.001632 -0.004048 0.003721 0.025361
#
#
# Mechanical properties :
#
#
# Convention : Reuss Voigt Hill
#
# Bulk Modulus (GPa) = 28.97170 61.38442 45.17806
# Shear Modulus (GPa) = 33.21711 43.37108 38.29410
#
# Velocity S-wave (km/s) = 3.65720 4.17896 3.92675
# Velocity P-wave (km/s) = 5.43131 6.92833 6.22499
#
# Compressibility (1/GPa) = 0.03451644
#
# Stress axis : x y z
#
# Youngs Moduli (GPa) = 41.48820 135.83570 90.81815
#
# Poissons Ratio (x) = 0.62783 -0.31742
# Poissons Ratio (y) = 0.19176 0.25910
# Poissons Ratio (z) = -0.14500 0.38753
#
# Static dielectric constant tensor:
#      x y z
#    x 2.342310 0.044760 0.067060 
#    y 0.044760 2.002510 -0.064230 
#    z 0.067060 -0.064230 2.015660 
# 
# From -- ./inp_files/408255.got.cif
#   From: 2010.05.17/outbox.cif.g08.bks.cpg/sg2_205_cif.got.tgz:408255.got - 2010.06.03 11:33:40.
