data_PCOD9100827
_publ_section_title
;
Structure prediction by ZEFSAII (Michael W. Deem and Ramdas Pophale) SiO2 
 PCOD9100827
Probable space group: P -1
;
_chemical_formula_sum "Si O2"
_cell_formula_units_Z 16
_cell_length_a 9.097802
_cell_length_b 12.528542
_cell_length_c 16.094118
_cell_angle_alpha 48.442199
_cell_angle_beta 65.085296
_cell_angle_gamma 32.501339
_cell_volume 692.627896
_symmetry_space_group_name_H-M "P -1"
_symmetry_group_IT_number 2
_symmetry_cell_setting 'triclinic'
loop_
_space_group_symop_operation_xyz
x,y,z
-x,-y,-z
loop_
_atom_site_type_symbol
_atom_site_label
_atom_site_fract_x
_atom_site_fract_y
_atom_site_fract_z
Si Si1 0.435754 0.624241 0.830066
Si Si2 0.694091 0.238708 0.401189
Si Si3 0.512845 0.132724 0.200967
Si Si4 0.663830 0.162594 0.989690
Si Si5 0.868711 0.587036 0.081720
Si Si6 0.599942 0.996481 0.563355
Si Si7 0.840311 0.939072 0.877883
Si Si8 0.706125 0.544649 0.300204
O O1 0.322779 0.750489 0.700317
O O2 0.537491 0.686426 0.826331
O O3 0.158781 0.761577 0.871732
O O4 0.675984 0.323020 0.919782
O O5 0.605812 0.463344 0.331476
O O6 0.524715 0.218703 0.476852
O O7 0.000000 0.000000 0.500000
O O8 0.722808 0.024528 0.129922
O O9 0.556534 0.977069 0.338881
O O10 0.207473 0.307766 0.144394
O O11 0.319766 0.384236 0.941276
O O12 0.783085 0.035725 0.936227
O O13 0.768663 0.625079 0.178485
O O14 0.814168 0.789156 0.969138
O O15 0.958976 0.724042 0.611239
O O16 0.500000 0.000000 0.500000
O O17 0.610476 0.164737 0.745511
#
# Coordination Sequence:
#
# PCOD9100827 Si02
#       8
#     2   2   2   2   2   2   2   2
#     4  12  23  40  64  94 129 167 208 256 321 375
#     4  10  20  39  65  91 117 168 217 250 309 366
#     4  11  23  38  63  96 126 168 211 254 320 377
#     4  11  22  40  62  93 132 162 210 256 312 386
#     4  10  20  38  62  94 127 164 202 252 315 378
#     4  10  20  37  66  89 119 164 213 263 306 359
#     4  11  23  37  65  97 131 163 205 256 315 381
#     4   9  19  38  61  92 118 160 210 252 306 368
#
# _framework density 23.100428000000001
#
# number of rings (size 3 to 8) (size 9 to 14) (size 15 to 20)
#    0.000    1.500    5.000    2.250    0.000    0.500 
#    0.000    2.500    2.750    2.250    0.000    0.000 
#    0.000    0.000    0.000    0.000    0.000    0.000 
#
# Total GULP energy -89084.246773 kJ/mol
# GULP energy per Si atom -5567.765423 kJ/mol
# Density = 2.304785 g / cm^3
# Si number density = 23.100428 Si / 1000 Ang^3
#
#
#
# Elastic Constant Matrix: (Units=GPa)
#
#
# Indices 1 2 3 4 5 6 
#
# 1 127.9536 8.5204 39.4050 -2.9252 -15.8900 8.1185
# 2 8.5204 39.9198 22.3859 10.1233 -7.3849 9.8687
# 3 39.4050 22.3859 119.0064 11.9187 -17.4280 9.7910
# 4 -2.9252 10.1233 11.9187 25.3500 0.1080 -1.5266
# 5 -15.8900 -7.3849 -17.4280 0.1080 51.1797 -4.6478
# 6 8.1185 9.8687 9.7910 -1.5266 -4.6478 21.4295
#
#
#
# Elastic Compliance Matrix: (Units=1/GPa)
#
#
# Indices 1 2 3 4 5 6 
#
# 1 0.009058 -0.000283 -0.002819 0.002387 0.001672 -0.001481
# 2 -0.000283 0.034426 -0.003534 -0.013004 0.002383 -0.014542
# 3 -0.002819 -0.003534 0.010908 -0.004179 0.002146 -0.002121
# 4 0.002387 -0.013004 -0.004179 0.047491 -0.001751 0.009997
# 5 0.001672 0.002383 0.002146 -0.001751 0.021298 0.001783
# 6 -0.001481 -0.014542 -0.002121 0.009997 0.001783 0.055990
#
#
# Mechanical properties :
#
#
# Convention : Reuss Voigt Hill
#
# Bulk Modulus (GPa) = 24.31816 47.50029 35.90923
# Shear Modulus (GPa) = 24.25409 34.02974 29.14191
#
# Velocity S-wave (km/s) = 3.24379 3.84229 3.55566
# Velocity P-wave (km/s) = 4.95778 6.34755 5.69522
#
# Compressibility (1/GPa) = 0.04112153
#
# Stress axis : x y z
#
# Youngs Moduli (GPa) = 110.39510 29.04776 91.67331
#
# Poissons Ratio (x) = 0.00821 0.25838
# Poissons Ratio (y) = 0.03121 0.32401
# Poissons Ratio (z) = 0.31115 0.10267
#
# Static dielectric constant tensor:
#      x y z
#    x 1.874610 -0.058190 0.017990 
#    y -0.058190 1.994710 -0.000340 
#    z 0.017990 -0.000340 1.926900 
# 
# From -- ./inp_files/500016.got.cif
#   From: 2010.05.17/outbox.cif.g08.bks.cpg/sg2_251_cif.got.tgz:500016.got - 2010.06.03 11:33:40.
