data_PCOD9100630
_publ_section_title
;
Structure prediction by ZEFSAII (Michael W. Deem and Ramdas Pophale) SiO2 
 PCOD9100630
Probable space group: P -1
;
_chemical_formula_sum "Si O2"
_cell_formula_units_Z 16
_cell_length_a 10.415337
_cell_length_b 18.183980
_cell_length_c 13.467873
_cell_angle_alpha 155.754067
_cell_angle_beta 138.571519
_cell_angle_gamma 35.491737
_cell_volume 607.846985
_symmetry_space_group_name_H-M "P -1"
_symmetry_group_IT_number 2
_symmetry_cell_setting 'triclinic'
loop_
_space_group_symop_operation_xyz
x,y,z
-x,-y,-z
loop_
_atom_site_type_symbol
_atom_site_label
_atom_site_fract_x
_atom_site_fract_y
_atom_site_fract_z
Si Si1 0.673609 0.643989 0.457090
Si Si2 0.648235 0.756968 0.807136
Si Si3 0.945994 0.619228 0.404552
Si Si4 0.240607 0.976412 0.523586
Si Si5 0.595544 0.765716 0.200382
Si Si6 0.834535 0.188005 0.918122
Si Si7 0.767505 0.216770 0.321744
Si Si8 0.134988 0.626019 0.220802
O O1 0.832440 0.689002 0.531950
O O2 0.688779 0.653804 0.595234
O O3 0.425477 0.819963 0.509410
O O4 0.748162 0.418622 0.181884
O O5 0.817522 0.296103 0.552552
O O6 0.489577 0.718699 0.744413
O O7 0.900885 0.626053 0.829489
O O8 0.500000 0.000000 0.000000
O O9 0.752604 0.702581 0.311453
O O10 0.121251 0.702164 0.593071
O O11 0.344516 0.098497 0.670954
O O12 0.019325 0.166173 0.670748
O O13 0.190683 0.845708 0.253690
O O14 0.337367 0.875344 0.209839
O O15 0.646550 0.549034 0.915730
O O16 0.083719 0.028562 0.895180
O O17 0.000000 0.500000 0.000000
#
# Coordination Sequence:
#
# PCOD9100630 Si02
#       8
#     2   2   2   2   2   2   2   2
#     4  12  26  44  69 105 140 183 224 289 358 409
#     4  12  30  51  67  97 140 192 237 283 340 406
#     4  12  24  45  75  95 139 183 240 280 328 413
#     4  10  20  37  65 104 140 172 221 279 351 416
#     4  11  20  38  70 106 140 177 230 281 354 405
#     4  11  21  41  67 106 140 173 218 294 355 415
#     4  11  23  47  74 101 137 184 239 286 336 410
#     4   9  18  35  64 106 136 165 214 289 345 398
#
# _framework density 26.322413999999998
#
# number of rings (size 3 to 8) (size 9 to 14) (size 15 to 20)
#    0.000    1.000    5.000    3.750    1.750    0.000 
#    0.000    6.875    0.000    0.000    0.000    0.000 
#    0.000    0.000    0.000    0.000    0.000    0.000 
#
# Total GULP energy -89565.331362 kJ/mol
# GULP energy per Si atom -5597.833210 kJ/mol
# Density = 2.626250 g / cm^3
# Si number density = 26.322414 Si / 1000 Ang^3
#
#
#
# Elastic Constant Matrix: (Units=GPa)
#
#
# Indices 1 2 3 4 5 6 
#
# 1 116.8818 24.4585 20.6337 -4.5491 -3.5740 -18.1846
# 2 24.4585 89.5830 30.4309 29.5233 -6.7807 -17.7763
# 3 20.6337 30.4309 145.6855 24.8119 -19.5604 11.7528
# 4 -4.5491 29.5233 24.8119 37.5016 -9.1767 -1.1392
# 5 -3.5740 -6.7807 -19.5604 -9.1767 46.5591 4.1347
# 6 -18.1846 -17.7763 11.7528 -1.1392 4.1347 47.3300
#
#
#
# Elastic Compliance Matrix: (Units=1/GPa)
#
#
# Indices 1 2 3 4 5 6 
#
# 1 0.010288 -0.003188 -0.001909 0.005183 0.000249 0.003332
# 2 -0.003188 0.018188 -0.001674 -0.013797 -0.001536 0.005824
# 3 -0.001909 -0.001674 0.008905 -0.004223 0.002867 -0.003926
# 4 0.005183 -0.013797 -0.004223 0.042141 0.005059 -0.001569
# 5 0.000249 -0.001536 0.002867 0.005059 0.023755 -0.003146
# 6 0.003332 0.005824 -0.003926 -0.001569 -0.003146 0.025808
#
#
# Mechanical properties :
#
#
# Convention : Reuss Voigt Hill
#
# Bulk Modulus (GPa) = 41.94964 55.91073 48.93018
# Shear Modulus (GPa) = 33.20640 44.71995 38.96317
#
# Velocity S-wave (km/s) = 3.55565 4.12628 3.85155
# Velocity P-wave (km/s) = 5.72960 6.63238 6.19745
#
# Compressibility (1/GPa) = 0.02383811
#
# Stress axis : x y z
#
# Youngs Moduli (GPa) = 97.20362 54.98011 112.29588
#
# Poissons Ratio (x) = 0.17530 0.21440
# Poissons Ratio (y) = 0.30993 0.18796
# Poissons Ratio (z) = 0.18558 0.09203
#
# Static dielectric constant tensor:
#      x y z
#    x 2.116200 -0.062940 0.077850 
#    y -0.062940 2.069050 0.016750 
#    z 0.077850 0.016750 2.104250 
# 
# From -- ./inp_files/596390.got.cif
#   From: 2010.05.17/outbox.cif.g08.bks.cpg/sg2_299_cif.got.tgz:596390.got - 2010.06.03 11:33:40.
