data_PCOD9100892
_publ_section_title
;
Structure prediction by ZEFSAII (Michael W. Deem and Ramdas Pophale) SiO2 
 PCOD9100892
Probable space group: P -1
;
_chemical_formula_sum "Si O2"
_cell_formula_units_Z 16
_cell_length_a 17.265524
_cell_length_b 8.371162
_cell_length_c 8.237264
_cell_angle_alpha 79.684290
_cell_angle_beta 67.793146
_cell_angle_gamma 38.478341
_cell_volume 671.590302
_symmetry_space_group_name_H-M "P -1"
_symmetry_group_IT_number 2
_symmetry_cell_setting 'triclinic'
loop_
_space_group_symop_operation_xyz
x,y,z
-x,-y,-z
loop_
_atom_site_type_symbol
_atom_site_label
_atom_site_fract_x
_atom_site_fract_y
_atom_site_fract_z
Si Si1 0.589400 0.579709 0.807464
Si Si2 0.939256 0.127391 0.198482
Si Si3 0.038694 0.481402 0.284108
Si Si4 0.156702 0.621716 0.286888
Si Si5 0.665807 0.383427 0.419328
Si Si6 0.408681 0.869923 0.410443
Si Si7 0.186161 0.393158 0.643162
Si Si8 0.320963 0.925293 0.111892
O O1 0.688144 0.559161 0.816442
O O2 0.617799 0.529827 0.602536
O O3 0.639079 0.325162 0.871230
O O4 0.431054 0.838538 0.922623
O O5 0.822843 0.174427 0.319032
O O6 0.859482 0.419121 0.213208
O O7 0.059833 0.921187 0.270426
O O8 0.000000 0.000000 0.000000
O O9 0.099017 0.569670 0.225115
O O10 0.000000 0.500000 0.500000
O O11 0.903009 0.634260 0.273720
O O12 0.161913 0.187976 0.167921
O O13 0.145033 0.563624 0.486311
O O14 0.570382 0.618808 0.322663
O O15 0.634076 0.241361 0.466533
O O16 0.348167 0.962483 0.261336
O O17 0.338961 0.109494 0.535281
#
# Coordination Sequence:
#
# PCOD9100892 Si02
#       8
#     2   2   2   2   2   2   2   2
#     4  10  22  38  64  94 124 172 209 264 307 376
#     4  12  27  43  62  96 129 168 211 267 322 381
#     4  10  20  37  66  97 122 161 210 268 313 372
#     4  11  22  41  66  95 121 168 215 260 323 369
#     4  10  23  43  64  89 133 172 210 252 327 380
#     4  10  21  42  67  91 126 174 209 258 316 385
#     4  11  22  43  69  94 123 171 214 264 320 377
#     4  10  20  38  63  94 127 160 220 258 310 369
#
# _framework density 23.824048000000001
#
# number of rings (size 3 to 8) (size 9 to 14) (size 15 to 20)
#    0.000    1.500    3.750    1.875    7.000    1.000 
#    6.750    1.250    0.000    0.000    0.000    0.000 
#    0.000    0.000    0.000    0.000    0.000    0.000 
#
# Total GULP energy -89391.747651 kJ/mol
# GULP energy per Si atom -5586.984228 kJ/mol
# Density = 2.376982 g / cm^3
# Si number density = 23.824048 Si / 1000 Ang^3
#
#
#
# Elastic Constant Matrix: (Units=GPa)
#
#
# Indices 1 2 3 4 5 6 
#
# 1 61.9997 -3.0788 10.7156 -0.6968 -14.1781 13.9483
# 2 -3.0788 67.5567 25.9364 19.9770 8.4932 -3.3423
# 3 10.7156 25.9364 100.0796 27.1666 -6.1701 0.4216
# 4 -0.6968 19.9770 27.1666 30.7903 -1.6682 2.0426
# 5 -14.1781 8.4932 -6.1701 -1.6682 24.4861 14.4524
# 6 13.9483 -3.3423 0.4216 2.0426 14.4524 38.7576
#
#
#
# Elastic Compliance Matrix: (Units=1/GPa)
#
#
# Indices 1 2 3 4 5 6 
#
# 1 0.029404 -0.006229 -0.002061 0.009948 0.033599 -0.024150
# 2 -0.006229 0.023189 -0.002663 -0.014823 -0.020916 0.012851
# 3 -0.002061 -0.002663 0.013893 -0.010437 0.002541 -0.000037
# 4 0.009948 -0.014823 -0.010437 0.053690 0.021028 -0.015416
# 5 0.033599 -0.020916 0.002541 0.021028 0.100645 -0.052561
# 6 -0.024150 0.012851 -0.000037 -0.015416 -0.052561 0.056013
#
#
# Mechanical properties :
#
#
# Convention : Reuss Voigt Hill
#
# Bulk Modulus (GPa) = 22.43151 32.97582 27.70367
# Shear Modulus (GPa) = 15.94380 31.87765 23.91073
#
# Velocity S-wave (km/s) = 2.58976 3.66190 3.17146
# Velocity P-wave (km/s) = 4.28700 5.63478 5.00645
#
# Compressibility (1/GPa) = 0.04458015
#
# Stress axis : x y z
#
# Youngs Moduli (GPa) = 34.00860 43.12323 71.98044
#
# Poissons Ratio (x) = 0.26862 0.14837
# Poissons Ratio (y) = 0.21184 0.19167
# Poissons Ratio (z) = 0.07010 0.11483
#
# Static dielectric constant tensor:
#      x y z
#    x 1.951950 0.035660 0.029740 
#    y 0.035660 1.973660 -0.026630 
#    z 0.029740 -0.026630 1.906530 
# 
# From -- ./inp_files/328844.got.cif
#   From: 2010.05.17/outbox.cif.g08.bks.cpg/sg2_165_cif.got.tgz:328844.got - 2010.06.03 11:33:40.
