data_PCOD9100919
_publ_section_title
;
Structure prediction by ZEFSAII (Michael W. Deem and Ramdas Pophale) SiO2 
 PCOD9100919
Probable space group: P -1
;
_chemical_formula_sum "Si O2"
_cell_formula_units_Z 14
_cell_length_a 8.636936
_cell_length_b 14.748890
_cell_length_c 15.368835
_cell_angle_alpha 140.646599
_cell_angle_beta 147.741851
_cell_angle_gamma 55.243408
_cell_volume 641.952767
_symmetry_space_group_name_H-M "P -1"
_symmetry_group_IT_number 2
_symmetry_cell_setting 'triclinic'
loop_
_space_group_symop_operation_xyz
x,y,z
-x,-y,-z
loop_
_atom_site_type_symbol
_atom_site_label
_atom_site_fract_x
_atom_site_fract_y
_atom_site_fract_z
Si Si1 0.853075 0.078822 0.740600
Si Si2 0.863405 0.053016 0.059341
Si Si3 0.852171 0.038300 0.368521
Si Si4 0.115058 0.608146 0.932861
Si Si5 0.229696 0.657397 0.715197
Si Si6 0.107131 0.650668 0.466269
Si Si7 0.511852 0.434673 0.074353
O O1 0.013177 0.043192 0.703847
O O2 0.500000 0.000000 0.500000
O O3 0.905048 0.250614 0.918404
O O4 0.005749 0.012321 0.843625
O O5 0.937264 0.227157 0.238572
O O6 0.506679 0.011634 0.845788
O O7 0.000000 0.000000 0.000000
O O8 0.908035 0.212195 0.499210
O O9 0.000000 0.000000 0.500000
O O10 0.372466 0.656761 0.015542
O O11 0.847917 0.496219 0.670083
O O12 0.223527 0.489528 0.955635
O O13 0.312193 0.694914 0.681897
O O14 0.494750 0.645491 0.897268
O O15 0.000000 0.500000 0.500000
O O16 0.777714 0.585883 0.304539
#
# Coordination Sequence:
#
# PCOD9100919 Si02
#       7
#     2   2   2   2   2   2   2
#     4  12  25  44  71 105 142 181 231 285 353 413
#     4  12  27  45  71 104 141 182 240 285 352 416
#     4  12  27  48  68 100 145 187 229 295 349 410
#     4   9  19  35  63  97 133 178 225 275 330 415
#     4  10  20  37  67 101 132 181 223 286 342 416
#     4   9  19  39  63  94 133 180 223 275 344 408
#     4   8  17  33  66  94 139 168 233 266 345 392
#
# _framework density 21.808458999999999
#
# number of rings (size 3 to 8) (size 9 to 14) (size 15 to 20)
#    0.857    0.857    1.429    3.000    4.000    0.000 
#    0.000    2.857    0.000    0.000    0.000    0.000 
#    0.000    0.000    0.000    0.000    0.000    0.000 
#
# Total GULP energy -78039.148608 kJ/mol
# GULP energy per Si atom -5574.224901 kJ/mol
# Density = 2.175882 g / cm^3
# Si number density = 21.808459 Si / 1000 Ang^3
#
#
#
# Elastic Constant Matrix: (Units=GPa)
#
#
# Indices 1 2 3 4 5 6 
#
# 1 126.5361 79.9374 83.2661 -7.3873 -29.9261 -9.1304
# 2 79.9374 141.4689 83.3564 -8.2611 -28.6273 6.4834
# 3 83.2661 83.3564 114.5850 9.4512 -34.3452 -11.7350
# 4 -7.3873 -8.2611 9.4512 64.1669 -3.6175 -15.4797
# 5 -29.9261 -28.6273 -34.3452 -3.6175 44.4498 -4.7084
# 6 -9.1304 6.4834 -11.7350 -15.4797 -4.7084 40.1975
#
#
#
# Elastic Compliance Matrix: (Units=1/GPa)
#
#
# Indices 1 2 3 4 5 6 
#
# 1 0.017444 -0.004039 -0.008713 0.003899 0.003145 0.003940
# 2 -0.004039 0.014553 -0.008376 0.001370 -0.000260 -0.005213
# 3 -0.008713 -0.008376 0.024467 -0.003791 0.007970 0.005988
# 4 0.003899 0.001370 -0.003791 0.018633 0.002843 0.007066
# 5 0.003145 -0.000260 0.007970 0.002843 0.031673 0.007888
# 6 0.003940 -0.005213 0.005988 0.007066 0.007888 0.032006
#
#
# Mechanical properties :
#
#
# Convention : Reuss Voigt Hill
#
# Bulk Modulus (GPa) = 70.38850 97.30109 83.84479
# Shear Modulus (GPa) = 26.91523 38.83151 32.87337
#
# Velocity S-wave (km/s) = 3.51688 4.22426 3.88670
# Velocity P-wave (km/s) = 6.98835 8.27681 7.65972
#
# Compressibility (1/GPa) = 0.01420687
#
# Stress axis : x y z
#
# Youngs Moduli (GPa) = 57.32622 68.71513 40.87142
#
# Poissons Ratio (x) = 0.27756 0.35612
# Poissons Ratio (y) = 0.23155 0.34234
# Poissons Ratio (z) = 0.49949 0.57557
#
# Static dielectric constant tensor:
#      x y z
#    x 1.790890 0.014490 0.012340 
#    y 0.014490 1.820950 -0.080790 
#    z 0.012340 -0.080790 1.992430 
# 
# From -- ./inp_files/504558.got.cif
#   From: 2010.05.17/outbox.cif.g08.bks.cpg/sg2_253_cif.got.tgz:504558.got - 2010.06.03 11:33:40.
