data_PCOD9100219
_publ_section_title
;
Structure prediction by ZEFSAII (Michael W. Deem and Ramdas Pophale) SiO2 
 PCOD9100219
Probable space group: P -1
;
_chemical_formula_sum "Si O2"
_cell_formula_units_Z 16
_cell_length_a 5.693605
_cell_length_b 9.979766
_cell_length_c 15.398456
_cell_angle_alpha 111.883502
_cell_angle_beta 66.249089
_cell_angle_gamma 119.502849
_cell_volume 680.100941
_symmetry_space_group_name_H-M "P -1"
_symmetry_group_IT_number 2
_symmetry_cell_setting 'triclinic'
loop_
_space_group_symop_operation_xyz
x,y,z
-x,-y,-z
loop_
_atom_site_type_symbol
_atom_site_label
_atom_site_fract_x
_atom_site_fract_y
_atom_site_fract_z
Si Si1 0.800370 0.489122 0.170059
Si Si2 0.396454 0.896319 0.626319
Si Si3 0.988923 0.823701 0.817333
Si Si4 0.778518 0.743691 0.524509
Si Si5 0.551439 0.121444 0.099963
Si Si6 0.597082 0.492401 0.621113
Si Si7 0.619310 0.490684 0.885208
Si Si8 0.337599 0.797668 0.409275
O O1 0.723928 0.310970 0.101497
O O2 0.622357 0.464993 0.279787
O O3 0.659894 0.576731 0.149318
O O4 0.134459 0.573239 0.156082
O O5 0.142643 0.801662 0.703576
O O6 0.657280 0.860668 0.611853
O O7 0.393680 0.848930 0.514296
O O8 0.440279 0.078324 0.657038
O O9 0.251531 0.911585 0.864872
O O10 0.765876 0.894436 0.838516
O O11 0.798397 0.660014 0.853555
O O12 0.567292 0.621827 0.459859
O O13 0.184416 0.360650 0.427685
O O14 0.052527 0.820795 0.444946
O O15 0.500000 0.000000 0.000000
O O16 0.707655 0.383402 0.635198
O O17 0.500000 0.500000 0.000000
#
# Coordination Sequence:
#
# PCOD9100219 Si02
#       8
#     2   2   2   2   2   2   2   2
#     4  10  22  38  65  93 124 166 210 261 320 401
#     4  10  22  39  61  95 123 174 216 255 317 376
#     4  10  22  39  67  94 121 165 215 261 318 401
#     4  10  20  37  63  88 134 168 212 264 309 377
#     4  10  21  41  65  93 122 158 214 273 328 382
#     4  10  22  37  58  98 125 169 216 257 318 376
#     4  10  21  39  63  91 122 158 210 269 329 380
#     4  10  22  38  60  90 137 167 210 264 311 374
#
# _framework density 23.525919999999999
#
# number of rings (size 3 to 8) (size 9 to 14) (size 15 to 20)
#    0.000    2.000    0.000    3.000    7.000    0.000 
#    0.000    7.500    0.000    0.000    0.000    0.000 
#    0.000    0.000    0.000    0.000    0.000    0.000 
#
# Total GULP energy -89102.316252 kJ/mol
# GULP energy per Si atom -5568.894766 kJ/mol
# Density = 2.347237 g / cm^3
# Si number density = 23.525920 Si / 1000 Ang^3
#
#
#
# Elastic Constant Matrix: (Units=GPa)
#
#
# Indices 1 2 3 4 5 6 
#
# 1 149.1572 9.0165 20.7827 6.6574 -2.3158 -0.8455
# 2 9.0165 59.2286 42.1182 -4.8223 4.2539 -4.9592
# 3 20.7827 42.1182 75.8560 -18.8848 -13.9987 -9.4418
# 4 6.6574 -4.8223 -18.8848 33.2418 2.7206 -3.8404
# 5 -2.3158 4.2539 -13.9987 2.7206 40.0087 2.6425
# 6 -0.8455 -4.9592 -9.4418 -3.8404 2.6425 8.3709
#
#
#
# Elastic Compliance Matrix: (Units=1/GPa)
#
#
# Indices 1 2 3 4 5 6 
#
# 1 0.007463 0.001567 -0.004944 -0.004684 -0.000763 -0.005802
# 2 0.001567 0.033141 -0.024170 -0.009328 -0.010703 -0.008371
# 3 -0.004944 -0.024170 0.041143 0.024322 0.012462 0.038813
# 4 -0.004684 -0.009328 0.024322 0.048140 0.003148 0.042525
# 5 -0.000763 -0.010703 0.012462 0.003148 0.030266 -0.000471
# 6 -0.005802 -0.008371 0.038813 0.042525 -0.000471 0.177353
#
#
# Mechanical properties :
#
#
# Convention : Reuss Voigt Hill
#
# Bulk Modulus (GPa) = 37.51794 47.56407 42.54101
# Shear Modulus (GPa) = 12.45382 30.47924 21.46653
#
# Velocity S-wave (km/s) = 2.30329 3.60329 3.02398
# Velocity P-wave (km/s) = 4.80163 6.12970 5.50586
#
# Compressibility (1/GPa) = 0.02665391
#
# Stress axis : x y z
#
# Youngs Moduli (GPa) = 133.99888 30.17406 24.30535
#
# Poissons Ratio (x) = -0.04729 0.12016
# Poissons Ratio (y) = -0.20999 0.58746
# Poissons Ratio (z) = 0.66245 0.72931
#
# Static dielectric constant tensor:
#      x y z
#    x 2.146570 -0.017280 -0.001330 
#    y -0.017280 1.941510 0.001540 
#    z -0.001330 0.001540 1.880170 
# 
# From -- ./inp_files/482228.got.cif
#   From: 2010.05.17/outbox.cif.g08.bks.cpg/sg2_242_cif.got.tgz:482228.got - 2010.06.03 11:33:40.
