data_PCOD9100804
_publ_section_title
;
Structure prediction by ZEFSAII (Michael W. Deem and Ramdas Pophale) SiO2 
 PCOD9100804
Probable space group: P -1
;
_chemical_formula_sum "Si O2"
_cell_formula_units_Z 14
_cell_length_a 9.231941
_cell_length_b 8.034313
_cell_length_c 10.729473
_cell_angle_alpha 87.845355
_cell_angle_beta 127.663455
_cell_angle_gamma 118.234418
_cell_volume 517.698809
_symmetry_space_group_name_H-M "P -1"
_symmetry_group_IT_number 2
_symmetry_cell_setting 'triclinic'
loop_
_space_group_symop_operation_xyz
x,y,z
-x,-y,-z
loop_
_atom_site_type_symbol
_atom_site_label
_atom_site_fract_x
_atom_site_fract_y
_atom_site_fract_z
Si Si1 0.267461 0.330400 0.937804
Si Si2 0.817218 0.275024 0.962259
Si Si3 0.476915 0.376901 0.297984
Si Si4 0.637429 0.936454 0.153613
Si Si5 0.794965 0.262537 0.416413
Si Si6 0.182973 0.747526 0.302877
Si Si7 0.182092 0.358572 0.342899
O O1 0.235166 0.140407 0.852787
O O2 0.081289 0.368755 0.811016
O O3 0.500000 0.500000 0.000000
O O4 0.303820 0.343754 0.102987
O O5 0.578922 0.232699 0.873265
O O6 0.772464 0.152266 0.811776
O O7 0.000000 0.500000 0.000000
O O8 0.942477 0.250132 0.145209
O O9 0.583900 0.272966 0.289836
O O10 0.318345 0.294630 0.336998
O O11 0.697629 0.593350 0.457262
O O12 0.805574 0.124955 0.324188
O O13 0.500000 0.000000 0.000000
O O14 0.743457 0.149855 0.526406
O O15 0.000000 0.500000 0.500000
O O16 0.252453 0.590243 0.349511
#
# Coordination Sequence:
#
# PCOD9100804 Si02
#       7
#     2   2   2   2   2   2   2
#     4  12  23  41  70 110 144 191 238 297 363 436
#     4  10  21  42  72 104 141 187 234 298 357 419
#     4  10  20  37  66 103 138 190 241 283 359 432
#     4  12  28  45  73 110 148 192 246 293 365 443
#     4  11  25  47  71 104 149 193 237 305 364 430
#     4  10  22  40  72  96 142 186 241 296 364 413
#     4   9  19  37  67 104 134 183 238 293 346 429
#
# _framework density 27.042750999999999
#
# number of rings (size 3 to 8) (size 9 to 14) (size 15 to 20)
#    0.000    1.429    2.857    2.571    8.000    1.143 
#    0.000    2.857    3.143    0.000    0.000    0.000 
#    0.000    0.000    0.000    0.000    0.000    0.000 
#
# Total GULP energy -77967.315356 kJ/mol
# GULP energy per Si atom -5569.093954 kJ/mol
# Density = 2.698120 g / cm^3
# Si number density = 27.042751 Si / 1000 Ang^3
#
#
#
# Elastic Constant Matrix: (Units=GPa)
#
#
# Indices 1 2 3 4 5 6 
#
# 1 112.3639 20.6777 27.4520 -1.4923 -2.4006 -18.7538
# 2 20.6777 66.4016 12.8667 24.2450 -9.1912 -7.3965
# 3 27.4520 12.8667 149.5728 -1.5590 -18.5725 -9.7555
# 4 -1.4923 24.2450 -1.5590 38.4182 2.7887 2.7325
# 5 -2.4006 -9.1912 -18.5725 2.7887 84.8967 -0.7112
# 6 -18.7538 -7.3965 -9.7555 2.7325 -0.7112 31.3654
#
#
#
# Elastic Compliance Matrix: (Units=1/GPa)
#
#
# Indices 1 2 3 4 5 6 
#
# 1 0.010705 -0.003349 -0.001377 0.002147 -0.000390 0.004987
# 2 -0.003349 0.022584 -0.000862 -0.014927 0.002689 0.004417
# 3 -0.001377 -0.000862 0.007278 0.000594 0.001451 0.001218
# 4 0.002147 -0.014927 0.000594 0.036124 -0.002656 -0.005259
# 5 -0.000390 0.002689 0.001451 -0.002656 0.012475 0.001366
# 6 0.004987 0.004417 0.001218 -0.005259 0.001366 0.036773
#
#
# Mechanical properties :
#
#
# Convention : Reuss Voigt Hill
#
# Bulk Modulus (GPa) = 34.02407 50.03679 42.03043
# Shear Modulus (GPa) = 34.03369 48.75885 41.39627
#
# Velocity S-wave (km/s) = 3.55140 4.25082 3.91675
# Velocity P-wave (km/s) = 5.42453 6.52959 6.00255
#
# Compressibility (1/GPa) = 0.02939096
#
# Stress axis : x y z
#
# Youngs Moduli (GPa) = 93.41462 44.27884 137.39238
#
# Poissons Ratio (x) = 0.14830 0.18925
# Poissons Ratio (y) = 0.31286 0.11839
# Poissons Ratio (z) = 0.12867 0.03815
#
# Static dielectric constant tensor:
#      x y z
#    x 1.957900 -0.113460 0.091640 
#    y -0.113460 2.099250 0.319840 
#    z 0.091640 0.319840 2.111490 
# 
# From -- ./inp_files/390814.got.cif
#   From: 2010.05.17/outbox.cif.g08.bks.cpg/sg2_196_cif.got.tgz:390814.got - 2010.06.03 11:33:40.
