data_PCOD9100112
_publ_section_title
;
Structure prediction by ZEFSAII (Michael W. Deem and Ramdas Pophale) SiO2 
 PCOD9100112
Probable space group: P -1
;
_chemical_formula_sum "Si O2"
_cell_formula_units_Z 14
_cell_length_a 8.314750
_cell_length_b 8.341877
_cell_length_c 8.398531
_cell_angle_alpha 89.387235
_cell_angle_beta 92.595935
_cell_angle_gamma 61.025292
_cell_volume 508.736445
_symmetry_space_group_name_H-M "P -1"
_symmetry_group_IT_number 2
_symmetry_cell_setting 'triclinic'
loop_
_space_group_symop_operation_xyz
x,y,z
-x,-y,-z
loop_
_atom_site_type_symbol
_atom_site_label
_atom_site_fract_x
_atom_site_fract_y
_atom_site_fract_z
Si Si1 0.698526 0.513128 0.684752
Si Si2 0.098309 0.037906 0.155858
Si Si3 0.848809 0.949646 0.366898
Si Si4 0.702709 0.837524 0.057221
Si Si5 0.289280 0.539984 0.968842
Si Si6 0.670306 0.899962 0.627157
Si Si7 0.286196 0.644228 0.632618
O O1 0.790322 0.413158 0.855527
O O2 0.669689 0.718768 0.694135
O O3 0.503081 0.515412 0.669672
O O4 0.779261 0.432693 0.515799
O O5 0.303754 0.965504 0.250219
O O6 0.016960 0.961323 0.292920
O O7 0.139094 0.188882 0.061915
O O8 0.000000 0.000000 0.000000
O O9 0.732050 0.161422 0.410963
O O10 0.751109 0.898851 0.224180
O O11 0.850743 0.836252 0.522902
O O12 0.702882 0.648162 0.075760
O O13 0.500000 0.000000 0.000000
O O14 0.500000 0.500000 0.000000
O O15 0.199720 0.670285 0.808030
O O16 0.500000 0.000000 0.500000
#
# Coordination Sequence:
#
# PCOD9100112 Si02
#       7
#     2   2   2   2   2   2   2
#     4  10  20  38  62  98 132 172 229 285 336 392
#     4  10  24  42  62  98 143 172 216 287 353 409
#     4  11  23  40  62  97 134 179 221 280 350 410
#     4  11  20  39  68  96 128 171 233 284 331 409
#     4  10  20  37  62  94 135 171 217 295 345 393
#     4  12  21  40  72  97 128 174 237 287 329 401
#     4  10  21  39  58  94 141 172 223 278 346 409
#
# _framework density 27.519161
#
# number of rings (size 3 to 8) (size 9 to 14) (size 15 to 20)
#    0.000    1.429    2.857    3.857    0.000    0.000 
#    7.714    1.429    0.000    0.000    0.000    0.000 
#    0.000    0.000    0.000    0.000    0.000    0.000 
#
# Total GULP energy -77986.154437 kJ/mol
# GULP energy per Si atom -5570.439603 kJ/mol
# Density = 2.745653 g / cm^3
# Si number density = 27.519161 Si / 1000 Ang^3
#
#
#
# Elastic Constant Matrix: (Units=GPa)
#
#
# Indices 1 2 3 4 5 6 
#
# 1 103.5104 23.1908 43.5250 9.9316 10.0899 37.1285
# 2 23.1908 103.6556 21.7461 1.7232 16.4670 33.8503
# 3 43.5250 21.7461 177.4487 -10.0887 12.4628 8.6872
# 4 9.9316 1.7232 -10.0887 58.2676 23.6656 1.3392
# 5 10.0899 16.4670 12.4628 23.6656 67.0178 4.6007
# 6 37.1285 33.8503 8.6872 1.3392 4.6007 46.5844
#
#
#
# Elastic Compliance Matrix: (Units=1/GPa)
#
#
# Indices 1 2 3 4 5 6 
#
# 1 0.015748 0.001503 -0.003578 -0.002999 -0.000132 -0.012878
# 2 0.001503 0.013421 -0.001282 0.000476 -0.002736 -0.010455
# 3 -0.003578 -0.001282 0.006775 0.002333 -0.001408 0.002592
# 4 -0.002999 0.000476 0.002333 0.021145 -0.007687 0.001760
# 5 -0.000132 -0.002736 -0.001408 -0.007687 0.018539 0.000746
# 6 -0.012878 -0.010455 0.002592 0.001760 0.000746 0.038719
#
#
# Mechanical properties :
#
#
# Convention : Reuss Voigt Hill
#
# Bulk Modulus (GPa) = 34.21090 62.39317 48.30204
# Shear Modulus (GPa) = 38.22526 54.11747 46.17137
#
# Velocity S-wave (km/s) = 3.73103 4.43938 4.10053
# Velocity P-wave (km/s) = 5.56951 6.99995 6.32529
#
# Compressibility (1/GPa) = 0.02923045
#
# Stress axis : x y z
#
# Youngs Moduli (GPa) = 63.49966 74.51046 147.60642
#
# Poissons Ratio (x) = -0.11202 0.52810
# Poissons Ratio (y) = -0.09547 0.18929
# Poissons Ratio (z) = 0.22719 0.09555
#
# Static dielectric constant tensor:
#      x y z
#    x 2.192340 -0.052690 -0.014550 
#    y -0.052690 1.981830 -0.097840 
#    z -0.014550 -0.097840 2.179810 
# 
# From -- ./inp_files/158682.got.cif
#   From: 2010.05.17/outbox.cif.g08.bks.cpg/sg2_80_cif.got.tgz:158682.got - 2010.06.03 11:33:40.
