data_PCOD9100231
_publ_section_title
;
Structure prediction by ZEFSAII (Michael W. Deem and Ramdas Pophale) SiO2 
 PCOD9100231
Probable space group: P -1
;
_chemical_formula_sum "Si O2"
_cell_formula_units_Z 14
_cell_length_a 12.934022
_cell_length_b 10.746288
_cell_length_c 17.055812
_cell_angle_alpha 40.290792
_cell_angle_beta 152.806281
_cell_angle_gamma 147.818397
_cell_volume 576.530194
_symmetry_space_group_name_H-M "P -1"
_symmetry_group_IT_number 2
_symmetry_cell_setting 'triclinic'
loop_
_space_group_symop_operation_xyz
x,y,z
-x,-y,-z
loop_
_atom_site_type_symbol
_atom_site_label
_atom_site_fract_x
_atom_site_fract_y
_atom_site_fract_z
Si Si1 0.054950 0.798468 0.123615
Si Si2 0.298489 0.662842 0.230423
Si Si3 0.468002 0.825448 0.649711
Si Si4 0.866352 0.842374 0.607492
Si Si5 0.474354 0.419531 0.906450
Si Si6 0.105605 0.978518 0.286746
Si Si7 0.469464 0.196776 0.847417
O O1 0.130016 0.757947 0.107653
O O2 0.335021 0.914272 0.305564
O O3 0.781364 0.553726 0.083804
O O4 0.000000 0.000000 0.000000
O O5 0.605604 0.806170 0.405303
O O6 0.159386 0.400786 0.294955
O O7 0.328298 0.678883 0.149117
O O8 0.416714 0.619975 0.768993
O O9 0.197062 0.802461 0.451163
O O10 0.661332 0.842017 0.702118
O O11 0.872005 0.898144 0.676497
O O12 0.159098 0.058443 0.671326
O O13 0.493611 0.351941 0.862376
O O14 0.210597 0.183739 0.876576
O O15 0.500000 0.000000 0.000000
#
# Coordination Sequence:
#
# PCOD9100231 Si02
#       7
#     2   2   2   2   2   2   2
#     4  10  22  39  61  88 126 167 205 252 315 374
#     4  11  22  42  65  91 130 167 208 266 317 375
#     4  10  20  38  60  88 122 162 205 250 309 374
#     4  10  22  40  67  96 124 165 211 263 321 378
#     4  10  22  38  58  87 122 157 207 257 309 364
#     4  10  20  37  63  89 120 159 206 255 307 373
#     4  11  24  40  63  95 126 164 216 262 319 378
#
# _framework density 24.283201999999999
#
# number of rings (size 3 to 8) (size 9 to 14) (size 15 to 20)
#    0.000    1.714    1.429    2.571    0.000    7.429 
#    0.000    4.286    0.000    0.000    0.000    0.000 
#    0.000    0.000    0.000    0.000    0.000    0.000 
#
# Total GULP energy -78245.644750 kJ/mol
# GULP energy per Si atom -5588.974625 kJ/mol
# Density = 2.422793 g / cm^3
# Si number density = 24.283202 Si / 1000 Ang^3
#
#
#
# Elastic Constant Matrix: (Units=GPa)
#
#
# Indices 1 2 3 4 5 6 
#
# 1 91.3635 16.0347 9.6268 4.7610 16.9916 -19.7392
# 2 16.0347 89.0226 44.3142 20.3265 16.2743 -4.7789
# 3 9.6268 44.3142 69.9727 14.4642 19.3355 3.2905
# 4 4.7610 20.3265 14.4642 48.5757 0.2886 4.1495
# 5 16.9916 16.2743 19.3355 0.2886 30.9774 -1.4019
# 6 -19.7392 -4.7789 3.2905 4.1495 -1.4019 27.5349
#
#
#
# Elastic Compliance Matrix: (Units=1/GPa)
#
#
# Indices 1 2 3 4 5 6 
#
# 1 0.014760 -0.000320 0.000237 -0.002231 -0.007582 0.010447
# 2 -0.000320 0.018099 -0.009782 -0.005012 -0.002968 0.004685
# 3 0.000237 -0.009782 0.024020 -0.002636 -0.010164 -0.004518
# 4 -0.002231 -0.005012 -0.002636 0.024130 0.005026 -0.005534
# 5 -0.007582 -0.002968 -0.010164 0.005026 0.044150 -0.003246
# 6 0.010447 0.004685 -0.004518 -0.005534 -0.003246 0.045829
#
#
# Mechanical properties :
#
#
# Convention : Reuss Voigt Hill
#
# Bulk Modulus (GPa) = 26.91952 43.36782 35.14367
# Shear Modulus (GPa) = 24.61841 33.44314 29.03077
#
# Velocity S-wave (km/s) = 3.18748 3.71511 3.46136
# Velocity P-wave (km/s) = 4.96553 6.02500 5.52074
#
# Compressibility (1/GPa) = 0.03714776
#
# Stress axis : x y z
#
# Youngs Moduli (GPa) = 67.75039 55.25289 41.63280
#
# Poissons Ratio (x) = 0.01770 -0.00988
# Poissons Ratio (y) = 0.02171 0.40725
# Poissons Ratio (z) = -0.01607 0.54049
#
# Static dielectric constant tensor:
#      x y z
#    x 1.943380 -0.016170 -0.009920 
#    y -0.016170 1.910960 0.044870 
#    z -0.009920 0.044870 1.979630 
# 
# From -- ./inp_files/419705.got.cif
#   From: 2010.05.17/outbox.cif.g08.bks.cpg/sg2_210_cif.got.tgz:419705.got - 2010.06.03 11:33:40.
