data_PCOD9100488
_publ_section_title
;
Structure prediction by ZEFSAII (Michael W. Deem and Ramdas Pophale) SiO2 
 PCOD9100488
Probable space group: P -1
;
_chemical_formula_sum "Si O2"
_cell_formula_units_Z 16
_cell_length_a 20.871000
_cell_length_b 7.768274
_cell_length_c 17.064640
_cell_angle_alpha 130.727955
_cell_angle_beta 26.430960
_cell_angle_gamma 145.559359
_cell_volume 654.546539
_symmetry_space_group_name_H-M "P -1"
_symmetry_group_IT_number 2
_symmetry_cell_setting 'triclinic'
loop_
_space_group_symop_operation_xyz
x,y,z
-x,-y,-z
loop_
_atom_site_type_symbol
_atom_site_label
_atom_site_fract_x
_atom_site_fract_y
_atom_site_fract_z
Si Si1 0.909574 0.648575 0.829249
Si Si2 0.090310 0.448435 0.474767
Si Si3 0.476558 0.717367 0.410851
Si Si4 0.817833 0.643299 0.247016
Si Si5 0.148092 0.236286 0.495660
Si Si6 0.623012 0.325971 0.914186
Si Si7 0.780459 0.118801 0.066270
Si Si8 0.280142 0.995273 0.074124
O O1 0.755723 0.589418 0.916396
O O2 0.791046 0.342528 0.925327
O O3 0.042798 0.631495 0.622542
O O4 0.056763 0.996375 0.811735
O O5 0.199505 0.419550 0.413109
O O6 0.221905 0.605125 0.299046
O O7 0.885127 0.069695 0.569247
O O8 0.380499 0.494702 0.527604
O O9 0.305357 0.481006 0.462368
O O10 0.500000 0.000000 0.500000
O O11 0.682187 0.908983 0.192226
O O12 0.767646 0.380158 0.166037
O O13 0.983369 0.699425 0.139434
O O14 0.920646 0.074568 0.716786
O O15 0.500000 0.000000 0.000000
O O16 0.454790 0.254494 0.022280
O O17 0.670307 0.940760 0.052608
#
# Coordination Sequence:
#
# PCOD9100488 Si02
#       8
#     2   2   2   2   2   2   2   2
#     4  10  22  41  60  85 127 163 196 252 304 362
#     4  10  21  38  61  84 120 166 196 249 303 354
#     4  10  20  37  64  91 119 155 202 251 299 359
#     4  10  21  41  62  92 122 157 202 252 304 360
#     4  10  20  38  61  88 119 157 205 249 301 351
#     4  10  21  37  55  87 124 158 202 240 302 365
#     4  10  21  39  67  89 120 158 202 255 303 353
#     4  10  21  39  61  86 127 160 199 255 296 361
#
# _framework density 24.444405
#
# number of rings (size 3 to 8) (size 9 to 14) (size 15 to 20)
#    0.000    2.000    1.250    1.875    0.000    1.000 
#   15.750    0.000    0.000    6.750    0.000    0.000 
#    0.000    0.000    0.000    0.000    0.000    0.000 
#
# Total GULP energy -89357.745732 kJ/mol
# GULP energy per Si atom -5584.859108 kJ/mol
# Density = 2.438877 g / cm^3
# Si number density = 24.444405 Si / 1000 Ang^3
#
#
#
# Elastic Constant Matrix: (Units=GPa)
#
#
# Indices 1 2 3 4 5 6 
#
# 1 34.8361 11.4537 13.4268 7.1810 11.0289 -13.4541
# 2 11.4537 104.7958 12.8360 4.0041 -6.9781 -5.3944
# 3 13.4268 12.8360 99.7053 0.3250 17.9096 -6.6178
# 4 7.1810 4.0041 0.3250 24.8047 4.1797 4.8217
# 5 11.0289 -6.9781 17.9096 4.1797 33.9080 -7.3316
# 6 -13.4541 -5.3944 -6.6178 4.8217 -7.3316 40.3840
#
#
#
# Elastic Compliance Matrix: (Units=1/GPa)
#
#
# Indices 1 2 3 4 5 6 
#
# 1 0.041016 -0.003593 -0.002668 -0.012309 -0.008410 0.012691
# 2 -0.003593 0.010554 -0.001633 -0.001609 0.004612 0.000975
# 3 -0.002668 -0.001633 0.011630 0.001991 -0.005970 -0.000523
# 4 -0.012309 -0.001609 0.001991 0.047097 -0.005478 -0.010607
# 5 -0.008410 0.004612 -0.005970 -0.005478 0.037952 0.004380
# 6 0.012691 0.000975 -0.000523 -0.010607 0.004380 0.031096
#
#
# Mechanical properties :
#
#
# Convention : Reuss Voigt Hill
#
# Bulk Modulus (GPa) = 21.09137 34.97447 28.03292
# Shear Modulus (GPa) = 23.70368 33.26073 28.48220
#
# Velocity S-wave (km/s) = 3.11737 3.69273 3.41718
# Velocity P-wave (km/s) = 4.64805 5.70267 5.20216
#
# Compressibility (1/GPa) = 0.04741276
#
# Stress axis : x y z
#
# Youngs Moduli (GPa) = 24.38046 94.75217 85.98265
#
# Poissons Ratio (x) = 0.34040 0.22939
# Poissons Ratio (y) = 0.08759 0.14045
# Poissons Ratio (z) = 0.06504 0.15477
#
# Static dielectric constant tensor:
#      x y z
#    x 1.932300 -0.037160 -0.020140 
#    y -0.037160 1.967360 -0.011430 
#    z -0.020140 -0.011430 1.997780 
# 
# From -- ./inp_files/579055.got.cif
#   From: 2010.05.17/outbox.cif.g08.bks.cpg/sg2_290_cif.got.tgz:579055.got - 2010.06.03 11:33:40.
