data_PCOD9100807
_publ_section_title
;
Structure prediction by ZEFSAII (Michael W. Deem and Ramdas Pophale) SiO2 
 PCOD9100807
Probable space group: P -1
;
_chemical_formula_sum "Si O2"
_cell_formula_units_Z 14
_cell_length_a 7.949714
_cell_length_b 12.069422
_cell_length_c 7.950190
_cell_angle_alpha 83.447636
_cell_angle_beta 117.086734
_cell_angle_gamma 121.558561
_cell_volume 570.893257
_symmetry_space_group_name_H-M "P -1"
_symmetry_group_IT_number 2
_symmetry_cell_setting 'triclinic'
loop_
_space_group_symop_operation_xyz
x,y,z
-x,-y,-z
loop_
_atom_site_type_symbol
_atom_site_label
_atom_site_fract_x
_atom_site_fract_y
_atom_site_fract_z
Si Si1 0.392238 0.311638 0.873795
Si Si2 0.594539 0.232821 0.566243
Si Si3 0.085802 0.815576 0.366572
Si Si4 0.610626 0.939332 0.171015
Si Si5 0.110910 0.279075 0.040031
Si Si6 0.688246 0.491043 0.688305
Si Si7 0.095035 0.081047 0.291205
O O1 0.394078 0.179005 0.910743
O O2 0.594672 0.416613 0.838007
O O3 0.167620 0.271486 0.669182
O O4 0.345704 0.343280 0.033237
O O5 0.702286 0.188125 0.477436
O O6 0.522375 0.131024 0.708601
O O7 0.733438 0.390882 0.628097
O O8 0.343927 0.201121 0.421891
O O9 0.120623 0.956135 0.320524
O O10 0.051250 0.741066 0.182803
O O11 0.876020 0.041439 0.311004
O O12 0.500000 0.000000 0.000000
O O13 0.119745 0.364095 0.186864
O O14 0.041282 0.133999 0.091150
O O15 0.500000 0.500000 0.500000
#
# Coordination Sequence:
#
# PCOD9100807 Si02
#       7
#     2   2   2   2   2   2   2
#     4   8  21  38  62  84 117 160 195 242 288 353
#     4  11  22  37  60  88 122 155 194 252 295 339
#     4   9  21  37  60  86 119 154 203 234 295 357
#     4  10  21  36  60  91 122 150 196 243 297 356
#     4  10  20  37  66  79 119 161 200 233 292 353
#     4  11  21  40  61  85 118 158 202 243 299 337
#     4  11  20  37  60  88 121 157 190 244 302 348
#
# _framework density 24.522971999999999
#
# number of rings (size 3 to 8) (size 9 to 14) (size 15 to 20)
#    0.857    1.143    1.429    2.571    2.000    0.571 
#    0.000    0.714    0.000    0.000    0.000    0.000 
#    0.000    0.000    0.000    0.000    0.000    0.000 
#
# Total GULP energy -77955.023645 kJ/mol
# GULP energy per Si atom -5568.215975 kJ/mol
# Density = 2.446716 g / cm^3
# Si number density = 24.522972 Si / 1000 Ang^3
#
#
#
# Elastic Constant Matrix: (Units=GPa)
#
#
# Indices 1 2 3 4 5 6 
#
# 1 92.9272 12.9568 -9.3214 -12.5196 24.6618 -15.0167
# 2 12.9568 79.4073 -0.6527 -2.7621 6.9254 -24.0986
# 3 -9.3214 -0.6527 46.9751 -14.9441 3.7796 -8.9056
# 4 -12.5196 -2.7621 -14.9441 33.8791 -6.5280 9.7771
# 5 24.6618 6.9254 3.7796 -6.5280 19.6293 -5.8263
# 6 -15.0167 -24.0986 -8.9056 9.7771 -5.8263 24.3056
#
#
#
# Elastic Compliance Matrix: (Units=1/GPa)
#
#
# Indices 1 2 3 4 5 6 
#
# 1 0.019634 0.002197 0.009027 0.003990 -0.022719 0.010566
# 2 0.002197 0.019308 0.004329 -0.003028 -0.004840 0.022144
# 3 0.009027 0.004329 0.030108 0.010847 -0.010927 0.013918
# 4 0.003990 -0.003028 0.010847 0.039588 0.003688 -0.011603
# 5 -0.022719 -0.004840 -0.010927 0.003688 0.083228 -0.004372
# 6 0.010566 0.022144 0.013918 -0.011603 -0.004372 0.078346
#
#
# Mechanical properties :
#
#
# Convention : Reuss Voigt Hill
#
# Bulk Modulus (GPa) = 9.98444 25.03053 17.50749
# Shear Modulus (GPa) = 18.34923 29.98460 24.16692
#
# Velocity S-wave (km/s) = 2.73838 3.50053 3.14264
# Velocity P-wave (km/s) = 3.75214 5.15436 4.50810
#
# Compressibility (1/GPa) = 0.10015581
#
# Stress axis : x y z
#
# Youngs Moduli (GPa) = 50.93089 51.79305 33.21385
#
# Poissons Ratio (x) = -0.11380 -0.29982
# Poissons Ratio (y) = -0.11191 -0.14377
# Poissons Ratio (z) = -0.45975 -0.22420
#
# Static dielectric constant tensor:
#      x y z
#    x 2.068330 -0.008790 0.003910 
#    y -0.008790 2.006260 0.113760 
#    z 0.003910 0.113760 2.052170 
# 
# From -- ./inp_files/186140.got.cif
#   From: 2010.05.17/outbox.cif.g08.bks.cpg/sg2_94_cif.got.tgz:186140.got - 2010.06.03 11:33:40.
