data_PCOD9100938
_publ_section_title
;
Structure prediction by ZEFSAII (Michael W. Deem and Ramdas Pophale) SiO2 
 PCOD9100938
Probable space group: P -1
;
_chemical_formula_sum "Si O2"
_cell_formula_units_Z 16
_cell_length_a 14.911934
_cell_length_b 19.818147
_cell_length_c 8.815210
_cell_angle_alpha 92.736608
_cell_angle_beta 77.402805
_cell_angle_gamma 160.377587
_cell_volume 748.476968
_symmetry_space_group_name_H-M "P -1"
_symmetry_group_IT_number 2
_symmetry_cell_setting 'triclinic'
loop_
_space_group_symop_operation_xyz
x,y,z
-x,-y,-z
loop_
_atom_site_type_symbol
_atom_site_label
_atom_site_fract_x
_atom_site_fract_y
_atom_site_fract_z
Si Si1 0.802271 0.182276 0.486631
Si Si2 0.144781 0.930857 0.974033
Si Si3 0.581971 0.763537 0.515779
Si Si4 0.791145 0.649425 0.780329
Si Si5 0.030591 0.755668 0.268804
Si Si6 0.261142 0.626966 0.398128
Si Si7 0.116497 0.205869 0.521020
Si Si8 0.219568 0.205771 0.770027
O O1 0.757153 0.137178 0.679257
O O2 0.929889 0.204632 0.360118
O O3 0.080195 0.431742 0.398667
O O4 0.500000 0.000000 0.500000
O O5 0.875409 0.730218 0.926201
O O6 0.476208 0.168457 0.796209
O O7 0.138332 0.861266 0.080120
O O8 0.064601 0.946779 0.085703
O O9 0.437974 0.731526 0.499818
O O10 0.766774 0.859024 0.314979
O O11 0.290707 0.512916 0.649229
O O12 0.825359 0.950850 0.577429
O O13 0.473908 0.387324 0.828728
O O14 0.767662 0.697372 0.680789
O O15 0.986576 0.794574 0.379411
O O16 0.000000 0.500000 0.500000
O O17 0.320565 0.317247 0.591175
#
# Coordination Sequence:
#
# PCOD9100938 Si02
#       8
#     2   2   2   2   2   2   2   2
#     4  10  21  42  71  92 122 177 221 265 320 396
#     4  11  24  41  65 100 133 172 209 275 333 376
#     4  11  21  42  66  98 125 183 217 259 327 401
#     4  11  20  40  62  95 135 175 215 260 333 386
#     4   9  22  42  65  95 138 160 226 266 321 387
#     4  11  23  43  68  91 127 169 225 270 325 391
#     4  10  20  37  67  89 132 182 219 251 323 396
#     4  11  22  40  61  97 142 168 215 271 319 395
#
# _framework density 21.376743999999999
#
# number of rings (size 3 to 8) (size 9 to 14) (size 15 to 20)
#    0.000    1.500    5.000    1.875    3.500    0.500 
#    4.500    6.250    0.000    0.000    0.000    0.000 
#    0.000    0.000    0.000    0.000    0.000    0.000 
#
# Total GULP energy -89203.333436 kJ/mol
# GULP energy per Si atom -5575.208340 kJ/mol
# Density = 2.132809 g / cm^3
# Si number density = 21.376744 Si / 1000 Ang^3
#
#
#
# Elastic Constant Matrix: (Units=GPa)
#
#
# Indices 1 2 3 4 5 6 
#
# 1 95.0380 24.8763 41.9685 -4.7642 4.1447 14.6590
# 2 24.8763 100.6360 34.9589 8.4802 8.9802 -0.1997
# 3 41.9685 34.9589 95.2956 -4.7490 19.9372 15.0307
# 4 -4.7642 8.4802 -4.7490 31.9500 4.4643 -0.1035
# 5 4.1447 8.9802 19.9372 4.4643 40.4112 -0.2862
# 6 14.6590 -0.1997 15.0307 -0.1035 -0.2862 35.3721
#
#
#
# Elastic Compliance Matrix: (Units=1/GPa)
#
#
# Indices 1 2 3 4 5 6 
#
# 1 0.013815 -0.001942 -0.004987 0.001645 0.001268 -0.003602
# 2 -0.001942 0.012258 -0.004289 -0.004182 0.000072 0.002684
# 3 -0.004987 -0.004289 0.016793 0.003892 -0.007287 -0.005141
# 4 0.001645 -0.004182 0.003892 0.033913 -0.004922 -0.002300
# 5 0.001268 0.000072 -0.007287 -0.004922 0.028758 0.002790
# 6 -0.003602 0.002684 -0.005141 -0.002300 0.002790 0.031979
#
#
# Mechanical properties :
#
#
# Convention : Reuss Voigt Hill
#
# Bulk Modulus (GPa) = 48.94478 54.95301 51.94889
# Shear Modulus (GPa) = 29.98309 34.15774 32.07041
#
# Velocity S-wave (km/s) = 3.74920 4.00170 3.87751
# Velocity P-wave (km/s) = 6.45662 6.86398 6.66341
#
# Compressibility (1/GPa) = 0.02043119
#
# Stress axis : x y z
#
# Youngs Moduli (GPa) = 72.38290 81.58102 59.55038
#
# Poissons Ratio (x) = 0.15839 0.29699
# Poissons Ratio (y) = 0.14053 0.25538
# Poissons Ratio (z) = 0.36099 0.34986
#
# Static dielectric constant tensor:
#      x y z
#    x 1.853130 -0.031990 0.039020 
#    y -0.031990 1.840890 -0.001470 
#    z 0.039020 -0.001470 1.811770 
# 
# From -- ./inp_files/318990.got.cif
#   From: 2010.05.17/outbox.cif.g08.bks.cpg/sg2_160_cif.got.tgz:318990.got - 2010.06.03 11:33:40.
