data_PCOD9100594
_publ_section_title
;
Structure prediction by ZEFSAII (Michael W. Deem and Ramdas Pophale) SiO2 
 PCOD9100594
Probable space group: P -1
;
_chemical_formula_sum "Si O2"
_cell_formula_units_Z 12
_cell_length_a 8.377194
_cell_length_b 9.542378
_cell_length_c 8.003771
_cell_angle_alpha 66.790707
_cell_angle_beta 62.923091
_cell_angle_gamma 69.767947
_cell_volume 512.635782
_symmetry_space_group_name_H-M "P -1"
_symmetry_group_IT_number 2
_symmetry_cell_setting 'triclinic'
loop_
_space_group_symop_operation_xyz
x,y,z
-x,-y,-z
loop_
_atom_site_type_symbol
_atom_site_label
_atom_site_fract_x
_atom_site_fract_y
_atom_site_fract_z
Si Si1 0.040921 0.876352 0.187474
Si Si2 0.302759 0.045032 0.482564
Si Si3 0.365042 0.708009 0.636479
Si Si4 0.614922 0.334237 0.972652
Si Si5 0.706014 0.909460 0.902654
Si Si6 0.359218 0.363062 0.760571
O O1 0.170765 0.714163 0.149925
O O2 0.164026 0.968267 0.197463
O O3 0.853307 0.862804 0.368640
O O4 0.000000 0.000000 0.000000
O O5 0.255478 0.874463 0.548418
O O6 0.500000 0.000000 0.500000
O O7 0.610547 0.258095 0.194599
O O8 0.286052 0.549311 0.728244
O O9 0.546919 0.669763 0.450432
O O10 0.516153 0.316297 0.851338
O O11 0.500000 0.500000 0.000000
O O12 0.300510 0.134288 0.267416
O O13 0.762442 0.761082 0.068980
O O14 0.500000 0.000000 0.000000
#
# Coordination Sequence:
#
# PCOD9100594 Si02
#       6
#     2   2   2   2   2   2
#     4  12  24  40  65 103 135 173 234 281 334 411
#     4  12  24  41  69 100 134 181 231 282 340 396
#     4  10  20  37  64  96 130 178 217 272 339 401
#     4  10  20  39  66  93 133 177 217 275 343 399
#     4  12  22  40  66 101 136 176 225 281 339 405
#     4  10  21  38  64  96 131 177 221 268 341 405
#
# _framework density 23.408434
#
# number of rings (size 3 to 8) (size 9 to 14) (size 15 to 20)
#    0.000    1.000    5.000    2.500    0.000    0.000 
#    0.000    0.833    0.000   16.000    0.000    0.000 
#    0.000    0.000    0.000    0.000    0.000    0.000 
#
# Total GULP energy -66851.581781 kJ/mol
# GULP energy per Si atom -5570.965148 kJ/mol
# Density = 2.335516 g / cm^3
# Si number density = 23.408434 Si / 1000 Ang^3
#
#
#
# Elastic Constant Matrix: (Units=GPa)
#
#
# Indices 1 2 3 4 5 6 
#
# 1 74.4376 5.9935 35.1615 25.1980 -2.8126 3.6149
# 2 5.9935 112.9176 33.1638 2.5849 -21.7921 -26.5525
# 3 35.1615 33.1638 137.3086 24.5330 11.8521 -4.1045
# 4 25.1980 2.5849 24.5330 53.0056 -6.9578 6.2523
# 5 -2.8126 -21.7921 11.8521 -6.9578 30.3236 4.4697
# 6 3.6149 -26.5525 -4.1045 6.2523 4.4697 33.0076
#
#
#
# Elastic Compliance Matrix: (Units=1/GPa)
#
#
# Indices 1 2 3 4 5 6 
#
# 1 0.017350 0.000439 -0.003663 -0.006165 0.002107 -0.001120
# 2 0.000439 0.014481 -0.004593 0.001602 0.011253 0.009202
# 3 -0.003663 -0.004593 0.010852 -0.004227 -0.008860 0.000057
# 4 -0.006165 0.001602 -0.004227 0.025356 0.008720 -0.004545
# 5 0.002107 0.011253 -0.008860 0.008720 0.046763 -0.000264
# 6 -0.001120 0.009202 0.000057 -0.004545 -0.000264 0.038725
#
#
# Mechanical properties :
#
#
# Convention : Reuss Voigt Hill
#
# Bulk Modulus (GPa) = 36.96832 52.58905 44.77869
# Shear Modulus (GPa) = 28.06237 39.95703 34.00970
#
# Velocity S-wave (km/s) = 3.46615 4.13601 3.81580
# Velocity P-wave (km/s) = 5.64322 6.73226 6.21165
#
# Compressibility (1/GPa) = 0.02705019
#
# Stress axis : x y z
#
# Youngs Moduli (GPa) = 57.63728 69.05826 92.15107
#
# Poissons Ratio (x) = -0.03034 0.33753
# Poissons Ratio (y) = -0.02532 0.42321
# Poissons Ratio (z) = 0.21111 0.31715
#
# Static dielectric constant tensor:
#      x y z
#    x 6.627520 -1.000070 2.430600 
#    y -1.000070 2.256700 -0.656070 
#    z 2.430600 -0.656070 3.182310 
# 
# From -- ./inp_files/198789.got.cif
#   From: 2010.05.17/outbox.cif.g08.bks.cpg/sg2_100_cif.got.tgz:198789.got - 2010.06.03 11:33:40.
