data_PCOD9100716
_publ_section_title
;
Structure prediction by ZEFSAII (Michael W. Deem and Ramdas Pophale) SiO2 
 PCOD9100716
Probable space group: P -1
;
_chemical_formula_sum "Si O2"
_cell_formula_units_Z 14
_cell_length_a 12.186655
_cell_length_b 13.711116
_cell_length_c 11.449394
_cell_angle_alpha 32.125213
_cell_angle_beta 103.839467
_cell_angle_gamma 128.675471
_cell_volume 568.284517
_symmetry_space_group_name_H-M "P -1"
_symmetry_group_IT_number 2
_symmetry_cell_setting 'triclinic'
loop_
_space_group_symop_operation_xyz
x,y,z
-x,-y,-z
loop_
_atom_site_type_symbol
_atom_site_label
_atom_site_fract_x
_atom_site_fract_y
_atom_site_fract_z
Si Si1 0.096910 0.435960 0.632500
Si Si2 0.252284 0.322005 0.369437
Si Si3 0.131907 0.814793 0.938791
Si Si4 0.576174 0.196406 0.482667
Si Si5 0.228628 0.804068 0.653418
Si Si6 0.785748 0.778323 0.799964
Si Si7 0.700098 0.336219 0.767266
O O1 0.314994 0.714366 0.462190
O O2 0.141010 0.386490 0.572635
O O3 0.000000 0.500000 0.500000
O O4 0.966859 0.223242 0.931245
O O5 0.297107 0.399255 0.166255
O O6 0.338681 0.570502 0.235400
O O7 0.015393 0.033149 0.608351
O O8 0.293476 0.169720 0.574935
O O9 0.202672 0.713543 0.101684
O O10 0.978039 0.571044 0.041464
O O11 0.645482 0.126409 0.485782
O O12 0.344046 0.908926 0.694896
O O13 0.667728 0.509846 0.139991
O O14 0.223722 0.013916 0.414482
O O15 0.500000 0.000000 0.000000
#
# Coordination Sequence:
#
# PCOD9100716 Si02
#       7
#     2   2   2   2   2   2   2
#     4   9  20  41  66  88 122 170 217 255 307 375
#     4  11  24  39  63  93 128 168 212 257 322 383
#     4  10  21  43  63  93 128 168 214 261 324 375
#     4  10  21  39  63 100 126 162 215 262 318 378
#     4  10  20  37  65  92 132 162 204 266 323 378
#     4  11  22  39  61  99 132 163 205 265 322 384
#     4  11  25  44  65  90 127 173 220 261 310 379
#
# _framework density 24.635545
#
# number of rings (size 3 to 8) (size 9 to 14) (size 15 to 20)
#    0.000    1.714    4.286    0.429    0.000    7.429 
#    0.000    0.000    0.000    0.000    0.000    0.000 
#    0.000    0.000    0.000    0.000    0.000    0.000 
#
# Total GULP energy -78214.855419 kJ/mol
# GULP energy per Si atom -5586.775387 kJ/mol
# Density = 2.457947 g / cm^3
# Si number density = 24.635545 Si / 1000 Ang^3
#
#
#
# Elastic Constant Matrix: (Units=GPa)
#
#
# Indices 1 2 3 4 5 6 
#
# 1 75.3615 21.4057 29.3437 0.5974 21.8387 -11.0843
# 2 21.4057 133.4929 39.2679 9.6950 13.3091 -1.9380
# 3 29.3437 39.2679 93.6335 -1.3668 10.0074 -8.4608
# 4 0.5974 9.6950 -1.3668 40.2161 -9.3148 0.9807
# 5 21.8387 13.3091 10.0074 -9.3148 42.0833 -4.3744
# 6 -11.0843 -1.9380 -8.4608 0.9807 -4.3744 46.9944
#
#
#
# Elastic Compliance Matrix: (Units=1/GPa)
#
#
# Indices 1 2 3 4 5 6 
#
# 1 0.017926 -0.000585 -0.004272 -0.002264 -0.008322 0.002708
# 2 -0.000585 0.009035 -0.003438 -0.002834 -0.002421 -0.000551
# 3 -0.004272 -0.003438 0.013542 0.001446 0.000540 0.001309
# 4 -0.002264 -0.002834 0.001446 0.027438 0.007776 -0.000239
# 5 -0.008322 -0.002421 0.000540 0.007776 0.030513 0.000713
# 6 0.002708 -0.000551 0.001309 -0.000239 0.000713 0.022202
#
#
# Mechanical properties :
#
#
# Convention : Reuss Voigt Hill
#
# Bulk Modulus (GPa) = 41.81534 53.61361 47.71447
# Shear Modulus (GPa) = 34.43081 40.02348 37.22715
#
# Velocity S-wave (km/s) = 3.74251 4.03503 3.89152
# Velocity P-wave (km/s) = 5.97375 6.59686 6.29302
#
# Compressibility (1/GPa) = 0.02391467
#
# Stress axis : x y z
#
# Youngs Moduli (GPa) = 55.78361 110.67616 73.84250
#
# Poissons Ratio (x) = 0.06469 0.31544
# Poissons Ratio (y) = 0.03261 0.25390
# Poissons Ratio (z) = 0.23829 0.38055
#
# Static dielectric constant tensor:
#      x y z
#    x 2.324820 -2.752690 -0.609130 
#    y -2.752690 25.708780 4.867010 
#    z -0.609130 4.867010 2.979920 
# 
# From -- ./inp_files/455408.got.cif
#   From: 2010.05.17/outbox.cif.g08.bks.cpg/sg2_228_cif.got.tgz:455408.got - 2010.06.03 11:33:40.
