data_PCOD9100036
_publ_section_title
;
Structure prediction by ZEFSAII (Michael W. Deem and Ramdas Pophale) SiO2 
 PCOD9100036
Probable space group: P -1
;
_chemical_formula_sum "Si O2"
_cell_formula_units_Z 15
_cell_length_a 11.053431
_cell_length_b 12.437076
_cell_length_c 10.753592
_cell_angle_alpha 101.557265
_cell_angle_beta 71.567717
_cell_angle_gamma 41.673108
_cell_volume 673.116582
_symmetry_space_group_name_H-M "P -1"
_symmetry_group_IT_number 2
_symmetry_cell_setting 'triclinic'
loop_
_space_group_symop_operation_xyz
x,y,z
-x,-y,-z
loop_
_atom_site_type_symbol
_atom_site_label
_atom_site_fract_x
_atom_site_fract_y
_atom_site_fract_z
Si Si1 0.650521 0.979269 0.025509
Si Si2 0.833008 0.419431 0.090039
Si Si3 0.475593 0.871678 0.375277
Si Si4 0.496697 0.518909 0.857918
Si Si5 0.929444 0.695719 0.263852
Si Si6 0.280456 0.432554 0.318556
Si Si7 0.000000 0.000000 0.500000
Si Si8 0.869303 0.887662 0.684005
O O1 0.775180 0.960326 0.871770
O O2 0.897455 0.754515 0.971423
O O3 0.500000 0.000000 0.000000
O O4 0.460660 0.191983 0.225958
O O5 0.596828 0.660531 0.287796
O O6 0.756744 0.349781 0.087331
O O7 0.868534 0.436618 0.942184
O O8 0.708480 0.777175 0.313305
O O9 0.229323 0.074699 0.593016
O O10 0.361984 0.982054 0.301508
O O11 0.545282 0.604105 0.811709
O O12 0.747480 0.262933 0.674759
O O13 0.500000 0.500000 0.000000
O O14 0.075802 0.548746 0.305914
O O15 0.110817 0.621298 0.523056
O O16 0.073557 0.035942 0.372490
#
# Coordination Sequence:
#
# PCOD9100036 Si02
#       8
#     2   2   2   2   2   2   1   2
#     4  12  26  42  60  91 136 171 201 250 318 387
#     4  12  23  36  62  94 122 167 208 255 316 374
#     4  10  20  37  62  92 120 157 218 265 307 360
#     4  11  21  38  65  91 123 158 215 269 308 365
#     4  10  20  37  62  91 121 158 213 270 305 359
#     4  10  22  40  61  88 120 170 210 255 313 360
#     4  10  20  40  68  92 118 160 212 264 316 360
#     4  10  21  40  65  91 119 166 207 256 312 368
#
# _framework density 22.284399000000001
#
# number of rings (size 3 to 8) (size 9 to 14) (size 15 to 20)
#    0.000    1.333    2.667    3.600    0.000    2.133 
#    0.000    2.667    0.000    0.000    0.000    0.000 
#    0.000    0.000    0.000    0.000    0.000    0.000 
#
# Total GULP energy -83553.133651 kJ/mol
# GULP energy per Si atom -5570.208910 kJ/mol
# Density = 2.223368 g / cm^3
# Si number density = 22.284399 Si / 1000 Ang^3
#
#
#
# Elastic Constant Matrix: (Units=GPa)
#
#
# Indices 1 2 3 4 5 6 
#
# 1 47.9989 -5.9780 8.4827 3.7464 2.8651 -3.9084
# 2 -5.9780 26.1392 11.7092 12.7784 11.7478 1.9610
# 3 8.4827 11.7092 61.3644 12.3981 9.9390 11.1889
# 4 3.7464 12.7784 12.3981 29.5757 14.5666 6.3422
# 5 2.8651 11.7478 9.9390 14.5666 22.5395 0.0064
# 6 -3.9084 1.9610 11.1889 6.3422 0.0064 23.1497
#
#
#
# Elastic Compliance Matrix: (Units=1/GPa)
#
#
# Indices 1 2 3 4 5 6 
#
# 1 0.024465 0.011695 -0.005244 -0.006059 -0.002979 0.007335
# 2 0.011695 0.060484 -0.007713 -0.015927 -0.019319 0.004948
# 3 -0.005244 -0.007713 0.021181 -0.000557 -0.004290 -0.010316
# 4 -0.006059 -0.015927 -0.000557 0.059352 -0.029036 -0.015657
# 5 -0.002979 -0.019319 -0.004290 -0.029036 0.075468 0.011141
# 6 0.007335 0.004948 -0.010316 -0.015657 0.011141 0.053289
#
#
# Mechanical properties :
#
#
# Convention : Reuss Voigt Hill
#
# Bulk Modulus (GPa) = 9.65197 18.21448 13.93322
# Shear Modulus (GPa) = 15.09209 23.13887 19.11548
#
# Velocity S-wave (km/s) = 2.60522 3.22583 2.93199
# Velocity P-wave (km/s) = 3.65927 4.69745 4.21048
#
# Compressibility (1/GPa) = 0.10360582
#
# Stress axis : x y z
#
# Youngs Moduli (GPa) = 40.87419 16.53331 47.21170
#
# Poissons Ratio (x) = -0.19336 0.24759
# Poissons Ratio (y) = -0.47803 0.36415
# Poissons Ratio (z) = 0.21436 0.12753
#
# Static dielectric constant tensor:
#      x y z
#    x 1.892860 0.014940 0.004950 
#    y 0.014940 1.808460 0.008700 
#    z 0.004950 0.008700 1.829720 
# 
# From -- ./inp_files/256021.got.cif
#   From: 2010.05.17/outbox.cif.g08.bks.cpg/sg2_129_cif.got.tgz:256021.got - 2010.06.03 11:33:40.
