data_PCOD9100916
_publ_section_title
;
Structure prediction by ZEFSAII (Michael W. Deem and Ramdas Pophale) SiO2 
 PCOD9100916
Probable space group: P -1
;
_chemical_formula_sum "Si O2"
_cell_formula_units_Z 16
_cell_length_a 19.730902
_cell_length_b 6.925102
_cell_length_c 5.142494
_cell_angle_alpha 103.898331
_cell_angle_beta 91.589090
_cell_angle_gamma 66.626235
_cell_volume 624.313937
_symmetry_space_group_name_H-M "P -1"
_symmetry_group_IT_number 2
_symmetry_cell_setting 'triclinic'
loop_
_space_group_symop_operation_xyz
x,y,z
-x,-y,-z
loop_
_atom_site_type_symbol
_atom_site_label
_atom_site_fract_x
_atom_site_fract_y
_atom_site_fract_z
Si Si1 0.342824 0.270954 0.492735
Si Si2 0.890890 0.226944 0.658744
Si Si3 0.173011 0.031183 0.176160
Si Si4 0.745857 0.754685 0.020720
Si Si5 0.538591 0.129684 0.891234
Si Si6 0.432972 0.535105 0.702259
Si Si7 0.038275 0.203468 0.825450
Si Si8 0.123435 0.426403 0.674489
O O1 0.307253 0.241605 0.748158
O O2 0.369458 0.468851 0.561192
O O3 0.411273 0.040676 0.368990
O O4 0.287235 0.305490 0.258844
O O5 0.880951 0.397239 0.481879
O O6 0.954418 0.232433 0.863114
O O7 0.823079 0.193944 0.781825
O O8 0.928052 0.997215 0.434784
O O9 0.169262 0.196328 0.459284
O O10 0.235707 0.037976 0.989847
O O11 0.094067 0.136279 0.051617
O O12 0.826645 0.585677 0.071902
O O13 0.471765 0.342904 0.850400
O O14 0.586656 0.230173 0.096450
O O15 0.500000 0.000000 0.000000
O O16 0.500000 0.500000 0.500000
O O17 0.048236 0.404595 0.748277
#
# Coordination Sequence:
#
# PCOD9100916 Si02
#       8
#     2   2   2   2   2   2   2   2
#     4  12  25  47  78 103 151 197 241 294 355 431
#     4  10  20  37  66  99 131 178 236 296 370 426
#     4  10  21  41  64  91 140 181 234 302 350 424
#     4  11  25  46  70  96 139 201 242 285 352 426
#     4  11  24  46  77 111 151 188 224 296 376 412
#     4  11  25  44  76 116 147 177 240 293 361 434
#     4   9  20  36  62 100 137 170 232 301 369 436
#     4  10  21  41  65  93 141 184 231 300 360 416
#
# _framework density 25.628132000000001
#
# number of rings (size 3 to 8) (size 9 to 14) (size 15 to 20)
#    0.000    1.500    2.500    1.875    3.500    2.500 
#    0.000    6.250    0.000    0.000    0.000    0.000 
#    0.000    0.000    0.000    0.000    0.000    0.000 
#
# Total GULP energy -89585.447316 kJ/mol
# GULP energy per Si atom -5599.090457 kJ/mol
# Density = 2.556980 g / cm^3
# Si number density = 25.628132 Si / 1000 Ang^3
#
#
#
# Elastic Constant Matrix: (Units=GPa)
#
#
# Indices 1 2 3 4 5 6 
#
# 1 152.6232 59.5471 54.7183 -14.5132 -0.2292 47.2949
# 2 59.5471 162.5002 44.4120 -12.5891 4.4663 63.2894
# 3 54.7183 44.4120 106.2786 -15.6299 12.4436 36.6620
# 4 -14.5132 -12.5891 -15.6299 53.9908 5.6606 -6.2836
# 5 -0.2292 4.4663 12.4436 5.6606 64.1421 -7.2153
# 6 47.2949 63.2894 36.6620 -6.2836 -7.2153 56.5626
#
#
#
# Elastic Compliance Matrix: (Units=1/GPa)
#
#
# Indices 1 2 3 4 5 6 
#
# 1 0.009515 -0.000507 -0.002573 0.001057 -0.000157 -0.005624
# 2 -0.000507 0.011344 0.000378 0.001397 -0.002413 -0.012667
# 3 -0.002573 0.000378 0.014079 0.003000 -0.003882 -0.007559
# 4 0.001057 0.001397 0.003000 0.019992 -0.002723 -0.002517
# 5 -0.000157 -0.002413 -0.003882 -0.002723 0.017571 0.007287
# 6 -0.005624 -0.012667 -0.007559 -0.002517 0.007287 0.042105
#
#
# Mechanical properties :
#
#
# Convention : Reuss Voigt Hill
#
# Bulk Modulus (GPa) = 33.85852 82.08410 57.97131
# Shear Modulus (GPa) = 38.50378 52.45408 45.47893
#
# Velocity S-wave (km/s) = 3.88029 4.52900 4.21714
# Velocity P-wave (km/s) = 5.77197 7.71022 6.81040
#
# Compressibility (1/GPa) = 0.02953467
#
# Stress axis : x y z
#
# Youngs Moduli (GPa) = 105.09219 88.14858 71.02568
#
# Poissons Ratio (x) = 0.04470 0.18278
# Poissons Ratio (y) = 0.05329 -0.02686
# Poissons Ratio (z) = 0.27045 -0.03334
#
# Static dielectric constant tensor:
#      x y z
#    x 2.050200 -0.053740 -0.005750 
#    y -0.053740 2.000340 0.045910 
#    z -0.005750 0.045910 2.088500 
# 
# From -- ./inp_files/114773.got.cif
#   From: 2010.05.17/outbox.cif.g08.bks.cpg/sg2_58_cif.got.tgz:114773.got - 2010.06.03 11:33:40.
