data_PCOD9100674
_publ_section_title
;
Structure prediction by ZEFSAII (Michael W. Deem and Ramdas Pophale) SiO2 
 PCOD9100674
Probable space group: P -1
;
_chemical_formula_sum "Si O2"
_cell_formula_units_Z 16
_cell_length_a 14.252512
_cell_length_b 14.740745
_cell_length_c 9.532463
_cell_angle_alpha 38.158239
_cell_angle_beta 120.312174
_cell_angle_gamma 137.787468
_cell_volume 816.663616
_symmetry_space_group_name_H-M "P -1"
_symmetry_group_IT_number 2
_symmetry_cell_setting 'triclinic'
loop_
_space_group_symop_operation_xyz
x,y,z
-x,-y,-z
loop_
_atom_site_type_symbol
_atom_site_label
_atom_site_fract_x
_atom_site_fract_y
_atom_site_fract_z
Si Si1 0.336138 0.905953 0.971304
Si Si2 0.608125 0.722116 0.778013
Si Si3 0.219235 0.111872 0.563790
Si Si4 0.226829 0.664803 0.896339
Si Si5 0.158825 0.700029 0.364963
Si Si6 0.851201 0.113088 0.620821
Si Si7 0.402427 0.781487 0.639482
Si Si8 0.945012 0.760968 0.611211
O O1 0.290777 0.795012 0.924374
O O2 0.310237 0.059012 0.762626
O O3 0.227135 0.762705 0.186399
O O4 0.500000 0.000000 0.000000
O O5 0.687555 0.751336 0.661150
O O6 0.505749 0.772917 0.636055
O O7 0.732296 0.886465 0.776164
O O8 0.500000 0.500000 0.000000
O O9 0.167828 0.205653 0.500018
O O10 0.077999 0.916969 0.623440
O O11 0.181173 0.764190 0.643050
O O12 0.335902 0.669696 0.872595
O O13 0.112372 0.446266 0.127654
O O14 0.150524 0.846118 0.267300
O O15 0.271007 0.705591 0.533937
O O16 0.000000 0.500000 0.500000
O O17 0.996899 0.192354 0.560579
O O18 0.500000 0.000000 0.500000
#
# Coordination Sequence:
#
# PCOD9100674 Si02
#       8
#     2   2   2   2   2   2   2   2
#     4  12  24  40  64  90 131 169 205 262 321 376
#     4  11  20  37  64  93 119 161 216 263 310 363
#     4  10  22  39  58  95 125 156 206 265 310 378
#     4  11  20  36  67  90 114 162 212 259 307 371
#     4  11  24  38  63  97 131 164 211 263 324 378
#     4  10  21  39  63  91 126 157 219 266 303 383
#     4  11  20  39  63  89 126 162 216 262 304 376
#     4  10  20  37  65  90 121 155 208 263 316 360
#
# _framework density 19.591909000000001
#
# number of rings (size 3 to 8) (size 9 to 14) (size 15 to 20)
#    0.000    1.250    5.000    3.375    3.500    0.000 
#    0.000    1.250    2.750    0.000    0.000    0.000 
#    0.000    0.000    0.000    0.000    0.000    0.000 
#
# Total GULP energy -89160.701828 kJ/mol
# GULP energy per Si atom -5572.543864 kJ/mol
# Density = 1.954732 g / cm^3
# Si number density = 19.591909 Si / 1000 Ang^3
#
#
#
# Elastic Constant Matrix: (Units=GPa)
#
#
# Indices 1 2 3 4 5 6 
#
# 1 119.2540 15.1255 3.2114 0.3308 2.1128 5.1265
# 2 15.1255 47.5722 26.7672 -12.4692 1.5601 11.2991
# 3 3.2114 26.7672 52.1905 -23.3880 -1.6558 5.5156
# 4 0.3308 -12.4692 -23.3880 35.3831 -0.0028 -9.8228
# 5 2.1128 1.5601 -1.6558 -0.0028 34.5374 0.3835
# 6 5.1265 11.2991 5.5156 -9.8228 0.3835 28.6873
#
#
#
# Elastic Compliance Matrix: (Units=1/GPa)
#
#
# Indices 1 2 3 4 5 6 
#
# 1 0.008825 -0.003319 0.000815 -0.000918 -0.000343 -0.000736
# 2 -0.003319 0.033498 -0.016943 -0.002155 -0.002011 -0.010054
# 3 0.000815 -0.016943 0.035968 0.019537 0.002372 0.006270
# 4 -0.000918 -0.002155 0.019537 0.043826 0.000958 0.012250
# 5 -0.000343 -0.002011 0.002372 0.000958 0.029176 0.000335
# 6 -0.000736 -0.010054 0.006270 0.012250 0.000335 0.041935
#
#
# Mechanical properties :
#
#
# Convention : Reuss Voigt Hill
#
# Bulk Modulus (GPa) = 25.38283 34.35832 29.87058
# Shear Modulus (GPa) = 20.38702 31.31572 25.85137
#
# Velocity S-wave (km/s) = 3.22931 4.00234 3.63642
# Velocity P-wave (km/s) = 5.18541 6.23966 5.73680
#
# Compressibility (1/GPa) = 0.03939671
#
# Stress axis : x y z
#
# Youngs Moduli (GPa) = 113.31816 29.85225 27.80266
#
# Poissons Ratio (x) = 0.09907 -0.02265
# Poissons Ratio (y) = 0.37606 0.47106
# Poissons Ratio (z) = -0.09231 0.50579
#
# Static dielectric constant tensor:
#      x y z
#    x 1.752260 0.032420 -0.023690 
#    y 0.032420 1.646290 0.024980 
#    z -0.023690 0.024980 1.673790 
# 
# From -- ./inp_files/312419.got.cif
#   From: 2010.05.17/outbox.cif.g08.bks.cpg/sg2_157_cif.got.tgz:312419.got - 2010.06.03 11:33:40.
