data_PCOD9100557
_publ_section_title
;
Structure prediction by ZEFSAII (Michael W. Deem and Ramdas Pophale) SiO2 
 PCOD9100557
Probable space group: P -1
;
_chemical_formula_sum "Si O2"
_cell_formula_units_Z 16
_cell_length_a 9.594549
_cell_length_b 22.664101
_cell_length_c 9.415408
_cell_angle_alpha 119.492084
_cell_angle_beta 62.322801
_cell_angle_gamma 154.152726
_cell_volume 775.709789
_symmetry_space_group_name_H-M "P -1"
_symmetry_group_IT_number 2
_symmetry_cell_setting 'triclinic'
loop_
_space_group_symop_operation_xyz
x,y,z
-x,-y,-z
loop_
_atom_site_type_symbol
_atom_site_label
_atom_site_fract_x
_atom_site_fract_y
_atom_site_fract_z
Si Si1 0.580244 0.597848 0.919603
Si Si2 0.806420 0.910017 0.623895
Si Si3 0.297701 0.354897 0.749887
Si Si4 0.665767 0.366463 0.080145
Si Si5 0.284206 0.088758 0.865672
Si Si6 0.708416 0.164762 0.182999
Si Si7 0.591026 0.067707 0.803534
Si Si8 0.663575 0.387195 0.446089
O O1 0.302892 0.438687 0.834659
O O2 0.552714 0.656267 0.912442
O O3 0.909776 0.683646 0.821814
O O4 0.585051 0.615074 0.107139
O O5 0.527245 0.860287 0.724844
O O6 0.608714 0.766518 0.551777
O O7 0.000000 0.000000 0.500000
O O8 0.096234 0.019662 0.727021
O O9 0.527195 0.408063 0.587490
O O10 0.940420 0.191263 0.716108
O O11 0.691510 0.387128 0.262565
O O12 0.536184 0.243302 0.956778
O O13 0.000000 0.500000 0.000000
O O14 0.417034 0.064127 0.804552
O O15 0.000000 0.000000 0.000000
O O16 0.609249 0.075830 0.250110
O O17 0.646791 0.111638 0.992167
O O18 0.000000 0.500000 0.500000
#
# Coordination Sequence:
#
# PCOD9100557 Si02
#       8
#     2   2   2   2   2   2   2   2
#     4  10  22  41  68  94 128 179 225 273 334 401
#     4  12  27  44  68 103 137 181 223 283 342 397
#     4  10  22  42  65  94 134 173 223 275 335 403
#     4  12  26  43  71 101 133 182 229 278 337 403
#     4  12  23  45  71  98 137 175 232 279 333 403
#     4  10  20  37  64  94 130 168 223 264 334 398
#     4  10  20  37  66  94 125 175 215 275 326 395
#     4  12  26  45  68  98 140 178 225 283 340 399
#
# _framework density 20.626270999999999
#
# number of rings (size 3 to 8) (size 9 to 14) (size 15 to 20)
#    0.000    1.000    2.500    3.750    7.000    2.500 
#    2.250    1.250    0.000    0.000    0.000    0.000 
#    0.000    0.000    0.000    0.000    0.000    0.000 
#
# Total GULP energy -89343.031370 kJ/mol
# GULP energy per Si atom -5583.939461 kJ/mol
# Density = 2.057932 g / cm^3
# Si number density = 20.626271 Si / 1000 Ang^3
#
#
#
# Elastic Constant Matrix: (Units=GPa)
#
#
# Indices 1 2 3 4 5 6 
#
# 1 114.1784 17.2144 32.6013 5.3237 7.6855 -2.2417
# 2 17.2144 95.5055 32.4555 -0.4230 9.4217 -0.9893
# 3 32.6013 32.4555 47.8137 7.2373 14.9906 6.8987
# 4 5.3237 -0.4230 7.2373 27.2996 0.2213 -9.3813
# 5 7.6855 9.4217 14.9906 0.2213 36.9057 -5.2663
# 6 -2.2417 -0.9893 6.8987 -9.3813 -5.2663 32.8391
#
#
#
# Elastic Compliance Matrix: (Units=1/GPa)
#
#
# Indices 1 2 3 4 5 6 
#
# 1 0.011258 0.001175 -0.009835 0.001668 0.001861 0.003645
# 2 0.001175 0.014453 -0.012673 0.005029 0.001885 0.004917
# 3 -0.009835 -0.012673 0.046397 -0.016682 -0.016051 -0.018140
# 4 0.001668 0.005029 -0.016682 0.047075 0.007491 0.018419
# 5 0.001861 0.001885 -0.016051 0.007491 0.034300 0.011196
# 6 0.003645 0.004917 -0.018140 0.018419 0.011196 0.041716
#
#
# Mechanical properties :
#
#
# Convention : Reuss Voigt Hill
#
# Bulk Modulus (GPa) = 33.96557 46.89334 40.42946
# Shear Modulus (GPa) = 20.18740 31.09067 25.63904
#
# Velocity S-wave (km/s) = 3.13185 3.88665 3.52949
# Velocity P-wave (km/s) = 5.43883 6.55176 6.02106
#
# Compressibility (1/GPa) = 0.02944157
#
# Stress axis : x y z
#
# Youngs Moduli (GPa) = 88.82655 69.19121 21.55297
#
# Poissons Ratio (x) = -0.08127 0.21198
# Poissons Ratio (y) = -0.10434 0.27313
# Poissons Ratio (z) = 0.87362 0.87684
#
# Static dielectric constant tensor:
#      x y z
#    x 1.751270 0.012510 -0.038290 
#    y 0.012510 1.697640 0.001040 
#    z -0.038290 0.001040 1.702200 
# 
# From -- ./inp_files/223790.got.cif
#   From: 2010.05.17/outbox.cif.g08.bks.cpg/sg2_112_cif.got.tgz:223790.got - 2010.06.03 11:33:40.
