data_PCOD9100374
_publ_section_title
;
Structure prediction by ZEFSAII (Michael W. Deem and Ramdas Pophale) SiO2 
 PCOD9100374
Probable space group: P -1
;
_chemical_formula_sum "Si O2"
_cell_formula_units_Z 13
_cell_length_a 8.354454
_cell_length_b 11.834505
_cell_length_c 8.355069
_cell_angle_alpha 122.775421
_cell_angle_beta 52.339967
_cell_angle_gamma 122.819591
_cell_volume 521.423310
_symmetry_space_group_name_H-M "P -1"
_symmetry_group_IT_number 2
_symmetry_cell_setting 'triclinic'
loop_
_space_group_symop_operation_xyz
x,y,z
-x,-y,-z
loop_
_atom_site_type_symbol
_atom_site_label
_atom_site_fract_x
_atom_site_fract_y
_atom_site_fract_z
Si Si1 0.992984 0.341278 0.420047
Si Si2 0.164281 0.125070 0.729794
Si Si3 0.500000 0.000000 0.500000
Si Si4 0.419828 0.341323 0.993351
Si Si5 0.296057 0.656429 0.886052
Si Si6 0.113771 0.343668 0.704034
Si Si7 0.270364 0.875132 0.835755
O O1 0.207923 0.320063 0.208272
O O2 0.994725 0.321651 0.592257
O O3 0.000000 0.500000 0.500000
O O4 0.806867 0.240043 0.349466
O O5 0.169582 0.205499 0.620063
O O6 0.260354 0.998079 0.579457
O O7 0.349291 0.240283 0.807315
O O8 0.933946 0.095342 0.934056
O O9 0.420710 0.002291 0.739779
O O10 0.591986 0.321781 0.995276
O O11 0.500000 0.500000 0.000000
O O12 0.289900 0.500116 0.709941
O O13 0.380143 0.794789 0.830471
O O14 0.047121 0.643607 0.047094
#
# Coordination Sequence:
#
# PCOD9100374 Si02
#       7
#     2   2   1   2   2   2   2
#     4  11  22  36  63  98 133 162 205 264 331 390
#     4  10  24  44  65  95 130 171 217 270 317 381
#     4  12  26  44  74  82 126 186 234 250 316 374
#     4  11  22  36  63  98 133 162 205 264 331 390
#     4  10  20  37  63  96 132 163 203 266 335 385
#     4  10  20  37  63  96 132 163 203 266 335 385
#     4  10  24  44  65  95 130 171 217 270 317 381
#
# _framework density 24.931754999999999
#
# number of rings (size 3 to 8) (size 9 to 14) (size 15 to 20)
#    0.000    1.538    3.077    1.385    6.462    0.615 
#    0.000    1.538    0.000    0.000    0.000    0.000 
#    0.000    0.000    0.000    0.000    0.000    0.000 
#
# Total GULP energy -72423.622732 kJ/mol
# GULP energy per Si atom -5571.047902 kJ/mol
# Density = 2.487501 g / cm^3
# Si number density = 24.931755 Si / 1000 Ang^3
#
#
#
# Elastic Constant Matrix: (Units=GPa)
#
#
# Indices 1 2 3 4 5 6 
#
# 1 118.9356 34.9700 32.3909 -17.8000 14.4079 -45.7353
# 2 34.9700 69.2983 12.4378 -1.7280 3.7954 -38.7883
# 3 32.3909 12.4378 69.2680 -24.3289 -12.8474 -3.5517
# 4 -17.8000 -1.7280 -24.3289 17.8534 5.4104 20.6064
# 5 14.4079 3.7954 -12.8474 5.4104 33.7093 -4.1378
# 6 -45.7353 -38.7883 -3.5517 20.6064 -4.1378 58.0998
#
#
#
# Elastic Compliance Matrix: (Units=1/GPa)
#
#
# Indices 1 2 3 4 5 6 
#
# 1 0.012408 -0.011308 0.005550 0.032288 -0.008261 -0.009483
# 2 -0.011308 -0.011681 0.038841 0.096997 -0.000603 -0.048770
# 3 0.005550 0.038841 -0.030972 -0.117034 0.008894 0.070549
# 4 0.032288 0.096997 -0.117034 -0.263481 -0.005423 0.176082
# 5 -0.008261 -0.000603 0.008894 -0.005423 0.037306 -0.001781
# 6 -0.009483 -0.048770 0.070549 0.176082 -0.001781 -0.081078
#
#
# Mechanical properties :
#
#
# Convention : Reuss Voigt Hill
#
# Bulk Modulus (GPa) = 27.83848 46.34436 37.09142
# Shear Modulus (GPa) = -12.76516 33.77940 10.50712
#
# Velocity S-wave (km/s) = -2.26521 3.68486 2.05512
# Velocity P-wave (km/s) = 2.08532 6.06078 4.53220
#
# Compressibility (1/GPa) = 0.03592150
#
# Stress axis : x y z
#
# Youngs Moduli (GPa) = 80.59635 -85.60821 -32.28758
#
# Poissons Ratio (x) = -0.96802 0.17921
# Poissons Ratio (y) = 0.91135 1.25407
# Poissons Ratio (z) = -0.44735 3.32507
#
# Static dielectric constant tensor:
#      x y z
#    x 1.943800 0.009520 -0.038140 
#    y 0.009520 2.175580 0.045150 
#    z -0.038140 0.045150 2.022270 
# 
# From -- ./inp_files/153539.got.cif
#   From: 2010.05.17/outbox.cif.g08.bks.cpg/sg2_77_cif.got.tgz:153539.got - 2010.06.03 11:33:40.
