data_PCOD9100540
_publ_section_title
;
Structure prediction by ZEFSAII (Michael W. Deem and Ramdas Pophale) SiO2 
 PCOD9100540
Probable space group: P -1
;
_chemical_formula_sum "Si O2"
_cell_formula_units_Z 14
_cell_length_a 10.354359
_cell_length_b 7.737313
_cell_length_c 12.824500
_cell_angle_alpha 65.317477
_cell_angle_beta 143.312990
_cell_angle_gamma 103.604983
_cell_volume 548.274627
_symmetry_space_group_name_H-M "P -1"
_symmetry_group_IT_number 2
_symmetry_cell_setting 'triclinic'
loop_
_space_group_symop_operation_xyz
x,y,z
-x,-y,-z
loop_
_atom_site_type_symbol
_atom_site_label
_atom_site_fract_x
_atom_site_fract_y
_atom_site_fract_z
Si Si1 0.172071 0.107877 0.770400
Si Si2 0.507689 0.915447 0.198018
Si Si3 0.770531 0.133312 0.780331
Si Si4 0.050097 0.501407 0.199367
Si Si5 0.296598 0.797633 0.600699
Si Si6 0.755530 0.493332 0.193958
Si Si7 0.699063 0.743068 0.748287
O O1 0.192169 0.297540 0.801236
O O2 0.926375 0.069253 0.615545
O O3 0.270862 0.140461 0.712157
O O4 0.329352 0.946841 0.980892
O O5 0.561657 0.098680 0.252597
O O6 0.394282 0.810355 0.242067
O O7 0.825987 0.330216 0.722031
O O8 0.688241 0.973040 0.696520
O O9 0.000000 0.000000 0.000000
O O10 0.219598 0.339968 0.289495
O O11 0.913347 0.415223 0.220557
O O12 0.873045 0.619602 0.973241
O O13 0.206114 0.633089 0.646436
O O14 0.463711 0.708206 0.642697
O O15 0.500000 0.500000 0.000000
#
# Coordination Sequence:
#
# PCOD9100540 Si02
#       7
#     2   2   2   2   2   2   2
#     4  11  23  39  67  98 127 171 215 267 333 386
#     4  10  22  41  66  97 125 169 218 269 325 393
#     4   9  18  35  63  91 124 168 219 261 321 388
#     4  10  20  37  64  93 130 172 218 263 323 396
#     4  11  22  42  66  96 132 166 219 271 321 388
#     4  12  22  40  63  96 132 168 216 269 320 389
#     4   9  19  36  63  93 124 175 213 267 325 378
#
# _framework density 25.534649999999999
#
# number of rings (size 3 to 8) (size 9 to 14) (size 15 to 20)
#    0.000    1.714    2.857    2.571    2.000    1.143 
#    2.571    0.714    3.143   11.143    0.000    0.000 
#    0.000    0.000    0.000    0.000    0.000    0.000 
#
# Total GULP energy -78335.321548 kJ/mol
# GULP energy per Si atom -5595.380111 kJ/mol
# Density = 2.547653 g / cm^3
# Si number density = 25.534650 Si / 1000 Ang^3
#
#
#
# Elastic Constant Matrix: (Units=GPa)
#
#
# Indices 1 2 3 4 5 6 
#
# 1 256.0097 62.1342 45.0496 3.0213 40.4818 -11.2860
# 2 62.1342 68.1990 15.8438 7.2902 5.3566 -4.3735
# 3 45.0496 15.8438 103.4541 15.1492 10.6370 -2.8535
# 4 3.0213 7.2902 15.1492 16.9500 -3.0256 0.9420
# 5 40.4818 5.3566 10.6370 -3.0256 24.7083 -3.6594
# 6 -11.2860 -4.3735 -2.8535 0.9420 -3.6594 43.1710
#
#
#
# Elastic Compliance Matrix: (Units=1/GPa)
#
#
# Indices 1 2 3 4 5 6 
#
# 1 0.006941 -0.005300 -0.001286 0.000465 -0.009557 0.000372
# 2 -0.005300 0.020042 -0.000084 -0.007005 0.003680 0.001104
# 3 -0.001286 -0.000084 0.012434 -0.011689 -0.004609 0.000342
# 4 0.000465 -0.007005 -0.011689 0.075100 0.014726 -0.001751
# 5 -0.009557 0.003680 -0.004609 0.014726 0.059459 0.002288
# 6 0.000372 0.001104 0.000342 -0.001751 0.002288 0.023628
#
#
# Mechanical properties :
#
#
# Convention : Reuss Voigt Hill
#
# Bulk Modulus (GPa) = 38.34768 74.85754 56.60261
# Shear Modulus (GPa) = 22.76505 37.27486 30.01995
#
# Velocity S-wave (km/s) = 2.98910 3.82485 3.43250
# Velocity P-wave (km/s) = 5.19263 6.99183 6.15829
#
# Compressibility (1/GPa) = 0.02607720
#
# Stress axis : x y z
#
# Youngs Moduli (GPa) = 144.07362 49.89608 80.42542
#
# Poissons Ratio (x) = 0.26445 0.10342
# Poissons Ratio (y) = 0.76360 0.00673
# Poissons Ratio (z) = 0.18527 0.00417
#
# Static dielectric constant tensor:
#      x y z
#    x 2.025140 -0.009680 -0.017160 
#    y -0.009680 1.986930 -0.019940 
#    z -0.017160 -0.019940 2.090720 
# 
# From -- ./inp_files/315717.got.cif
#   From: 2010.05.17/outbox.cif.g08.bks.cpg/sg2_158_cif.got.tgz:315717.got - 2010.06.03 11:33:40.
