data_PCOD9100117
_publ_section_title
;
Structure prediction by ZEFSAII (Michael W. Deem and Ramdas Pophale) SiO2 
 PCOD9100117
Probable space group: P -1
;
_chemical_formula_sum "Si O2"
_cell_formula_units_Z 12
_cell_length_a 9.438114
_cell_length_b 11.072096
_cell_length_c 8.337865
_cell_angle_alpha 36.120428
_cell_angle_beta 99.165779
_cell_angle_gamma 107.806475
_cell_volume 483.004124
_symmetry_space_group_name_H-M "P -1"
_symmetry_group_IT_number 2
_symmetry_cell_setting 'triclinic'
loop_
_space_group_symop_operation_xyz
x,y,z
-x,-y,-z
loop_
_atom_site_type_symbol
_atom_site_label
_atom_site_fract_x
_atom_site_fract_y
_atom_site_fract_z
Si Si1 0.459702 0.719803 0.716770
Si Si2 0.736230 0.061948 0.727531
Si Si3 0.287310 0.293461 0.427630
Si Si4 0.863605 0.139355 0.985472
Si Si5 0.426321 0.761177 0.034081
Si Si6 0.109943 0.190535 0.210455
O O1 0.598375 0.816806 0.516284
O O2 0.318191 0.748517 0.563571
O O3 0.500000 0.500000 0.000000
O O4 0.444936 0.807706 0.795704
O O5 0.783626 0.915199 0.760233
O O6 0.868078 0.156021 0.777689
O O7 0.591372 0.904230 0.966795
O O8 0.173689 0.113732 0.706261
O O9 0.387311 0.502514 0.312430
O O10 0.197863 0.349042 0.197305
O O11 0.007958 0.262749 0.984971
O O12 0.719528 0.205174 0.947414
O O13 0.000000 0.000000 0.500000
#
# Coordination Sequence:
#
# PCOD9100117 Si02
#       6
#     2   2   2   2   2   2
#     4  10  20  37  62  95 119 161 216 265 300 364
#     4  12  22  40  67  95 129 167 208 263 328 369
#     4  10  21  40  63  96 123 167 219 252 317 366
#     4  11  24  41  61  96 137 168 200 259 323 385
#     4  11  22  38  68  93 126 165 212 267 307 378
#     4  10  22  41  67  88 130 172 213 258 306 386
#
# _framework density 24.844507
#
# number of rings (size 3 to 8) (size 9 to 14) (size 15 to 20)
#    0.000    1.333    3.333    3.500    0.000    1.333 
#    3.000    1.667    0.000    9.000    0.000    0.000 
#    0.000    0.000    0.000    0.000    0.000    0.000 
#
# Total GULP energy -66973.810972 kJ/mol
# GULP energy per Si atom -5581.150914 kJ/mol
# Density = 2.478796 g / cm^3
# Si number density = 24.844507 Si / 1000 Ang^3
#
#
#
# Elastic Constant Matrix: (Units=GPa)
#
#
# Indices 1 2 3 4 5 6 
#
# 1 110.5819 24.7097 4.6426 -0.5077 10.4085 -9.9288
# 2 24.7097 89.4551 33.7742 17.0571 29.7317 5.9235
# 3 4.6426 33.7742 66.1857 10.4971 14.1702 0.9794
# 4 -0.5077 17.0571 10.4971 47.4845 9.2610 11.6076
# 5 10.4085 29.7317 14.1702 9.2610 26.1957 3.1740
# 6 -9.9288 5.9235 0.9794 11.6076 3.1740 40.6075
#
#
#
# Elastic Compliance Matrix: (Units=1/GPa)
#
#
# Indices 1 2 3 4 5 6 
#
# 1 0.010068 -0.002837 0.001009 0.000577 -0.001874 0.002833
# 2 -0.002837 0.020893 -0.006174 -0.002234 -0.018272 -0.001526
# 3 0.001009 -0.006174 0.019150 -0.001707 -0.003323 0.001433
# 4 0.000577 -0.002234 -0.001707 0.024681 -0.004747 -0.006176
# 5 -0.001874 -0.018272 -0.003323 -0.004747 0.063291 -0.001302
# 6 0.002833 -0.001526 0.001433 -0.006176 -0.001302 0.027374
#
#
# Mechanical properties :
#
#
# Convention : Reuss Voigt Hill
#
# Bulk Modulus (GPa) = 29.31872 43.60840 36.46356
# Shear Modulus (GPa) = 25.92970 36.39728 31.16349
#
# Velocity S-wave (km/s) = 3.23411 3.83169 3.54551
# Velocity P-wave (km/s) = 5.07666 6.09643 5.60976
#
# Compressibility (1/GPa) = 0.03410790
#
# Stress axis : x y z
#
# Youngs Moduli (GPa) = 99.32527 47.86197 52.22043
#
# Poissons Ratio (x) = 0.13578 -0.05270
# Poissons Ratio (y) = 0.28177 0.32240
# Poissons Ratio (z) = -0.10024 0.29549
#
# Static dielectric constant tensor:
#      x y z
#    x 1.984160 0.076670 -0.017420 
#    y 0.076670 2.018590 -0.031650 
#    z -0.017420 -0.031650 2.034030 
# 
# From -- ./inp_files/173878.got.cif
#   From: 2010.05.17/outbox.cif.g08.bks.cpg/sg2_87_cif.got.tgz:173878.got - 2010.06.03 11:33:40.
