data_PCOD9100136
_publ_section_title
;
Structure prediction by ZEFSAII (Michael W. Deem and Ramdas Pophale) SiO2 
 PCOD9100136
Probable space group: P -1
;
_chemical_formula_sum "Si O2"
_cell_formula_units_Z 14
_cell_length_a 14.363900
_cell_length_b 14.729835
_cell_length_c 8.568440
_cell_angle_alpha 68.882208
_cell_angle_beta 43.756738
_cell_angle_gamma 33.556166
_cell_volume 537.053291
_symmetry_space_group_name_H-M "P -1"
_symmetry_group_IT_number 2
_symmetry_cell_setting 'triclinic'
loop_
_space_group_symop_operation_xyz
x,y,z
-x,-y,-z
loop_
_atom_site_type_symbol
_atom_site_label
_atom_site_fract_x
_atom_site_fract_y
_atom_site_fract_z
Si Si1 0.619401 0.157255 0.825135
Si Si2 0.922987 0.381570 0.640640
Si Si3 0.230605 0.408308 0.884275
Si Si4 0.425583 0.347047 0.375828
Si Si5 0.141446 0.797263 0.626788
Si Si6 0.689655 0.799298 0.481355
Si Si7 0.750310 0.308758 0.083516
O O1 0.447426 0.213208 0.858646
O O2 0.786233 0.137078 0.543610
O O3 0.369206 0.371494 0.099995
O O4 0.851773 0.956898 0.779709
O O5 0.858926 0.426478 0.506766
O O6 0.222393 0.241073 0.420377
O O7 0.910049 0.284105 0.795158
O O8 0.400700 0.363566 0.583014
O O9 0.000000 0.500000 0.000000
O O10 0.013678 0.606674 0.134220
O O11 0.424993 0.233944 0.400785
O O12 0.695922 0.245891 0.087368
O O13 0.426572 0.558321 0.362834
O O14 0.107716 0.798509 0.851593
O O15 0.500000 0.000000 0.500000
#
# Coordination Sequence:
#
# PCOD9100136 Si02
#       7
#     2   2   2   2   2   2   2
#     4   9  17  36  59  88 119 172 205 249 313 385
#     4  10  22  39  62  88 131 170 209 252 319 379
#     4   9  19  38  66  87 124 162 212 261 312 368
#     4  11  21  41  63  92 128 166 204 264 318 362
#     4   9  18  33  62  89 126 162 210 251 321 371
#     4  10  23  44  65  88 122 171 214 259 319 385
#     4  10  20  37  62  97 127 165 207 266 310 372
#
# _framework density 26.068175
#
# number of rings (size 3 to 8) (size 9 to 14) (size 15 to 20)
#    0.000    2.286    1.429    0.857    2.000    1.143 
#    5.143    3.571    0.000    0.000    0.000    0.000 
#    0.000    0.000    0.000    0.000    0.000    0.000 
#
# Total GULP energy -78269.611859 kJ/mol
# GULP energy per Si atom -5590.686561 kJ/mol
# Density = 2.600884 g / cm^3
# Si number density = 26.068175 Si / 1000 Ang^3
#
#
#
# Elastic Constant Matrix: (Units=GPa)
#
#
# Indices 1 2 3 4 5 6 
#
# 1 154.5268 89.1955 16.7632 -3.1877 -27.0627 -32.9400
# 2 89.1955 176.2769 34.9355 -8.9988 -8.1080 -41.0191
# 3 16.7632 34.9355 52.1055 -0.1935 -7.4895 -3.3006
# 4 -3.1877 -8.9988 -0.1935 40.9909 -7.7949 -12.4770
# 5 -27.0627 -8.1080 -7.4895 -7.7949 25.9405 -4.7042
# 6 -32.9400 -41.0191 -3.3006 -12.4770 -4.7042 70.5743
#
#
#
# Elastic Compliance Matrix: (Units=1/GPa)
#
#
# Indices 1 2 3 4 5 6 
#
# 1 0.012662 -0.004664 0.001444 0.004205 0.014333 0.004966
# 2 -0.004664 0.009979 -0.005203 0.002594 -0.001795 0.003719
# 3 0.001444 -0.005203 0.023084 0.000043 0.006406 -0.000836
# 4 0.004205 0.002594 0.000043 0.031523 0.016522 0.010147
# 5 0.014333 -0.001795 0.006406 0.016522 0.062115 0.013008
# 6 0.004966 0.003719 -0.000836 0.010147 0.013008 0.021270
#
#
# Mechanical properties :
#
#
# Convention : Reuss Voigt Hill
#
# Bulk Modulus (GPa) = 34.62753 73.85527 54.24140
# Shear Modulus (GPa) = 26.72278 43.63546 35.17912
#
# Velocity S-wave (km/s) = 3.20521 4.09577 3.67755
# Velocity P-wave (km/s) = 5.19712 7.12462 6.23580
#
# Compressibility (1/GPa) = 0.02887876
#
# Stress axis : x y z
#
# Youngs Moduli (GPa) = 78.97539 100.20830 43.32026
#
# Poissons Ratio (x) = 0.46735 -0.06254
# Poissons Ratio (y) = 0.36832 0.22540
# Poissons Ratio (z) = -0.11401 0.52140
#
# Static dielectric constant tensor:
#      x y z
#    x 2.213790 -0.036260 0.073210 
#    y -0.036260 2.029310 -0.040950 
#    z 0.073210 -0.040950 2.134200 
# 
# From -- ./inp_files/314843.got.cif
#   From: 2010.05.17/outbox.cif.g08.bks.cpg/sg2_158_cif.got.tgz:314843.got - 2010.06.03 11:33:40.
