data_PCOD9100912
_publ_section_title
;
Structure prediction by ZEFSAII (Michael W. Deem and Ramdas Pophale) SiO2 
 PCOD9100912
Probable space group: P -1
;
_chemical_formula_sum "Si O2"
_cell_formula_units_Z 16
_cell_length_a 22.010980
_cell_length_b 6.306980
_cell_length_c 12.967544
_cell_angle_alpha 121.523478
_cell_angle_beta 146.037300
_cell_angle_gamma 48.345053
_cell_volume 749.664268
_symmetry_space_group_name_H-M "P -1"
_symmetry_group_IT_number 2
_symmetry_cell_setting 'triclinic'
loop_
_space_group_symop_operation_xyz
x,y,z
-x,-y,-z
loop_
_atom_site_type_symbol
_atom_site_label
_atom_site_fract_x
_atom_site_fract_y
_atom_site_fract_z
Si Si1 0.777291 0.446123 0.284757
Si Si2 0.223126 0.537164 0.043795
Si Si3 0.421605 0.746319 0.320539
Si Si4 0.238488 0.674745 0.545927
Si Si5 0.691910 0.583183 0.648739
Si Si6 0.373255 0.874488 0.057636
Si Si7 0.020511 0.757401 0.635228
Si Si8 0.605756 0.034921 0.104304
O O1 0.772350 0.499883 0.414513
O O2 0.903134 0.218036 0.348231
O O3 0.726421 0.729207 0.216277
O O4 0.686934 0.315478 0.107761
O O5 0.330082 0.615855 0.178271
O O6 0.211026 0.570531 0.159776
O O7 0.272017 0.201668 0.014813
O O8 0.106496 0.689818 0.841472
O O9 0.566146 0.583132 0.515345
O O10 0.441488 0.758693 0.229576
O O11 0.352283 0.079235 0.339603
O O12 0.256728 0.553555 0.425236
O O13 0.351683 0.743670 0.740683
O O14 0.109886 0.969362 0.453533
O O15 0.444482 0.889751 0.062941
O O16 0.000000 0.500000 0.500000
O O17 0.500000 0.000000 0.000000
#
# Coordination Sequence:
#
# PCOD9100912 Si02
#       8
#     2   2   2   2   2   2   2   2
#     4  11  22  43  65  94 133 170 211 266 328 384
#     4  11  22  42  70  91 128 173 221 267 318 385
#     4  10  21  43  67  92 129 173 216 274 319 393
#     4  11  26  40  63  99 132 172 217 269 319 389
#     4  10  25  42  63  98 129 170 223 261 330 383
#     4  10  20  37  66  99 123 168 220 259 326 388
#     4  12  22  45  69  96 128 172 221 266 327 384
#     4  11  24  38  62 100 133 169 207 271 334 386
#
# _framework density 21.342887000000001
#
# number of rings (size 3 to 8) (size 9 to 14) (size 15 to 20)
#    0.000    1.250    3.750    1.500    5.250    2.500 
#    0.000    0.625    0.000    0.000    0.000    0.000 
#    0.000    0.000    0.000    0.000    0.000    0.000 
#
# Total GULP energy -89211.024198 kJ/mol
# GULP energy per Si atom -5575.689012 kJ/mol
# Density = 2.129431 g / cm^3
# Si number density = 21.342887 Si / 1000 Ang^3
#
#
#
# Elastic Constant Matrix: (Units=GPa)
#
#
# Indices 1 2 3 4 5 6 
#
# 1 124.2889 24.4804 49.5860 2.2077 -34.9026 -16.7533
# 2 24.4804 70.9674 21.3299 -1.3095 -12.2945 -10.8478
# 3 49.5860 21.3299 100.7798 -10.5534 -28.1340 -4.0115
# 4 2.2077 -1.3095 -10.5534 31.8503 -4.7622 -1.6950
# 5 -34.9026 -12.2945 -28.1340 -4.7622 42.3721 0.8861
# 6 -16.7533 -10.8478 -4.0115 -1.6950 0.8861 32.9671
#
#
#
# Elastic Compliance Matrix: (Units=1/GPa)
#
#
# Indices 1 2 3 4 5 6 
#
# 1 0.012556 -0.001135 -0.003768 -0.000789 0.007312 0.005312
# 2 -0.001135 0.016188 -0.001925 0.000715 0.002471 0.004486
# 3 -0.003768 -0.001925 0.014681 0.006026 0.006777 -0.000634
# 4 -0.000789 0.000715 0.006026 0.034701 0.007413 0.002152
# 5 0.007312 0.002471 0.006777 0.007413 0.035573 0.004778
# 6 0.005312 0.004486 -0.000634 0.002152 0.004778 0.034414
#
#
# Mechanical properties :
#
#
# Convention : Reuss Voigt Hill
#
# Bulk Modulus (GPa) = 33.58982 54.09208 43.84095
# Shear Modulus (GPa) = 29.12231 34.81388 31.96809
#
# Velocity S-wave (km/s) = 3.69792 4.04316 3.87438
# Velocity P-wave (km/s) = 5.83139 6.86990 6.37184
#
# Compressibility (1/GPa) = 0.02977093
#
# Stress axis : x y z
#
# Youngs Moduli (GPa) = 79.64572 61.77472 68.11369
#
# Poissons Ratio (x) = 0.07010 0.25662
# Poissons Ratio (y) = 0.09037 0.13110
# Poissons Ratio (z) = 0.30007 0.11889
#
# Static dielectric constant tensor:
#      x y z
#    x 1.864030 -0.009770 0.023240 
#    y -0.009770 1.806070 -0.032630 
#    z 0.023240 -0.032630 1.869620 
# 
# From -- ./inp_files/94950.got.cif
#   From: 2010.05.17/outbox.cif.g08.bks.cpg/sg2_48_cif.got.tgz:94950.got - 2010.06.03 11:33:40.
