data_PCOD9100485
_publ_section_title
;
Structure prediction by ZEFSAII (Michael W. Deem and Ramdas Pophale) SiO2 
 PCOD9100485
Probable space group: P -1
;
_chemical_formula_sum "Si O2"
_cell_formula_units_Z 14
_cell_length_a 7.936076
_cell_length_b 16.549292
_cell_length_c 10.251725
_cell_angle_alpha 132.999985
_cell_angle_beta 73.302137
_cell_angle_gamma 139.505652
_cell_volume 558.472836
_symmetry_space_group_name_H-M "P -1"
_symmetry_group_IT_number 2
_symmetry_cell_setting 'triclinic'
loop_
_space_group_symop_operation_xyz
x,y,z
-x,-y,-z
loop_
_atom_site_type_symbol
_atom_site_label
_atom_site_fract_x
_atom_site_fract_y
_atom_site_fract_z
Si Si1 0.686743 0.298372 0.546990
Si Si2 0.854519 0.924690 0.159023
Si Si3 0.058574 0.191359 0.199478
Si Si4 0.694591 0.088166 0.689470
Si Si5 0.754597 0.754150 0.376323
Si Si6 0.618546 0.440051 0.514823
Si Si7 0.801710 0.389883 0.050033
O O1 0.508912 0.301292 0.678528
O O2 0.678707 0.351345 0.465708
O O3 0.500936 0.093999 0.381576
O O4 0.016305 0.463063 0.711652
O O5 0.518258 0.721360 0.028305
O O6 0.015812 0.909678 0.027497
O O7 0.867195 0.039820 0.189351
O O8 0.023349 0.045971 0.383511
O O9 0.392271 0.324103 0.317512
O O10 0.096856 0.340426 0.334129
O O11 0.747420 0.231693 0.903765
O O12 0.024500 0.208401 0.714462
O O13 0.500000 0.000000 0.500000
O O14 0.582039 0.607060 0.373549
O O15 0.000000 0.500000 0.000000
#
# Coordination Sequence:
#
# PCOD9100485 Si02
#       7
#     2   2   2   2   2   2   2
#     4  10  23  41  59  92 129 153 214 250 303 366
#     4  10  20  37  64  91 118 163 207 251 300 372
#     4   9  18  38  66  87 118 160 211 248 307 356
#     4  12  22  39  63  88 128 166 195 255 312 360
#     4   9  20  39  61  89 120 159 204 254 297 365
#     4   8  19  37  61  90 115 153 208 257 295 359
#     4  12  25  39  61  94 126 162 206 247 313 374
#
# _framework density 25.068363000000002
#
# number of rings (size 3 to 8) (size 9 to 14) (size 15 to 20)
#    0.857    1.143    2.857    0.429    2.000    1.714 
#    2.571    1.429    0.000    0.000    0.000    0.000 
#    0.000    0.000    0.000    0.000    0.000    0.000 
#
# Total GULP energy -78227.375169 kJ/mol
# GULP energy per Si atom -5587.669655 kJ/mol
# Density = 2.501131 g / cm^3
# Si number density = 25.068363 Si / 1000 Ang^3
#
#
#
# Elastic Constant Matrix: (Units=GPa)
#
#
# Indices 1 2 3 4 5 6 
#
# 1 61.5053 22.7324 15.5413 10.3762 -3.1882 -7.3356
# 2 22.7324 85.5604 26.5226 24.4165 -2.0412 -7.4711
# 3 15.5413 26.5226 77.9502 14.2977 -12.6657 -7.6107
# 4 10.3762 24.4165 14.2977 35.4755 -0.4095 2.0714
# 5 -3.1882 -2.0412 -12.6657 -0.4095 36.8046 13.0012
# 6 -7.3356 -7.4711 -7.6107 2.0714 13.0012 48.3167
#
#
#
# Elastic Compliance Matrix: (Units=1/GPa)
#
#
# Indices 1 2 3 4 5 6 
#
# 1 0.018690 -0.003509 -0.001883 -0.002415 0.000008 0.002100
# 2 -0.003509 0.016376 -0.003210 -0.009099 -0.001400 0.002261
# 3 -0.001883 -0.003210 0.015797 -0.003583 0.004860 0.000552
# 4 -0.002415 -0.009099 -0.003583 0.036825 -0.000170 -0.003871
# 5 0.000008 -0.001400 0.004860 -0.000170 0.031568 -0.007937
# 6 0.002100 0.002261 0.000552 -0.003871 -0.007937 0.023754
#
#
# Mechanical properties :
#
#
# Convention : Reuss Voigt Hill
#
# Bulk Modulus (GPa) = 29.71084 39.40095 34.55589
# Shear Modulus (GPa) = 29.16587 34.80067 31.98327
#
# Velocity S-wave (km/s) = 3.41464 3.72994 3.57577
# Velocity P-wave (km/s) = 5.23680 5.85674 5.55542
#
# Compressibility (1/GPa) = 0.03365775
#
# Stress axis : x y z
#
# Youngs Moduli (GPa) = 53.50496 61.06646 63.30277
#
# Poissons Ratio (x) = 0.21430 0.11920
# Poissons Ratio (y) = 0.18777 0.20321
# Poissons Ratio (z) = 0.10075 0.19603
#
# Static dielectric constant tensor:
#      x y z
#    x 2.049110 0.045680 -0.049260 
#    y 0.045680 2.032370 -0.034680 
#    z -0.049260 -0.034680 2.020440 
# 
# From -- ./inp_files/402218.got.cif
#   From: 2010.05.17/outbox.cif.g08.bks.cpg/sg2_202_cif.got.tgz:402218.got - 2010.06.03 11:33:40.
