data_PCOD9100857
_publ_section_title
;
Structure prediction by ZEFSAII (Michael W. Deem and Ramdas Pophale) SiO2 
 PCOD9100857
Probable space group: P -1
;
_chemical_formula_sum "Si O2"
_cell_formula_units_Z 16
_cell_length_a 8.495087
_cell_length_b 19.636285
_cell_length_c 18.984513
_cell_angle_alpha 21.650194
_cell_angle_beta 138.938691
_cell_angle_gamma 144.570362
_cell_volume 677.225935
_symmetry_space_group_name_H-M "P -1"
_symmetry_group_IT_number 2
_symmetry_cell_setting 'triclinic'
loop_
_space_group_symop_operation_xyz
x,y,z
-x,-y,-z
loop_
_atom_site_type_symbol
_atom_site_label
_atom_site_fract_x
_atom_site_fract_y
_atom_site_fract_z
Si Si1 0.579407 0.315192 0.886960
Si Si2 0.459321 0.342978 0.524779
Si Si3 0.409967 0.218431 0.331120
Si Si4 0.398016 0.092708 0.606434
Si Si5 0.039235 0.389566 0.050664
Si Si6 0.846296 0.080035 0.599864
Si Si7 0.759881 0.901129 0.890638
Si Si8 0.666520 0.076330 0.911539
O O1 0.476389 0.421388 0.692268
O O2 0.899981 0.445619 0.884748
O O3 0.437537 0.284697 0.944899
O O4 0.505108 0.090013 0.046502
O O5 0.412596 0.251884 0.517357
O O6 0.678754 0.294462 0.683353
O O7 0.169098 0.212942 0.589705
O O8 0.342682 0.149714 0.455621
O O9 0.703762 0.229240 0.411052
O O10 0.330661 0.405263 0.117968
O O11 0.232441 0.043477 0.381693
O O12 0.162931 0.858207 0.767996
O O13 0.683071 0.083460 0.710320
O O14 0.000000 0.500000 0.000000
O O15 0.730918 0.909013 0.788832
O O16 0.050861 0.924898 0.983829
O O17 0.500000 0.000000 0.000000
#
# Coordination Sequence:
#
# PCOD9100857 Si02
#       8
#     2   2   2   2   2   2   2   2
#     4  11  26  43  68 104 133 171 240 273 329 423
#     4  12  23  44  71  99 132 180 224 287 338 400
#     4  10  20  37  66  93 130 184 224 271 335 402
#     4  10  21  39  67  94 135 178 227 277 334 401
#     4  11  21  37  64  97 136 178 225 276 331 403
#     4  10  21  39  68  97 137 178 223 278 346 398
#     4  10  22  44  67  97 137 176 222 279 341 405
#     4  12  24  46  74  95 137 181 217 288 353 391
#
# _framework density 23.625793999999999
#
# number of rings (size 3 to 8) (size 9 to 14) (size 15 to 20)
#    0.000    1.250    5.000    1.500    1.750    1.000 
#    0.000    4.375    0.000    0.000    0.000    0.000 
#    0.000    0.000    0.000    0.000    0.000    0.000 
#
# Total GULP energy -89353.415849 kJ/mol
# GULP energy per Si atom -5584.588491 kJ/mol
# Density = 2.357202 g / cm^3
# Si number density = 23.625794 Si / 1000 Ang^3
#
#
#
# Elastic Constant Matrix: (Units=GPa)
#
#
# Indices 1 2 3 4 5 6 
#
# 1 111.7709 27.1166 35.2691 16.4614 6.4378 -1.5256
# 2 27.1166 49.3413 25.3406 32.3178 12.6941 4.2464
# 3 35.2691 25.3406 114.1754 35.1989 12.9649 12.5320
# 4 16.4614 32.3178 35.1989 36.4305 4.5954 2.2969
# 5 6.4378 12.6941 12.9649 4.5954 49.6636 12.6255
# 6 -1.5256 4.2464 12.5320 2.2969 12.6255 27.5334
#
#
#
# Elastic Compliance Matrix: (Units=1/GPa)
#
#
# Indices 1 2 3 4 5 6 
#
# 1 0.011357 -0.008430 -0.003788 0.005770 0.000375 0.003000
# 2 -0.008430 0.060491 0.008094 -0.056122 -0.010247 -0.004100
# 3 -0.003788 0.008094 0.014947 -0.019269 -0.002270 -0.005613
# 4 0.005770 -0.056122 -0.019269 0.091777 0.008569 0.006160
# 5 0.000375 -0.010247 -0.002270 0.008569 0.024923 -0.009509
# 6 0.003000 -0.004100 -0.005613 0.006160 -0.009509 0.043519
#
#
# Mechanical properties :
#
#
# Convention : Reuss Voigt Hill
#
# Bulk Modulus (GPa) = 12.73133 50.08226 31.40679
# Shear Modulus (GPa) = 17.76548 35.22958 26.49753
#
# Velocity S-wave (km/s) = 2.74515 3.86573 3.35259
# Velocity P-wave (km/s) = 3.93042 6.41633 5.32060
#
# Compressibility (1/GPa) = 0.07854640
#
# Stress axis : x y z
#
# Youngs Moduli (GPa) = 88.05239 16.53134 66.90513
#
# Poissons Ratio (x) = 0.13936 0.25343
# Poissons Ratio (y) = 0.74227 -0.54151
# Poissons Ratio (z) = 0.33353 -0.13380
#
# Static dielectric constant tensor:
#      x y z
#    x 1.911210 0.019720 0.000550 
#    y 0.019720 1.904310 0.057540 
#    z 0.000550 0.057540 1.929770 
# 
# From -- ./inp_files/404890.got.cif
#   From: 2010.05.17/outbox.cif.g08.bks.cpg/sg2_203_cif.got.tgz:404890.got - 2010.06.03 11:33:40.
