data_PCOD9100378
_publ_section_title
;
Structure prediction by ZEFSAII (Michael W. Deem and Ramdas Pophale) SiO2 
 PCOD9100378
Probable space group: P -1
;
_chemical_formula_sum "Si O2"
_cell_formula_units_Z 16
_cell_length_a 14.174926
_cell_length_b 25.776430
_cell_length_c 5.367738
_cell_angle_alpha 97.432883
_cell_angle_beta 66.310376
_cell_angle_gamma 153.186775
_cell_volume 673.966779
_symmetry_space_group_name_H-M "P -1"
_symmetry_group_IT_number 2
_symmetry_cell_setting 'triclinic'
loop_
_space_group_symop_operation_xyz
x,y,z
-x,-y,-z
loop_
_atom_site_type_symbol
_atom_site_label
_atom_site_fract_x
_atom_site_fract_y
_atom_site_fract_z
Si Si1 0.282732 0.255828 0.212933
Si Si2 0.381633 0.417242 0.325762
Si Si3 0.769620 0.148586 0.664612
Si Si4 0.760594 0.049215 0.338323
Si Si5 0.758481 0.351065 0.069789
Si Si6 0.552726 0.769315 0.180758
Si Si7 0.639524 0.189616 0.045063
Si Si8 0.124088 0.985562 0.194167
O O1 0.433091 0.378371 0.227352
O O2 0.003026 0.147076 0.329488
O O3 0.175334 0.163818 0.474698
O O4 0.407707 0.274779 0.892047
O O5 0.500000 0.500000 0.500000
O O6 0.054287 0.271741 0.578123
O O7 0.500000 0.500000 0.000000
O O8 0.779810 0.120972 0.378125
O O9 0.729991 0.191855 0.739521
O O10 0.500000 0.000000 0.000000
O O11 0.470443 0.894700 0.657819
O O12 0.825858 0.043954 0.033988
O O13 0.546325 0.257777 0.463899
O O14 0.852968 0.334881 0.958174
O O15 0.658642 0.319372 0.878234
O O16 0.000000 0.500000 0.000000
O O17 0.813486 0.929393 0.943058
O O18 0.371061 0.096277 0.196098
#
# Coordination Sequence:
#
# PCOD9100378 Si02
#       8
#     2   2   2   2   2   2   2   2
#     4  10  24  39  66  94 131 175 220 266 333 418
#     4  11  27  49  68 100 144 183 223 284 348 411
#     4   9  20  42  68  99 127 176 237 278 338 404
#     4   9  18  36  60  91 130 159 215 279 336 380
#     4  11  24  42  62  87 129 171 221 273 329 397
#     4  11  24  41  64  97 125 170 219 271 337 403
#     4   9  19  38  56  92 127 166 218 280 330 385
#     4  10  20  37  63  96 135 166 213 286 340 387
#
# _framework density 23.740041999999999
#
# number of rings (size 3 to 8) (size 9 to 14) (size 15 to 20)
#    0.000    2.000    1.250    1.500    5.250    3.000 
#    4.500    0.000    0.000    0.000    0.000    0.000 
#    0.000    0.000    0.000    0.000    0.000    0.000 
#
# Total GULP energy -89209.544589 kJ/mol
# GULP energy per Si atom -5575.596537 kJ/mol
# Density = 2.368601 g / cm^3
# Si number density = 23.740042 Si / 1000 Ang^3
#
#
#
# Elastic Constant Matrix: (Units=GPa)
#
#
# Indices 1 2 3 4 5 6 
#
# 1 82.6861 56.1575 21.7970 13.5347 -6.6552 -15.4514
# 2 56.1575 183.1269 49.6454 27.3524 -1.3950 -35.0854
# 3 21.7970 49.6454 65.8292 16.2973 8.7263 -6.9591
# 4 13.5347 27.3524 16.2973 37.6387 -1.9420 -4.5566
# 5 -6.6552 -1.3950 8.7263 -1.9420 21.4161 12.4194
# 6 -15.4514 -35.0854 -6.9591 -4.5566 12.4194 57.9705
#
#
#
# Elastic Compliance Matrix: (Units=1/GPa)
#
#
# Indices 1 2 3 4 5 6 
#
# 1 0.016225 -0.003900 -0.002776 -0.001471 0.005603 0.000315
# 2 -0.003900 0.008963 -0.004120 -0.002923 -0.001527 0.003988
# 3 -0.002776 -0.004120 0.022447 -0.006151 -0.011695 0.001483
# 4 -0.001471 -0.002923 -0.006151 0.031984 0.005689 -0.001604
# 5 0.005603 -0.001527 -0.011695 0.005689 0.061480 -0.013559
# 6 0.000315 0.003988 0.001483 -0.001604 -0.013559 0.022704
#
#
# Mechanical properties :
#
#
# Convention : Reuss Voigt Hill
#
# Bulk Modulus (GPa) = 38.40039 65.20467 51.80253
# Shear Modulus (GPa) = 25.76288 37.00787 31.38537
#
# Velocity S-wave (km/s) = 3.29782 3.95255 3.63994
# Velocity P-wave (km/s) = 5.54178 6.95384 6.28758
#
# Compressibility (1/GPa) = 0.02604140
#
# Stress axis : x y z
#
# Youngs Moduli (GPa) = 61.63200 111.57396 44.54868
#
# Poissons Ratio (x) = 0.43517 0.12369
# Poissons Ratio (y) = 0.24038 0.18355
# Poissons Ratio (z) = 0.17112 0.45971
#
# Static dielectric constant tensor:
#      x y z
#    x 2.012470 -0.043890 -0.005290 
#    y -0.043890 1.966680 0.004740 
#    z -0.005290 0.004740 1.968300 
# 
# From -- ./inp_files/101185.got.cif
#   From: 2010.05.17/outbox.cif.g08.bks.cpg/sg2_51_cif.got.tgz:101185.got - 2010.06.03 11:33:40.
