data_PCOD9100671
_publ_section_title
;
Structure prediction by ZEFSAII (Michael W. Deem and Ramdas Pophale) SiO2 
 PCOD9100671
Probable space group: P -1
;
_chemical_formula_sum "Si O2"
_cell_formula_units_Z 16
_cell_length_a 6.864089
_cell_length_b 9.109126
_cell_length_c 16.692569
_cell_angle_alpha 79.362278
_cell_angle_beta 60.211780
_cell_angle_gamma 58.011531
_cell_volume 763.875484
_symmetry_space_group_name_H-M "P -1"
_symmetry_group_IT_number 2
_symmetry_cell_setting 'triclinic'
loop_
_space_group_symop_operation_xyz
x,y,z
-x,-y,-z
loop_
_atom_site_type_symbol
_atom_site_label
_atom_site_fract_x
_atom_site_fract_y
_atom_site_fract_z
Si Si1 0.171313 0.929394 0.051029
Si Si2 0.945537 0.580375 0.777025
Si Si3 0.668011 0.090431 0.471088
Si Si4 0.553419 0.445541 0.403121
Si Si5 0.626235 0.928082 0.883182
Si Si6 0.266396 0.800391 0.375180
Si Si7 0.345660 0.304272 0.840962
Si Si8 0.374278 0.579702 0.104818
O O1 0.145376 0.777621 0.112076
O O2 0.157075 0.061524 0.108227
O O3 0.472094 0.851597 0.969681
O O4 0.000000 0.000000 0.000000
O O5 0.779299 0.788220 0.798479
O O6 0.737907 0.519597 0.810659
O O7 0.190203 0.547857 0.676545
O O8 0.081750 0.462041 0.841037
O O9 0.588786 0.255939 0.413125
O O10 0.650710 0.151777 0.561647
O O11 0.500000 0.000000 0.500000
O O12 0.969542 0.947642 0.407761
O O13 0.500000 0.500000 0.500000
O O14 0.310976 0.606148 0.391746
O O15 0.397874 0.123942 0.887710
O O16 0.450104 0.779747 0.265965
O O17 0.431244 0.395289 0.880510
O O18 0.500000 0.500000 0.000000
#
# Coordination Sequence:
#
# PCOD9100671 Si02
#       8
#     2   2   2   2   2   2   2   2
#     4  10  21  38  57  82 117 152 197 249 297 351
#     4  11  22  39  63  85 120 161 196 249 302 353
#     4  10  20  37  65  90 118 157 198 248 296 361
#     4   9  20  39  60  88 121 158 195 241 302 353
#     4  10  21  37  57  84 116 156 196 245 298 349
#     4   9  20  39  58  88 125 156 197 241 304 358
#     4  10  23  39  57  88 122 159 199 248 299 355
#     4  11  23  39  59  89 116 155 210 247 293 359
#
# _framework density 20.945822
#
# number of rings (size 3 to 8) (size 9 to 14) (size 15 to 20)
#    0.000    2.000    1.250    1.500    1.750    4.000 
#    0.000   10.000    0.000    0.000    0.000    0.000 
#    0.000    0.000    0.000    0.000    0.000    0.000 
#
# Total GULP energy -89080.018453 kJ/mol
# GULP energy per Si atom -5567.501153 kJ/mol
# Density = 2.089815 g / cm^3
# Si number density = 20.945822 Si / 1000 Ang^3
#
#
#
# Elastic Constant Matrix: (Units=GPa)
#
#
# Indices 1 2 3 4 5 6 
#
# 1 61.9371 34.6072 -3.8308 -7.4989 -5.0685 15.4784
# 2 34.6072 121.7098 10.5272 -12.6125 -12.3402 18.0719
# 3 -3.8308 10.5272 54.0781 -2.0080 -5.8269 18.3747
# 4 -7.4989 -12.6125 -2.0080 32.9297 0.9511 -3.0872
# 5 -5.0685 -12.3402 -5.8269 0.9511 13.3799 -10.3711
# 6 15.4784 18.0719 18.3747 -3.0872 -10.3711 27.8481
#
#
#
# Elastic Compliance Matrix: (Units=1/GPa)
#
#
# Indices 1 2 3 4 5 6 
#
# 1 0.023552 -0.005209 0.007844 0.002443 -0.005579 -0.016692
# 2 -0.005209 0.010849 -0.001554 0.002651 0.006997 -0.000220
# 3 0.007844 -0.001554 0.026513 0.000836 -0.004303 -0.022355
# 4 0.002443 0.002651 0.000836 0.031995 0.001962 0.000648
# 5 -0.005579 0.006997 -0.004303 0.001962 0.110101 0.042620
# 6 -0.016692 -0.000220 -0.022355 0.000648 0.042620 0.076024
#
#
# Mechanical properties :
#
#
# Convention : Reuss Voigt Hill
#
# Bulk Modulus (GPa) = 15.85415 35.59248 25.72332
# Shear Modulus (GPa) = 16.78432 27.92630 22.35531
#
# Velocity S-wave (km/s) = 2.83383 3.65535 3.27049
# Velocity P-wave (km/s) = 4.27703 5.90296 5.15451
#
# Compressibility (1/GPa) = 0.06307498
#
# Stress axis : x y z
#
# Youngs Moduli (GPa) = 42.45952 92.17719 37.71729
#
# Poissons Ratio (x) = 0.48017 -0.29584
# Poissons Ratio (y) = 0.22118 0.05860
# Poissons Ratio (z) = -0.33304 0.14322
#
# Static dielectric constant tensor:
#      x y z
#    x 1.826600 -0.008260 0.021990 
#    y -0.008260 1.873730 -0.043660 
#    z 0.021990 -0.043660 1.798950 
# 
# From -- ./inp_files/37829.got.cif
#   From: 2010.05.17/outbox.cif.g08.bks.cpg/sg2_19_cif.got.tgz:37829.got - 2010.06.03 11:33:40.
