data_PCOD9100642
_publ_section_title
;
Structure prediction by ZEFSAII (Michael W. Deem and Ramdas Pophale) SiO2 
 PCOD9100642
Probable space group: P -1
;
_chemical_formula_sum "Si O2"
_cell_formula_units_Z 16
_cell_length_a 9.651252
_cell_length_b 14.345500
_cell_length_c 10.112448
_cell_angle_alpha 95.783964
_cell_angle_beta 37.619321
_cell_angle_gamma 87.740705
_cell_volume 833.728313
_symmetry_space_group_name_H-M "P -1"
_symmetry_group_IT_number 2
_symmetry_cell_setting 'triclinic'
loop_
_space_group_symop_operation_xyz
x,y,z
-x,-y,-z
loop_
_atom_site_type_symbol
_atom_site_label
_atom_site_fract_x
_atom_site_fract_y
_atom_site_fract_z
Si Si1 0.013795 0.531041 0.642588
Si Si2 0.258286 0.249624 0.488101
Si Si3 0.891446 0.004041 0.729147
Si Si4 0.645705 0.699110 0.882208
Si Si5 0.637070 0.966798 0.527674
Si Si6 0.544855 0.896204 0.067872
Si Si7 0.220846 0.627945 0.079732
Si Si8 0.471697 0.427458 0.396962
O O1 0.876540 0.638446 0.762975
O O2 0.878906 0.464532 0.819395
O O3 0.000000 0.500000 0.500000
O O4 0.281597 0.498514 0.465398
O O5 0.301639 0.263119 0.299789
O O6 0.360039 0.142976 0.446821
O O7 0.366430 0.332588 0.490577
O O8 0.982948 0.280502 0.727044
O O9 0.644941 0.074959 0.902138
O O10 0.089391 0.026519 0.679054
O O11 0.000000 0.000000 0.500000
O O12 0.796955 0.910823 0.831542
O O13 0.551670 0.785412 0.063798
O O14 0.446215 0.639029 0.995536
O O15 0.500000 0.000000 0.500000
O O16 0.527002 0.038073 0.740204
O O17 0.302110 0.613370 0.865256
O O18 0.500000 0.500000 0.500000
#
# Coordination Sequence:
#
# PCOD9100642 Si02
#       8
#     2   2   2   2   2   2   2   2
#     4  11  20  38  59  94 123 151 196 254 292 362
#     4  10  21  38  63  85 120 162 202 245 300 363
#     4   9  18  37  62  83 114 150 198 249 300 346
#     4  11  20  35  62  95 117 152 206 248 303 351
#     4  11  24  43  58  88 127 162 207 248 300 364
#     4  10  21  38  61  90 120 154 200 255 300 353
#     4  10  20  37  65  86 122 160 195 241 313 347
#     4  10  23  42  59  90 123 161 200 243 295 361
#
# _framework density 19.190905000000001
#
# number of rings (size 3 to 8) (size 9 to 14) (size 15 to 20)
#    0.000    1.750    3.750    3.375    0.000    4.500 
#    6.750    0.000    0.000    0.000    0.000    0.000 
#    0.000    0.000    0.000    0.000    0.000    0.000 
#
# Total GULP energy -89091.484170 kJ/mol
# GULP energy per Si atom -5568.217761 kJ/mol
# Density = 1.914723 g / cm^3
# Si number density = 19.190905 Si / 1000 Ang^3
#
#
#
# Elastic Constant Matrix: (Units=GPa)
#
#
# Indices 1 2 3 4 5 6 
#
# 1 105.6842 29.3243 26.0939 8.0863 0.9460 -3.7141
# 2 29.3243 82.1298 16.3393 24.5355 6.5027 -6.4129
# 3 26.0939 16.3393 79.1213 3.5464 -5.6787 5.5625
# 4 8.0863 24.5355 3.5464 33.8851 4.6865 -0.3788
# 5 0.9460 6.5027 -5.6787 4.6865 16.2687 4.7268
# 6 -3.7141 -6.4129 5.5625 -0.3788 4.7268 31.1671
#
#
#
# Elastic Compliance Matrix: (Units=1/GPa)
#
#
# Indices 1 2 3 4 5 6 
#
# 1 0.011191 -0.003221 -0.003195 0.000139 -0.000920 0.001382
# 2 -0.003221 0.018089 -0.002952 -0.011106 -0.006232 0.004675
# 3 -0.003195 -0.002952 0.015222 0.000135 0.008071 -0.004927
# 4 0.000139 -0.011106 0.000135 0.038371 -0.006323 -0.000868
# 5 -0.000920 -0.006232 0.008071 -0.006323 0.072700 -0.013935
# 6 0.001382 0.004675 -0.004927 -0.000868 -0.013935 0.036194
#
#
# Mechanical properties :
#
#
# Convention : Reuss Voigt Hill
#
# Bulk Modulus (GPa) = 38.80883 45.60561 42.20722
# Shear Modulus (GPa) = 22.82155 29.27603 26.04879
#
# Velocity S-wave (km/s) = 3.45220 3.91002 3.68822
# Velocity P-wave (km/s) = 6.01304 6.64832 6.33864
#
# Compressibility (1/GPa) = 0.02576733
#
# Stress axis : x y z
#
# Youngs Moduli (GPa) = 89.35851 55.28082 65.69545
#
# Poissons Ratio (x) = 0.17804 0.20990
# Poissons Ratio (y) = 0.28779 0.19391
# Poissons Ratio (z) = 0.28551 0.16317
#
# Static dielectric constant tensor:
#      x y z
#    x 1.649490 0.021200 -0.024940 
#    y 0.021200 1.663770 0.009320 
#    z -0.024940 0.009320 1.716000 
# 
# From -- ./inp_files/90031.got.cif
#   From: 2010.05.17/outbox.cif.g08.bks.cpg/sg2_46_cif.got.tgz:90031.got - 2010.06.03 11:33:40.
