data_PCOD9100581
_publ_section_title
;
Structure prediction by ZEFSAII (Michael W. Deem and Ramdas Pophale) SiO2 
 PCOD9100581
Probable space group: P -1
;
_chemical_formula_sum "Si O2"
_cell_formula_units_Z 14
_cell_length_a 10.402488
_cell_length_b 15.434308
_cell_length_c 14.662686
_cell_angle_alpha 28.393922
_cell_angle_beta 147.631353
_cell_angle_gamma 131.604319
_cell_volume 569.721574
_symmetry_space_group_name_H-M "P -1"
_symmetry_group_IT_number 2
_symmetry_cell_setting 'triclinic'
loop_
_space_group_symop_operation_xyz
x,y,z
-x,-y,-z
loop_
_atom_site_type_symbol
_atom_site_label
_atom_site_fract_x
_atom_site_fract_y
_atom_site_fract_z
Si Si1 0.172778 0.616661 0.453379
Si Si2 0.250988 0.907745 0.675723
Si Si3 0.376390 0.512838 0.014946
Si Si4 0.946130 0.040020 0.057127
Si Si5 0.583471 0.272506 0.763428
Si Si6 0.285351 0.258225 0.755419
Si Si7 0.143516 0.185137 0.203439
O O1 0.049143 0.832994 0.146341
O O2 0.000000 0.500000 0.500000
O O3 0.409743 0.582722 0.692790
O O4 0.237755 0.485543 0.522725
O O5 0.245609 0.729003 0.772971
O O6 0.486719 0.828207 0.957736
O O7 0.301620 0.063454 0.492900
O O8 0.000000 0.000000 0.500000
O O9 0.500000 0.500000 0.000000
O O10 0.192642 0.383003 0.028467
O O11 0.672193 0.162168 0.824300
O O12 0.934833 0.826261 0.266099
O O13 0.160047 0.068728 0.226648
O O14 0.500000 0.500000 0.500000
O O15 0.375895 0.207317 0.753998
O O16 0.852755 0.216475 0.028974
#
# Coordination Sequence:
#
# PCOD9100581 Si02
#       7
#     2   2   2   2   2   2   2
#     4  11  24  43  65  91 126 170 224 270 318 387
#     4  11  23  42  67  98 133 171 215 272 328 389
#     4  11  26  45  67  95 133 178 219 271 330 394
#     4  10  22  37  64  93 125 165 212 264 323 378
#     4  10  20  37  64  95 131 165 211 269 327 384
#     4  11  21  41  63  96 129 167 217 270 327 385
#     4  10  23  40  63  99 131 174 218 269 331 393
#
# _framework density 24.573407
#
# number of rings (size 3 to 8) (size 9 to 14) (size 15 to 20)
#    0.857    0.571    2.857    2.143    0.000    6.286 
#    0.000    0.000    0.000    0.000    0.000    0.000 
#    0.000    0.000    0.000    0.000    0.000    0.000 
#
# Total GULP energy -78164.761323 kJ/mol
# GULP energy per Si atom -5583.197237 kJ/mol
# Density = 2.451748 g / cm^3
# Si number density = 24.573407 Si / 1000 Ang^3
#
#
#
# Elastic Constant Matrix: (Units=GPa)
#
#
# Indices 1 2 3 4 5 6 
#
# 1 116.7877 19.5566 9.9137 -24.7202 -16.2368 20.7381
# 2 19.5566 103.1610 22.3523 -27.2779 1.0534 1.7603
# 3 9.9137 22.3523 88.2087 -35.7619 -3.6606 -5.8807
# 4 -24.7202 -27.2779 -35.7619 48.9514 -0.8975 4.8754
# 5 -16.2368 1.0534 -3.6606 -0.8975 38.4581 -9.9497
# 6 20.7381 1.7603 -5.8807 4.8754 -9.9497 23.0616
#
#
#
# Elastic Compliance Matrix: (Units=1/GPa)
#
#
# Indices 1 2 3 4 5 6 
#
# 1 0.012755 -0.000298 0.001435 0.008540 0.002696 -0.011724
# 2 -0.000298 0.011539 -0.000653 0.006032 -0.001007 -0.002489
# 3 0.001435 -0.000653 0.016585 0.012368 0.002913 0.001631
# 4 0.008540 0.006032 0.012368 0.038384 0.002391 -0.012070
# 5 0.002696 -0.001007 0.002913 0.002391 0.030342 0.010981
# 6 -0.011724 -0.002489 0.001631 -0.012070 0.010981 0.061800
#
#
# Mechanical properties :
#
#
# Convention : Reuss Voigt Hill
#
# Bulk Modulus (GPa) = 23.89664 45.75583 34.82623
# Shear Modulus (GPa) = 27.11704 39.18322 33.15013
#
# Velocity S-wave (km/s) = 3.32552 3.99750 3.67689
# Velocity P-wave (km/s) = 4.94885 6.32196 5.67707
#
# Compressibility (1/GPa) = 0.04184689
#
# Stress axis : x y z
#
# Youngs Moduli (GPa) = 78.40083 86.66009 60.29632
#
# Poissons Ratio (x) = 0.02584 -0.08651
# Poissons Ratio (y) = 0.02337 0.03936
# Poissons Ratio (z) = -0.11249 0.05656
#
# Static dielectric constant tensor:
#      x y z
#    x 2.148320 -0.054930 0.111360 
#    y -0.054930 1.964030 0.008970 
#    z 0.111360 0.008970 2.035890 
# 
# From -- ./inp_files/570306.got.cif
#   From: 2010.05.17/outbox.cif.g08.bks.cpg/sg2_286_cif.got.tgz:570306.got - 2010.06.03 11:33:40.
