data_PCOD9100143
_publ_section_title
;
Structure prediction by ZEFSAII (Michael W. Deem and Ramdas Pophale) SiO2 
 PCOD9100143
Probable space group: P -1
;
_chemical_formula_sum "Si O2"
_cell_formula_units_Z 16
_cell_length_a 19.225158
_cell_length_b 17.274312
_cell_length_c 10.901756
_cell_angle_alpha 137.378044
_cell_angle_beta 148.484453
_cell_angle_gamma 22.032203
_cell_volume 682.070669
_symmetry_space_group_name_H-M "P -1"
_symmetry_group_IT_number 2
_symmetry_cell_setting 'triclinic'
loop_
_space_group_symop_operation_xyz
x,y,z
-x,-y,-z
loop_
_atom_site_type_symbol
_atom_site_label
_atom_site_fract_x
_atom_site_fract_y
_atom_site_fract_z
Si Si1 0.631683 0.752393 0.607418
Si Si2 0.527804 0.342559 0.379048
Si Si3 0.025662 0.309753 0.001925
Si Si4 0.228001 0.910171 0.787759
Si Si5 0.260544 0.843799 0.280482
Si Si6 0.747273 0.788684 0.511276
Si Si7 0.139266 0.523515 0.594989
Si Si8 0.469253 0.476836 0.061580
O O1 0.421231 0.835209 0.462333
O O2 0.790139 0.548921 0.524318
O O3 0.465512 0.962381 0.522342
O O4 0.844605 0.690649 0.892805
O O5 0.500000 0.500000 0.500000
O O6 0.571436 0.250457 0.206964
O O7 0.753747 0.144196 0.579605
O O8 0.270843 0.482403 0.212916
O O9 0.139525 0.102226 0.905476
O O10 0.078151 0.306238 0.220051
O O11 0.331411 0.764693 0.889306
O O12 0.000000 0.000000 0.500000
O O13 0.449379 0.599233 0.260642
O O14 0.000000 0.000000 0.000000
O O15 0.690854 0.696348 0.339404
O O16 0.873448 0.697832 0.460547
O O17 0.208617 0.600311 0.823458
O O18 0.500000 0.500000 0.000000
#
# Coordination Sequence:
#
# PCOD9100143 Si02
#       8
#     2   2   2   2   2   2   2   2
#     4  11  23  42  65  99 141 180 227 281 351 401
#     4  12  26  48  69 103 137 183 236 281 347 417
#     4  11  24  43  71  99 139 184 230 284 341 418
#     4  12  25  44  72  99 138 183 233 281 343 416
#     4  12  28  46  69 101 141 180 230 295 346 411
#     4  10  21  38  65 101 134 177 229 278 339 407
#     4  10  20  37  62  97 135 174 224 279 333 406
#     4  12  23  38  66 101 134 175 226 278 343 402
#
# _framework density 23.457979000000002
#
# number of rings (size 3 to 8) (size 9 to 14) (size 15 to 20)
#    0.000    0.750    3.750    4.500    3.500    2.500 
#    0.000    0.625    0.000    0.000    0.000    0.000 
#    0.000    0.000    0.000    0.000    0.000    0.000 
#
# Total GULP energy -89266.614977 kJ/mol
# GULP energy per Si atom -5579.163436 kJ/mol
# Density = 2.340459 g / cm^3
# Si number density = 23.457979 Si / 1000 Ang^3
#
#
#
# Elastic Constant Matrix: (Units=GPa)
#
#
# Indices 1 2 3 4 5 6 
#
# 1 118.8715 29.4920 52.8094 -1.9840 15.0682 10.1472
# 2 29.4920 100.5994 32.4253 17.9844 4.7381 -3.7052
# 3 52.8094 32.4253 107.5664 2.3479 16.9594 14.8928
# 4 -1.9840 17.9844 2.3479 46.0923 1.7253 6.1493
# 5 15.0682 4.7381 16.9594 1.7253 49.0777 5.1218
# 6 10.1472 -3.7052 14.8928 6.1493 5.1218 42.0905
#
#
#
# Elastic Compliance Matrix: (Units=1/GPa)
#
#
# Indices 1 2 3 4 5 6 
#
# 1 0.011297 -0.002164 -0.004484 0.001806 -0.001628 -0.001393
# 2 -0.002164 0.012670 -0.003182 -0.005355 0.000364 0.003501
# 3 -0.004484 -0.003182 0.013362 0.000965 -0.002576 -0.003755
# 4 0.001806 -0.005355 0.000965 0.024473 -0.000737 -0.004734
# 5 -0.001628 0.000364 -0.002576 -0.000737 0.021884 -0.001219
# 6 -0.001393 0.003501 -0.003755 -0.004734 -0.001219 0.026571
#
#
# Mechanical properties :
#
#
# Convention : Reuss Voigt Hill
#
# Bulk Modulus (GPa) = 56.59625 61.83230 59.21428
# Shear Modulus (GPa) = 36.81768 41.60615 39.21192
#
# Velocity S-wave (km/s) = 3.96601 4.21604 4.09293
# Velocity P-wave (km/s) = 6.71948 7.07926 6.90171
#
# Compressibility (1/GPa) = 0.01766901
#
# Stress axis : x y z
#
# Youngs Moduli (GPa) = 88.52181 78.92893 74.84038
#
# Poissons Ratio (x) = 0.17081 0.33555
# Poissons Ratio (y) = 0.19157 0.23813
# Poissons Ratio (z) = 0.39689 0.25114
#
# Static dielectric constant tensor:
#      x y z
#    x 1.967370 -0.040360 -0.028840 
#    y -0.040360 1.832390 -0.076950 
#    z -0.028840 -0.076950 1.949410 
# 
# From -- ./inp_files/472439.got.cif
#   From: 2010.05.17/outbox.cif.g08.bks.cpg/sg2_237_cif.got.tgz:472439.got - 2010.06.03 11:33:40.
