data_PCOD9100824
_publ_section_title
;
Structure prediction by ZEFSAII (Michael W. Deem and Ramdas Pophale) SiO2 
 PCOD9100824
Probable space group: P -1
;
_chemical_formula_sum "Si O2"
_cell_formula_units_Z 14
_cell_length_a 15.211911
_cell_length_b 11.841627
_cell_length_c 6.986656
_cell_angle_alpha 75.273631
_cell_angle_beta 62.290642
_cell_angle_gamma 128.066696
_cell_volume 553.237791
_symmetry_space_group_name_H-M "P -1"
_symmetry_group_IT_number 2
_symmetry_cell_setting 'triclinic'
loop_
_space_group_symop_operation_xyz
x,y,z
-x,-y,-z
loop_
_atom_site_type_symbol
_atom_site_label
_atom_site_fract_x
_atom_site_fract_y
_atom_site_fract_z
Si Si1 0.374290 0.304840 0.489665
Si Si2 0.923498 0.593545 0.051764
Si Si3 0.899045 0.291251 0.802504
Si Si4 0.024272 0.821266 0.492647
Si Si5 0.512632 0.124603 0.800062
Si Si6 0.428831 0.267540 0.052818
Si Si7 0.782590 0.695594 0.078759
O O1 0.364909 0.205264 0.367159
O O2 0.553777 0.446399 0.380345
O O3 0.204450 0.176012 0.858765
O O4 0.433975 0.486058 0.244834
O O5 0.709917 0.324257 0.394568
O O6 0.883450 0.691380 0.090190
O O7 0.058625 0.665234 0.034164
O O8 0.009005 0.695012 0.710543
O O9 0.993068 0.262987 0.650584
O O10 0.000000 0.500000 0.500000
O O11 0.675897 0.059444 0.064628
O O12 0.231422 0.084248 0.214117
O O13 0.869728 0.759405 0.750248
O O14 0.514714 0.235304 0.898267
O O15 0.500000 0.000000 0.000000
#
# Coordination Sequence:
#
# PCOD9100824 Si02
#       7
#     2   2   2   2   2   2   2
#     4  10  20  37  66  88 129 167 212 268 317 381
#     4  10  22  44  63  92 132 165 210 269 315 378
#     4  11  23  40  67  92 124 172 214 263 319 372
#     4   9  23  41  59  92 129 163 214 266 306 393
#     4  11  22  41  67  93 128 168 214 265 317 384
#     4  10  21  38  62  95 121 170 218 259 320 382
#     4   9  21  39  57  92 123 168 204 267 317 375
#
# _framework density 25.305575000000001
#
# number of rings (size 3 to 8) (size 9 to 14) (size 15 to 20)
#    0.857    1.143    2.857    0.000    2.000    2.857 
#    2.571    0.714    0.000    0.000    0.000    0.000 
#    0.000    0.000    0.000    0.000    0.000    0.000 
#
# Total GULP energy -78208.657994 kJ/mol
# GULP energy per Si atom -5586.332714 kJ/mol
# Density = 2.524798 g / cm^3
# Si number density = 25.305575 Si / 1000 Ang^3
#
#
#
# Elastic Constant Matrix: (Units=GPa)
#
#
# Indices 1 2 3 4 5 6 
#
# 1 105.2213 26.6701 2.1078 1.2868 2.5189 4.5515
# 2 26.6701 100.3863 25.6160 11.2988 -5.8179 2.0067
# 3 2.1078 25.6160 64.1468 3.6862 -8.8256 -4.9839
# 4 1.2868 11.2988 3.6862 35.4199 -5.9279 0.7346
# 5 2.5189 -5.8179 -8.8256 -5.9279 33.9946 1.3831
# 6 4.5515 2.0067 -4.9839 0.7346 1.3831 39.7360
#
#
#
# Elastic Compliance Matrix: (Units=1/GPa)
#
#
# Indices 1 2 3 4 5 6 
#
# 1 0.010306 -0.002976 0.000618 0.000361 -0.001012 -0.000924
# 2 -0.002976 0.012349 -0.004629 -0.003231 0.000602 -0.000824
# 3 0.000618 -0.004629 0.018109 0.000157 0.003797 0.002299
# 4 0.000361 -0.003231 0.000157 0.030036 0.004722 -0.000578
# 5 -0.001012 0.000602 0.003797 0.004722 0.031429 -0.000619
# 6 -0.000924 -0.000824 0.002299 -0.000578 -0.000619 0.025634
#
#
# Mechanical properties :
#
#
# Convention : Reuss Voigt Hill
#
# Bulk Modulus (GPa) = 37.32829 42.06025 39.69427
# Shear Modulus (GPa) = 33.16368 36.18746 34.67557
#
# Velocity S-wave (km/s) = 3.62405 3.78566 3.70574
# Velocity P-wave (km/s) = 5.68284 5.98041 5.83352
#
# Compressibility (1/GPa) = 0.02678933
#
# Stress axis : x y z
#
# Youngs Moduli (GPa) = 97.03448 80.98113 55.21970
#
# Poissons Ratio (x) = 0.24104 -0.03414
# Poissons Ratio (y) = 0.28882 0.25561
# Poissons Ratio (z) = -0.05999 0.37485
#
# Static dielectric constant tensor:
#      x y z
#    x 2.087760 -0.064680 0.120960 
#    y -0.064680 2.029150 -0.011140 
#    z 0.120960 -0.011140 2.092080 
# 
# From -- ./inp_files/331016.got.cif
#   From: 2010.05.17/outbox.cif.g08.bks.cpg/sg2_166_cif.got.tgz:331016.got - 2010.06.03 11:33:40.
