data_PCOD9100885
_publ_section_title
;
Structure prediction by ZEFSAII (Michael W. Deem and Ramdas Pophale) SiO2 
 PCOD9100885
Probable space group: P -1
;
_chemical_formula_sum "Si O2"
_cell_formula_units_Z 14
_cell_length_a 11.634123
_cell_length_b 11.836058
_cell_length_c 12.718342
_cell_angle_alpha 90.235467
_cell_angle_beta 39.653755
_cell_angle_gamma 56.881817
_cell_volume 568.145335
_symmetry_space_group_name_H-M "P -1"
_symmetry_group_IT_number 2
_symmetry_cell_setting 'triclinic'
loop_
_space_group_symop_operation_xyz
x,y,z
-x,-y,-z
loop_
_atom_site_type_symbol
_atom_site_label
_atom_site_fract_x
_atom_site_fract_y
_atom_site_fract_z
Si Si1 0.782799 0.007929 0.775585
Si Si2 0.461152 0.851816 0.845813
Si Si3 0.217952 0.609615 0.054910
Si Si4 0.824343 0.609638 0.374259
Si Si5 0.864080 0.325871 0.303338
Si Si6 0.978428 0.163716 0.604034
Si Si7 0.046347 0.056064 0.867688
O O1 0.083320 0.776272 0.627562
O O2 0.741204 0.979426 0.688722
O O3 0.904107 0.071391 0.674936
O O4 0.456093 0.174366 0.088985
O O5 0.740206 0.682872 0.556821
O O6 0.193338 0.097376 0.004209
O O7 0.210213 0.875969 0.028345
O O8 0.973024 0.798666 0.320146
O O9 0.132188 0.524164 0.116137
O O10 0.619526 0.409056 0.807227
O O11 0.114142 0.732684 0.023962
O O12 0.885233 0.445389 0.314406
O O13 0.467664 0.832569 0.560066
O O14 0.500000 0.500000 0.500000
O O15 0.000000 0.000000 0.000000
#
# Coordination Sequence:
#
# PCOD9100885 Si02
#       7
#     2   2   2   2   2   2   2
#     4   9  20  40  62  89 122 170 222 256 304 383
#     4   9  20  38  64  92 126 163 214 248 319 385
#     4  11  23  40  63  96 126 166 219 261 321 381
#     4  11  22  38  64 101 131 159 206 273 328 363
#     4  10  20  37  66  96 126 168 214 255 319 386
#     4  10  22  41  63  85 129 176 214 262 314 377
#     4  10  20  37  69  90 124 164 207 261 318 384
#
# _framework density 24.641583000000001
#
# number of rings (size 3 to 8) (size 9 to 14) (size 15 to 20)
#    0.857    1.143    2.857    0.429    4.000    0.000 
#    5.143    4.286    0.000    6.000    0.000    0.000 
#    0.000    0.000    0.000    0.000    0.000    0.000 
#
# Total GULP energy -78140.852055 kJ/mol
# GULP energy per Si atom -5581.489432 kJ/mol
# Density = 2.458550 g / cm^3
# Si number density = 24.641583 Si / 1000 Ang^3
#
#
#
# Elastic Constant Matrix: (Units=GPa)
#
#
# Indices 1 2 3 4 5 6 
#
# 1 60.9245 42.5810 29.6007 -11.4323 9.5096 4.8387
# 2 42.5810 158.4506 35.8491 2.9221 17.0696 6.6843
# 3 29.6007 35.8491 58.9943 8.2110 5.4895 -1.3153
# 4 -11.4323 2.9221 8.2110 33.4918 -4.6538 2.9502
# 5 9.5096 17.0696 5.4895 -4.6538 32.3844 3.9954
# 6 4.8387 6.6843 -1.3153 2.9502 3.9954 42.3834
#
#
#
# Elastic Compliance Matrix: (Units=1/GPa)
#
#
# Indices 1 2 3 4 5 6 
#
# 1 0.029688 -0.004781 -0.013922 0.014126 -0.001324 -0.003926
# 2 -0.004781 0.008464 -0.002171 -0.002211 -0.002955 -0.000424
# 3 -0.013922 -0.002171 0.027115 -0.011749 -0.001513 0.003734
# 4 0.014126 -0.002211 -0.011749 0.038900 0.005195 -0.004826
# 5 -0.001324 -0.002955 -0.001513 0.005195 0.034200 -0.003015
# 6 -0.003926 -0.000424 0.003734 -0.004826 -0.003015 0.024845
#
#
# Mechanical properties :
#
#
# Convention : Reuss Voigt Hill
#
# Bulk Modulus (GPa) = 42.51739 54.93677 48.72708
# Shear Modulus (GPa) = 23.49622 33.00782 28.25202
#
# Velocity S-wave (km/s) = 3.09126 3.66391 3.38970
# Velocity P-wave (km/s) = 5.48023 6.34364 5.92768
#
# Compressibility (1/GPa) = 0.02351979
#
# Stress axis : x y z
#
# Youngs Moduli (GPa) = 33.68347 118.14573 36.88023
#
# Poissons Ratio (x) = 0.56483 0.51343
# Poissons Ratio (y) = 0.16103 0.08008
# Poissons Ratio (z) = 0.46893 0.25653
#
# Static dielectric constant tensor:
#      x y z
#    x 2.067000 -0.007340 0.054590 
#    y -0.007340 1.941270 0.002690 
#    z 0.054590 0.002690 2.018420 
# 
# From -- ./inp_files/531786.got.cif
#   From: 2010.05.17/outbox.cif.g08.bks.cpg/sg2_266_cif.got.tgz:531786.got - 2010.06.03 11:33:40.
