data_PCOD9100347
_publ_section_title
;
Structure prediction by ZEFSAII (Michael W. Deem and Ramdas Pophale) SiO2 
 PCOD9100347
Probable space group: P -1
;
_chemical_formula_sum "Si O2"
_cell_formula_units_Z 16
_cell_length_a 9.392498
_cell_length_b 5.092127
_cell_length_c 19.087395
_cell_angle_alpha 111.718884
_cell_angle_beta 44.771574
_cell_angle_gamma 103.882874
_cell_volume 596.940683
_symmetry_space_group_name_H-M "P -1"
_symmetry_group_IT_number 2
_symmetry_cell_setting 'triclinic'
loop_
_space_group_symop_operation_xyz
x,y,z
-x,-y,-z
loop_
_atom_site_type_symbol
_atom_site_label
_atom_site_fract_x
_atom_site_fract_y
_atom_site_fract_z
Si Si1 0.858751 0.771871 0.063418
Si Si2 0.279024 0.152012 0.140672
Si Si3 0.299890 0.928494 0.521800
Si Si4 0.230137 0.939595 0.390751
Si Si5 0.241063 0.500768 0.057679
Si Si6 0.143361 0.530936 0.645778
Si Si7 0.410506 0.346375 0.253778
Si Si8 0.221889 0.698827 0.781238
O O1 0.782408 0.960257 0.173724
O O2 0.701054 0.653774 0.050859
O O3 0.000000 0.500000 0.000000
O O4 0.000000 0.000000 0.000000
O O5 0.345034 0.346110 0.072353
O O6 0.419866 0.171975 0.161254
O O7 0.063160 0.289750 0.252794
O O8 0.248742 0.837038 0.092419
O O9 0.139076 0.192163 0.615684
O O10 0.500000 0.000000 0.500000
O O11 0.342849 0.921987 0.424229
O O12 0.224806 0.641383 0.554156
O O13 0.284150 0.633507 0.309866
O O14 0.296053 0.172399 0.336046
O O15 0.000000 0.000000 0.500000
O O16 0.001184 0.425862 0.143667
O O17 0.280525 0.613692 0.673183
O O18 0.625809 0.398537 0.219798
#
# Coordination Sequence:
#
# PCOD9100347 Si02
#       8
#     2   2   2   2   2   2   2   2
#     4  10  20  37  63  94 126 163 203 246 300 367
#     4  11  22  40  62  88 121 162 205 246 299 369
#     4  12  23  37  56  83 113 148 194 250 303 355
#     4  12  25  43  62  86 122 167 206 250 312 379
#     4  10  21  40  64  91 124 166 205 241 298 373
#     4  11  21  37  58  82 113 155 195 242 299 362
#     4  12  25  42  64  94 124 159 207 264 310 356
#     4  10  23  40  65  96 125 158 206 261 305 355
#
# _framework density 26.803332000000001
#
# number of rings (size 3 to 8) (size 9 to 14) (size 15 to 20)
#    0.000    1.000    0.000    9.000    0.000    5.000 
#    0.000    1.250    0.000    0.000    0.000    0.000 
#    0.000    0.000    0.000    0.000    0.000    0.000 
#
# Total GULP energy -89742.325785 kJ/mol
# GULP energy per Si atom -5608.895362 kJ/mol
# Density = 2.674233 g / cm^3
# Si number density = 26.803332 Si / 1000 Ang^3
#
#
#
# Elastic Constant Matrix: (Units=GPa)
#
#
# Indices 1 2 3 4 5 6 
#
# 1 141.2586 13.8164 19.4500 7.4644 17.3009 -2.4082
# 2 13.8164 138.5440 29.4194 12.7239 0.8673 -5.7638
# 3 19.4500 29.4194 84.0318 20.9985 1.0347 3.6368
# 4 7.4644 12.7239 20.9985 59.1202 -1.4931 5.4802
# 5 17.3009 0.8673 1.0347 -1.4931 66.4424 8.8542
# 6 -2.4082 -5.7638 3.6368 5.4802 8.8542 32.8308
#
#
#
# Elastic Compliance Matrix: (Units=1/GPa)
#
#
# Indices 1 2 3 4 5 6 
#
# 1 0.007639 -0.000313 -0.001560 -0.000522 -0.002152 0.001346
# 2 -0.000313 0.007959 -0.002556 -0.000947 -0.000255 0.001884
# 3 -0.001560 -0.002556 0.014260 -0.004167 0.000328 -0.001536
# 4 -0.000522 -0.000947 -0.004167 0.018988 0.001066 -0.003200
# 5 -0.002152 -0.000255 0.000328 0.001066 0.016274 -0.004806
# 6 0.001346 0.001884 -0.001536 -0.003200 -0.004806 0.032889
#
#
# Mechanical properties :
#
#
# Convention : Reuss Voigt Hill
#
# Bulk Modulus (GPa) = 47.61883 54.35622 50.98752
# Shear Modulus (GPa) = 43.91171 51.75526 47.83348
#
# Velocity S-wave (km/s) = 4.05197 4.39900 4.22905
# Velocity P-wave (km/s) = 6.30047 6.79156 6.55062
#
# Compressibility (1/GPa) = 0.02100010
#
# Stress axis : x y z
#
# Youngs Moduli (GPa) = 130.91308 125.64736 70.12744
#
# Poissons Ratio (x) = 0.03935 0.10937
# Poissons Ratio (y) = 0.04100 0.17923
# Poissons Ratio (z) = 0.20418 0.32112
#
# Static dielectric constant tensor:
#      x y z
#    x 1.524020 0.646020 -0.330110 
#    y 0.646020 1.411940 0.286020 
#    z -0.330110 0.286020 1.976040 
# 
# From -- ./inp_files/585832.got.cif
#   From: 2010.05.17/outbox.cif.g08.bks.cpg/sg2_293_cif.got.tgz:585832.got - 2010.06.03 11:33:40.
