data_PCOD9100515
_publ_section_title
;
Structure prediction by ZEFSAII (Michael W. Deem and Ramdas Pophale) SiO2 
 PCOD9100515
Probable space group: P -1
;
_chemical_formula_sum "Si O2"
_cell_formula_units_Z 16
_cell_length_a 9.878474
_cell_length_b 7.256148
_cell_length_c 11.249649
_cell_angle_alpha 72.168562
_cell_angle_beta 122.229821
_cell_angle_gamma 83.588300
_cell_volume 610.321743
_symmetry_space_group_name_H-M "P -1"
_symmetry_group_IT_number 2
_symmetry_cell_setting 'triclinic'
loop_
_space_group_symop_operation_xyz
x,y,z
-x,-y,-z
loop_
_atom_site_type_symbol
_atom_site_label
_atom_site_fract_x
_atom_site_fract_y
_atom_site_fract_z
Si Si1 0.717394 0.014639 0.975138
Si Si2 0.154577 0.886054 0.381725
Si Si3 0.077743 0.313321 0.391443
Si Si4 0.295498 0.685829 0.717597
Si Si5 0.779588 0.888193 0.272393
Si Si6 0.336126 0.560478 0.078108
Si Si7 0.379176 0.669077 0.320598
Si Si8 0.063924 0.388411 0.927015
O O1 0.686822 0.892118 0.101753
O O2 0.871433 0.855616 0.006444
O O3 0.764548 0.197095 0.027038
O O4 0.582412 0.159636 0.786346
O O5 0.284544 0.731153 0.564056
O O6 0.231062 0.820277 0.302063
O O7 0.971995 0.866729 0.327574
O O8 0.144145 0.111620 0.378574
O O9 0.185690 0.278816 0.570804
O O10 0.884466 0.334796 0.330882
O O11 0.057280 0.505199 0.259881
O O12 0.301642 0.892158 0.743786
O O13 0.469143 0.501938 0.856547
O O14 0.329757 0.535242 0.222127
O O15 0.242023 0.432365 0.990917
O O16 0.500000 0.500000 0.500000
O O17 0.000000 0.500000 0.000000
#
# Coordination Sequence:
#
# PCOD9100515 Si02
#       8
#     2   2   2   2   2   2   2   2
#     4  10  24  39  64  92 124 163 213 255 307 377
#     4   9  15  32  62  93 120 159 214 256 307 368
#     4   9  20  36  63  90 128 164 206 264 305 370
#     4   9  17  37  64  94 124 162 214 251 314 379
#     4   9  19  34  61  94 120 167 207 258 311 363
#     4  10  23  40  65  94 126 170 201 262 315 370
#     4  10  20  37  64  92 123 166 210 256 316 369
#     4  12  26  43  61  96 129 165 213 260 313 370
#
# _framework density 26.215679999999999
#
# number of rings (size 3 to 8) (size 9 to 14) (size 15 to 20)
#    0.750    1.500    1.250    3.750    1.750    3.500 
#    0.000    3.125    0.000    0.000    0.000    0.000 
#    0.000    0.000    0.000    0.000    0.000    0.000 
#
# Total GULP energy -89264.213597 kJ/mol
# GULP energy per Si atom -5579.013350 kJ/mol
# Density = 2.615601 g / cm^3
# Si number density = 26.215680 Si / 1000 Ang^3
#
#
#
# Elastic Constant Matrix: (Units=GPa)
#
#
# Indices 1 2 3 4 5 6 
#
# 1 71.5466 40.1614 46.8780 -2.0125 5.4081 -23.1764
# 2 40.1614 128.4041 57.7390 -7.9302 0.6541 -29.6378
# 3 46.8780 57.7390 246.5551 -5.4971 -32.9884 -14.2641
# 4 -2.0125 -7.9302 -5.4971 42.0023 -7.1152 -3.5861
# 5 5.4081 0.6541 -32.9884 -7.1152 26.0375 2.0421
# 6 -23.1764 -29.6378 -14.2641 -3.5861 2.0421 34.1344
#
#
#
# Elastic Compliance Matrix: (Units=1/GPa)
#
#
# Indices 1 2 3 4 5 6 
#
# 1 0.023352 -0.002231 -0.004841 -0.000927 -0.012163 0.012525
# 2 -0.002231 0.011368 -0.002076 0.002011 -0.002518 0.007850
# 3 -0.004841 -0.002076 0.006718 0.001763 0.010263 -0.002711
# 4 -0.000927 0.002011 0.001763 0.026286 0.009240 0.004062
# 5 -0.012163 -0.002518 0.010263 0.009240 0.057199 -0.008607
# 6 0.012525 0.007850 -0.002711 0.004062 -0.008607 0.044425
#
#
# Mechanical properties :
#
#
# Convention : Reuss Voigt Hill
#
# Bulk Modulus (GPa) = 43.21126 81.78473 62.49799
# Shear Modulus (GPa) = 25.59387 40.54999 33.07193
#
# Velocity S-wave (km/s) = 3.12794 3.93718 3.55566
# Velocity P-wave (km/s) = 5.43729 7.20647 6.38347
#
# Compressibility (1/GPa) = 0.02314212
#
# Stress axis : x y z
#
# Youngs Moduli (GPa) = 42.82318 87.96385 148.85101
#
# Poissons Ratio (x) = 0.19628 0.72056
# Poissons Ratio (y) = 0.09555 0.30901
# Poissons Ratio (z) = 0.20730 0.18261
#
# Static dielectric constant tensor:
#      x y z
#    x 2.107450 0.021460 -0.015130 
#    y 0.021460 1.995730 -0.029290 
#    z -0.015130 -0.029290 2.147950 
# 
# From -- ./inp_files/414529.got.cif
#   From: 2010.05.17/outbox.cif.g08.bks.cpg/sg2_208_cif.got.tgz:414529.got - 2010.06.03 11:33:40.
