data_PCOD9100663
_publ_section_title
;
Structure prediction by ZEFSAII (Michael W. Deem and Ramdas Pophale) SiO2 
 PCOD9100663
Probable space group: P -1
;
_chemical_formula_sum "Si O2"
_cell_formula_units_Z 15
_cell_length_a 16.208030
_cell_length_b 8.662639
_cell_length_c 8.887508
_cell_angle_alpha 119.790958
_cell_angle_beta 139.352416
_cell_angle_gamma 86.244721
_cell_volume 588.699690
_symmetry_space_group_name_H-M "P -1"
_symmetry_group_IT_number 2
_symmetry_cell_setting 'triclinic'
loop_
_space_group_symop_operation_xyz
x,y,z
-x,-y,-z
loop_
_atom_site_type_symbol
_atom_site_label
_atom_site_fract_x
_atom_site_fract_y
_atom_site_fract_z
Si Si1 0.169398 0.345675 0.257586
Si Si2 0.362826 0.136634 0.438941
Si Si3 0.083194 0.692733 0.947890
Si Si4 0.527491 0.246394 0.413104
Si Si5 0.300443 0.215850 0.866174
Si Si6 0.283105 0.803749 0.561858
Si Si7 0.500000 0.500000 0.000000
Si Si8 0.131222 0.356795 0.866931
O O1 0.286736 0.276043 0.399034
O O2 0.261037 0.602349 0.520611
O O3 0.101311 0.281836 0.963110
O O4 0.049281 0.267896 0.188421
O O5 0.433579 0.136945 0.378850
O O6 0.227295 0.896066 0.169510
O O7 0.489644 0.285274 0.808272
O O8 0.141217 0.697970 0.199600
O O9 0.040925 0.458362 0.726751
O O10 0.568140 0.112933 0.294977
O O11 0.693920 0.438687 0.785249
O O12 0.438317 0.322264 0.228346
O O13 0.271075 0.982655 0.708614
O O14 0.369191 0.342305 0.868726
O O15 0.152785 0.206191 0.715210
#
# Coordination Sequence:
#
# PCOD9100663 Si02
#       8
#     2   2   2   2   2   2   1   2
#     4  10  21  42  65  85 123 172 217 247 296 382
#     4  12  22  40  67  95 128 165 198 263 319 366
#     4  10  22  40  61  94 120 167 218 251 303 364
#     4  10  21  37  63  91 126 160 210 242 318 383
#     4  12  21  39  58  98 128 163 196 259 322 364
#     4  10  22  37  64  94 122 163 209 262 309 359
#     4  12  24  34  62  98 138 144 198 268 316 368
#     4  10  20  37  65  89 120 166 211 255 303 372
#
# _framework density 25.479886
#
# number of rings (size 3 to 8) (size 9 to 14) (size 15 to 20)
#    0.000    1.600    4.000    4.400    0.000    3.200 
#    0.000    2.667    0.000    1.600    0.000    0.000 
#    0.000    0.000    0.000    0.000    0.000    0.000 
#
# Total GULP energy -83558.182215 kJ/mol
# GULP energy per Si atom -5570.545481 kJ/mol
# Density = 2.542189 g / cm^3
# Si number density = 25.479886 Si / 1000 Ang^3
#
#
#
# Elastic Constant Matrix: (Units=GPa)
#
#
# Indices 1 2 3 4 5 6 
#
# 1 160.9853 22.6963 18.1302 9.1282 -7.1138 -6.5270
# 2 22.6963 72.1384 16.8566 17.1480 -6.2262 -15.9235
# 3 18.1302 16.8566 32.8426 16.6327 -3.1355 1.3967
# 4 9.1282 17.1480 16.6327 20.2152 -10.6168 -8.2991
# 5 -7.1138 -6.2262 -3.1355 -10.6168 33.3825 9.5233
# 6 -6.5270 -15.9235 1.3967 -8.2991 9.5233 56.5811
#
#
#
# Elastic Compliance Matrix: (Units=1/GPa)
#
#
# Indices 1 2 3 4 5 6 
#
# 1 0.006844 -0.001549 -0.004266 0.002759 0.001471 0.000616
# 2 -0.001549 0.018562 -0.002754 -0.012388 -0.002108 0.003651
# 3 -0.004266 -0.002754 0.062101 -0.056333 -0.010872 -0.009233
# 4 0.002759 -0.012388 -0.056333 0.125373 0.029539 0.011640
# 5 0.001471 -0.002108 -0.010872 0.029539 0.038927 -0.002375
# 6 0.000616 0.003651 -0.009233 0.011640 -0.002375 0.021107
#
#
# Mechanical properties :
#
#
# Convention : Reuss Voigt Hill
#
# Bulk Modulus (GPa) = 14.21112 42.37028 28.29070
# Shear Modulus (GPa) = 15.94847 35.92129 25.93488
#
# Velocity S-wave (km/s) = 2.50456 3.75879 3.19385
# Velocity P-wave (km/s) = 3.73541 5.95844 4.97274
#
# Compressibility (1/GPa) = 0.07036744
#
# Stress axis : x y z
#
# Youngs Moduli (GPa) = 146.11013 53.87322 16.10275
#
# Poissons Ratio (x) = 0.08347 0.06870
# Poissons Ratio (y) = 0.22639 0.04435
# Poissons Ratio (z) = 0.62332 0.14839
#
# Static dielectric constant tensor:
#      x y z
#    x 2.082080 -0.085120 -0.037420 
#    y -0.085120 2.017690 0.191790 
#    z -0.037420 0.191790 1.523010 
# 
# From -- ./inp_files/296522.got.cif
#   From: 2010.05.17/outbox.cif.g08.bks.cpg/sg2_149_cif.got.tgz:296522.got - 2010.06.03 11:33:40.
