data_PCOD9100355
_publ_section_title
;
Structure prediction by ZEFSAII (Michael W. Deem and Ramdas Pophale) SiO2 
 PCOD9100355
Probable space group: P -1
;
_chemical_formula_sum "Si O2"
_cell_formula_units_Z 16
_cell_length_a 8.271037
_cell_length_b 7.465301
_cell_length_c 19.320475
_cell_angle_alpha 128.478798
_cell_angle_beta 54.344234
_cell_angle_gamma 93.416254
_cell_volume 667.121613
_symmetry_space_group_name_H-M "P -1"
_symmetry_group_IT_number 2
_symmetry_cell_setting 'triclinic'
loop_
_space_group_symop_operation_xyz
x,y,z
-x,-y,-z
loop_
_atom_site_type_symbol
_atom_site_label
_atom_site_fract_x
_atom_site_fract_y
_atom_site_fract_z
Si Si1 0.768612 0.728446 0.057646
Si Si2 0.492625 0.788308 0.000406
Si Si3 0.528468 0.312415 0.384466
Si Si4 0.018634 0.837879 0.173080
Si Si5 0.833485 0.707127 0.310796
Si Si6 0.520417 0.387577 0.791963
Si Si7 0.259195 0.724783 0.810465
Si Si8 0.670185 0.967297 0.556358
O O1 0.604300 0.747327 0.166692
O O2 0.625009 0.760319 0.031139
O O3 0.955619 0.425069 0.932450
O O4 0.830870 0.963962 0.093943
O O5 0.587298 0.530265 0.867877
O O6 0.238335 0.857055 0.101824
O O7 0.500000 0.000000 0.000000
O O8 0.500000 0.500000 0.500000
O O9 0.527562 0.399216 0.326894
O O10 0.350093 0.217260 0.425142
O O11 0.787958 0.087476 0.271003
O O12 0.987753 0.794289 0.250333
O O13 0.891843 0.407278 0.210512
O O14 0.817665 0.794484 0.414694
O O15 0.583042 0.869005 0.375932
O O16 0.345393 0.613653 0.838628
O O17 0.702763 0.178793 0.643667
#
# Coordination Sequence:
#
# PCOD9100355 Si02
#       8
#     2   2   2   2   2   2   2   2
#     4  11  23  43  65  90 132 176 224 273 319 384
#     4  11  23  46  69  90 125 178 229 277 327 378
#     4  11  21  39  62  99 139 174 211 262 331 399
#     4  10  24  40  63  97 133 176 218 270 328 396
#     4   9  19  35  56  93 129 168 209 257 327 398
#     4  10  20  37  63  95 121 174 220 269 324 382
#     4  11  21  36  63  98 130 178 210 264 327 398
#     4   9  17  34  58  86 130 171 202 256 326 386
#
# _framework density 23.983636000000001
#
# number of rings (size 3 to 8) (size 9 to 14) (size 15 to 20)
#    0.000    1.750    3.750    1.500    1.750    2.000 
#    4.500    0.000    0.000    6.000    0.000    0.000 
#    0.000    0.000    0.000    0.000    0.000    0.000 
#
# Total GULP energy -89408.046851 kJ/mol
# GULP energy per Si atom -5588.002928 kJ/mol
# Density = 2.392905 g / cm^3
# Si number density = 23.983636 Si / 1000 Ang^3
#
#
#
# Elastic Constant Matrix: (Units=GPa)
#
#
# Indices 1 2 3 4 5 6 
#
# 1 70.3517 31.7478 53.8350 -1.3089 15.0965 6.7038
# 2 31.7478 153.1022 43.6153 -18.7403 5.3170 13.9081
# 3 53.8350 43.6153 147.5616 -10.7858 30.5944 0.8422
# 4 -1.3089 -18.7403 -10.7858 54.3312 -0.6008 8.1469
# 5 15.0965 5.3170 30.5944 -0.6008 21.4869 2.8407
# 6 6.7038 13.9081 0.8422 8.1469 2.8407 30.0240
#
#
#
# Elastic Compliance Matrix: (Units=1/GPa)
#
#
# Indices 1 2 3 4 5 6 
#
# 1 0.021299 -0.002429 -0.005975 -0.001179 -0.005543 -0.002619
# 2 -0.002429 0.008256 -0.001945 0.003091 0.003096 -0.004359
# 3 -0.005975 -0.001945 0.012337 0.001060 -0.013234 0.002854
# 4 -0.001179 0.003091 0.001060 0.020676 0.000033 -0.006812
# 5 -0.005543 0.003096 -0.013234 0.000033 0.069359 -0.006397
# 6 -0.002619 -0.004359 0.002854 -0.006812 -0.006397 0.038284
#
#
# Mechanical properties :
#
#
# Convention : Reuss Voigt Hill
#
# Bulk Modulus (GPa) = 47.18143 69.93462 58.55803
# Shear Modulus (GPa) = 25.25593 37.28960 31.27276
#
# Velocity S-wave (km/s) = 3.24859 3.94736 3.61490
# Velocity P-wave (km/s) = 5.81259 7.07094 6.47242
#
# Compressibility (1/GPa) = 0.02119478
#
# Stress axis : x y z
#
# Youngs Moduli (GPa) = 46.94962 121.12055 81.05914
#
# Poissons Ratio (x) = 0.29415 0.48431
# Poissons Ratio (y) = 0.11402 0.15769
# Poissons Ratio (z) = 0.28051 0.23563
#
# Static dielectric constant tensor:
#      x y z
#    x 1.931810 -0.020600 0.044350 
#    y -0.020600 2.009370 0.017290 
#    z 0.044350 0.017290 1.981270 
# 
# From -- ./inp_files/556492.got.cif
#   From: 2010.05.17/outbox.cif.g08.bks.cpg/sg2_279_cif.got.tgz:556492.got - 2010.06.03 11:33:40.
