data_PCOD9100516
_publ_section_title
;
Structure prediction by ZEFSAII (Michael W. Deem and Ramdas Pophale) SiO2 
 PCOD9100516
Probable space group: P -1
;
_chemical_formula_sum "Si O2"
_cell_formula_units_Z 12
_cell_length_a 7.149246
_cell_length_b 12.908819
_cell_length_c 6.880168
_cell_angle_alpha 134.462254
_cell_angle_beta 95.100639
_cell_angle_gamma 98.934139
_cell_volume 429.722944
_symmetry_space_group_name_H-M "P -1"
_symmetry_group_IT_number 2
_symmetry_cell_setting 'triclinic'
loop_
_space_group_symop_operation_xyz
x,y,z
-x,-y,-z
loop_
_atom_site_type_symbol
_atom_site_label
_atom_site_fract_x
_atom_site_fract_y
_atom_site_fract_z
Si Si1 0.847457 0.284626 0.266364
Si Si2 0.218011 0.481677 0.736117
Si Si3 0.376758 0.020198 0.827603
Si Si4 0.626029 0.298414 0.639887
Si Si5 0.027666 0.104757 0.829867
Si Si6 0.388008 0.307041 0.965162
O O1 0.851875 0.401275 0.249081
O O2 0.684881 0.302561 0.427211
O O3 0.052639 0.326802 0.465933
O O4 0.843379 0.129584 0.952042
O O5 0.234785 0.549876 0.044206
O O6 0.451937 0.529389 0.763332
O O7 0.167879 0.041166 0.895219
O O8 0.452728 0.170157 0.895770
O O9 0.337080 0.860260 0.502575
O O10 0.500000 0.000000 0.000000
O O11 0.415469 0.285377 0.707200
O O12 0.170882 0.269444 0.980308
O O13 0.000000 0.000000 0.500000
#
# Coordination Sequence:
#
# PCOD9100516 Si02
#       6
#     2   2   2   2   2   2
#     4  11  21  38  67  92 127 164 217 263 313 373
#     4   9  21  39  63  92 126 172 211 253 318 389
#     4  10  20  37  64  92 123 171 212 252 323 386
#     4  10  20  37  65  90 123 168 217 252 314 390
#     4  10  23  40  63  99 131 161 210 274 319 359
#     4   8  21  38  61  90 126 169 203 258 316 378
#
# _framework density 27.924968
#
# number of rings (size 3 to 8) (size 9 to 14) (size 15 to 20)
#    2.000    0.333    0.000    3.000    0.000    2.667 
#    0.000    1.667    0.000    3.000    0.000    0.000 
#    0.000    0.000    0.000    0.167    0.000    0.000 
#
# Total GULP energy -66889.333237 kJ/mol
# GULP energy per Si atom -5574.111103 kJ/mol
# Density = 2.786141 g / cm^3
# Si number density = 27.924968 Si / 1000 Ang^3
#
#
#
# Elastic Constant Matrix: (Units=GPa)
#
#
# Indices 1 2 3 4 5 6 
#
# 1 109.1542 19.2750 44.6515 -21.9053 -25.1800 5.6650
# 2 19.2750 110.3079 23.6495 -12.6794 -10.4000 -3.9492
# 3 44.6515 23.6495 137.7880 -18.2846 -29.7872 -10.3968
# 4 -21.9053 -12.6794 -18.2846 48.8193 8.9585 6.4587
# 5 -25.1800 -10.4000 -29.7872 8.9585 52.7830 -5.5896
# 6 5.6650 -3.9492 -10.3968 6.4587 -5.5896 31.0575
#
#
#
# Elastic Compliance Matrix: (Units=1/GPa)
#
#
# Indices 1 2 3 4 5 6 
#
# 1 0.012188 -0.000893 -0.002895 0.004097 0.002925 -0.003631
# 2 -0.000893 0.009703 -0.000935 0.001501 0.000801 0.000916
# 3 -0.002895 -0.000935 0.009691 0.000749 0.004228 0.004258
# 4 0.004097 0.001501 0.000749 0.024115 -0.002022 -0.005685
# 5 0.002925 0.000801 0.004228 -0.002022 0.023831 0.005693
# 6 -0.003631 0.000916 0.004258 -0.005685 0.005693 0.036609
#
#
# Mechanical properties :
#
#
# Convention : Reuss Voigt Hill
#
# Bulk Modulus (GPa) = 45.17095 59.15578 52.16337
# Shear Modulus (GPa) = 37.60529 44.51024 41.05777
#
# Velocity S-wave (km/s) = 3.67366 3.99673 3.83859
# Velocity P-wave (km/s) = 5.84853 6.52137 6.19409
#
# Compressibility (1/GPa) = 0.02213812
#
# Stress axis : x y z
#
# Youngs Moduli (GPa) = 82.04521 103.06382 103.19329
#
# Poissons Ratio (x) = 0.09199 0.29870
# Poissons Ratio (y) = 0.07323 0.09646
# Poissons Ratio (z) = 0.23748 0.09634
#
# Static dielectric constant tensor:
#      x y z
#    x 2.239880 0.051480 0.135380 
#    y 0.051480 2.248170 0.076610 
#    z 0.135380 0.076610 2.188790 
# 
# From -- ./inp_files/46096.got.cif
#   From: 2010.05.17/outbox.cif.g08.bks.cpg/sg2_24_cif.got.tgz:46096.got - 2010.06.03 11:33:40.
