data_PCOD9100383
_publ_section_title
;
Structure prediction by ZEFSAII (Michael W. Deem and Ramdas Pophale) SiO2 
 PCOD9100383
Probable space group: P -1
;
_chemical_formula_sum "Si O2"
_cell_formula_units_Z 14
_cell_length_a 11.740594
_cell_length_b 6.752578
_cell_length_c 10.807599
_cell_angle_alpha 102.802008
_cell_angle_beta 51.023199
_cell_angle_gamma 123.810826
_cell_volume 542.391633
_symmetry_space_group_name_H-M "P -1"
_symmetry_group_IT_number 2
_symmetry_cell_setting 'triclinic'
loop_
_space_group_symop_operation_xyz
x,y,z
-x,-y,-z
loop_
_atom_site_type_symbol
_atom_site_label
_atom_site_fract_x
_atom_site_fract_y
_atom_site_fract_z
Si Si1 0.325870 0.591193 0.015024
Si Si2 0.160129 0.921833 0.474245
Si Si3 0.944550 0.135079 0.741927
Si Si4 0.600689 0.843717 0.352217
Si Si5 0.915665 0.353347 0.288251
Si Si6 0.581479 0.811158 0.085000
Si Si7 0.549798 0.330192 0.317894
O O1 0.402981 0.421737 0.941335
O O2 0.357661 0.696653 0.868643
O O3 0.434694 0.765445 0.079901
O O4 0.118842 0.443427 0.154861
O O5 0.114876 0.850883 0.354136
O O6 0.148960 0.712345 0.535092
O O7 0.346732 0.173781 0.392049
O O8 0.028279 0.979871 0.639088
O O9 0.080431 0.412188 0.729671
O O10 0.774623 0.006411 0.926497
O O11 0.535861 0.843071 0.259207
O O12 0.621580 0.614534 0.318562
O O13 0.468621 0.783780 0.549020
O O14 0.788205 0.096387 0.273283
#
# Coordination Sequence:
#
# PCOD9100383 Si02
#       7
#     2   2   2   2   2   2   2
#     4  10  20  38  67  93 127 165 221 262 314 375
#     4  10  21  41  63  94 124 170 213 270 306 383
#     4  11  22  38  67  94 129 165 216 265 322 369
#     4   9  21  38  64  93 133 165 215 256 323 385
#     4  11  23  40  65  96 128 169 212 263 318 389
#     4  10  20  37  63  97 126 169 211 266 315 377
#     4   9  18  39  65  89 126 178 209 258 322 381
#
# _framework density 25.811606000000001
#
# number of rings (size 3 to 8) (size 9 to 14) (size 15 to 20)
#    0.000    2.000    2.857    0.429    0.000    3.429 
#    2.571    0.714    6.286    0.000    0.000    0.000 
#    0.000    0.000    0.000    0.000    0.000    0.000 
#
# Total GULP energy -78362.650802 kJ/mol
# GULP energy per Si atom -5597.332200 kJ/mol
# Density = 2.575286 g / cm^3
# Si number density = 25.811606 Si / 1000 Ang^3
#
#
#
# Elastic Constant Matrix: (Units=GPa)
#
#
# Indices 1 2 3 4 5 6 
#
# 1 82.7480 45.7427 69.2375 -7.3996 9.8692 2.0394
# 2 45.7427 135.0494 69.6561 -17.4889 23.6241 17.9795
# 3 69.2375 69.6561 193.6591 -8.0927 24.3427 14.3927
# 4 -7.3996 -17.4889 -8.0927 43.8067 -1.3786 0.9713
# 5 9.8692 23.6241 24.3427 -1.3786 55.0566 -5.4608
# 6 2.0394 17.9795 14.3927 0.9713 -5.4608 38.6023
#
#
#
# Elastic Compliance Matrix: (Units=1/GPa)
#
#
# Indices 1 2 3 4 5 6 
#
# 1 0.018877 -0.004035 -0.005658 0.000500 0.001174 0.003145
# 2 -0.004035 0.011452 -0.001658 0.003576 -0.003878 -0.005141
# 3 -0.005658 -0.001658 0.008217 -0.000116 -0.002138 -0.002292
# 4 0.000500 0.003576 -0.000116 0.024334 -0.001205 -0.002432
# 5 0.001174 -0.003878 -0.002138 -0.001205 0.021083 0.005554
# 6 0.003145 -0.005141 -0.002292 -0.002432 0.005554 0.029835
#
#
# Mechanical properties :
#
#
# Convention : Reuss Voigt Hill
#
# Bulk Modulus (GPa) = 63.11008 86.74769 74.92889
# Shear Modulus (GPa) = 35.26568 42.61448 38.94008
#
# Velocity S-wave (km/s) = 3.70032 4.06763 3.88832
# Velocity P-wave (km/s) = 6.53910 7.46605 7.01790
#
# Compressibility (1/GPa) = 0.01584533
#
# Stress axis : x y z
#
# Youngs Moduli (GPa) = 52.97557 87.31825 121.69846
#
# Poissons Ratio (x) = 0.35230 0.68856
# Poissons Ratio (y) = 0.21374 0.20174
# Poissons Ratio (z) = 0.29973 0.14474
#
# Static dielectric constant tensor:
#      x y z
#    x 2.052040 -0.049930 0.029000 
#    y -0.049930 2.103050 0.043820 
#    z 0.029000 0.043820 1.959800 
# 
# From -- ./inp_files/447797.got.cif
#   From: 2010.05.17/outbox.cif.g08.bks.cpg/sg2_224_cif.got.tgz:447797.got - 2010.06.03 11:33:40.
