data_PCOD9100358
_publ_section_title
;
Structure prediction by ZEFSAII (Michael W. Deem and Ramdas Pophale) SiO2 
 PCOD9100358
Probable space group: P -1
;
_chemical_formula_sum "Si O2"
_cell_formula_units_Z 16
_cell_length_a 13.861107
_cell_length_b 11.223159
_cell_length_c 20.035387
_cell_angle_alpha 146.601609
_cell_angle_beta 154.825609
_cell_angle_gamma 30.630932
_cell_volume 652.466275
_symmetry_space_group_name_H-M "P -1"
_symmetry_group_IT_number 2
_symmetry_cell_setting 'triclinic'
loop_
_space_group_symop_operation_xyz
x,y,z
-x,-y,-z
loop_
_atom_site_type_symbol
_atom_site_label
_atom_site_fract_x
_atom_site_fract_y
_atom_site_fract_z
Si Si1 0.238172 0.908800 0.059921
Si Si2 0.295211 0.234683 0.612825
Si Si3 0.615868 0.216584 0.678196
Si Si4 0.155666 0.746477 0.803980
Si Si5 0.628758 0.256166 0.557309
Si Si6 0.210519 0.380293 0.017819
Si Si7 0.585458 0.903469 0.106828
Si Si8 0.419101 0.240883 0.273796
O O1 0.487188 0.823196 0.220999
O O2 0.217020 0.134623 0.106623
O O3 0.219665 0.715754 0.908348
O O4 0.000000 0.000000 0.000000
O O5 0.439300 0.190666 0.611783
O O6 0.129078 0.519061 0.651399
O O7 0.185768 0.037264 0.462025
O O8 0.500179 0.280229 0.560703
O O9 0.674552 0.435689 0.838143
O O10 0.891933 0.985209 0.741428
O O11 0.395118 0.780940 0.941550
O O12 0.488772 0.272915 0.407928
O O13 0.667635 0.498415 0.692137
O O14 0.184783 0.273027 0.878845
O O15 0.000000 0.500000 0.000000
O O16 0.420508 0.145115 0.075577
O O17 0.629362 0.018469 0.257249
#
# Coordination Sequence:
#
# PCOD9100358 Si02
#       8
#     2   2   2   2   2   2   2   2
#     4  10  20  39  66  98 126 161 209 263 329 379
#     4  11  23  41  63  91 127 171 210 263 315 376
#     4  12  22  38  63  94 128 167 211 260 320 383
#     4  11  22  37  62  96 127 161 209 267 321 376
#     4  10  22  41  63  89 127 178 219 253 312 379
#     4  11  21  35  61  97 130 157 202 268 326 378
#     4  10  20  37  63  95 122 162 208 261 328 373
#     4   9  20  40  69  91 124 174 215 261 313 380
#
# _framework density 24.522341000000001
#
# number of rings (size 3 to 8) (size 9 to 14) (size 15 to 20)
#    0.000    1.500    5.000    0.750    0.000    0.500 
#    0.000    0.000    0.000    1.500    0.000    0.000 
#    0.000    0.000    0.000    0.000    0.000    0.000 
#
# Total GULP energy -89209.051728 kJ/mol
# GULP energy per Si atom -5575.565733 kJ/mol
# Density = 2.446653 g / cm^3
# Si number density = 24.522341 Si / 1000 Ang^3
#
#
#
# Elastic Constant Matrix: (Units=GPa)
#
#
# Indices 1 2 3 4 5 6 
#
# 1 143.8943 62.2535 59.6335 20.0474 -25.7697 -4.6955
# 2 62.2535 77.2539 31.8731 42.2447 -3.1780 -7.9061
# 3 59.6335 31.8731 115.4077 27.2223 -39.2239 -5.1062
# 4 20.0474 42.2447 27.2223 54.5059 12.3995 -1.9849
# 5 -25.7697 -3.1780 -39.2239 12.3995 50.8704 9.7594
# 6 -4.6955 -7.9061 -5.1062 -1.9849 9.7594 40.3508
#
#
#
# Elastic Compliance Matrix: (Units=1/GPa)
#
#
# Indices 1 2 3 4 5 6 
#
# 1 0.013835 -0.013295 -0.005084 0.007545 0.000694 -0.001435
# 2 -0.013295 0.037317 0.005217 -0.027798 0.005688 0.003682
# 3 -0.005084 0.005217 0.019091 -0.015563 0.016637 -0.001943
# 4 0.007545 -0.027798 -0.015563 0.050025 -0.022364 0.001332
# 5 0.000694 0.005688 0.016637 -0.022364 0.040081 -0.007494
# 6 -0.001435 0.003682 -0.001943 0.001332 -0.007494 0.026969
#
#
# Mechanical properties :
#
#
# Convention : Reuss Voigt Hill
#
# Bulk Modulus (GPa) = 22.77012 71.56401 47.16706
# Shear Modulus (GPa) = 21.90280 41.33181 31.61731
#
# Velocity S-wave (km/s) = 2.99185 4.10991 3.59461
# Velocity P-wave (km/s) = 4.60874 7.19502 6.04189
#
# Compressibility (1/GPa) = 0.04391721
#
# Stress axis : x y z
#
# Youngs Moduli (GPa) = 72.28240 26.79760 52.38126
#
# Poissons Ratio (x) = 0.35627 0.26632
# Poissons Ratio (y) = 0.96098 -0.27325
# Poissons Ratio (z) = 0.36751 -0.13979
#
# Static dielectric constant tensor:
#      x y z
#    x 1.999180 0.003320 -0.043310 
#    y 0.003320 1.978540 0.050080 
#    z -0.043310 0.050080 2.012240 
# 
# From -- ./inp_files/597889.got.cif
#   From: 2010.05.17/outbox.cif.g08.bks.cpg/sg2_299_cif.got.tgz:597889.got - 2010.06.03 11:33:40.
