data_PCOD9100480
_publ_section_title
;
Structure prediction by ZEFSAII (Michael W. Deem and Ramdas Pophale) SiO2 
 PCOD9100480
Probable space group: P -1
;
_chemical_formula_sum "Si O2"
_cell_formula_units_Z 14
_cell_length_a 8.159732
_cell_length_b 7.341038
_cell_length_c 10.123083
_cell_angle_alpha 105.338289
_cell_angle_beta 96.844800
_cell_angle_gamma 112.944257
_cell_volume 521.373949
_symmetry_space_group_name_H-M "P -1"
_symmetry_group_IT_number 2
_symmetry_cell_setting 'triclinic'
loop_
_space_group_symop_operation_xyz
x,y,z
-x,-y,-z
loop_
_atom_site_type_symbol
_atom_site_label
_atom_site_fract_x
_atom_site_fract_y
_atom_site_fract_z
Si Si1 0.257342 0.333014 0.319838
Si Si2 0.857080 0.421171 0.089690
Si Si3 0.353088 0.130514 0.508788
Si Si4 0.435649 0.977080 0.718748
Si Si5 0.127038 0.954626 0.847089
Si Si6 0.452113 0.244103 0.092091
Si Si7 0.923158 0.366159 0.602771
O O1 0.293605 0.296232 0.468960
O O2 0.409906 0.360239 0.232182
O O3 0.201315 0.520792 0.338666
O O4 0.081087 0.109449 0.222577
O O5 0.877116 0.208476 0.076305
O O6 0.641211 0.363390 0.052839
O O7 0.926194 0.569987 0.254205
O O8 0.000000 0.500000 0.000000
O O9 0.444387 0.172474 0.669997
O O10 0.493897 0.127724 0.408515
O O11 0.188823 0.889355 0.453248
O O12 0.225166 0.890095 0.726210
O O13 0.526508 0.943173 0.855297
O O14 0.279142 0.171133 0.961493
O O15 0.000000 0.500000 0.500000
#
# Coordination Sequence:
#
# PCOD9100480 Si02
#       7
#     2   2   2   2   2   2   2
#     4  10  23  41  66  98 127 167 223 271 316 394
#     4  10  22  37  64  97 132 171 221 267 324 397
#     4  10  21  40  67  90 129 167 221 266 323 387
#     4   9  19  36  62  96 118 169 223 259 317 398
#     4  10  20  37  64  90 130 175 214 261 334 379
#     4  10  20  39  64  90 134 172 215 270 326 383
#     4  11  24  42  65  92 133 174 213 270 336 378
#
# _framework density 26.852129000000001
#
# number of rings (size 3 to 8) (size 9 to 14) (size 15 to 20)
#    0.000    2.000    0.000    4.714    6.000    2.286 
#    0.000   15.714    0.000    0.000    0.000    0.000 
#    0.000    0.000    0.000    0.000    0.000    0.000 
#
# Total GULP energy -78009.798812 kJ/mol
# GULP energy per Si atom -5572.128487 kJ/mol
# Density = 2.679101 g / cm^3
# Si number density = 26.852129 Si / 1000 Ang^3
#
#
#
# Elastic Constant Matrix: (Units=GPa)
#
#
# Indices 1 2 3 4 5 6 
#
# 1 79.6146 34.9004 27.8144 -13.2904 -11.5540 26.6490
# 2 34.9004 118.2400 48.2615 0.3061 -6.0958 23.9272
# 3 27.8144 48.2615 115.6107 -11.2211 -3.4928 37.4583
# 4 -13.2904 0.3061 -11.2211 39.5033 19.7163 -9.8889
# 5 -11.5540 -6.0958 -3.4928 19.7163 35.5533 -14.4866
# 6 26.6490 23.9272 37.4583 -9.8889 -14.4866 42.6203
#
#
#
# Elastic Compliance Matrix: (Units=1/GPa)
#
#
# Indices 1 2 3 4 5 6 
#
# 1 0.017469 -0.003678 0.000501 0.004290 -0.000774 -0.008566
# 2 -0.003678 0.011423 -0.003913 -0.003685 0.002088 -0.000819
# 3 0.000501 -0.003913 0.014205 0.004480 -0.006376 -0.011729
# 4 0.004290 -0.003685 0.004480 0.037779 -0.020929 -0.002899
# 5 -0.000774 0.002088 -0.006376 -0.020929 0.045545 0.015540
# 6 -0.008566 -0.000819 -0.011729 -0.002899 0.015540 0.044196
#
#
# Mechanical properties :
#
#
# Convention : Reuss Voigt Hill
#
# Bulk Modulus (GPa) = 34.58182 59.49088 47.03635
# Shear Modulus (GPa) = 25.71533 37.03466 31.37499
#
# Velocity S-wave (km/s) = 3.09797 3.71780 3.42195
# Velocity P-wave (km/s) = 5.06983 6.37436 5.75915
#
# Compressibility (1/GPa) = 0.02891693
#
# Stress axis : x y z
#
# Youngs Moduli (GPa) = 57.24441 87.54151 70.39819
#
# Poissons Ratio (x) = 0.32201 -0.03527
# Poissons Ratio (y) = 0.21057 0.27545
# Poissons Ratio (z) = -0.02868 0.34252
#
# Static dielectric constant tensor:
#      x y z
#    x 2.229100 0.095140 0.116420 
#    y 0.095140 2.218910 0.060110 
#    z 0.116420 0.060110 2.293710 
# 
# From -- ./inp_files/376679.got.cif
#   From: 2010.05.17/outbox.cif.g08.bks.cpg/sg2_189_cif.got.tgz:376679.got - 2010.06.03 11:33:40.
