data_PCOD9100531
_publ_section_title
;
Structure prediction by ZEFSAII (Michael W. Deem and Ramdas Pophale) SiO2 
 PCOD9100531
Probable space group: P -1
;
_chemical_formula_sum "Si O2"
_cell_formula_units_Z 16
_cell_length_a 14.696835
_cell_length_b 23.825309
_cell_length_c 5.233638
_cell_angle_alpha 70.377605
_cell_angle_beta 85.056867
_cell_angle_gamma 26.711787
_cell_volume 669.711705
_symmetry_space_group_name_H-M "P -1"
_symmetry_group_IT_number 2
_symmetry_cell_setting 'triclinic'
loop_
_space_group_symop_operation_xyz
x,y,z
-x,-y,-z
loop_
_atom_site_type_symbol
_atom_site_label
_atom_site_fract_x
_atom_site_fract_y
_atom_site_fract_z
Si Si1 0.065882 0.163952 0.985991
Si Si2 0.097573 0.268610 0.130913
Si Si3 0.026448 0.442721 0.329245
Si Si4 0.553190 0.897985 0.065632
Si Si5 0.747470 0.420708 0.354380
Si Si6 0.754652 0.261449 0.202246
Si Si7 0.777583 0.172882 0.824924
Si Si8 0.298561 0.441298 0.522212
O O1 0.850334 0.299781 0.633829
O O2 0.094433 0.210507 0.049991
O O3 0.963976 0.179679 0.193061
O O4 0.310091 0.009871 0.010332
O O5 0.341781 0.154564 0.168375
O O6 0.901799 0.432739 0.830510
O O7 0.980769 0.313055 0.347360
O O8 0.797858 0.538831 0.253553
O O9 0.000000 0.500000 0.500000
O O10 0.245893 0.263443 0.589828
O O11 0.000000 0.500000 0.000000
O O12 0.500000 0.000000 0.000000
O O13 0.667351 0.511709 0.463360
O O14 0.517173 0.552404 0.037704
O O15 0.791111 0.215802 0.544812
O O16 0.765084 0.203276 0.072547
O O17 0.552627 0.268565 0.649984
O O18 0.000000 0.000000 0.000000
#
# Coordination Sequence:
#
# PCOD9100531 Si02
#       8
#     2   2   2   2   2   2   2   2
#     4  10  22  37  58  97 133 162 208 279 331 387
#     4   9  18  37  63  87 125 170 218 257 325 402
#     4  11  26  44  69 100 135 177 224 277 339 396
#     4   9  21  45  65  98 134 178 229 272 340 403
#     4  10  20  37  64  93 123 175 213 261 328 402
#     4  11  24  40  63  93 128 161 213 268 335 387
#     4  11  24  42  64  89 118 171 220 265 320 396
#     4   9  21  40  61  88 127 169 220 265 320 397
#
# _framework density 23.890875999999999
#
# number of rings (size 3 to 8) (size 9 to 14) (size 15 to 20)
#    0.000    2.000    1.250    1.500    5.250    3.000 
#    4.500    0.000    0.000    0.000    0.000    0.000 
#    0.000    0.000    0.000    0.000    0.000    0.000 
#
# Total GULP energy -89155.271647 kJ/mol
# GULP energy per Si atom -5572.204478 kJ/mol
# Density = 2.383650 g / cm^3
# Si number density = 23.890876 Si / 1000 Ang^3
#
#
#
# Elastic Constant Matrix: (Units=GPa)
#
#
# Indices 1 2 3 4 5 6 
#
# 1 66.9812 33.4738 21.3363 -4.3489 -10.6050 -7.1982
# 2 33.4738 138.8383 44.8628 -13.0077 -5.9744 -18.4982
# 3 21.3363 44.8628 95.2241 -2.7644 -27.1584 -0.6079
# 4 -4.3489 -13.0077 -2.7644 49.0396 -4.9995 3.7742
# 5 -10.6050 -5.9744 -27.1584 -4.9995 21.7181 11.0320
# 6 -7.1982 -18.4982 -0.6079 3.7742 11.0320 46.3935
#
#
#
# Elastic Compliance Matrix: (Units=1/GPa)
#
#
# Indices 1 2 3 4 5 6 
#
# 1 0.018329 -0.004242 0.000684 0.001621 0.009655 -0.001266
# 2 -0.004242 0.011033 -0.007470 0.000471 -0.011487 0.006336
# 3 0.000684 -0.007470 0.023729 0.003779 0.034439 -0.011058
# 4 0.001621 0.000471 0.003779 0.022553 0.013105 -0.004462
# 5 0.009655 -0.011487 0.034439 0.013105 0.108687 -0.029542
# 6 -0.001266 0.006336 -0.011058 -0.004462 -0.029542 0.031128
#
#
# Mechanical properties :
#
#
# Convention : Reuss Voigt Hill
#
# Bulk Modulus (GPa) = 32.22034 55.59882 43.90958
# Shear Modulus (GPa) = 20.17281 36.85495 28.51388
#
# Velocity S-wave (km/s) = 2.90896 3.93190 3.45846
# Velocity P-wave (km/s) = 4.97981 6.62840 5.86234
#
# Compressibility (1/GPa) = 0.03103630
#
# Stress axis : x y z
#
# Youngs Moduli (GPa) = 54.55779 90.63767 42.14312
#
# Poissons Ratio (x) = 0.38444 -0.02882
# Poissons Ratio (y) = 0.23141 0.31480
# Poissons Ratio (z) = -0.03732 0.67703
#
# Static dielectric constant tensor:
#      x y z
#    x 1.999560 0.005650 0.024260 
#    y 0.005650 1.974480 -0.007420 
#    z 0.024260 -0.007420 1.957180 
# 
# From -- ./inp_files/113410.got.cif
#   From: 2010.05.17/outbox.cif.g08.bks.cpg/sg2_57_cif.got.tgz:113410.got - 2010.06.03 11:33:40.
