data_PCOD9100433
_publ_section_title
;
Structure prediction by ZEFSAII (Michael W. Deem and Ramdas Pophale) SiO2 
 PCOD9100433
Probable space group: P -1
;
_chemical_formula_sum "Si O2"
_cell_formula_units_Z 16
_cell_length_a 7.440882
_cell_length_b 20.603432
_cell_length_c 5.486048
_cell_angle_alpha 111.377387
_cell_angle_beta 115.468844
_cell_angle_gamma 78.101217
_cell_volume 705.854305
_symmetry_space_group_name_H-M "P -1"
_symmetry_group_IT_number 2
_symmetry_cell_setting 'triclinic'
loop_
_space_group_symop_operation_xyz
x,y,z
-x,-y,-z
loop_
_atom_site_type_symbol
_atom_site_label
_atom_site_fract_x
_atom_site_fract_y
_atom_site_fract_z
Si Si1 0.583216 0.943401 0.229257
Si Si2 0.351861 0.903627 0.619197
Si Si3 0.793865 0.529268 0.168705
Si Si4 0.151176 0.281416 0.891725
Si Si5 0.059381 0.137353 0.901899
Si Si6 0.695247 0.822078 0.507948
Si Si7 0.614410 0.593299 0.645971
Si Si8 0.842583 0.397689 0.721440
O O1 0.773878 0.925080 0.135423
O O2 0.629391 0.881138 0.356780
O O3 0.593868 0.025463 0.395420
O O4 0.380038 0.928808 0.947713
O O5 0.512033 0.836936 0.606046
O O6 0.146453 0.883372 0.358264
O O7 0.677973 0.557468 0.893046
O O8 0.313143 0.449794 0.612497
O O9 0.828758 0.447237 0.021489
O O10 0.005669 0.564546 0.317749
O O11 0.108834 0.210564 0.906858
O O12 0.278533 0.253996 0.694098
O O13 0.950324 0.323759 0.749876
O O14 0.275815 0.334451 0.190594
O O15 0.094250 0.156213 0.230024
O O16 0.377547 0.605733 0.514130
#
# Coordination Sequence:
#
# PCOD9100433 Si02
#       8
#     2   2   2   2   2   2   2   2
#     4   9  20  38  59  88 123 149 209 264 321 380
#     4  10  20  37  64  88 113 167 202 262 326 381
#     4  10  24  44  68 105 131 167 229 284 328 406
#     4  10  25  41  56  89 125 167 210 260 315 404
#     4  10  22  38  59  85 125 159 211 259 318 387
#     4  10  22  39  55  86 125 158 206 268 305 394
#     4  11  24  44  70  97 136 174 223 281 336 395
#     4  10  23  43  69  96 133 176 217 276 343 388
#
# _framework density 22.667569
#
# number of rings (size 3 to 8) (size 9 to 14) (size 15 to 20)
#    0.000    2.000    0.000    1.500    3.500   13.000 
#    0.000    0.000    0.000    0.000    0.000    0.000 
#    0.000    0.000    0.000    0.000    0.000    0.000 
#
# Total GULP energy -89285.320496 kJ/mol
# GULP energy per Si atom -5580.332531 kJ/mol
# Density = 2.261598 g / cm^3
# Si number density = 22.667569 Si / 1000 Ang^3
#
#
#
# Elastic Constant Matrix: (Units=GPa)
#
#
# Indices 1 2 3 4 5 6 
#
# 1 60.0680 23.7881 37.3171 -3.7901 16.6003 -25.1490
# 2 23.7881 124.4920 30.7379 5.7634 -2.4214 -31.5808
# 3 37.3171 30.7379 95.2872 -10.7745 20.0318 -17.2270
# 4 -3.7901 5.7634 -10.7745 37.3980 -12.0343 -2.4488
# 5 16.6003 -2.4214 20.0318 -12.0343 38.5402 1.8537
# 6 -25.1490 -31.5808 -17.2270 -2.4488 1.8537 35.4340
#
#
#
# Elastic Compliance Matrix: (Units=1/GPa)
#
#
# Indices 1 2 3 4 5 6 
#
# 1 0.032586 0.000575 -0.006824 -0.001193 -0.011828 0.020859
# 2 0.000575 0.010831 -0.002491 -0.001487 0.000845 0.008703
# 3 -0.006824 -0.002491 0.015350 0.002761 -0.004373 0.000819
# 4 -0.001193 -0.001487 0.002761 0.030414 0.008442 0.000831
# 5 -0.011828 0.000845 -0.004373 0.008442 0.036537 -0.011096
# 6 0.020859 0.008703 0.000819 0.000831 -0.011096 0.051818
#
#
# Mechanical properties :
#
#
# Convention : Reuss Voigt Hill
#
# Bulk Modulus (GPa) = 24.22120 51.50371 37.86245
# Shear Modulus (GPa) = 23.94850 34.80805 29.37828
#
# Velocity S-wave (km/s) = 3.25393 3.92291 3.60397
# Velocity P-wave (km/s) = 4.98257 6.57948 5.83590
#
# Compressibility (1/GPa) = 0.04128614
#
# Stress axis : x y z
#
# Youngs Moduli (GPa) = 30.68760 92.32800 65.14515
#
# Poissons Ratio (x) = -0.05308 0.44457
# Poissons Ratio (y) = -0.01764 0.16230
# Poissons Ratio (z) = 0.20942 0.23002
#
# Static dielectric constant tensor:
#      x y z
#    x 1.960660 0.017870 -0.118170 
#    y 0.017870 1.816430 -0.019190 
#    z -0.118170 -0.019190 1.959720 
# 
# From -- ./inp_files/55177.got.cif
#   From: 2010.05.17/outbox.cif.g08.bks.cpg/sg2_28_cif.got.tgz:55177.got - 2010.06.03 11:33:40.
