data_PCOD9100314
_publ_section_title
;
Structure prediction by ZEFSAII (Michael W. Deem and Ramdas Pophale) SiO2 
 PCOD9100314
Probable space group: P -1
;
_chemical_formula_sum "Si O2"
_cell_formula_units_Z 16
_cell_length_a 8.911852
_cell_length_b 8.190096
_cell_length_c 13.998363
_cell_angle_alpha 108.821082
_cell_angle_beta 48.636643
_cell_angle_gamma 110.703355
_cell_volume 711.533755
_symmetry_space_group_name_H-M "P -1"
_symmetry_group_IT_number 2
_symmetry_cell_setting 'triclinic'
loop_
_space_group_symop_operation_xyz
x,y,z
-x,-y,-z
loop_
_atom_site_type_symbol
_atom_site_label
_atom_site_fract_x
_atom_site_fract_y
_atom_site_fract_z
Si Si1 0.392294 0.812411 0.475059
Si Si2 0.420386 0.682055 0.069707
Si Si3 0.133290 0.133033 0.046226
Si Si4 0.999379 0.926448 0.693779
Si Si5 0.047093 0.516444 0.096604
Si Si6 0.243614 0.647340 0.337655
Si Si7 0.210298 0.317398 0.411219
Si Si8 0.746556 0.687728 0.388166
O O1 0.158232 0.790650 0.601128
O O2 0.386890 0.805745 0.362152
O O3 0.526087 0.680910 0.432740
O O4 0.500000 0.000000 0.500000
O O5 0.257846 0.664760 0.048451
O O6 0.273384 0.663364 0.218163
O O7 0.500000 0.500000 0.000000
O O8 0.617885 0.831659 0.040092
O O9 0.085783 0.326103 0.079012
O O10 0.066320 0.070276 0.169247
O O11 0.000000 0.000000 0.000000
O O12 0.828697 0.855140 0.672351
O O13 0.119032 0.116207 0.647248
O O14 0.871159 0.566965 0.250150
O O15 0.000000 0.500000 0.000000
O O16 0.297203 0.474012 0.330909
O O17 0.013794 0.653599 0.459445
O O18 0.299782 0.319472 0.479763
#
# Coordination Sequence:
#
# PCOD9100314 Si02
#       8
#     2   2   2   2   2   2   2   2
#     4   9  22  37  62  88 128 170 213 261 340 389
#     4  10  22  40  67  95 128 177 224 261 335 401
#     4  11  25  45  71  95 131 185 228 268 333 403
#     4  10  22  43  62  92 132 175 219 265 333 404
#     4  11  24  43  67  98 134 172 225 285 331 388
#     4  10  20  37  63  92 127 168 216 268 332 406
#     4  10  20  37  64  93 129 166 213 274 336 391
#     4  11  22  40  65  97 133 165 221 279 335 384
#
# _framework density 22.486636000000001
#
# number of rings (size 3 to 8) (size 9 to 14) (size 15 to 20)
#    0.000    1.750    1.250    2.625   10.500    0.500 
#    0.000    2.500    0.000    0.000    0.000    0.000 
#    0.000    0.000    0.000    0.000    0.000    0.000 
#
# Total GULP energy -89138.919864 kJ/mol
# GULP energy per Si atom -5571.182491 kJ/mol
# Density = 2.243546 g / cm^3
# Si number density = 22.486636 Si / 1000 Ang^3
#
#
#
# Elastic Constant Matrix: (Units=GPa)
#
#
# Indices 1 2 3 4 5 6 
#
# 1 122.5367 13.8876 40.0682 8.1933 19.4459 18.6692
# 2 13.8876 81.7968 17.0333 2.1527 5.5648 19.3696
# 3 40.0682 17.0333 77.0958 4.5664 22.1965 13.0334
# 4 8.1933 2.1527 4.5664 26.4281 -1.1259 3.6422
# 5 19.4459 5.5648 22.1965 -1.1259 39.8109 6.6788
# 6 18.6692 19.3696 13.0334 3.6422 6.6788 33.8463
#
#
#
# Elastic Compliance Matrix: (Units=1/GPa)
#
#
# Indices 1 2 3 4 5 6 
#
# 1 0.010556 0.000137 -0.004100 -0.002175 -0.002342 -0.003625
# 2 0.000137 0.014409 -0.002085 0.000209 0.000365 -0.007613
# 3 -0.004100 -0.002085 0.018160 -0.001764 -0.007570 -0.001855
# 4 -0.002175 0.000209 -0.001764 0.039398 0.003668 -0.003204
# 5 -0.002342 0.000365 -0.007570 0.003668 0.030956 -0.002505
# 6 -0.003625 -0.007613 -0.001855 -0.003204 -0.002505 0.037455
#
#
# Mechanical properties :
#
#
# Convention : Reuss Voigt Hill
#
# Bulk Modulus (GPa) = 32.22914 47.04528 39.63721
# Shear Modulus (GPa) = 28.83962 34.04641 31.44302
#
# Velocity S-wave (km/s) = 3.58512 3.89533 3.74344
# Velocity P-wave (km/s) = 5.61259 6.41859 6.02907
#
# Compressibility (1/GPa) = 0.03102783
#
# Stress axis : x y z
#
# Youngs Moduli (GPa) = 94.73729 69.40214 55.06706
#
# Poissons Ratio (x) = -0.00949 0.22577
# Poissons Ratio (y) = -0.01296 0.11481
# Poissons Ratio (z) = 0.38842 0.14469
#
# Static dielectric constant tensor:
#      x y z
#    x 1.948080 0.008010 0.012950 
#    y 0.008010 1.888780 -0.000570 
#    z 0.012950 -0.000570 1.871630 
# 
# From -- ./inp_files/495402.got.cif
#   From: 2010.05.17/outbox.cif.g08.bks.cpg/sg2_248_cif.got.tgz:495402.got - 2010.06.03 11:33:40.
