data_PCOD9100285
_publ_section_title
;
Structure prediction by ZEFSAII (Michael W. Deem and Ramdas Pophale) SiO2 
 PCOD9100285
Probable space group: P -1
;
_chemical_formula_sum "Si O2"
_cell_formula_units_Z 16
_cell_length_a 9.181173
_cell_length_b 19.340659
_cell_length_c 6.675446
_cell_angle_alpha 65.447115
_cell_angle_beta 58.502899
_cell_angle_gamma 45.207513
_cell_volume 715.059723
_symmetry_space_group_name_H-M "P -1"
_symmetry_group_IT_number 2
_symmetry_cell_setting 'triclinic'
loop_
_space_group_symop_operation_xyz
x,y,z
-x,-y,-z
loop_
_atom_site_type_symbol
_atom_site_label
_atom_site_fract_x
_atom_site_fract_y
_atom_site_fract_z
Si Si1 0.164479 0.128158 0.197634
Si Si2 0.130196 0.230839 0.456508
Si Si3 0.320033 0.801531 0.612529
Si Si4 0.944917 0.431079 0.556083
Si Si5 0.282222 0.727167 0.095683
Si Si6 0.720427 0.404491 0.056702
Si Si7 0.510674 0.911439 0.336602
Si Si8 0.488033 0.388892 0.551222
O O1 0.131055 0.215483 0.238741
O O2 0.934048 0.148499 0.311302
O O3 0.324300 0.027292 0.326416
O O4 0.296619 0.113920 0.920723
O O5 0.362232 0.140312 0.487993
O O6 0.081134 0.329039 0.459588
O O7 0.940574 0.224797 0.678521
O O8 0.396099 0.863695 0.417288
O O9 0.471921 0.698303 0.506407
O O10 0.337862 0.787407 0.860253
O O11 0.733133 0.507264 0.477056
O O12 0.000000 0.500000 0.500000
O O13 0.906267 0.405295 0.835346
O O14 0.471681 0.645311 0.207919
O O15 0.251236 0.679959 0.987687
O O16 0.672542 0.396641 0.327747
O O17 0.500000 0.500000 0.000000
#
# Coordination Sequence:
#
# PCOD9100285 Si02
#       8
#     2   2   2   2   2   2   2   2
#     4  11  24  46  70  97 132 181 221 277 349 398
#     4  11  22  42  67  96 137 174 221 279 336 400
#     4  11  22  43  69  99 136 172 224 276 332 400
#     4  10  21  38  64  97 136 174 220 276 329 390
#     4  10  20  37  63  91 128 173 215 265 329 386
#     4   8  18  33  55  82 118 166 209 261 306 379
#     4  11  25  44  70  99 134 173 226 285 337 399
#     4  10  20  39  62  95 130 173 222 259 326 406
#
# _framework density 22.375751000000001
#
# number of rings (size 3 to 8) (size 9 to 14) (size 15 to 20)
#    0.000    1.750    2.500    1.500    0.000    5.500 
#    0.000    3.125    0.000   12.000    0.000    0.000 
#    0.000    0.000    0.000    0.000    0.000    0.000 
#
# Total GULP energy -89193.918330 kJ/mol
# GULP energy per Si atom -5574.619896 kJ/mol
# Density = 2.232482 g / cm^3
# Si number density = 22.375751 Si / 1000 Ang^3
#
#
#
# Elastic Constant Matrix: (Units=GPa)
#
#
# Indices 1 2 3 4 5 6 
#
# 1 70.5846 20.2012 34.1143 -12.1607 5.5847 4.5955
# 2 20.2012 86.3474 23.4330 -20.2438 2.5696 -6.7825
# 3 34.1143 23.4330 44.4536 -13.7318 7.8945 6.5220
# 4 -12.1607 -20.2438 -13.7318 26.8408 2.0196 3.0324
# 5 5.5847 2.5696 7.8945 2.0196 27.7327 -12.6702
# 6 4.5955 -6.7825 6.5220 3.0324 -12.6702 42.0294
#
#
#
# Elastic Compliance Matrix: (Units=1/GPa)
#
#
# Indices 1 2 3 4 5 6 
#
# 1 0.022593 -0.000438 -0.016722 0.001339 0.000155 0.000004
# 2 -0.000438 0.015389 -0.006084 0.007820 0.001339 0.003315
# 3 -0.016722 -0.006084 0.048017 0.015089 -0.016643 -0.012710
# 4 0.001339 0.007820 0.015089 0.053514 -0.013349 -0.009111
# 5 0.000155 0.001339 -0.016643 -0.013349 0.050244 0.018892
# 6 0.000004 0.003315 -0.012710 -0.009111 0.018892 0.032652
#
#
# Mechanical properties :
#
#
# Convention : Reuss Voigt Hill
#
# Bulk Modulus (GPa) = 25.31031 39.65362 32.48196
# Shear Modulus (GPa) = 17.72632 27.56304 22.64468
#
# Velocity S-wave (km/s) = 2.81768 3.51355 3.18468
# Velocity P-wave (km/s) = 4.68207 5.84980 5.29821
#
# Compressibility (1/GPa) = 0.03950959
#
# Stress axis : x y z
#
# Youngs Moduli (GPa) = 44.26226 64.98293 20.82615
#
# Poissons Ratio (x) = 0.02847 0.34825
# Poissons Ratio (y) = 0.01939 0.12671
# Poissons Ratio (z) = 0.74014 0.39537
#
# Static dielectric constant tensor:
#      x y z
#    x 1.827120 -0.020190 -0.005090 
#    y -0.020190 1.891620 -0.033620 
#    z -0.005090 -0.033620 1.905160 
# 
# From -- ./inp_files/52371.got.cif
#   From: 2010.05.17/outbox.cif.g08.bks.cpg/sg2_27_cif.got.tgz:52371.got - 2010.06.03 11:33:40.
