data_PCOD9100872
_publ_section_title
;
Structure prediction by ZEFSAII (Michael W. Deem and Ramdas Pophale) SiO2 
 PCOD9100872
Probable space group: P -1
;
_chemical_formula_sum "Si O2"
_cell_formula_units_Z 16
_cell_length_a 23.504743
_cell_length_b 16.479025
_cell_length_c 11.597546
_cell_angle_alpha 142.498464
_cell_angle_beta 27.783383
_cell_angle_gamma 158.229287
_cell_volume 766.162287
_symmetry_space_group_name_H-M "P -1"
_symmetry_group_IT_number 2
_symmetry_cell_setting 'triclinic'
loop_
_space_group_symop_operation_xyz
x,y,z
-x,-y,-z
loop_
_atom_site_type_symbol
_atom_site_label
_atom_site_fract_x
_atom_site_fract_y
_atom_site_fract_z
Si Si1 0.353183 0.816202 0.263042
Si Si2 0.062346 0.642976 0.401284
Si Si3 0.642196 0.745258 0.973671
Si Si4 0.513069 0.129046 0.526092
Si Si5 0.102344 0.212173 0.116003
Si Si6 0.531134 0.685694 0.843468
Si Si7 0.969826 0.591807 0.247402
Si Si8 0.973773 0.065409 0.442891
O O1 0.267582 0.776384 0.245725
O O2 0.139770 0.615121 0.490269
O O3 0.486927 0.037421 0.345151
O O4 0.471361 0.779516 0.010563
O O5 0.011418 0.747242 0.654586
O O6 0.067074 0.645748 0.257926
O O7 0.564683 0.720727 0.959926
O O8 0.870563 0.890711 0.719346
O O9 0.500000 0.500000 0.000000
O O10 0.640049 0.880282 0.202083
O O11 0.726918 0.385939 0.459138
O O12 0.500000 0.000000 0.500000
O O13 0.082594 0.177964 0.250625
O O14 0.330154 0.422202 0.896677
O O15 0.000000 0.000000 0.000000
O O16 0.742336 0.817100 0.561859
O O17 0.043691 0.803385 0.320190
O O18 0.000000 0.500000 0.000000
#
# Coordination Sequence:
#
# PCOD9100872 Si02
#       8
#     2   2   2   2   2   2   2   2
#     4  10  20  37  66  95 126 172 223 276 329 395
#     4   9  20  39  62  95 131 170 218 273 338 393
#     4  12  22  41  67  96 135 174 221 281 337 398
#     4  12  21  38  67  96 126 175 232 269 332 400
#     4  10  22  41  66  91 133 177 218 272 331 402
#     4  11  22  42  66  92 132 179 220 278 336 390
#     4  11  22  40  64  99 137 167 218 287 333 396
#     4  11  24  42  66  97 133 175 221 276 340 398
#
# _framework density 20.883305
#
# number of rings (size 3 to 8) (size 9 to 14) (size 15 to 20)
#    0.000    1.250    5.000    1.875    1.750    0.500 
#    0.000    5.625    0.000    0.000    0.000    0.000 
#    0.000    0.000    0.000    0.000    0.000    0.000 
#
# Total GULP energy -89339.700426 kJ/mol
# GULP energy per Si atom -5583.731277 kJ/mol
# Density = 2.083577 g / cm^3
# Si number density = 20.883305 Si / 1000 Ang^3
#
#
#
# Elastic Constant Matrix: (Units=GPa)
#
#
# Indices 1 2 3 4 5 6 
#
# 1 76.4115 37.6642 34.4838 -3.3402 -16.7939 29.7898
# 2 37.6642 123.4367 48.4167 0.2502 -12.5286 7.7418
# 3 34.4838 48.4167 97.2966 -8.8557 -15.3229 4.0929
# 4 -3.3402 0.2502 -8.8557 39.3442 8.1865 1.6894
# 5 -16.7939 -12.5286 -15.3229 8.1865 19.2823 -12.1601
# 6 29.7898 7.7418 4.0929 1.6894 -12.1601 26.4535
#
#
#
# Elastic Compliance Matrix: (Units=1/GPa)
#
#
# Indices 1 2 3 4 5 6 
#
# 1 0.032377 -0.005062 -0.008063 0.003895 -0.006451 -0.036946
# 2 -0.005062 0.011141 -0.003509 -0.002400 0.004278 0.005103
# 3 -0.008063 -0.003509 0.016188 -0.000030 0.011786 0.013023
# 4 0.003895 -0.002400 -0.000030 0.030747 -0.020847 -0.015225
# 5 -0.006451 0.004278 0.011786 -0.020847 0.099591 0.051300
# 6 -0.036946 0.005103 0.013023 -0.015225 0.051300 0.100453
#
#
# Mechanical properties :
#
#
# Convention : Reuss Voigt Hill
#
# Bulk Modulus (GPa) = 37.82618 59.80826 48.81722
# Shear Modulus (GPa) = 15.03399 28.78802 21.91100
#
# Velocity S-wave (km/s) = 2.68601 3.71687 3.24267
# Velocity P-wave (km/s) = 5.26992 6.86452 6.11938
#
# Compressibility (1/GPa) = 0.02643672
#
# Stress axis : x y z
#
# Youngs Moduli (GPa) = 30.88595 89.75470 61.77550
#
# Poissons Ratio (x) = 0.45432 0.49812
# Poissons Ratio (y) = 0.15634 0.21680
# Poissons Ratio (z) = 0.24905 0.31499
#
# Static dielectric constant tensor:
#      x y z
#    x 1.987260 -0.067780 0.144300 
#    y -0.067780 1.754470 -0.074240 
#    z 0.144300 -0.074240 1.904180 
# 
# From -- ./inp_files/271737.got.cif
#   From: 2010.05.17/outbox.cif.g08.bks.cpg/sg2_136_cif.got.tgz:271737.got - 2010.06.03 11:33:40.
