data_PCOD9100446
_publ_section_title
;
Structure prediction by ZEFSAII (Michael W. Deem and Ramdas Pophale) SiO2 
 PCOD9100446
Probable space group: P -1
;
_chemical_formula_sum "Si O2"
_cell_formula_units_Z 12
_cell_length_a 14.258818
_cell_length_b 8.048121
_cell_length_c 11.354021
_cell_angle_alpha 120.557340
_cell_angle_beta 145.767701
_cell_angle_gamma 48.309380
_cell_volume 544.670337
_symmetry_space_group_name_H-M "P -1"
_symmetry_group_IT_number 2
_symmetry_cell_setting 'triclinic'
loop_
_space_group_symop_operation_xyz
x,y,z
-x,-y,-z
loop_
_atom_site_type_symbol
_atom_site_label
_atom_site_fract_x
_atom_site_fract_y
_atom_site_fract_z
Si Si1 0.427551 0.374085 0.293887
Si Si2 0.304918 0.895580 0.741383
Si Si3 0.996361 0.393286 0.084345
Si Si4 0.929215 0.361386 0.533865
Si Si5 0.632237 0.969924 0.735157
Si Si6 0.436963 0.318902 0.853316
O O1 0.500000 0.500000 0.500000
O O2 0.580212 0.227595 0.300795
O O3 0.386398 0.205491 0.264074
O O4 0.217891 0.552979 0.089827
O O5 0.186503 0.769090 0.604752
O O6 0.460306 0.847159 0.989531
O O7 0.145181 0.157856 0.657063
O O8 0.059942 0.504720 0.292813
O O9 0.152942 0.135541 0.130701
O O10 0.000000 0.500000 0.000000
O O11 0.793391 0.546081 0.361837
O O12 0.500000 0.000000 0.500000
O O13 0.543949 0.190270 0.799429
O O14 0.500000 0.500000 0.000000
#
# Coordination Sequence:
#
# PCOD9100446 Si02
#       6
#     2   2   2   2   2   2
#     4  11  25  41  65  96 132 170 218 281 325 386
#     4  10  21  40  63  94 132 168 219 268 335 383
#     4  10  20  37  64  88 123 174 217 254 327 391
#     4  10  20  39  66  92 126 177 217 266 325 403
#     4  11  22  42  68  92 131 172 219 264 328 394
#     4  10  22  38  67  97 125 171 218 271 317 394
#
# _framework density 22.031676999999998
#
# number of rings (size 3 to 8) (size 9 to 14) (size 15 to 20)
#    0.000    1.667    1.667    4.000    2.333    5.333 
#    3.000    2.500    0.000    0.000    0.000    0.000 
#    0.000    0.000    0.000    0.000    0.000    0.000 
#
# Total GULP energy -67012.460125 kJ/mol
# GULP energy per Si atom -5584.371677 kJ/mol
# Density = 2.198153 g / cm^3
# Si number density = 22.031677 Si / 1000 Ang^3
#
#
#
# Elastic Constant Matrix: (Units=GPa)
#
#
# Indices 1 2 3 4 5 6 
#
# 1 79.4354 53.3230 45.8759 -21.1517 -6.8380 -32.6523
# 2 53.3230 164.0109 81.1455 -17.6342 -8.2481 -49.3787
# 3 45.8759 81.1455 165.2483 -21.4143 -20.6000 -29.4041
# 4 -21.1517 -17.6342 -21.4143 58.2818 -8.7746 3.9859
# 5 -6.8380 -8.2481 -20.6000 -8.7746 36.0282 3.4240
# 6 -32.6523 -49.3787 -29.4041 3.9859 3.4240 44.9039
#
#
#
# Elastic Compliance Matrix: (Units=1/GPa)
#
#
# Indices 1 2 3 4 5 6 
#
# 1 0.021611 -0.001720 -0.001856 0.006293 0.003056 0.011816
# 2 -0.001720 0.010946 -0.003303 0.000840 -0.000319 0.008573
# 3 -0.001856 -0.003303 0.009155 0.002362 0.004659 0.000449
# 4 0.006293 0.000840 0.002362 0.021381 0.007510 0.004575
# 5 0.003056 -0.000319 0.004659 0.007510 0.032588 0.001771
# 6 0.011816 0.008573 0.000449 0.004575 0.001771 0.040042
#
#
# Mechanical properties :
#
#
# Convention : Reuss Voigt Hill
#
# Bulk Modulus (GPa) = 35.77275 85.48703 60.62989
# Shear Modulus (GPa) = 31.48631 43.06613 37.27622
#
# Velocity S-wave (km/s) = 3.78450 4.42604 4.11778
# Velocity P-wave (km/s) = 5.94716 8.06262 7.08430
#
# Compressibility (1/GPa) = 0.02795424
#
# Stress axis : x y z
#
# Youngs Moduli (GPa) = 46.27208 91.35954 109.22596
#
# Poissons Ratio (x) = 0.15715 0.20271
# Poissons Ratio (y) = 0.07960 0.36077
# Poissons Ratio (z) = 0.08588 0.30176
#
# Static dielectric constant tensor:
#      x y z
#    x 1.806820 0.024590 0.012780 
#    y 0.024590 1.835730 -0.070500 
#    z 0.012780 -0.070500 1.801850 
# 
# From -- ./inp_files/153065.got.cif
#   From: 2010.05.17/outbox.cif.g08.bks.cpg/sg2_77_cif.got.tgz:153065.got - 2010.06.03 11:33:40.
