data_PCOD9100731
_publ_section_title
;
Structure prediction by ZEFSAII (Michael W. Deem and Ramdas Pophale) SiO2 
 PCOD9100731
Probable space group: P -1
;
_chemical_formula_sum "Si O2"
_cell_formula_units_Z 16
_cell_length_a 11.622687
_cell_length_b 6.709281
_cell_length_c 11.398016
_cell_angle_alpha 94.097687
_cell_angle_beta 92.250159
_cell_angle_gamma 119.841378
_cell_volume 766.112811
_symmetry_space_group_name_H-M "P -1"
_symmetry_group_IT_number 2
_symmetry_cell_setting 'triclinic'
loop_
_space_group_symop_operation_xyz
x,y,z
-x,-y,-z
loop_
_atom_site_type_symbol
_atom_site_label
_atom_site_fract_x
_atom_site_fract_y
_atom_site_fract_z
Si Si1 0.732203 0.362901 0.601593
Si Si2 0.286785 0.466519 0.971391
Si Si3 0.011950 0.113561 0.874028
Si Si4 0.915347 0.876982 0.607390
Si Si5 0.503571 0.482925 0.658168
Si Si6 0.436893 0.247237 0.094928
Si Si7 0.662246 0.887853 0.520106
Si Si8 0.786842 0.248444 0.852189
O O1 0.854327 0.603327 0.574488
O O2 0.614409 0.412133 0.632692
O O3 0.778419 0.297879 0.719157
O O4 0.677769 0.135335 0.510470
O O5 0.165474 0.314276 0.873348
O O6 0.421305 0.697653 0.947454
O O7 0.345245 0.305103 0.010542
O O8 0.219360 0.548915 0.069566
O O9 0.913589 0.218586 0.879646
O O10 0.971549 0.954975 0.746449
O O11 0.000000 0.000000 0.000000
O O12 0.790696 0.917826 0.592960
O O13 0.000000 0.000000 0.500000
O O14 0.517640 0.561285 0.793650
O O15 0.540594 0.709335 0.591002
O O16 0.365357 0.264969 0.604051
O O17 0.343569 0.994020 0.130296
#
# Coordination Sequence:
#
# PCOD9100731 Si02
#       8
#     2   2   2   2   2   2   2   2
#     4  11  20  40  69  94 125 177 227 273 335 407
#     4  11  25  39  64  96 133 175 222 284 345 392
#     4  12  24  46  72  96 132 188 235 274 335 417
#     4  11  26  44  65  96 139 172 219 290 344 391
#     4  10  20  37  65  93 128 173 218 271 333 412
#     4  11  22  41  63  96 138 169 218 287 346 392
#     4  10  21  39  63  93 127 175 222 268 330 407
#     4  12  21  43  70  96 133 177 233 283 328 412
#
# _framework density 20.884653
#
# number of rings (size 3 to 8) (size 9 to 14) (size 15 to 20)
#    0.000    1.000    5.000    2.625    1.750    0.500 
#    0.000    0.000    0.000    0.000    0.000    0.000 
#    0.000    0.000    0.000    0.000    0.000    0.000 
#
# Total GULP energy -89239.121500 kJ/mol
# GULP energy per Si atom -5577.445094 kJ/mol
# Density = 2.083712 g / cm^3
# Si number density = 20.884653 Si / 1000 Ang^3
#
#
#
# Elastic Constant Matrix: (Units=GPa)
#
#
# Indices 1 2 3 4 5 6 
#
# 1 90.7228 33.1406 36.0847 -1.0785 16.0955 2.3950
# 2 33.1406 137.0399 32.6130 2.8593 -3.5094 7.5136
# 3 36.0847 32.6130 80.8661 11.2169 11.2076 11.6587
# 4 -1.0785 2.8593 11.2169 43.4390 -0.5809 4.8961
# 5 16.0955 -3.5094 11.2076 -0.5809 28.4474 1.4268
# 6 2.3950 7.5136 11.6587 4.8961 1.4268 16.2894
#
#
#
# Elastic Compliance Matrix: (Units=1/GPa)
#
#
# Indices 1 2 3 4 5 6 
#
# 1 0.015389 -0.002815 -0.005409 0.001524 -0.007046 0.003066
# 2 -0.002815 0.008796 -0.002535 0.000311 0.003796 -0.002254
# 3 -0.005409 -0.002535 0.018260 -0.003648 -0.004037 -0.009654
# 4 0.001524 0.000311 -0.003648 0.024593 0.001380 -0.005269
# 5 -0.007046 0.003796 -0.004037 0.001380 0.041319 -0.001860
# 6 0.003066 -0.002254 -0.009654 -0.005269 -0.001860 0.070635
#
#
# Mechanical properties :
#
#
# Convention : Reuss Voigt Hill
#
# Bulk Modulus (GPa) = 47.78630 56.92284 52.35457
# Shear Modulus (GPa) = 24.09814 31.42120 27.75967
#
# Velocity S-wave (km/s) = 3.40055 3.88301 3.64976
# Velocity P-wave (km/s) = 6.19266 6.88612 6.54858
#
# Compressibility (1/GPa) = 0.02092650
#
# Stress axis : x y z
#
# Youngs Moduli (GPa) = 64.97940 113.69396 54.76591
#
# Poissons Ratio (x) = 0.32003 0.29622
# Poissons Ratio (y) = 0.18290 0.13885
# Poissons Ratio (z) = 0.35147 0.28825
#
# Static dielectric constant tensor:
#      x y z
#    x 1.774540 0.019510 -0.020090 
#    y 0.019510 1.794870 0.012020 
#    z -0.020090 0.012020 1.854830 
# 
# From -- ./inp_files/410829.got.cif
#   From: 2010.05.17/outbox.cif.g08.bks.cpg/sg2_206_cif.got.tgz:410829.got - 2010.06.03 11:33:40.
