data_PCOD9100194
_publ_section_title
;
Structure prediction by ZEFSAII (Michael W. Deem and Ramdas Pophale) SiO2 
 PCOD9100194
Probable space group: P -1
;
_chemical_formula_sum "Si O2"
_cell_formula_units_Z 14
_cell_length_a 5.345154
_cell_length_b 13.241556
_cell_length_c 9.601292
_cell_angle_alpha 85.703179
_cell_angle_beta 52.308681
_cell_angle_gamma 90.335798
_cell_volume 535.085934
_symmetry_space_group_name_H-M "P -1"
_symmetry_group_IT_number 2
_symmetry_cell_setting 'triclinic'
loop_
_space_group_symop_operation_xyz
x,y,z
-x,-y,-z
loop_
_atom_site_type_symbol
_atom_site_label
_atom_site_fract_x
_atom_site_fract_y
_atom_site_fract_z
Si Si1 0.441425 0.135614 0.092269
Si Si2 0.211655 0.936060 0.334568
Si Si3 0.196178 0.179603 0.862520
Si Si4 0.791670 0.430248 0.904218
Si Si5 0.352509 0.575062 0.732274
Si Si6 0.636467 0.366234 0.677323
Si Si7 0.194969 0.249201 0.436481
O O1 0.310909 0.200086 0.259406
O O2 0.321774 0.018985 0.175241
O O3 0.280297 0.167389 0.000025
O O4 0.826175 0.150207 0.966490
O O5 0.538054 0.892238 0.284939
O O6 0.971712 0.837738 0.400102
O O7 0.000000 0.000000 0.500000
O O8 0.315689 0.295192 0.770384
O O9 0.726689 0.351722 0.811093
O O10 0.075179 0.510197 0.757909
O O11 0.500000 0.500000 0.000000
O O12 0.794580 0.397743 0.068787
O O13 0.594059 0.485167 0.666667
O O14 0.520356 0.677810 0.607993
O O15 0.915130 0.323327 0.498569
#
# Coordination Sequence:
#
# PCOD9100194 Si02
#       7
#     2   2   2   2   2   2   2
#     4  11  24  45  71  97 130 172 223 269 324 386
#     4   9  21  45  68  99 133 167 214 276 327 387
#     4  11  24  42  73  99 129 173 221 264 325 389
#     4   9  20  35  59  85 124 163 222 267 319 378
#     4  10  20  37  63  86 126 172 216 266 321 390
#     4  10  22  39  58  94 130 168 215 270 323 388
#     4  10  22  41  61  95 131 170 216 266 332 384
#
# _framework density 26.164021000000002
#
# number of rings (size 3 to 8) (size 9 to 14) (size 15 to 20)
#    0.000    2.000    0.000    2.143    8.000    0.571 
#    2.571   15.714    0.000    0.000    0.000    0.000 
#    0.000    0.000    0.000    0.000    0.000    0.000 
#
# Total GULP energy -78289.684582 kJ/mol
# GULP energy per Si atom -5592.120327 kJ/mol
# Density = 2.610447 g / cm^3
# Si number density = 26.164021 Si / 1000 Ang^3
#
#
#
# Elastic Constant Matrix: (Units=GPa)
#
#
# Indices 1 2 3 4 5 6 
#
# 1 109.4808 36.4797 59.3122 -14.7410 -8.9656 17.6617
# 2 36.4797 186.4122 75.9137 -25.3159 -7.6907 21.4934
# 3 59.3122 75.9137 191.2502 10.0280 -17.6785 7.9566
# 4 -14.7410 -25.3159 10.0280 68.5395 1.2343 -17.3855
# 5 -8.9656 -7.6907 -17.6785 1.2343 34.0468 -9.8280
# 6 17.6617 21.4934 7.9566 -17.3855 -9.8280 30.0813
#
#
#
# Elastic Compliance Matrix: (Units=1/GPa)
#
#
# Indices 1 2 3 4 5 6 
#
# 1 0.012199 -0.000060 -0.003664 0.001828 -0.000265 -0.005180
# 2 -0.000060 0.007215 -0.002910 0.002241 -0.000950 -0.003365
# 3 -0.003664 -0.002910 0.007873 -0.002665 0.003023 0.001596
# 4 0.001828 0.002241 -0.002665 0.018521 0.001605 0.009258
# 5 -0.000265 -0.000950 0.003023 0.001605 0.034091 0.012101
# 6 -0.005180 -0.003365 0.001596 0.009258 0.012101 0.047571
#
#
# Mechanical properties :
#
#
# Convention : Reuss Voigt Hill
#
# Bulk Modulus (GPa) = 71.34183 92.28380 81.81282
# Shear Modulus (GPa) = 34.38492 47.56270 40.97381
#
# Velocity S-wave (km/s) = 3.62913 4.26827 3.96161
# Velocity P-wave (km/s) = 6.69979 7.72261 7.22931
#
# Compressibility (1/GPa) = 0.01401702
#
# Stress axis : x y z
#
# Youngs Moduli (GPa) = 81.97078 138.60781 127.01481
#
# Poissons Ratio (x) = 0.00839 0.46542
# Poissons Ratio (y) = 0.00496 0.36965
# Poissons Ratio (z) = 0.30036 0.40339
#
# Static dielectric constant tensor:
#      x y z
#    x -1.639450 2.087980 0.823440 
#    y 2.087980 0.847450 -0.417370 
#    z 0.823440 -0.417370 1.921330 
# 
# From -- ./inp_files/366277.got.cif
#   From: 2010.05.17/outbox.cif.g08.bks.cpg/sg2_184_cif.got.tgz:366277.got - 2010.06.03 11:33:40.
