data_PCOD9100563
_publ_section_title
;
Structure prediction by ZEFSAII (Michael W. Deem and Ramdas Pophale) SiO2 
 PCOD9100563
Probable space group: P -1
;
_chemical_formula_sum "Si O2"
_cell_formula_units_Z 11
_cell_length_a 8.074127
_cell_length_b 8.790713
_cell_length_c 11.176728
_cell_angle_alpha 136.550028
_cell_angle_beta 47.690004
_cell_angle_gamma 126.426812
_cell_volume 394.742043
_symmetry_space_group_name_H-M "P -1"
_symmetry_group_IT_number 2
_symmetry_cell_setting 'triclinic'
loop_
_space_group_symop_operation_xyz
x,y,z
-x,-y,-z
loop_
_atom_site_type_symbol
_atom_site_label
_atom_site_fract_x
_atom_site_fract_y
_atom_site_fract_z
Si Si1 0.369489 0.273719 0.773875
Si Si2 0.551316 0.936154 0.629258
Si Si3 0.173334 0.539562 0.638363
Si Si4 0.781936 0.660450 0.754651
Si Si5 0.862218 0.300012 0.846425
Si Si6 0.500000 0.000000 0.000000
O O1 0.341958 0.141617 0.587510
O O2 0.627591 0.420147 0.731684
O O3 0.368096 0.085612 0.765545
O O4 0.221675 0.461465 0.967793
O O5 0.414128 0.715968 0.638946
O O6 0.742515 0.099650 0.702293
O O7 0.174870 0.374793 0.428297
O O8 0.994074 0.683998 0.754050
O O9 0.095286 0.397843 0.714128
O O10 0.620056 0.838883 0.933366
O O11 0.763741 0.168835 0.941112
#
# Coordination Sequence:
#
# PCOD9100563 Si02
#       6
#     2   2   2   2   2   1
#     4   9  19  36  59  93 126 153 210 254 312 370
#     4  10  20  37  64  95 121 167 203 270 314 358
#     4  10  21  37  69  96 119 156 231 255 306 369
#     4   9  19  40  61  95 127 163 203 273 299 382
#     4  11  22  42  62  91 128 173 199 269 307 379
#     4  10  24  40  64  84 138 174 200 246 342 362
#
# _framework density 27.866299999999999
#
# number of rings (size 3 to 8) (size 9 to 14) (size 15 to 20)
#    0.000    2.182    1.818    0.545    5.091    1.455 
#    0.000    9.091    4.000    0.000    0.000    0.000 
#    0.000    0.000    0.000    0.000    0.000    0.000 
#
# Total GULP energy -61287.945695 kJ/mol
# GULP energy per Si atom -5571.631427 kJ/mol
# Density = 2.780288 g / cm^3
# Si number density = 27.866300 Si / 1000 Ang^3
#
#
#
# Elastic Constant Matrix: (Units=GPa)
#
#
# Indices 1 2 3 4 5 6 
#
# 1 80.8640 45.9949 22.3402 19.0973 -2.2753 -14.6018
# 2 45.9949 199.5571 70.9690 0.0679 19.7668 -1.4173
# 3 22.3402 70.9690 92.3293 4.9483 8.5462 -6.1004
# 4 19.0973 0.0679 4.9483 50.9579 0.0746 -2.2369
# 5 -2.2753 19.7668 8.5462 0.0746 32.4213 15.7543
# 6 -14.6018 -1.4173 -6.1004 -2.2369 15.7543 45.9527
#
#
#
# Elastic Compliance Matrix: (Units=1/GPa)
#
#
# Indices 1 2 3 4 5 6 
#
# 1 0.016989 -0.003777 -0.000741 -0.006102 0.001596 0.004339
# 2 -0.003777 0.008040 -0.005040 0.001889 -0.003719 -0.000254
# 3 -0.000741 -0.005040 0.015293 -0.001096 -0.002134 0.002318
# 4 -0.006102 0.001889 -0.001096 0.021990 -0.001052 -0.000595
# 5 0.001596 -0.003719 -0.002134 -0.001052 0.040509 -0.013830
# 6 0.004339 -0.000254 0.002318 -0.000595 -0.013830 0.028153
#
#
# Mechanical properties :
#
#
# Convention : Reuss Voigt Hill
#
# Bulk Modulus (GPa) = 47.15677 72.37316 59.76497
# Shear Modulus (GPa) = 31.81477 41.42945 36.62211
#
# Velocity S-wave (km/s) = 3.38256 3.85999 3.62913
# Velocity P-wave (km/s) = 5.67581 6.77451 6.24935
#
# Compressibility (1/GPa) = 0.02120586
#
# Stress axis : x y z
#
# Youngs Moduli (GPa) = 58.86059 124.37875 65.38784
#
# Poissons Ratio (x) = 0.46982 0.04847
# Poissons Ratio (y) = 0.22234 0.32954
# Poissons Ratio (z) = 0.04363 0.62683
#
# Static dielectric constant tensor:
#      x y z
#    x 2.318490 0.086050 -0.020510 
#    y 0.086050 2.102500 -0.131160 
#    z -0.020510 -0.131160 2.340640 
# 
# From -- ./inp_files/149678.got.cif
#   From: 2010.05.17/outbox.cif.g08.bks.cpg/sg2_75_cif.got.tgz:149678.got - 2010.06.03 11:33:40.
