data_PCOD9100871
_publ_section_title
;
Structure prediction by ZEFSAII (Michael W. Deem and Ramdas Pophale) SiO2 
 PCOD9100871
Probable space group: P -1
;
_chemical_formula_sum "Si O2"
_cell_formula_units_Z 16
_cell_length_a 9.638882
_cell_length_b 11.092814
_cell_length_c 10.139759
_cell_angle_alpha 132.657715
_cell_angle_beta 69.854848
_cell_angle_gamma 97.306325
_cell_volume 739.627492
_symmetry_space_group_name_H-M "P -1"
_symmetry_group_IT_number 2
_symmetry_cell_setting 'triclinic'
loop_
_space_group_symop_operation_xyz
x,y,z
-x,-y,-z
loop_
_atom_site_type_symbol
_atom_site_label
_atom_site_fract_x
_atom_site_fract_y
_atom_site_fract_z
Si Si1 0.123870 0.250109 0.859188
Si Si2 0.462111 0.510013 0.808145
Si Si3 0.604615 0.001884 0.770252
Si Si4 0.093540 0.353626 0.442110
Si Si5 0.465317 0.240304 0.799837
Si Si6 0.591772 0.744214 0.778353
Si Si7 0.040858 0.036686 0.362803
Si Si8 0.852018 0.528304 0.217127
O O1 0.288633 0.235028 0.853068
O O2 0.138177 0.301525 0.738534
O O3 0.046947 0.088552 0.780692
O O4 0.008246 0.406272 0.064983
O O5 0.503305 0.323500 0.711610
O O6 0.546985 0.566912 0.696292
O O7 0.285043 0.540942 0.858435
O O8 0.497970 0.629258 0.004058
O O9 0.555391 0.065225 0.687598
O O10 0.572505 0.823017 0.697152
O O11 0.779568 0.007316 0.736122
O O12 0.511476 0.129028 0.997696
O O13 0.233731 0.260100 0.245031
O O14 0.006433 0.220499 0.445484
O O15 0.173834 0.436889 0.596286
O O16 0.000000 0.500000 0.500000
O O17 0.000000 0.000000 0.500000
#
# Coordination Sequence:
#
# PCOD9100871 Si02
#       8
#     2   2   2   2   2   2   2   2
#     4  10  20  37  66  95 123 164 213 264 311 373
#     4   9  18  34  57  85 119 158 201 251 303 358
#     4   9  19  36  61  87 116 164 204 249 309 374
#     4  11  25  41  62  95 134 166 207 265 316 372
#     4   9  18  33  60  93 115 147 215 265 287 356
#     4   9  19  37  60  81 124 164 201 241 315 376
#     4  11  22  43  67  90 127 169 210 261 325 370
#     4  10  21  38  62  95 128 165 212 255 319 378
#
# _framework density 21.632511999999998
#
# number of rings (size 3 to 8) (size 9 to 14) (size 15 to 20)
#    0.000    2.250    1.250    1.500    3.500    2.500 
#    2.250    1.250    0.000    0.000    0.000    0.000 
#    0.000    0.000    0.000    0.000    0.000    0.000 
#
# Total GULP energy -89210.506416 kJ/mol
# GULP energy per Si atom -5575.656651 kJ/mol
# Density = 2.158328 g / cm^3
# Si number density = 21.632512 Si / 1000 Ang^3
#
#
#
# Elastic Constant Matrix: (Units=GPa)
#
#
# Indices 1 2 3 4 5 6 
#
# 1 123.7537 70.8613 28.0002 13.5116 0.3046 -0.1275
# 2 70.8613 220.5006 21.9187 13.8054 -13.2072 -7.8035
# 3 28.0002 21.9187 40.2265 -3.5471 -4.5284 -2.7239
# 4 13.5116 13.8054 -3.5471 24.7198 3.4151 -6.7197
# 5 0.3046 -13.2072 -4.5284 3.4151 22.8808 2.7876
# 6 -0.1275 -7.8035 -2.7239 -6.7197 2.7876 39.6515
#
#
#
# Elastic Compliance Matrix: (Units=1/GPa)
#
#
# Indices 1 2 3 4 5 6 
#
# 1 0.012262 -0.002961 -0.007875 -0.006419 -0.002227 -0.002015
# 2 -0.002961 0.005948 -0.000942 -0.002201 0.003557 0.000473
# 3 -0.007875 -0.000942 0.032412 0.009839 0.004094 0.003395
# 4 -0.006419 -0.002201 0.009839 0.050213 -0.007864 0.009284
# 5 -0.002227 0.003557 0.004094 -0.007864 0.048228 -0.003749
# 6 -0.002015 0.000473 0.003395 0.009284 -0.003749 0.027377
#
#
# Mechanical properties :
#
#
# Convention : Reuss Voigt Hill
#
# Bulk Modulus (GPa) = 36.94518 69.56014 53.25266
# Shear Modulus (GPa) = 23.92146 35.03045 29.47596
#
# Velocity S-wave (km/s) = 3.32898 4.02847 3.69531
# Velocity P-wave (km/s) = 5.64728 7.33916 6.54809
#
# Compressibility (1/GPa) = 0.02706713
#
# Stress axis : x y z
#
# Youngs Moduli (GPa) = 81.55410 168.12932 30.85256
#
# Poissons Ratio (x) = 0.49775 0.24296
# Poissons Ratio (y) = 0.24144 0.02906
# Poissons Ratio (z) = 0.64224 0.15834
#
# Static dielectric constant tensor:
#      x y z
#    x 1.749400 -0.011670 -0.024800 
#    y -0.011670 1.876780 0.004860 
#    z -0.024800 0.004860 1.820700 
# 
# From -- ./inp_files/388376.got.cif
#   From: 2010.05.17/outbox.cif.g08.bks.cpg/sg2_195_cif.got.tgz:388376.got - 2010.06.03 11:33:40.
