data_PCOD9100106
_publ_section_title
;
Structure prediction by ZEFSAII (Michael W. Deem and Ramdas Pophale) SiO2 
 PCOD9100106
Probable space group: P -1
;
_chemical_formula_sum "Si O2"
_cell_formula_units_Z 14
_cell_length_a 9.394836
_cell_length_b 8.444372
_cell_length_c 13.959975
_cell_angle_alpha 48.971515
_cell_angle_beta 124.254418
_cell_angle_gamma 117.037736
_cell_volume 684.098183
_symmetry_space_group_name_H-M "P -1"
_symmetry_group_IT_number 2
_symmetry_cell_setting 'triclinic'
loop_
_space_group_symop_operation_xyz
x,y,z
-x,-y,-z
loop_
_atom_site_type_symbol
_atom_site_label
_atom_site_fract_x
_atom_site_fract_y
_atom_site_fract_z
Si Si1 0.493276 0.697906 0.047443
Si Si2 0.844405 0.081429 0.497780
Si Si3 0.856442 0.348405 0.567419
Si Si4 0.057298 0.785539 0.147515
Si Si5 0.759146 0.769378 0.439867
Si Si6 0.241251 0.588030 0.825906
Si Si7 0.421843 0.831525 0.170204
O O1 0.617979 0.530267 0.130264
O O2 0.443693 0.686515 0.144069
O O3 0.328926 0.669737 0.925649
O O4 0.588843 0.933600 0.968517
O O5 0.768001 0.177167 0.525880
O O6 0.809948 0.235244 0.335517
O O7 0.054601 0.113801 0.576637
O O8 0.770384 0.848845 0.523039
O O9 0.940172 0.224025 0.732360
O O10 0.754924 0.520348 0.513887
O O11 0.000000 0.500000 0.500000
O O12 0.248409 0.766162 0.189484
O O13 0.923076 0.584099 0.146566
O O14 0.000000 0.000000 0.000000
O O15 0.592085 0.838108 0.297816
#
# Coordination Sequence:
#
# PCOD9100106 Si02
#       7
#     2   2   2   2   2   2   2
#     4  10  23  38  68  91 127 181 218 263 322 403
#     4  10  20  37  68  95 117 171 229 265 307 391
#     4  10  21  40  67  93 123 181 218 257 328 396
#     4  12  25  42  64  98 139 169 211 279 336 382
#     4  10  20  37  62  94 127 159 225 271 308 385
#     4  11  20  43  66  93 129 174 226 261 322 405
#     4  11  23  39  61  98 133 168 215 275 332 379
#
# _framework density 20.464898000000002
#
# number of rings (size 3 to 8) (size 9 to 14) (size 15 to 20)
#    0.000    1.429    5.714    0.857    2.000    1.143 
#    0.000    2.143    0.000    0.000    0.000    0.000 
#    0.000    0.000    0.000    0.000    0.000    0.000 
#
# Total GULP energy -78140.839564 kJ/mol
# GULP energy per Si atom -5581.488540 kJ/mol
# Density = 2.041832 g / cm^3
# Si number density = 20.464898 Si / 1000 Ang^3
#
#
#
# Elastic Constant Matrix: (Units=GPa)
#
#
# Indices 1 2 3 4 5 6 
#
# 1 76.3274 42.1669 49.9689 19.8648 3.8551 5.2824
# 2 42.1669 119.0482 24.8256 26.3926 -5.7654 -28.1052
# 3 49.9689 24.8256 91.2945 4.7255 -0.7279 5.3701
# 4 19.8648 26.3926 4.7255 35.9079 -3.8844 3.5880
# 5 3.8551 -5.7654 -0.7279 -3.8844 30.5937 3.6843
# 6 5.2824 -28.1052 5.3701 3.5880 3.6843 29.5003
#
#
#
# Elastic Compliance Matrix: (Units=1/GPa)
#
#
# Indices 1 2 3 4 5 6 
#
# 1 0.028942 -0.008246 -0.012696 -0.007958 -0.005420 -0.009083
# 2 -0.008246 0.019213 -0.001369 -0.011448 0.000603 0.021347
# 3 -0.012696 -0.001369 0.018177 0.006310 0.002995 -0.003482
# 4 -0.007958 -0.011448 0.006310 0.042175 0.006344 -0.016552
# 5 -0.005420 0.000603 0.002995 0.006344 0.034856 -0.004125
# 6 -0.009083 0.021347 -0.003482 -0.016552 -0.004125 0.059024
#
#
# Mechanical properties :
#
#
# Convention : Reuss Voigt Hill
#
# Bulk Modulus (GPa) = 46.06345 57.84366 51.95355
# Shear Modulus (GPa) = 19.66590 30.51430 25.09010
#
# Velocity S-wave (km/s) = 3.10329 3.86561 3.50524
# Velocity P-wave (km/s) = 5.94962 6.94623 6.46715
#
# Compressibility (1/GPa) = 0.02170919
#
# Stress axis : x y z
#
# Youngs Moduli (GPa) = 34.55192 52.04753 55.01510
#
# Poissons Ratio (x) = 0.42920 0.69845
# Poissons Ratio (y) = 0.28493 0.07534
# Poissons Ratio (z) = 0.43866 0.07128
#
# Static dielectric constant tensor:
#      x y z
#    x 1.725360 -0.045300 0.015810 
#    y -0.045300 1.784360 -0.007990 
#    z 0.015810 -0.007990 1.730400 
# 
# From -- ./inp_files/175428.got.cif
#   From: 2010.05.17/outbox.cif.g08.bks.cpg/sg2_88_cif.got.tgz:175428.got - 2010.06.03 11:33:40.
