data_PCOD9100799
_publ_section_title
;
Structure prediction by ZEFSAII (Michael W. Deem and Ramdas Pophale) SiO2 
 PCOD9100799
Probable space group: P -1
;
_chemical_formula_sum "Si O2"
_cell_formula_units_Z 16
_cell_length_a 10.152322
_cell_length_b 20.546335
_cell_length_c 15.371112
_cell_angle_alpha 158.771571
_cell_angle_beta 30.696788
_cell_angle_gamma 139.804052
_cell_volume 580.213072
_symmetry_space_group_name_H-M "P -1"
_symmetry_group_IT_number 2
_symmetry_cell_setting 'triclinic'
loop_
_space_group_symop_operation_xyz
x,y,z
-x,-y,-z
loop_
_atom_site_type_symbol
_atom_site_label
_atom_site_fract_x
_atom_site_fract_y
_atom_site_fract_z
Si Si1 0.049211 0.429575 0.206611
Si Si2 0.763057 0.448801 0.232493
Si Si3 0.199852 0.667467 0.269874
Si Si4 0.757954 0.130359 0.250310
Si Si5 0.522297 0.882365 0.441107
Si Si6 0.408611 0.125926 0.288212
Si Si7 0.846637 0.118008 0.653932
Si Si8 0.373291 0.536860 0.369346
O O1 0.193505 0.570928 0.249737
O O2 0.822238 0.514024 0.508979
O O3 0.940842 0.333350 0.064632
O O4 0.256087 0.257926 0.912132
O O5 0.500000 0.500000 0.500000
O O6 0.925518 0.609892 0.325253
O O7 0.729663 0.315995 0.007925
O O8 0.263821 0.866839 0.509969
O O9 0.417559 0.576980 0.960731
O O10 0.539302 0.199746 0.533534
O O11 0.590991 0.040118 0.161112
O O12 0.817100 0.308313 0.390126
O O13 0.000000 0.000000 0.000000
O O14 0.636044 0.050383 0.626510
O O15 0.470465 0.327549 0.500268
O O16 0.101076 0.137977 0.481731
O O17 0.500000 0.000000 0.000000
O O18 0.000000 0.000000 0.500000
#
# Coordination Sequence:
#
# PCOD9100799 Si02
#       8
#     2   2   2   2   2   2   2   2
#     4  10  20  38  70  93 130 182 244 286 346 436
#     4  10  22  41  67  99 138 184 238 297 361 426
#     4  10  22  43  63  97 137 184 236 294 355 436
#     4  10  22  40  63  99 142 179 227 300 369 419
#     4  12  22  39  67  96 136 183 237 292 353 433
#     4  10  20  37  66 101 136 174 243 295 349 429
#     4  12  19  39  68  99 125 191 239 282 351 442
#     4  10  20  40  69 101 128 186 241 292 349 440
#
# _framework density 27.576077000000002
#
# number of rings (size 3 to 8) (size 9 to 14) (size 15 to 20)
#    1.500    0.000    5.000    1.125    0.000    1.500 
#    0.000    1.250    2.750    0.000    0.000    0.000 
#    0.000    0.125    0.000    0.000    0.000    0.000 
#
# Total GULP energy -89131.375491 kJ/mol
# GULP energy per Si atom -5570.710968 kJ/mol
# Density = 2.751331 g / cm^3
# Si number density = 27.576077 Si / 1000 Ang^3
#
#
#
# Elastic Constant Matrix: (Units=GPa)
#
#
# Indices 1 2 3 4 5 6 
#
# 1 150.4388 97.1756 62.4878 8.2086 44.5770 31.6675
# 2 97.1756 148.7792 94.1807 0.6595 37.3817 24.1305
# 3 62.4878 94.1807 161.6477 -30.6622 36.6899 22.1387
# 4 8.2086 0.6595 -30.6622 48.6958 -6.0424 18.4826
# 5 44.5770 37.3817 36.6899 -6.0424 58.3816 16.9998
# 6 31.6675 24.1305 22.1387 18.4826 16.9998 80.7869
#
#
#
# Elastic Compliance Matrix: (Units=1/GPa)
#
#
# Indices 1 2 3 4 5 6 
#
# 1 0.013215 -0.007010 -0.000039 -0.002291 -0.005403 -0.001415
# 2 -0.007010 0.016070 -0.007375 -0.004259 -0.001084 0.001171
# 3 -0.000039 -0.007375 0.013059 0.009337 -0.001566 -0.003167
# 4 -0.002291 -0.004259 0.009337 0.030504 0.004166 -0.008244
# 5 -0.005403 -0.001084 -0.001566 0.004166 0.024294 -0.003194
# 6 -0.001415 0.001171 -0.003167 -0.008244 -0.003194 0.016009
#
#
# Mechanical properties :
#
#
# Convention : Reuss Voigt Hill
#
# Bulk Modulus (GPa) = 74.09814 107.61710 90.85762
# Shear Modulus (GPa) = 34.13051 51.37431 42.75241
#
# Velocity S-wave (km/s) = 3.52189 4.32093 3.94171
# Velocity P-wave (km/s) = 6.59296 8.00026 7.33046
#
# Compressibility (1/GPa) = 0.01349562
#
# Stress axis : x y z
#
# Youngs Moduli (GPa) = 75.67201 62.22870 76.57812
#
# Poissons Ratio (x) = 0.43621 0.00298
# Poissons Ratio (y) = 0.53044 0.56478
# Poissons Ratio (z) = 0.00294 0.45895
#
# Static dielectric constant tensor:
#      x y z
#    x 2.473870 -0.094400 -0.195730 
#    y -0.094400 2.229930 0.069510 
#    z -0.195730 0.069510 2.152310 
# 
# From -- ./inp_files/571155.got.cif
#   From: 2010.05.17/outbox.cif.g08.bks.cpg/sg2_286_cif.got.tgz:571155.got - 2010.06.03 11:33:40.
