data_PCOD9100979
_publ_section_title
;
Structure prediction by ZEFSAII (Michael W. Deem and Ramdas Pophale) SiO2 
 PCOD9100979
Probable space group: P -1
;
_chemical_formula_sum "Si O2"
_cell_formula_units_Z 16
_cell_length_a 9.883915
_cell_length_b 13.137089
_cell_length_c 7.125936
_cell_angle_alpha 93.471553
_cell_angle_beta 70.834748
_cell_angle_gamma 134.519617
_cell_volume 603.074589
_symmetry_space_group_name_H-M "P -1"
_symmetry_group_IT_number 2
_symmetry_cell_setting 'triclinic'
loop_
_space_group_symop_operation_xyz
x,y,z
-x,-y,-z
loop_
_atom_site_type_symbol
_atom_site_label
_atom_site_fract_x
_atom_site_fract_y
_atom_site_fract_z
Si Si1 0.284350 0.436208 0.671328
Si Si2 0.861424 0.133559 0.961500
Si Si3 0.733554 0.852553 0.158078
Si Si4 0.665250 0.196508 0.308685
Si Si5 0.728602 0.397613 0.583041
Si Si6 0.227926 0.969378 0.392731
Si Si7 0.225503 0.584451 0.990918
Si Si8 0.890986 0.886693 0.733044
O O1 0.500000 0.500000 0.500000
O O2 0.192259 0.465168 0.555845
O O3 0.103877 0.267026 0.805830
O O4 0.309064 0.524503 0.848811
O O5 0.755571 0.094111 0.802383
O O6 0.811599 0.186648 0.153844
O O7 0.756242 0.975847 0.066472
O O8 0.519476 0.722344 0.337648
O O9 0.751143 0.787644 0.962815
O O10 0.919902 0.956491 0.230848
O O11 0.768212 0.312235 0.444387
O O12 0.424165 0.047704 0.440957
O O13 0.638449 0.256553 0.145289
O O14 0.226286 0.582971 0.214819
O O15 0.002391 0.849182 0.580715
O O16 0.211510 0.080289 0.345813
O O17 0.000000 0.500000 0.000000
#
# Coordination Sequence:
#
# PCOD9100979 Si02
#       8
#     2   2   2   2   2   2   2   2
#     4  11  28  48  73 107 149 187 244 301 362 429
#     4  11  24  44  65 104 149 181 233 310 355 413
#     4  10  21  40  68 102 138 180 239 294 353 431
#     4  11  23  45  69 103 144 186 245 290 359 431
#     4  11  26  46  79  99 140 199 243 290 364 436
#     4  10  20  37  67  98 139 184 227 298 357 416
#     4  11  24  50  74 102 140 195 244 292 356 441
#     4   9  19  35  63  98 135 179 230 279 360 424
#
# _framework density 26.530712999999999
#
# number of rings (size 3 to 8) (size 9 to 14) (size 15 to 20)
#    0.000    1.500    2.500    1.875    5.250    5.000 
#    4.500    0.000    0.000    0.000    0.000    0.000 
#    0.000    0.000    0.000    0.000    0.000    0.000 
#
# Total GULP energy -89388.614551 kJ/mol
# GULP energy per Si atom -5586.788409 kJ/mol
# Density = 2.647033 g / cm^3
# Si number density = 26.530713 Si / 1000 Ang^3
#
#
#
# Elastic Constant Matrix: (Units=GPa)
#
#
# Indices 1 2 3 4 5 6 
#
# 1 86.4975 24.2041 38.4720 20.3730 4.0443 11.9060
# 2 24.2041 51.6955 38.1213 16.6764 -0.2357 -7.4923
# 3 38.4720 38.1213 172.5420 46.6193 -9.4337 -8.4466
# 4 20.3730 16.6764 46.6193 64.1073 10.2630 -4.3988
# 5 4.0443 -0.2357 -9.4337 10.2630 61.8485 -3.0684
# 6 11.9060 -7.4923 -8.4466 -4.3988 -3.0684 31.7202
#
#
#
# Elastic Compliance Matrix: (Units=1/GPa)
#
#
# Indices 1 2 3 4 5 6 
#
# 1 0.016079 -0.006550 -0.002014 -0.002301 -0.001427 -0.008576
# 2 -0.006550 0.026729 -0.003521 -0.001897 0.000687 0.007638
# 3 -0.002014 -0.003521 0.008567 -0.004927 0.002329 0.001748
# 4 -0.002301 -0.001897 -0.004927 0.021166 -0.004039 0.001648
# 5 -0.001427 0.000687 0.002329 -0.004039 0.017411 0.002442
# 6 -0.008576 0.007638 0.001748 0.001648 0.002442 0.037479
#
#
# Mechanical properties :
#
#
# Convention : Reuss Voigt Hill
#
# Bulk Modulus (GPa) = 36.75852 56.92555 46.84204
# Shear Modulus (GPa) = 31.11980 45.53104 38.32542
#
# Velocity S-wave (km/s) = 3.42858 4.14715 3.80487
# Velocity P-wave (km/s) = 5.43680 6.66595 6.08250
#
# Compressibility (1/GPa) = 0.02720457
#
# Stress axis : x y z
#
# Youngs Moduli (GPa) = 62.19359 37.41207 116.72971
#
# Poissons Ratio (x) = 0.24505 0.23510
# Poissons Ratio (y) = 0.40737 0.41102
# Poissons Ratio (z) = 0.12526 0.13173
#
# Static dielectric constant tensor:
#      x y z
#    x 2.106380 -0.021250 -0.072240 
#    y -0.021250 2.117880 -0.004390 
#    z -0.072240 -0.004390 2.199630 
# 
# From -- ./inp_files/270447.got.cif
#   From: 2010.05.17/outbox.cif.g08.bks.cpg/sg2_136_cif.got.tgz:270447.got - 2010.06.03 11:33:40.
