data_PCOD9100389
_publ_section_title
;
Structure prediction by ZEFSAII (Michael W. Deem and Ramdas Pophale) SiO2 
 PCOD9100389
Probable space group: P -1
;
_chemical_formula_sum "Si O2"
_cell_formula_units_Z 16
_cell_length_a 9.572595
_cell_length_b 11.641059
_cell_length_c 18.333575
_cell_angle_alpha 29.289748
_cell_angle_beta 132.294323
_cell_angle_gamma 129.740361
_cell_volume 731.529806
_symmetry_space_group_name_H-M "P -1"
_symmetry_group_IT_number 2
_symmetry_cell_setting 'triclinic'
loop_
_space_group_symop_operation_xyz
x,y,z
-x,-y,-z
loop_
_atom_site_type_symbol
_atom_site_label
_atom_site_fract_x
_atom_site_fract_y
_atom_site_fract_z
Si Si1 0.936130 0.839909 0.135383
Si Si2 0.049302 0.779670 0.945791
Si Si3 0.041285 0.414261 0.480929
Si Si4 0.414590 0.227190 0.037599
Si Si5 0.723768 0.989227 0.231746
Si Si6 0.000629 0.271176 0.287336
Si Si7 0.223962 0.860470 0.575236
Si Si8 0.369872 0.259714 0.170865
O O1 0.069253 0.651735 0.310853
O O2 0.736371 0.703809 0.111315
O O3 0.904795 0.010540 0.096173
O O4 0.000000 0.000000 0.000000
O O5 0.834962 0.797168 0.831659
O O6 0.040900 0.526264 0.122178
O O7 0.199489 0.831851 0.905291
O O8 0.215491 0.263750 0.624677
O O9 0.000000 0.500000 0.500000
O O10 0.865115 0.242336 0.475847
O O11 0.340404 0.181535 0.118996
O O12 0.505321 0.005448 0.162035
O O13 0.575798 0.455956 0.971874
O O14 0.840998 0.094270 0.285437
O O15 0.908140 0.283781 0.327858
O O16 0.181564 0.129309 0.425318
O O17 0.445833 0.837926 0.677823
#
# Coordination Sequence:
#
# PCOD9100389 Si02
#       8
#     2   2   2   2   2   2   2   2
#     4  12  24  43  68  95 130 177 224 267 325 397
#     4  12  23  39  65  97 136 167 216 277 329 381
#     4  11  23  44  64  94 138 181 210 261 344 397
#     4  11  22  40  66  97 129 171 225 267 325 392
#     4  11  23  41  68  93 134 175 214 274 327 390
#     4  10  20  37  63  98 126 163 224 274 325 375
#     4  10  20  38  67  94 124 175 222 268 319 395
#     4  11  20  39  66  99 129 167 227 275 312 392
#
# _framework density 21.871972
#
# number of rings (size 3 to 8) (size 9 to 14) (size 15 to 20)
#    0.000    1.000    6.250    1.875    0.000    0.500 
#    0.000    5.625    0.000    0.000    0.000    0.000 
#    0.000    0.000    0.000    0.000    0.000    0.000 
#
# Total GULP energy -89419.540391 kJ/mol
# GULP energy per Si atom -5588.721274 kJ/mol
# Density = 2.182219 g / cm^3
# Si number density = 21.871972 Si / 1000 Ang^3
#
#
#
# Elastic Constant Matrix: (Units=GPa)
#
#
# Indices 1 2 3 4 5 6 
#
# 1 65.6422 15.2960 35.0154 -4.7362 10.2377 -23.6431
# 2 15.2960 64.3927 8.3807 0.2548 -1.3369 -23.7381
# 3 35.0154 8.3807 142.7690 -11.1679 20.6439 -5.4634
# 4 -4.7362 0.2548 -11.1679 25.5376 -2.6658 2.0986
# 5 10.2377 -1.3369 20.6439 -2.6658 42.3273 -1.6591
# 6 -23.6431 -23.7381 -5.4634 2.0986 -1.6591 26.7583
#
#
#
# Elastic Compliance Matrix: (Units=1/GPa)
#
#
# Indices 1 2 3 4 5 6 
#
# 1 0.027056 0.003805 -0.005456 0.000173 -0.002733 0.025984
# 2 0.003805 0.023927 -0.001792 -0.002169 0.001533 0.024487
# 3 -0.005456 -0.001792 0.008940 0.003003 -0.003104 -0.005013
# 4 0.000173 -0.002169 0.003003 0.040967 0.000836 -0.004319
# 5 -0.002733 0.001533 -0.003104 0.000836 0.025896 -0.000149
# 6 0.025984 0.024487 -0.005013 -0.004319 -0.000149 0.081359
#
#
# Mechanical properties :
#
#
# Convention : Reuss Voigt Hill
#
# Bulk Modulus (GPa) = 18.85528 43.35423 31.10476
# Shear Modulus (GPa) = 21.48611 33.19877 27.34244
#
# Velocity S-wave (km/s) = 3.13766 3.90021 3.53953
# Velocity P-wave (km/s) = 4.66541 6.33617 5.56386
#
# Compressibility (1/GPa) = 0.05303553
#
# Stress axis : x y z
#
# Youngs Moduli (GPa) = 36.96105 41.79460 111.86220
#
# Poissons Ratio (x) = -0.15901 0.61030
# Poissons Ratio (y) = -0.14062 0.20044
# Poissons Ratio (z) = 0.20165 0.07489
#
# Static dielectric constant tensor:
#      x y z
#    x 1.800470 0.004360 0.020720 
#    y 0.004360 1.841650 0.010950 
#    z 0.020720 0.010950 1.849800 
# 
# From -- ./inp_files/559595.got.cif
#   From: 2010.05.17/outbox.cif.g08.bks.cpg/sg2_280_cif.got.tgz:559595.got - 2010.06.03 11:33:40.
