data_PCOD9100854
_publ_section_title
;
Structure prediction by ZEFSAII (Michael W. Deem and Ramdas Pophale) SiO2 
 PCOD9100854
Probable space group: P -1
;
_chemical_formula_sum "Si O2"
_cell_formula_units_Z 13
_cell_length_a 8.184283
_cell_length_b 9.237569
_cell_length_c 11.760012
_cell_angle_alpha 37.401052
_cell_angle_beta 71.474599
_cell_angle_gamma 79.310454
_cell_volume 508.574741
_symmetry_space_group_name_H-M "P -1"
_symmetry_group_IT_number 2
_symmetry_cell_setting 'triclinic'
loop_
_space_group_symop_operation_xyz
x,y,z
-x,-y,-z
loop_
_atom_site_type_symbol
_atom_site_label
_atom_site_fract_x
_atom_site_fract_y
_atom_site_fract_z
Si Si1 0.855012 0.111227 0.273868
Si Si2 0.691970 0.739316 0.369370
Si Si3 0.208253 0.363307 0.026697
Si Si4 0.070749 0.453836 0.753414
Si Si5 0.000000 0.000000 0.500000
Si Si6 0.583315 0.001859 0.855361
Si Si7 0.168889 0.644466 0.314208
O O1 0.057058 0.185742 0.236519
O O2 0.817559 0.942651 0.280442
O O3 0.804619 0.975898 0.486188
O O4 0.781833 0.361821 0.110616
O O5 0.779190 0.632896 0.305895
O O6 0.521471 0.847205 0.300281
O O7 0.676458 0.519375 0.599151
O O8 0.384733 0.250732 0.047216
O O9 0.115457 0.368787 0.921227
O O10 0.051201 0.734358 0.589001
O O11 0.892224 0.322213 0.820384
O O12 0.774852 0.123889 0.769265
O O13 0.500000 0.000000 0.000000
O O14 0.000000 0.500000 0.500000
#
# Coordination Sequence:
#
# PCOD9100854 Si02
#       7
#     2   2   2   2   1   2   2
#     4  10  22  40  67  94 126 170 231 263 318 373
#     4  11  22  40  63  96 128 171 212 268 326 389
#     4  10  22  40  62  96 129 177 207 273 320 392
#     4  10  20  37  66  93 124 162 226 264 315 380
#     4  10  20  38  64  94 126 162 224 278 304 374
#     4  12  25  40  63  99 142 168 206 267 341 389
#     4  10  22  40  65  93 121 173 221 265 301 380
#
# _framework density 25.561631999999999
#
# number of rings (size 3 to 8) (size 9 to 14) (size 15 to 20)
#    0.000    1.538    3.077    2.308    4.308    1.846 
#    0.000    0.000    0.000    2.769    0.000    0.000 
#    0.000    0.000    0.000    0.000    0.000    0.000 
#
# Total GULP energy -72432.881891 kJ/mol
# GULP energy per Si atom -5571.760145 kJ/mol
# Density = 2.550345 g / cm^3
# Si number density = 25.561632 Si / 1000 Ang^3
#
#
#
# Elastic Constant Matrix: (Units=GPa)
#
#
# Indices 1 2 3 4 5 6 
#
# 1 76.4881 38.6642 29.4545 -10.3214 26.3297 -2.9439
# 2 38.6642 178.6683 44.0034 -25.2936 8.0805 -4.6453
# 3 29.4545 44.0034 98.1325 -16.8015 26.1317 -3.8956
# 4 -10.3214 -25.2936 -16.8015 55.1077 -8.8013 17.0843
# 5 26.3297 8.0805 26.1317 -8.8013 44.7054 -8.8983
# 6 -2.9439 -4.6453 -3.8956 17.0843 -8.8983 41.5884
#
#
#
# Elastic Compliance Matrix: (Units=1/GPa)
#
#
# Indices 1 2 3 4 5 6 
#
# 1 0.018620 -0.003179 -0.001567 0.000452 -0.009673 -0.001439
# 2 -0.003179 0.007117 -0.002505 0.002333 0.002492 -0.000090
# 3 -0.001567 -0.002505 0.013848 0.002159 -0.006570 -0.001386
# 4 0.000452 0.002333 0.002159 0.022784 0.000805 -0.008692
# 5 -0.009673 0.002492 -0.006570 0.000805 0.032739 0.005652
# 6 -0.001439 -0.000090 -0.001386 -0.008692 0.005652 0.028583
#
#
# Mechanical properties :
#
#
# Convention : Reuss Voigt Hill
#
# Bulk Modulus (GPa) = 39.86799 64.17037 52.01918
# Shear Modulus (GPa) = 34.11699 44.35807 39.23753
#
# Velocity S-wave (km/s) = 3.65731 4.17026 3.92218
# Velocity P-wave (km/s) = 5.78491 6.95318 6.39578
#
# Compressibility (1/GPa) = 0.02508278
#
# Stress axis : x y z
#
# Youngs Moduli (GPa) = 53.70578 140.50516 72.21322
#
# Poissons Ratio (x) = 0.44673 0.11316
# Poissons Ratio (y) = 0.17076 0.18087
# Poissons Ratio (z) = 0.08416 0.35192
#
# Static dielectric constant tensor:
#      x y z
#    x 2.123170 -0.009670 -0.057390 
#    y -0.009670 2.081940 0.098850 
#    z -0.057390 0.098850 2.352830 
# 
# From -- ./inp_files/154034.got.cif
#   From: 2010.05.17/outbox.cif.g08.bks.cpg/sg2_78_cif.got.tgz:154034.got - 2010.06.03 11:33:40.
