data_PCOD9100293
_publ_section_title
;
Structure prediction by ZEFSAII (Michael W. Deem and Ramdas Pophale) SiO2 
 PCOD9100293
Probable space group: P -1
;
_chemical_formula_sum "Si O2"
_cell_formula_units_Z 14
_cell_length_a 12.472336
_cell_length_b 14.828562
_cell_length_c 21.085410
_cell_angle_alpha 159.280120
_cell_angle_beta 28.327648
_cell_angle_gamma 139.327031
_cell_volume 603.833132
_symmetry_space_group_name_H-M "P -1"
_symmetry_group_IT_number 2
_symmetry_cell_setting 'triclinic'
loop_
_space_group_symop_operation_xyz
x,y,z
-x,-y,-z
loop_
_atom_site_type_symbol
_atom_site_label
_atom_site_fract_x
_atom_site_fract_y
_atom_site_fract_z
Si Si1 0.948322 0.936859 0.812131
Si Si2 0.311355 0.318227 0.309936
Si Si3 0.153260 0.038641 0.648549
Si Si4 0.782467 0.950468 0.045559
Si Si5 0.249084 0.410506 0.636186
Si Si6 0.055819 0.581323 0.321799
Si Si7 0.319573 0.412969 0.738844
O O1 0.152901 0.953852 0.666754
O O2 0.870054 0.726518 0.674746
O O3 0.787140 0.269267 0.123637
O O4 0.913293 0.848772 0.843457
O O5 0.184909 0.377539 0.483096
O O6 0.439222 0.525809 0.360080
O O7 0.500000 0.000000 0.000000
O O8 0.338725 0.181446 0.627394
O O9 0.156384 0.802654 0.442677
O O10 0.888201 0.290096 0.940603
O O11 0.524459 0.207031 0.339997
O O12 0.749451 0.716321 0.952842
O O13 0.000000 0.000000 0.000000
O O14 0.045808 0.403315 0.686811
O O15 0.227922 0.322801 0.661790
#
# Coordination Sequence:
#
# PCOD9100293 Si02
#       7
#     2   2   2   2   2   2   2
#     4  10  21  38  63  90 122 159 202 252 307 356
#     4  11  18  34  62  90 119 158 200 256 301 351
#     4   9  21  38  62  91 121 162 209 249 296 367
#     4  12  24  34  62  98 123 157 200 255 310 357
#     4  11  22  38  63  91 126 161 198 251 308 360
#     4  11  23  39  63  94 126 155 205 256 303 360
#     4  10  20  37  63  92 120 163 209 244 302 365
#
# _framework density 23.185213999999998
#
# number of rings (size 3 to 8) (size 9 to 14) (size 15 to 20)
#    0.000    1.429    5.714    2.143    0.000    2.857 
#    0.000    0.714    0.000    7.714    0.000    0.000 
#    0.000    0.000    0.000    0.000    0.000    0.000 
#
# Total GULP energy -77984.857994 kJ/mol
# GULP energy per Si atom -5570.347000 kJ/mol
# Density = 2.313244 g / cm^3
# Si number density = 23.185214 Si / 1000 Ang^3
#
#
#
# Elastic Constant Matrix: (Units=GPa)
#
#
# Indices 1 2 3 4 5 6 
#
# 1 84.8453 16.9429 37.7485 3.2829 15.1427 -20.7838
# 2 16.9429 89.5990 11.4321 9.9378 -0.4733 2.9278
# 3 37.7485 11.4321 96.7538 23.1127 1.8124 14.4568
# 4 3.2829 9.9378 23.1127 20.8545 0.0211 6.0213
# 5 15.1427 -0.4733 1.8124 0.0211 32.5452 -2.4297
# 6 -20.7838 2.9278 14.4568 6.0213 -2.4297 26.0220
#
#
#
# Elastic Compliance Matrix: (Units=1/GPa)
#
#
# Indices 1 2 3 4 5 6 
#
# 1 0.029880 -0.005411 -0.017448 0.008194 -0.010680 0.031274
# 2 -0.005411 0.012765 0.003084 -0.007020 0.002114 -0.005650
# 3 -0.017448 0.003084 0.024801 -0.019556 0.005073 -0.023063
# 4 0.008194 -0.007020 -0.019556 0.071264 -0.002763 0.001451
# 5 -0.010680 0.002114 0.005073 -0.002763 0.034872 -0.007691
# 6 0.031274 -0.005650 -0.023063 0.001451 -0.007691 0.075802
#
#
# Mechanical properties :
#
#
# Convention : Reuss Voigt Hill
#
# Bulk Modulus (GPa) = 35.84779 44.82727 40.33753
# Shear Modulus (GPa) = 16.76544 29.55598 23.16071
#
# Velocity S-wave (km/s) = 2.69199 3.57428 3.16404
# Velocity P-wave (km/s) = 5.01572 6.03410 5.54832
#
# Compressibility (1/GPa) = 0.02789572
#
# Stress axis : x y z
#
# Youngs Moduli (GPa) = 33.46748 78.33954 40.32077
#
# Poissons Ratio (x) = 0.42390 0.70354
# Poissons Ratio (y) = 0.18109 -0.12437
# Poissons Ratio (z) = 0.58396 -0.24164
#
# Static dielectric constant tensor:
#      x y z
#    x 2.034220 -0.126060 -0.081600 
#    y -0.126060 1.930950 0.035220 
#    z -0.081600 0.035220 1.948320 
# 
# From -- ./inp_files/595680.got.cif
#   From: 2010.05.17/outbox.cif.g08.bks.cpg/sg2_298_cif.got.tgz:595680.got - 2010.06.03 11:33:40.
