data_PCOD9100754
_publ_section_title
;
Structure prediction by ZEFSAII (Michael W. Deem and Ramdas Pophale) SiO2 
 PCOD9100754
Probable space group: P -1
;
_chemical_formula_sum "Si O2"
_cell_formula_units_Z 12
_cell_length_a 8.384920
_cell_length_b 9.755482
_cell_length_c 14.854586
_cell_angle_alpha 116.514277
_cell_angle_beta 149.834169
_cell_angle_gamma 73.017130
_cell_volume 534.327607
_symmetry_space_group_name_H-M "P -1"
_symmetry_group_IT_number 2
_symmetry_cell_setting 'triclinic'
loop_
_space_group_symop_operation_xyz
x,y,z
-x,-y,-z
loop_
_atom_site_type_symbol
_atom_site_label
_atom_site_fract_x
_atom_site_fract_y
_atom_site_fract_z
Si Si1 0.792237 0.055376 0.336187
Si Si2 0.117453 0.378342 0.587306
Si Si3 0.794321 0.177706 0.041644
Si Si4 0.821283 0.579920 0.011423
Si Si5 0.879928 0.865094 0.996865
Si Si6 0.865549 0.476246 0.668404
O O1 0.038842 0.203416 0.456183
O O2 0.113512 0.819676 0.020234
O O3 0.466260 0.125430 0.215047
O O4 0.000000 0.000000 0.500000
O O5 0.000000 0.500000 0.500000
O O6 0.920920 0.370445 0.581691
O O7 0.478503 0.459638 0.815853
O O8 0.414303 0.106292 0.855281
O O9 0.912884 0.350103 0.186340
O O10 0.984540 0.046158 0.132209
O O11 0.808367 0.745781 0.008802
O O12 0.019085 0.589462 0.202595
O O13 0.000000 0.500000 0.000000
O O14 0.500000 0.500000 0.500000
#
# Coordination Sequence:
#
# PCOD9100754 Si02
#       6
#     2   2   2   2   2   2
#     4  10  20  37  65  95 126 170 212 264 331 384
#     4  12  24  43  67 100 132 170 223 275 323 395
#     4   9  19  40  65  92 130 171 210 264 323 393
#     4  12  23  42  67  97 133 174 217 274 330 382
#     4   9  19  38  65  89 130 168 215 252 337 374
#     4  12  25  42  66 101 131 174 224 269 327 391
#
# _framework density 22.458131000000002
#
# number of rings (size 3 to 8) (size 9 to 14) (size 15 to 20)
#    1.000    0.333    3.333    3.500    0.000    0.000 
#    0.000    5.833    0.000    0.000    0.000    0.000 
#    0.000    0.000    0.000    0.000    0.000    0.000 
#
# Total GULP energy -66866.197017 kJ/mol
# GULP energy per Si atom -5572.183085 kJ/mol
# Density = 2.240702 g / cm^3
# Si number density = 22.458131 Si / 1000 Ang^3
#
#
#
# Elastic Constant Matrix: (Units=GPa)
#
#
# Indices 1 2 3 4 5 6 
#
# 1 64.8139 2.4844 22.6639 -11.6364 1.1598 4.8317
# 2 2.4844 147.2169 52.5334 7.3990 1.5224 19.6341
# 3 22.6639 52.5334 109.6329 -5.6778 4.4049 16.7168
# 4 -11.6364 7.3990 -5.6778 51.2298 -3.5265 1.9951
# 5 1.1598 1.5224 4.4049 -3.5265 21.1585 5.1651
# 6 4.8317 19.6341 16.7168 1.9951 5.1651 24.4709
#
#
#
# Elastic Compliance Matrix: (Units=1/GPa)
#
#
# Indices 1 2 3 4 5 6 
#
# 1 0.017456 0.001131 -0.003645 0.003550 0.000883 -0.002339
# 2 0.001131 0.008834 -0.003836 -0.001182 0.001081 -0.004822
# 3 -0.003645 -0.003836 0.012525 0.001243 -0.000778 -0.004696
# 4 0.003550 -0.001182 0.001243 0.021026 0.003902 -0.003140
# 5 0.000883 0.001081 -0.000778 0.003902 0.050767 -0.011544
# 6 -0.002339 -0.004822 -0.004696 -0.003140 -0.011544 0.051096
#
#
# Mechanical properties :
#
#
# Convention : Reuss Voigt Hill
#
# Bulk Modulus (GPa) = 38.29479 53.00302 45.64890
# Shear Modulus (GPa) = 27.30617 35.63730 31.47174
#
# Velocity S-wave (km/s) = 3.49072 3.98783 3.74752
# Velocity P-wave (km/s) = 5.77369 6.69744 6.25265
#
# Compressibility (1/GPa) = 0.02611321
#
# Stress axis : x y z
#
# Youngs Moduli (GPa) = 57.28681 113.20076 79.84211
#
# Poissons Ratio (x) = -0.12800 0.29105
# Poissons Ratio (y) = -0.06478 0.30628
# Poissons Ratio (z) = 0.20883 0.43424
#
# Static dielectric constant tensor:
#      x y z
#    x 1.840660 -0.002700 0.024750 
#    y -0.002700 1.930620 0.074320 
#    z 0.024750 0.074320 1.860720 
# 
# From -- ./inp_files/493263.got.cif
#   From: 2010.05.17/outbox.cif.g08.bks.cpg/sg2_247_cif.got.tgz:493263.got - 2010.06.03 11:33:40.
