data_PCOD9100168
_publ_section_title
;
Structure prediction by ZEFSAII (Michael W. Deem and Ramdas Pophale) SiO2 
 PCOD9100168
Probable space group: P -1
;
_chemical_formula_sum "Si O2"
_cell_formula_units_Z 16
_cell_length_a 10.037812
_cell_length_b 20.437053
_cell_length_c 12.931902
_cell_angle_alpha 37.810108
_cell_angle_beta 42.717577
_cell_angle_gamma 71.520676
_cell_volume 853.598612
_symmetry_space_group_name_H-M "P -1"
_symmetry_group_IT_number 2
_symmetry_cell_setting 'triclinic'
loop_
_space_group_symop_operation_xyz
x,y,z
-x,-y,-z
loop_
_atom_site_type_symbol
_atom_site_label
_atom_site_fract_x
_atom_site_fract_y
_atom_site_fract_z
Si Si1 0.554320 0.171138 0.664131
Si Si2 0.054126 0.389492 0.727401
Si Si3 0.852808 0.130302 0.692505
Si Si4 0.043803 0.331958 0.040044
Si Si5 0.456710 0.584400 0.627141
Si Si6 0.646883 0.324356 0.898402
Si Si7 0.367349 0.410286 0.086093
Si Si8 0.867566 0.863794 0.678941
O O1 0.668598 0.159959 0.718340
O O2 0.492014 0.273220 0.581488
O O3 0.781490 0.242824 0.363169
O O4 0.314265 0.013862 0.972289
O O5 0.280855 0.387148 0.574343
O O6 0.168763 0.546874 0.444346
O O7 0.813793 0.300364 0.899618
O O8 0.992296 0.346778 0.934273
O O9 0.091549 0.264699 0.445415
O O10 0.968359 0.113183 0.544640
O O11 0.155982 0.251778 0.094597
O O12 0.250514 0.481251 0.787244
O O13 0.343937 0.497663 0.906586
O O14 0.531322 0.373781 0.981619
O O15 0.408162 0.198289 0.128816
O O16 0.500000 0.500000 0.000000
O O17 0.000000 0.000000 0.500000
#
# Coordination Sequence:
#
# PCOD9100168 Si02
#       8
#     2   2   2   2   2   2   2   2
#     4  10  21  36  61  85 121 154 194 257 303 347
#     4  10  21  36  61  85 121 154 194 257 303 347
#     4   9  20  40  56  88 123 152 199 249 299 369
#     4  11  21  37  58  94 120 154 209 255 297 361
#     4  11  21  37  58  94 120 154 209 255 297 361
#     4   9  20  40  56  88 123 152 199 249 299 369
#     4  10  20  37  63  84 118 162 200 246 305 361
#     4  10  20  37  63  84 118 162 200 246 305 361
#
# _framework density 18.744171000000001
#
# number of rings (size 3 to 8) (size 9 to 14) (size 15 to 20)
#    0.000    2.000    5.000    0.750    3.500    0.000 
#    0.000   11.250    0.000    0.000    0.000    0.000 
#    0.000    0.000    0.000    0.000    0.000    0.000 
#
# Total GULP energy -89296.033141 kJ/mol
# GULP energy per Si atom -5581.002071 kJ/mol
# Density = 1.870151 g / cm^3
# Si number density = 18.744171 Si / 1000 Ang^3
#
#
#
# Elastic Constant Matrix: (Units=GPa)
#
#
# Indices 1 2 3 4 5 6 
#
# 1 118.4349 42.1955 71.1609 -10.6789 0.1303 11.0165
# 2 42.1955 52.4456 39.4004 -27.9803 -0.2561 12.2306
# 3 71.1609 39.4004 96.0191 -23.1985 -7.9580 -6.1955
# 4 -10.6789 -27.9803 -23.1985 22.4646 3.8636 -5.6566
# 5 0.1303 -0.2561 -7.9580 3.8636 23.8429 -10.0782
# 6 11.0165 12.2306 -6.1955 -5.6566 -10.0782 23.2984
#
#
#
# Elastic Compliance Matrix: (Units=1/GPa)
#
#
# Indices 1 2 3 4 5 6 
#
# 1 0.033500 -0.024287 -0.030226 -0.050483 -0.014975 -0.029863
# 2 -0.024287 0.121611 -0.006036 0.130483 -0.038105 -0.038764
# 3 -0.030226 -0.006036 0.051102 0.038924 0.034227 0.055306
# 4 -0.050483 0.130483 0.038924 0.229682 -0.016479 0.014360
# 5 -0.014975 -0.038105 0.034227 -0.016479 0.084821 0.068876
# 6 -0.029863 -0.038764 0.055306 0.014360 0.068876 0.125379
#
#
# Mechanical properties :
#
#
# Convention : Reuss Voigt Hill
#
# Bulk Modulus (GPa) = 11.74904 63.60147 37.67526
# Shear Modulus (GPa) = 6.28485 21.53069 13.90777
#
# Velocity S-wave (km/s) = 1.83310 3.39287 2.72688
# Velocity P-wave (km/s) = 3.28055 7.02522 5.48251
#
# Compressibility (1/GPa) = 0.08511332
#
# Stress axis : x y z
#
# Youngs Moduli (GPa) = 29.85080 8.22297 19.56876
#
# Poissons Ratio (x) = 0.19971 0.59149
# Poissons Ratio (y) = 0.72499 0.11812
# Poissons Ratio (z) = 0.90227 0.04963
#
# Static dielectric constant tensor:
#      x y z
#    x 1.644540 -0.011150 -0.010200 
#    y -0.011150 1.658480 0.023910 
#    z -0.010200 0.023910 1.665970 
# 
# From -- ./inp_files/380998.got.cif
#   From: 2010.05.17/outbox.cif.g08.bks.cpg/sg2_191_cif.got.tgz:380998.got - 2010.06.03 11:33:40.
