data_PCOD9100818
_publ_section_title
;
Structure prediction by ZEFSAII (Michael W. Deem and Ramdas Pophale) SiO2 
 PCOD9100818
Probable space group: P -1
;
_chemical_formula_sum "Si O2"
_cell_formula_units_Z 16
_cell_length_a 9.487308
_cell_length_b 19.855471
_cell_length_c 20.729933
_cell_angle_alpha 159.557328
_cell_angle_beta 42.605355
_cell_angle_gamma 140.350609
_cell_volume 868.428382
_symmetry_space_group_name_H-M "P -1"
_symmetry_group_IT_number 2
_symmetry_cell_setting 'triclinic'
loop_
_space_group_symop_operation_xyz
x,y,z
-x,-y,-z
loop_
_atom_site_type_symbol
_atom_site_label
_atom_site_fract_x
_atom_site_fract_y
_atom_site_fract_z
Si Si1 0.261344 0.844082 0.456925
Si Si2 0.880578 0.037674 0.761422
Si Si3 0.566566 0.041266 0.756762
Si Si4 0.414790 0.397154 0.503845
Si Si5 0.229316 0.497170 0.889961
Si Si6 0.535261 0.266844 0.589570
Si Si7 0.081467 0.506396 0.806181
Si Si8 0.743238 0.376188 0.484381
O O1 0.293233 0.741815 0.421852
O O2 0.157470 0.660641 0.276780
O O3 0.097739 0.975186 0.632548
O O4 0.500000 0.000000 0.500000
O O5 0.699067 0.847545 0.687482
O O6 0.772402 0.028294 0.718294
O O7 0.915233 0.262114 0.978943
O O8 0.571836 0.956650 0.607446
O O9 0.343907 0.874977 0.712350
O O10 0.591777 0.275995 0.960366
O O11 0.500000 0.500000 0.500000
O O12 0.606948 0.435249 0.526550
O O13 0.232792 0.478815 0.671619
O O14 0.337529 0.343349 0.746976
O O15 0.179423 0.450109 0.788951
O O16 0.000000 0.500000 0.000000
O O17 0.657263 0.405285 0.611255
O O18 0.000000 0.500000 0.500000
#
# Coordination Sequence:
#
# PCOD9100818 Si02
#       8
#     2   2   2   2   2   2   2   2
#     4  11  25  37  58  87 125 163 195 244 313 358
#     4   9  20  41  59  83 118 157 200 249 292 353
#     4   8  20  39  62  84 115 152 209 247 285 359
#     4  10  20  37  66  88 116 156 201 247 304 355
#     4  11  22  38  67  88 114 161 207 249 300 350
#     4  10  22  40  58  89 124 150 204 249 293 366
#     4  10  22  42  59  87 121 154 206 253 288 367
#     4   9  19  38  61  84 120 156 192 248 303 348
#
# _framework density 18.424085999999999
#
# number of rings (size 3 to 8) (size 9 to 14) (size 15 to 20)
#    0.750    1.500    1.250    0.750    8.750    2.500 
#    0.000    0.625    0.000    0.000    0.000    0.000 
#    0.000    0.000    0.000    0.000    0.000    0.000 
#
# Total GULP energy -89117.196509 kJ/mol
# GULP energy per Si atom -5569.824782 kJ/mol
# Density = 1.838215 g / cm^3
# Si number density = 18.424086 Si / 1000 Ang^3
#
#
#
# Elastic Constant Matrix: (Units=GPa)
#
#
# Indices 1 2 3 4 5 6 
#
# 1 81.0208 25.3447 40.1200 14.1090 -3.5520 15.2250
# 2 25.3447 77.7982 15.3202 5.7664 2.5846 23.0221
# 3 40.1200 15.3202 84.5320 19.6798 6.8030 18.4843
# 4 14.1090 5.7664 19.6798 27.3321 3.5419 6.0135
# 5 -3.5520 2.5846 6.8030 3.5419 16.1985 3.2976
# 6 15.2250 23.0221 18.4843 6.0135 3.2976 33.8262
#
#
#
# Elastic Compliance Matrix: (Units=1/GPa)
#
#
# Indices 1 2 3 4 5 6 
#
# 1 0.018854 -0.004149 -0.007594 -0.004222 0.009247 -0.001664
# 2 -0.004149 0.017048 0.001249 0.000173 -0.002107 -0.010243
# 3 -0.007594 0.001249 0.018804 -0.007741 -0.006917 -0.005656
# 4 -0.004222 0.000173 -0.007741 0.045562 -0.007386 -0.001367
# 5 0.009247 -0.002107 -0.006917 -0.007386 0.069517 -0.004412
# 6 -0.001664 -0.010243 -0.005656 -0.001367 -0.004412 0.041047
#
#
# Mechanical properties :
#
#
# Convention : Reuss Voigt Hill
#
# Bulk Modulus (GPa) = 29.65867 44.99118 37.32493
# Shear Modulus (GPa) = 20.57123 26.30909 23.44016
#
# Velocity S-wave (km/s) = 3.34509 3.78295 3.57074
# Velocity P-wave (km/s) = 5.57245 6.59953 6.10762
#
# Compressibility (1/GPa) = 0.03371695
#
# Stress axis : x y z
#
# Youngs Moduli (GPa) = 53.03949 58.65881 53.18130
#
# Poissons Ratio (x) = 0.24336 0.40386
# Poissons Ratio (y) = 0.22004 -0.06640
# Poissons Ratio (z) = 0.40278 -0.07324
#
# Static dielectric constant tensor:
#      x y z
#    x 1.679790 -0.036440 -0.013800 
#    y -0.036440 1.675020 0.013280 
#    z -0.013800 0.013280 1.640330 
# 
# From -- ./inp_files/332564.got.cif
#   From: 2010.05.17/outbox.cif.g08.bks.cpg/sg2_167_cif.got.tgz:332564.got - 2010.06.03 11:33:40.
