data_PCOD9100490
_publ_section_title
;
Structure prediction by ZEFSAII (Michael W. Deem and Ramdas Pophale) SiO2 
 PCOD9100490
Probable space group: P -1
;
_chemical_formula_sum "Si O2"
_cell_formula_units_Z 14
_cell_length_a 14.076327
_cell_length_b 8.346829
_cell_length_c 11.091672
_cell_angle_alpha 112.482276
_cell_angle_beta 147.705101
_cell_angle_gamma 51.836373
_cell_volume 516.174371
_symmetry_space_group_name_H-M "P -1"
_symmetry_group_IT_number 2
_symmetry_cell_setting 'triclinic'
loop_
_space_group_symop_operation_xyz
x,y,z
-x,-y,-z
loop_
_atom_site_type_symbol
_atom_site_label
_atom_site_fract_x
_atom_site_fract_y
_atom_site_fract_z
Si Si1 0.324421 0.440441 0.307122
Si Si2 0.741183 0.345183 0.338953
Si Si3 0.884893 0.880759 0.678379
Si Si4 0.652499 0.601230 0.943414
Si Si5 0.740957 0.686994 0.298611
Si Si6 0.804695 0.839481 0.840881
Si Si7 0.890232 0.971646 0.197072
O O1 0.500000 0.500000 0.500000
O O2 0.356860 0.330097 0.181300
O O3 0.314224 0.278899 0.339166
O O4 0.068710 0.652794 0.094127
O O5 0.549853 0.405870 0.243165
O O6 0.668429 0.554538 0.248238
O O7 0.964709 0.244242 0.627949
O O8 0.790756 0.163002 0.243620
O O9 0.728985 0.853831 0.421362
O O10 0.798176 0.951539 0.741595
O O11 0.937698 0.016232 0.694750
O O12 0.120278 0.641623 0.872523
O O13 0.643225 0.751586 0.079449
O O14 0.000000 0.500000 0.500000
O O15 0.738064 0.979209 0.931563
#
# Coordination Sequence:
#
# PCOD9100490 Si02
#       7
#     2   2   2   2   2   2   2
#     4  10  22  40  65  97 120 166 220 263 303 383
#     4  11  23  38  65  92 129 166 205 267 311 375
#     4  10  22  41  67  91 125 169 213 258 310 378
#     4  10  21  38  66  90 122 160 219 255 303 376
#     4  10  20  37  64  91 120 164 220 248 306 379
#     4  10  23  40  66  88 130 171 207 258 325 373
#     4  11  23  39  63  95 133 163 204 258 334 370
#
# _framework density 27.122619
#
# number of rings (size 3 to 8) (size 9 to 14) (size 15 to 20)
#    0.000    1.714    2.857    1.714   10.000    0.000 
#    0.000    4.286    0.000    6.000    0.000    0.000 
#    0.000    0.000    0.000    0.000    0.000    0.000 
#
# Total GULP energy -78362.983457 kJ/mol
# GULP energy per Si atom -5597.355961 kJ/mol
# Density = 2.706089 g / cm^3
# Si number density = 27.122619 Si / 1000 Ang^3
#
#
#
# Elastic Constant Matrix: (Units=GPa)
#
#
# Indices 1 2 3 4 5 6 
#
# 1 134.4708 25.7499 26.6466 4.3745 -3.8080 -4.1788
# 2 25.7499 84.1003 31.0397 3.1618 3.0613 -12.7218
# 3 26.6466 31.0397 87.7725 8.3301 8.5148 -9.1464
# 4 4.3745 3.1618 8.3301 35.7408 -9.9988 0.9643
# 5 -3.8080 3.0613 8.5148 -9.9988 63.4849 8.5088
# 6 -4.1788 -12.7218 -9.1464 0.9643 8.5088 29.7861
#
#
#
# Elastic Compliance Matrix: (Units=1/GPa)
#
#
# Indices 1 2 3 4 5 6 
#
# 1 0.008199 -0.001897 -0.001947 -0.000118 0.000894 -0.000509
# 2 -0.001897 0.014771 -0.003949 -0.000596 -0.001082 0.005158
# 3 -0.001947 -0.003949 0.014361 -0.003658 -0.002883 0.003392
# 4 -0.000118 -0.000596 -0.003658 0.030655 0.005886 -0.004068
# 5 0.000894 -0.001082 -0.002883 0.005886 0.018052 -0.006569
# 6 -0.000509 0.005158 0.003392 -0.004068 -0.006569 0.038754
#
#
# Mechanical properties :
#
#
# Convention : Reuss Voigt Hill
#
# Bulk Modulus (GPa) = 45.98604 52.57956 49.28280
# Shear Modulus (GPa) = 33.86957 40.66286 37.26622
#
# Velocity S-wave (km/s) = 3.53761 3.87618 3.71076
# Velocity P-wave (km/s) = 5.80327 6.28180 6.04727
#
# Compressibility (1/GPa) = 0.02174573
#
# Stress axis : x y z
#
# Youngs Moduli (GPa) = 121.96720 67.70110 69.63401
#
# Poissons Ratio (x) = 0.12843 0.13557
# Poissons Ratio (y) = 0.23137 0.27496
# Poissons Ratio (z) = 0.23745 0.26732
#
# Static dielectric constant tensor:
#      x y z
#    x 2.252290 -0.010430 0.138690 
#    y -0.010430 2.092640 0.026150 
#    z 0.138690 0.026150 2.240740 
# 
# From -- ./inp_files/448108.got.cif
#   From: 2010.05.17/outbox.cif.g08.bks.cpg/sg2_225_cif.got.tgz:448108.got - 2010.06.03 11:33:40.
