data_PCOD9100381
_publ_section_title
;
Structure prediction by ZEFSAII (Michael W. Deem and Ramdas Pophale) SiO2 
 PCOD9100381
Probable space group: P -1
;
_chemical_formula_sum "Si O2"
_cell_formula_units_Z 16
_cell_length_a 14.463824
_cell_length_b 9.584053
_cell_length_c 8.339166
_cell_angle_alpha 106.707323
_cell_angle_beta 35.227260
_cell_angle_gamma 113.058435
_cell_volume 612.378643
_symmetry_space_group_name_H-M "P -1"
_symmetry_group_IT_number 2
_symmetry_cell_setting 'triclinic'
loop_
_space_group_symop_operation_xyz
x,y,z
-x,-y,-z
loop_
_atom_site_type_symbol
_atom_site_label
_atom_site_fract_x
_atom_site_fract_y
_atom_site_fract_z
Si Si1 0.178240 0.071571 0.593902
Si Si2 0.102228 0.157313 0.271215
Si Si3 0.677863 0.282583 0.194971
Si Si4 0.121950 0.804749 0.819063
Si Si5 0.928750 0.568344 0.776300
Si Si6 0.425607 0.033347 0.786987
Si Si7 0.453635 0.643204 0.298311
Si Si8 0.277647 0.333900 0.335590
O O1 0.315747 0.206164 0.354600
O O2 0.214269 0.961459 0.643338
O O3 0.072801 0.955947 0.570421
O O4 0.049924 0.157591 0.875153
O O5 0.137734 0.291657 0.137451
O O6 0.104622 0.242887 0.466096
O O7 0.249446 0.075392 0.033843
O O8 0.793846 0.237808 0.154433
O O9 0.533035 0.321415 0.519855
O O10 0.612370 0.130667 0.131024
O O11 0.784966 0.430621 0.004988
O O12 0.070323 0.656181 0.730028
O O13 0.000000 0.500000 0.500000
O O14 0.548965 0.194738 0.721748
O O15 0.500000 0.000000 0.500000
O O16 0.304803 0.489500 0.441062
O O17 0.605197 0.618280 0.971709
#
# Coordination Sequence:
#
# PCOD9100381 Si02
#       8
#     2   2   2   2   2   2   2   2
#     4  10  20  37  63  97 124 162 213 261 318 383
#     4  10  21  38  61  96 129 165 207 261 323 378
#     4  11  21  41  67  86 126 170 212 263 313 375
#     4  10  22  38  62  94 127 164 209 257 320 384
#     4  11  26  38  58 100 138 163 207 261 324 387
#     4   9  19  39  65  87 118 164 219 258 305 372
#     4   9  21  38  62  89 119 170 216 251 313 379
#     4  10  20  37  64  89 131 163 208 260 320 376
#
# _framework density 26.127623
#
# number of rings (size 3 to 8) (size 9 to 14) (size 15 to 20)
#    0.000    2.000    1.250    1.500    3.500    4.000 
#    0.000    6.250   13.750    0.000    0.000    0.000 
#    0.000    0.000    0.000    0.000    0.000    0.000 
#
# Total GULP energy -89306.976791 kJ/mol
# GULP energy per Si atom -5581.686049 kJ/mol
# Density = 2.606816 g / cm^3
# Si number density = 26.127623 Si / 1000 Ang^3
#
#
#
# Elastic Constant Matrix: (Units=GPa)
#
#
# Indices 1 2 3 4 5 6 
#
# 1 48.9149 33.7886 -0.0601 -7.4316 -0.2497 8.8720
# 2 33.7886 207.0917 36.0809 -43.3233 1.9723 36.9796
# 3 -0.0601 36.0809 105.1714 -21.1704 5.3319 -5.7661
# 4 -7.4316 -43.3233 -21.1704 55.4778 -4.5953 13.0744
# 5 -0.2497 1.9723 5.3319 -4.5953 17.9305 11.7237
# 6 8.8720 36.9796 -5.7661 13.0744 11.7237 48.1557
#
#
#
# Elastic Compliance Matrix: (Units=1/GPa)
#
#
# Indices 1 2 3 4 5 6 
#
# 1 0.023467 -0.003029 0.001175 0.002221 0.002959 -0.003180
# 2 -0.003029 0.010253 -0.002664 0.010598 0.010955 -0.013179
# 3 0.001175 -0.002664 0.011111 0.000844 -0.005583 0.004290
# 4 0.002221 0.010598 0.000844 0.034273 0.022602 -0.023254
# 5 0.002959 0.010955 -0.005583 0.022602 0.086066 -0.036716
# 6 -0.003180 -0.013179 0.004290 -0.023254 -0.036716 0.047238
#
#
# Mechanical properties :
#
#
# Convention : Reuss Voigt Hill
#
# Bulk Modulus (GPa) = 27.93674 55.64408 41.79041
# Shear Modulus (GPa) = 21.42469 43.73738 32.58103
#
# Velocity S-wave (km/s) = 2.86667 4.09588 3.53511
# Velocity P-wave (km/s) = 4.65540 6.61147 5.71770
#
# Compressibility (1/GPa) = 0.03579515
#
# Stress axis : x y z
#
# Youngs Moduli (GPa) = 42.61317 97.53096 90.00140
#
# Poissons Ratio (x) = 0.29546 -0.10579
# Poissons Ratio (y) = 0.12909 0.23976
# Poissons Ratio (z) = -0.05009 0.25982
#
# Static dielectric constant tensor:
#      x y z
#    x 2.208990 0.054090 -0.072410 
#    y 0.054090 2.104750 -0.023980 
#    z -0.072410 -0.023980 2.152150 
# 
# From -- ./inp_files/329093.got.cif
#   From: 2010.05.17/outbox.cif.g08.bks.cpg/sg2_165_cif.got.tgz:329093.got - 2010.06.03 11:33:40.
