data_PCOD9100503
_publ_section_title
;
Structure prediction by ZEFSAII (Michael W. Deem and Ramdas Pophale) SiO2 
 PCOD9100503
Probable space group: P -1
;
_chemical_formula_sum "Si O2"
_cell_formula_units_Z 16
_cell_length_a 15.218156
_cell_length_b 5.105851
_cell_length_c 25.872146
_cell_angle_alpha 111.699574
_cell_angle_beta 22.652643
_cell_angle_gamma 113.816753
_cell_volume 708.298094
_symmetry_space_group_name_H-M "P -1"
_symmetry_group_IT_number 2
_symmetry_cell_setting 'triclinic'
loop_
_space_group_symop_operation_xyz
x,y,z
-x,-y,-z
loop_
_atom_site_type_symbol
_atom_site_label
_atom_site_fract_x
_atom_site_fract_y
_atom_site_fract_z
Si Si1 0.145273 0.321443 0.524380
Si Si2 0.701193 0.906594 0.761279
Si Si3 0.502129 0.932073 0.553901
Si Si4 0.761692 0.113114 0.143953
Si Si5 0.008476 0.168620 0.300182
Si Si6 0.403198 0.168730 0.017885
Si Si7 0.380093 0.535174 0.674237
Si Si8 0.536133 0.510423 0.731079
O O1 0.386186 0.268274 0.414684
O O2 0.243052 0.448773 0.425288
O O3 0.068043 0.529801 0.625194
O O4 0.914167 0.089086 0.626861
O O5 0.822908 0.846690 0.744351
O O6 0.608559 0.631261 0.757301
O O7 0.497168 0.069391 0.905211
O O8 0.404542 0.210083 0.649103
O O9 0.773717 0.948371 0.417960
O O10 0.500000 0.000000 0.500000
O O11 0.371054 0.637648 0.627678
O O12 0.580225 0.819022 0.229256
O O13 0.809811 0.342063 0.181467
O O14 0.647988 0.294695 0.175749
O O15 0.000000 0.000000 0.000000
O O16 0.130728 0.133048 0.176746
O O17 0.500000 0.500000 0.000000
O O18 0.500000 0.000000 0.000000
#
# Coordination Sequence:
#
# PCOD9100503 Si02
#       8
#     2   2   2   2   2   2   2   2
#     4  10  20  37  64  91 130 164 204 254 324 377
#     4  11  22  39  61  92 137 161 209 261 314 379
#     4  11  22  39  64  94 124 157 218 263 305 364
#     4  11  24  48  67  88 129 170 209 258 321 381
#     4  10  21  38  62  86 127 174 201 251 326 362
#     4  10  21  37  57  83 119 169 209 240 304 381
#     4  10  21  41  64  91 120 163 207 257 318 372
#     4  11  26  38  67 102 121 163 218 261 310 382
#
# _framework density 22.589357
#
# number of rings (size 3 to 8) (size 9 to 14) (size 15 to 20)
#    0.000    1.500    2.500    3.375    3.500    0.500 
#    4.500    0.000    0.000    0.000    0.000    0.000 
#    0.000    0.000    0.000    0.000    0.000    0.000 
#
# Total GULP energy -89159.116634 kJ/mol
# GULP energy per Si atom -5572.444790 kJ/mol
# Density = 2.253794 g / cm^3
# Si number density = 22.589357 Si / 1000 Ang^3
#
#
#
# Elastic Constant Matrix: (Units=GPa)
#
#
# Indices 1 2 3 4 5 6 
#
# 1 62.5428 1.4147 -9.4384 8.1543 7.0520 -3.3476
# 2 1.4147 81.1283 14.9000 12.5971 2.7854 -15.3987
# 3 -9.4384 14.9000 85.4530 35.5122 3.6530 -3.9992
# 4 8.1543 12.5971 35.5122 28.8688 -2.9968 6.6284
# 5 7.0520 2.7854 3.6530 -2.9968 21.7969 9.8328
# 6 -3.3476 -15.3987 -3.9992 6.6284 9.8328 27.5723
#
#
#
# Elastic Compliance Matrix: (Units=1/GPa)
#
#
# Indices 1 2 3 4 5 6 
#
# 1 0.807926 0.562188 1.210371 -2.554682 -1.703498 1.809264
# 2 0.562188 0.413799 0.856489 -1.815186 -1.210555 1.291661
# 3 1.210371 0.856489 1.858784 -3.904815 -2.593878 2.758634
# 4 -2.554682 -1.815186 -3.904815 8.258809 5.478038 -5.829273
# 5 -1.703498 -1.210555 -2.593878 5.478038 3.696315 -3.894218
# 6 1.809264 1.291661 2.758634 -5.829273 -3.894218 4.167533
#
#
# Mechanical properties :
#
#
# Convention : Reuss Voigt Hill
#
# Bulk Modulus (GPa) = 0.11992 26.98632 13.55312
# Shear Modulus (GPa) = 0.29896 30.46412 15.38154
#
# Velocity S-wave (km/s) = 0.36419 3.67632 2.61227
# Velocity P-wave (km/s) = 0.47963 5.47657 3.88734
#
# Compressibility (1/GPa) = 8.33860540
#
# Stress axis : x y z
#
# Youngs Moduli (GPa) = 1.23774 2.41663 0.53799
#
# Poissons Ratio (x) = -1.35860 -0.65116
# Poissons Ratio (y) = -0.69584 -0.46078
# Poissons Ratio (z) = -1.49812 -2.06982
#
# Static dielectric constant tensor:
#      x y z
#    x 2.003970 0.027480 0.065750 
#    y 0.027480 1.883670 0.031290 
#    z 0.065750 0.031290 2.000400 
# 
# From -- ./inp_files/97481.got.cif
#   From: 2010.05.17/outbox.cif.g08.bks.cpg/sg2_49_cif.got.tgz:97481.got - 2010.06.03 11:33:40.
