data_PCOD9100706
_publ_section_title
;
Structure prediction by ZEFSAII (Michael W. Deem and Ramdas Pophale) SiO2 
 PCOD9100706
Probable space group: P -1
;
_chemical_formula_sum "Si O2"
_cell_formula_units_Z 14
_cell_length_a 24.184551
_cell_length_b 12.101109
_cell_length_c 9.609178
_cell_angle_alpha 143.393008
_cell_angle_beta 30.735176
_cell_angle_gamma 158.117230
_cell_volume 535.478478
_symmetry_space_group_name_H-M "P -1"
_symmetry_group_IT_number 2
_symmetry_cell_setting 'triclinic'
loop_
_space_group_symop_operation_xyz
x,y,z
-x,-y,-z
loop_
_atom_site_type_symbol
_atom_site_label
_atom_site_fract_x
_atom_site_fract_y
_atom_site_fract_z
Si Si1 0.510748 0.290148 0.413982
Si Si2 0.835846 0.346944 0.107622
Si Si3 0.803615 0.677811 0.639799
Si Si4 0.065981 0.854570 0.635556
Si Si5 0.274386 0.260863 0.838995
Si Si6 0.705131 0.791615 0.731144
Si Si7 0.228480 0.679239 0.086760
O O1 0.315065 0.102543 0.639209
O O2 0.578064 0.436033 0.262155
O O3 0.588518 0.542325 0.611835
O O4 0.592471 0.198330 0.177926
O O5 0.761902 0.410993 0.425499
O O6 0.864569 0.474644 0.019250
O O7 0.000000 0.500000 0.000000
O O8 0.711540 0.009272 0.996340
O O9 0.686199 0.641982 0.755564
O O10 0.763409 0.676196 0.880326
O O11 0.000000 0.000000 0.500000
O O12 0.205427 0.868723 0.345537
O O13 0.879928 0.535989 0.762732
O O14 0.125643 0.056627 0.839889
O O15 0.104764 0.978299 0.522824
#
# Coordination Sequence:
#
# PCOD9100706 Si02
#       7
#     2   2   2   2   2   2   2
#     4  10  22  43  63  85 126 169 208 250 305 369
#     4  11  22  37  59  94 130 153 201 259 310 367
#     4  12  23  38  65  94 124 163 201 258 318 356
#     4   9  21  37  63  95 122 158 211 262 298 363
#     4  10  24  40  61  91 124 166 207 254 306 368
#     4  10  22  39  61  88 127 158 205 252 303 369
#     4  10  20  37  65  92 122 165 209 253 311 361
#
# _framework density 26.144841
#
# number of rings (size 3 to 8) (size 9 to 14) (size 15 to 20)
#    0.000    1.714    2.857    0.857    2.000    3.429 
#    0.000    0.714    0.000    0.000    0.000    0.000 
#    0.000    0.000    0.000    0.000    0.000    0.000 
#
# Total GULP energy -78156.335875 kJ/mol
# GULP energy per Si atom -5582.595420 kJ/mol
# Density = 2.608533 g / cm^3
# Si number density = 26.144841 Si / 1000 Ang^3
#
#
#
# Elastic Constant Matrix: (Units=GPa)
#
#
# Indices 1 2 3 4 5 6 
#
# 1 152.8999 15.4718 80.2154 7.3067 4.1471 0.1926
# 2 15.4718 30.9893 30.8926 12.8123 3.9581 3.7308
# 3 80.2154 30.8926 167.9198 35.6068 23.5616 6.0880
# 4 7.3067 12.8123 35.6068 30.2777 3.0206 -1.0546
# 5 4.1471 3.9581 23.5616 3.0206 67.4225 2.8241
# 6 0.1926 3.7308 6.0880 -1.0546 2.8241 26.6754
#
#
#
# Elastic Compliance Matrix: (Units=1/GPa)
#
#
# Indices 1 2 3 4 5 6 
#
# 1 0.009230 -0.001531 -0.005312 0.004606 0.001112 0.001424
# 2 -0.001531 0.043402 -0.004230 -0.013202 -0.000149 -0.005600
# 3 -0.005312 -0.004230 0.012101 -0.010930 -0.003070 -0.002239
# 4 0.004606 -0.013202 -0.010930 0.050390 0.001798 0.006110
# 5 0.001112 -0.000149 -0.003070 0.001798 0.015802 -0.000888
# 6 0.001424 -0.005600 -0.002239 0.006110 -0.000888 0.039107
#
#
# Mechanical properties :
#
#
# Convention : Reuss Voigt Hill
#
# Bulk Modulus (GPa) = 23.48133 67.21875 45.35004
# Shear Modulus (GPa) = 24.22812 39.89039 32.05926
#
# Velocity S-wave (km/s) = 3.04746 3.91032 3.50554
# Velocity P-wave (km/s) = 4.62422 6.79363 5.81106
#
# Compressibility (1/GPa) = 0.04258702
#
# Stress axis : x y z
#
# Youngs Moduli (GPa) = 108.34505 23.04053 82.64067
#
# Poissons Ratio (x) = 0.03526 0.43897
# Poissons Ratio (y) = 0.16582 0.34959
# Poissons Ratio (z) = 0.57551 0.09747
#
# Static dielectric constant tensor:
#      x y z
#    x 2.141420 0.002230 -0.122070 
#    y 0.002230 2.087160 -0.042830 
#    z -0.122070 -0.042830 2.113590 
# 
# From -- ./inp_files/187558.got.cif
#   From: 2010.05.17/outbox.cif.g08.bks.cpg/sg2_94_cif.got.tgz:187558.got - 2010.06.03 11:33:40.
