data_PCOD9100619
_publ_section_title
;
Structure prediction by ZEFSAII (Michael W. Deem and Ramdas Pophale) SiO2 
 PCOD9100619
Probable space group: P -1
;
_chemical_formula_sum "Si O2"
_cell_formula_units_Z 14
_cell_length_a 17.688963
_cell_length_b 6.116057
_cell_length_c 25.797508
_cell_angle_alpha 124.479593
_cell_angle_beta 160.470985
_cell_angle_gamma 67.465009
_cell_volume 644.604401
_symmetry_space_group_name_H-M "P -1"
_symmetry_group_IT_number 2
_symmetry_cell_setting 'triclinic'
loop_
_space_group_symop_operation_xyz
x,y,z
-x,-y,-z
loop_
_atom_site_type_symbol
_atom_site_label
_atom_site_fract_x
_atom_site_fract_y
_atom_site_fract_z
Si Si1 0.889860 0.648018 0.860843
Si Si2 0.097119 0.809603 0.366568
Si Si3 0.432423 0.538448 0.281226
Si Si4 0.673930 0.588087 0.548483
Si Si5 0.156359 0.292101 0.969772
Si Si6 0.600995 0.764763 0.979091
Si Si7 0.725456 0.462485 0.167509
O O1 0.759499 0.424680 0.798061
O O2 0.625608 0.540429 0.640873
O O3 0.101936 0.572271 0.967651
O O4 0.000000 0.000000 0.000000
O O5 0.169302 0.573619 0.355844
O O6 0.849467 0.784559 0.172545
O O7 0.000194 0.717202 0.350810
O O8 0.361502 0.153148 0.576135
O O9 0.600769 0.487692 0.426512
O O10 0.251033 0.278447 0.086947
O O11 0.875237 0.963235 0.732107
O O12 0.378673 0.335354 0.078641
O O13 0.662935 0.117460 0.066502
O O14 0.329960 0.547036 0.808233
O O15 0.500000 0.500000 0.000000
#
# Coordination Sequence:
#
# PCOD9100619 Si02
#       7
#     2   2   2   2   2   2   2
#     4  10  23  44  61  92 132 173 211 266 319 365
#     4  11  18  41  64  91 132 169 204 264 322 372
#     4  10  24  39  61  90 134 164 209 266 313 368
#     4  10  23  39  62  94 125 171 214 254 325 364
#     4  12  21  42  66  93 130 168 221 262 307 386
#     4  10  20  37  65 100 123 167 215 260 313 386
#     4   9  19  36  66  94 131 163 207 263 328 372
#
# _framework density 21.718744000000001
#
# number of rings (size 3 to 8) (size 9 to 14) (size 15 to 20)
#    0.857    0.857    2.857    1.714    0.000    1.143 
#    0.000    2.857    0.000   12.000    0.000    0.000 
#    0.000    0.000    0.000    0.000    0.000    0.000 
#
# Total GULP energy -78040.461889 kJ/mol
# GULP energy per Si atom -5574.318706 kJ/mol
# Density = 2.166931 g / cm^3
# Si number density = 21.718744 Si / 1000 Ang^3
#
#
#
# Elastic Constant Matrix: (Units=GPa)
#
#
# Indices 1 2 3 4 5 6 
#
# 1 96.6389 8.3739 12.7837 -6.5497 6.4399 -14.7733
# 2 8.3739 107.9413 15.6717 -23.2382 -1.6088 -17.5262
# 3 12.7837 15.6717 52.5109 2.2576 -4.3537 2.4445
# 4 -6.5497 -23.2382 2.2576 19.3943 8.8240 6.4647
# 5 6.4399 -1.6088 -4.3537 8.8240 39.5530 0.6415
# 6 -14.7733 -17.5262 2.4445 6.4647 0.6415 28.6884
#
#
#
# Elastic Compliance Matrix: (Units=1/GPa)
#
#
# Indices 1 2 3 4 5 6 
#
# 1 0.012571 0.002292 -0.004715 0.007196 -0.004188 0.006747
# 2 0.002292 0.015414 -0.006758 0.020089 -0.005081 0.006760
# 3 -0.004715 -0.006758 0.023557 -0.013332 0.006153 -0.005697
# 4 0.007196 0.020089 -0.013332 0.090546 -0.021977 -0.002798
# 5 -0.004188 -0.005081 0.006153 -0.021977 0.031363 -0.001534
# 6 0.006747 0.006760 -0.005697 -0.002798 -0.001534 0.043612
#
#
# Mechanical properties :
#
#
# Convention : Reuss Voigt Hill
#
# Bulk Modulus (GPa) = 30.13869 36.74998 33.44433
# Shear Modulus (GPa) = 20.28522 32.21126 26.24824
#
# Velocity S-wave (km/s) = 3.05945 3.85529 3.48020
# Velocity P-wave (km/s) = 5.13685 6.06426 5.61972
#
# Compressibility (1/GPa) = 0.03317994
#
# Stress axis : x y z
#
# Youngs Moduli (GPa) = 79.54678 64.87492 42.45037
#
# Poissons Ratio (x) = -0.14868 0.20016
# Poissons Ratio (y) = -0.18230 0.28688
# Poissons Ratio (z) = 0.37507 0.43842
#
# Static dielectric constant tensor:
#      x y z
#    x 1.883880 0.034140 0.016320 
#    y 0.034140 1.796560 -0.006750 
#    z 0.016320 -0.006750 1.802110 
# 
# From -- ./inp_files/620121.got.cif
#   From: 2010.05.17/outbox.cif.g08.bks.cpg/sg2_311_cif.got.tgz:620121.got - 2010.06.03 11:33:40.
