data_PCOD9100586
_publ_section_title
;
Structure prediction by ZEFSAII (Michael W. Deem and Ramdas Pophale) SiO2 
 PCOD9100586
Probable space group: P -1
;
_chemical_formula_sum "Si O2"
_cell_formula_units_Z 16
_cell_length_a 25.694004
_cell_length_b 13.386079
_cell_length_c 8.197214
_cell_angle_alpha 116.355361
_cell_angle_beta 49.110373
_cell_angle_gamma 154.920904
_cell_volume 799.877380
_symmetry_space_group_name_H-M "P -1"
_symmetry_group_IT_number 2
_symmetry_cell_setting 'triclinic'
loop_
_space_group_symop_operation_xyz
x,y,z
-x,-y,-z
loop_
_atom_site_type_symbol
_atom_site_label
_atom_site_fract_x
_atom_site_fract_y
_atom_site_fract_z
Si Si1 0.090021 0.244539 0.046196
Si Si2 0.228935 0.878906 0.282322
Si Si3 0.922718 0.232505 0.799920
Si Si4 0.205370 0.754147 0.760977
Si Si5 0.545641 0.169359 0.259159
Si Si6 0.979283 0.612413 0.808618
Si Si7 0.538227 0.198306 0.905739
Si Si8 0.922550 0.770709 0.547225
O O1 0.020883 0.256047 0.118392
O O2 0.079526 0.240898 0.260677
O O3 0.283030 0.529538 0.814368
O O4 0.000000 0.000000 0.000000
O O5 0.167206 0.870923 0.259619
O O6 0.132797 0.620186 0.262035
O O7 0.161352 0.834821 0.554211
O O8 0.420390 0.129448 0.059276
O O9 0.102802 0.555781 0.674856
O O10 0.964429 0.165981 0.697368
O O11 0.819388 0.151509 0.085113
O O12 0.391820 0.994832 0.540138
O O13 0.112657 0.557699 0.960319
O O14 0.536111 0.021644 0.184408
O O15 0.527964 0.168413 0.101407
O O16 0.731946 0.486296 0.675382
O O17 0.000000 0.000000 0.500000
#
# Coordination Sequence:
#
# PCOD9100586 Si02
#       8
#     2   2   2   2   2   2   2   2
#     4  11  24  42  61  89 127 171 206 253 309 377
#     4  10  20  37  64  96 122 160 210 259 313 368
#     4  10  21  39  62  94 127 159 208 254 317 365
#     4  10  22  35  63  98 125 158 202 270 312 359
#     4  10  21  38  61  94 131 158 210 260 309 365
#     4  10  21  35  62  92 126 159 206 252 313 364
#     4  10  21  37  67  93 122 165 211 257 311 365
#     4  11  24  45  65  88 126 172 208 250 315 382
#
# _framework density 20.003064999999999
#
# number of rings (size 3 to 8) (size 9 to 14) (size 15 to 20)
#    0.000    1.750    3.750    0.000    8.750    0.500 
#    4.500    1.875    0.000    3.000    0.000    0.000 
#    0.000    0.000    0.000    0.000    0.000    0.000 
#
# Total GULP energy -89283.033942 kJ/mol
# GULP energy per Si atom -5580.189621 kJ/mol
# Density = 1.995754 g / cm^3
# Si number density = 20.003065 Si / 1000 Ang^3
#
#
#
# Elastic Constant Matrix: (Units=GPa)
#
#
# Indices 1 2 3 4 5 6 
#
# 1 101.9026 46.6655 62.7581 -1.3575 -30.0092 -20.3336
# 2 46.6655 102.2079 47.4707 -3.7540 -23.5867 -16.7473
# 3 62.7581 47.4707 125.4641 -4.9734 -38.4191 -14.2103
# 4 -1.3575 -3.7540 -4.9734 23.4187 0.1113 -5.2682
# 5 -30.0092 -23.5867 -38.4191 0.1113 42.2891 7.5607
# 6 -20.3336 -16.7473 -14.2103 -5.2682 7.5607 31.9771
#
#
#
# Elastic Compliance Matrix: (Units=1/GPa)
#
#
# Indices 1 2 3 4 5 6 
#
# 1 0.017034 -0.003358 -0.005206 0.000630 0.004445 0.005812
# 2 -0.003358 0.013628 -0.002165 0.002379 0.002561 0.003826
# 3 -0.005206 -0.002165 0.013854 0.002323 0.007626 0.000292
# 4 0.000630 0.002379 0.002323 0.045795 0.002021 0.009745
# 5 0.004445 0.002561 0.007626 0.002021 0.035231 -0.000440
# 6 0.005812 0.003826 0.000292 0.009745 -0.000440 0.038812
#
#
# Mechanical properties :
#
#
# Convention : Reuss Voigt Hill
#
# Bulk Modulus (GPa) = 43.36727 71.48480 57.42604
# Shear Modulus (GPa) = 25.84015 31.04898 28.44457
#
# Velocity S-wave (km/s) = 3.59807 3.94409 3.77505
# Velocity P-wave (km/s) = 6.24411 7.52034 6.91175
#
# Compressibility (1/GPa) = 0.02305886
#
# Stress axis : x y z
#
# Youngs Moduli (GPa) = 58.70492 73.37834 72.18244
#
# Poissons Ratio (x) = 0.24644 0.37576
# Poissons Ratio (y) = 0.19716 0.15624
# Poissons Ratio (z) = 0.30560 0.15883
#
# Static dielectric constant tensor:
#      x y z
#    x 1.793050 0.041510 0.019190 
#    y 0.041510 1.684140 0.030260 
#    z 0.019190 0.030260 1.739460 
# 
# From -- ./inp_files/353121.got.cif
#   From: 2010.05.17/outbox.cif.g08.bks.cpg/sg2_177_cif.got.tgz:353121.got - 2010.06.03 11:33:40.
