data_PCOD9100685
_publ_section_title
;
Structure prediction by ZEFSAII (Michael W. Deem and Ramdas Pophale) SiO2 
 PCOD9100685
Probable space group: P -1
;
_chemical_formula_sum "Si O2"
_cell_formula_units_Z 14
_cell_length_a 8.401524
_cell_length_b 6.339135
_cell_length_c 21.863687
_cell_angle_alpha 70.888619
_cell_angle_beta 141.754821
_cell_angle_gamma 117.949229
_cell_volume 634.973238
_symmetry_space_group_name_H-M "P -1"
_symmetry_group_IT_number 2
_symmetry_cell_setting 'triclinic'
loop_
_space_group_symop_operation_xyz
x,y,z
-x,-y,-z
loop_
_atom_site_type_symbol
_atom_site_label
_atom_site_fract_x
_atom_site_fract_y
_atom_site_fract_z
Si Si1 0.384577 0.507030 0.175316
Si Si2 0.042188 0.978445 0.942272
Si Si3 0.603131 0.001707 0.130440
Si Si4 0.933072 0.729697 0.529425
Si Si5 0.105889 0.610323 0.718695
Si Si6 0.551466 0.377669 0.359998
Si Si7 0.095541 0.889700 0.234023
O O1 0.429379 0.763373 0.137838
O O2 0.624020 0.426085 0.225375
O O3 0.435681 0.514437 0.262288
O O4 0.096709 0.300724 0.091909
O O5 0.371401 0.082587 0.022525
O O6 0.889518 0.096529 0.836857
O O7 0.000000 0.000000 0.000000
O O8 0.811862 0.932601 0.157778
O O9 0.786197 0.197767 0.213902
O O10 0.651291 0.538999 0.434816
O O11 0.955435 0.702958 0.611404
O O12 0.176622 0.651611 0.583384
O O13 0.000000 0.000000 0.500000
O O14 0.926164 0.358077 0.718658
O O15 0.330156 0.108540 0.317836
#
# Coordination Sequence:
#
# PCOD9100685 Si02
#       7
#     2   2   2   2   2   2   2
#     4   9  19  38  59  85 119 154 201 243 289 343
#     4  11  21  40  62  88 115 159 206 246 283 344
#     4  11  21  38  60  87 120 161 194 241 296 349
#     4  10  20  37  65  91 113 152 204 240 289 355
#     4  10  21  38  58  87 123 157 191 245 296 349
#     4   9  20  39  59  87 120 154 191 247 292 346
#     4  10  24  41  57  86 127 157 190 243 305 348
#
# _framework density 22.048175000000001
#
# number of rings (size 3 to 8) (size 9 to 14) (size 15 to 20)
#    0.000    2.000    1.429    1.714    0.000    3.429 
#    7.714    1.429    0.000    0.000    0.000    0.000 
#    0.000    0.000    0.000    0.000    0.000    0.000 
#
# Total GULP energy -78189.902362 kJ/mol
# GULP energy per Si atom -5584.993026 kJ/mol
# Density = 2.199799 g / cm^3
# Si number density = 22.048175 Si / 1000 Ang^3
#
#
#
# Elastic Constant Matrix: (Units=GPa)
#
#
# Indices 1 2 3 4 5 6 
#
# 1 42.4551 24.5389 32.8013 2.0160 -0.9122 4.9047
# 2 24.5389 93.4691 85.6779 3.5338 -38.8241 16.5280
# 3 32.8013 85.6779 167.6909 25.0669 -31.3313 7.9898
# 4 2.0160 3.5338 25.0669 29.0041 2.7224 4.8242
# 5 -0.9122 -38.8241 -31.3313 2.7224 28.6950 -4.5500
# 6 4.9047 16.5280 7.9898 4.8242 -4.5500 29.1711
#
#
#
# Elastic Compliance Matrix: (Units=1/GPa)
#
#
# Indices 1 2 3 4 5 6 
#
# 1 0.035745 -0.016662 -0.004341 0.005901 -0.026792 -0.000535
# 2 -0.016662 0.050740 -0.012957 0.003869 0.051221 -0.015049
# 3 -0.004341 -0.012957 0.015186 -0.012361 0.001056 0.006121
# 4 0.005901 0.003869 -0.012361 0.047236 -0.014112 -0.009812
# 5 -0.026792 0.051221 0.001056 -0.014112 0.104820 -0.006122
# 6 -0.000535 -0.015049 0.006121 -0.009812 -0.006122 0.041888
#
#
# Mechanical properties :
#
#
# Convention : Reuss Voigt Hill
#
# Bulk Modulus (GPa) = 29.62848 65.51680 47.57264
# Shear Modulus (GPa) = 13.34097 28.08051 20.71074
#
# Velocity S-wave (km/s) = 2.46251 3.57262 3.06819
# Velocity P-wave (km/s) = 4.64247 6.84090 5.84596
#
# Compressibility (1/GPa) = 0.03375131
#
# Stress axis : x y z
#
# Youngs Moduli (GPa) = 27.97593 19.70841 65.85031
#
# Poissons Ratio (x) = 0.32838 0.28588
# Poissons Ratio (y) = 0.46613 0.85319
# Poissons Ratio (z) = 0.12146 0.25535
#
# Static dielectric constant tensor:
#      x y z
#    x 1.844960 0.004290 0.003070 
#    y 0.004290 1.767430 -0.016830 
#    z 0.003070 -0.016830 1.827640 
# 
# From -- ./inp_files/34080.got.cif
#   From: 2010.05.17/outbox.cif.g08.bks.cpg/sg2_18_cif.got.tgz:34080.got - 2010.06.03 11:33:40.
