data_PCOD9100091
_publ_section_title
;
Structure prediction by ZEFSAII (Michael W. Deem and Ramdas Pophale) SiO2 
 PCOD9100091
Probable space group: P -1
;
_chemical_formula_sum "Si O2"
_cell_formula_units_Z 14
_cell_length_a 9.293341
_cell_length_b 7.522753
_cell_length_c 18.064904
_cell_angle_alpha 83.065535
_cell_angle_beta 123.413125
_cell_angle_gamma 50.534868
_cell_volume 555.794476
_symmetry_space_group_name_H-M "P -1"
_symmetry_group_IT_number 2
_symmetry_cell_setting 'triclinic'
loop_
_space_group_symop_operation_xyz
x,y,z
-x,-y,-z
loop_
_atom_site_type_symbol
_atom_site_label
_atom_site_fract_x
_atom_site_fract_y
_atom_site_fract_z
Si Si1 0.291321 0.854768 0.127852
Si Si2 0.339944 0.982029 0.367394
Si Si3 0.283861 0.232336 0.192095
Si Si4 0.966070 0.795956 0.415947
Si Si5 0.805734 0.240469 0.748232
Si Si6 0.312400 0.006261 0.986571
Si Si7 0.211316 0.970396 0.481371
O O1 0.223094 0.100141 0.139628
O O2 0.379514 0.650248 0.232768
O O3 0.489265 0.744398 0.116484
O O4 0.000000 0.000000 0.000000
O O5 0.172380 0.955396 0.284427
O O6 0.220334 0.101598 0.410906
O O7 0.719803 0.594599 0.495681
O O8 0.289721 0.181515 0.283991
O O9 0.997094 0.625001 0.081240
O O10 0.631223 0.009927 0.280636
O O11 0.035191 0.941460 0.407793
O O12 0.941800 0.820389 0.497504
O O13 0.572892 0.583015 0.623209
O O14 0.151600 0.014985 0.880936
O O15 0.500000 0.000000 0.000000
#
# Coordination Sequence:
#
# PCOD9100091 Si02
#       7
#     2   2   2   2   2   2   2
#     4   9  21  41  65  80 114 165 208 254 307 360
#     4  10  22  39  63  95 130 163 200 247 308 383
#     4  11  22  42  61  92 125 160 207 255 312 367
#     4  10  20  37  62  93 129 163 201 247 305 377
#     4   9  18  40  61  83 124 162 202 249 305 371
#     4  11  23  41  60  91 119 157 212 270 302 351
#     4  10  20  38  62  95 131 162 203 242 306 385
#
# _framework density 25.189167000000001
#
# number of rings (size 3 to 8) (size 9 to 14) (size 15 to 20)
#    0.000    2.000    1.429    2.571    0.000    2.857 
#   10.286    6.429    0.000    0.000    0.000    0.000 
#    0.000    0.000    0.000    0.000    0.000    0.000 
#
# Total GULP energy -78333.827759 kJ/mol
# GULP energy per Si atom -5595.273411 kJ/mol
# Density = 2.513183 g / cm^3
# Si number density = 25.189167 Si / 1000 Ang^3
#
#
#
# Elastic Constant Matrix: (Units=GPa)
#
#
# Indices 1 2 3 4 5 6 
#
# 1 144.5425 16.5604 42.4874 26.3726 -4.2741 -10.9104
# 2 16.5604 54.4269 21.4760 11.1817 15.4189 15.3188
# 3 42.4874 21.4760 81.1379 2.9856 0.6657 0.3633
# 4 26.3726 11.1817 2.9856 27.3225 4.2278 5.0445
# 5 -4.2741 15.4189 0.6657 4.2278 41.0419 24.3629
# 6 -10.9104 15.3188 0.3633 5.0445 24.3629 43.5399
#
#
#
# Elastic Compliance Matrix: (Units=1/GPa)
#
#
# Indices 1 2 3 4 5 6 
#
# 1 0.010651 -0.000186 -0.005164 -0.010373 -0.000046 0.004005
# 2 -0.000186 0.025526 -0.006303 -0.007786 -0.005859 -0.004795
# 3 -0.005164 -0.006303 0.016480 0.005670 0.001351 -0.000627
# 4 -0.010373 -0.007786 0.005670 0.050238 -0.000033 -0.005709
# 5 -0.000046 -0.005859 0.001351 -0.000033 0.037929 -0.019181
# 6 0.004005 -0.004795 -0.000627 -0.005709 -0.019181 0.037058
#
#
# Mechanical properties :
#
#
# Convention : Reuss Voigt Hill
#
# Bulk Modulus (GPa) = 34.07050 49.01720 41.54385
# Shear Modulus (GPa) = 23.69992 35.68643 29.69318
#
# Velocity S-wave (km/s) = 3.07070 3.76804 3.43710
# Velocity P-wave (km/s) = 5.11151 6.19941 5.68156
#
# Compressibility (1/GPa) = 0.02935090
#
# Stress axis : x y z
#
# Youngs Moduli (GPa) = 93.88640 39.17626 60.67932
#
# Poissons Ratio (x) = 0.00730 0.31334
# Poissons Ratio (y) = 0.01751 0.38244
# Poissons Ratio (z) = 0.48482 0.24691
#
# Static dielectric constant tensor:
#      x y z
#    x 2.010930 -0.022060 0.004310 
#    y -0.022060 1.950140 0.017700 
#    z 0.004310 0.017700 2.028320 
# 
# From -- ./inp_files/177188.got.cif
#   From: 2010.05.17/outbox.cif.g08.bks.cpg/sg2_89_cif.got.tgz:177188.got - 2010.06.03 11:33:40.
