data_PCOD9100019
_publ_section_title
;
Structure prediction by ZEFSAII (Michael W. Deem and Ramdas Pophale) SiO2 
 PCOD9100019
Probable space group: P -1
;
_chemical_formula_sum "Si O2"
_cell_formula_units_Z 10
_cell_length_a 5.221710
_cell_length_b 12.351721
_cell_length_c 15.143031
_cell_angle_alpha 29.236217
_cell_angle_beta 127.117647
_cell_angle_gamma 118.626047
_cell_volume 377.538150
_symmetry_space_group_name_H-M "P -1"
_symmetry_group_IT_number 2
_symmetry_cell_setting 'triclinic'
loop_
_space_group_symop_operation_xyz
x,y,z
-x,-y,-z
loop_
_atom_site_type_symbol
_atom_site_label
_atom_site_fract_x
_atom_site_fract_y
_atom_site_fract_z
Si Si1 0.139555 0.236748 0.718822
Si Si2 0.233379 0.020249 0.301009
Si Si3 0.758347 0.322792 0.731568
Si Si4 0.294065 0.436023 0.893620
Si Si5 0.192341 0.291625 0.276203
O O1 0.520963 0.224326 0.821146
O O2 0.000000 0.500000 0.500000
O O3 0.924367 0.160245 0.807356
O O4 0.051132 0.108127 0.705263
O O5 0.143552 0.131163 0.298159
O O6 0.548074 0.843072 0.508795
O O7 0.311241 0.206331 0.114631
O O8 0.500000 0.500000 0.500000
O O9 0.039055 0.424490 0.769421
O O10 0.620209 0.511724 0.866985
O O11 0.122373 0.617915 0.797908
#
# Coordination Sequence:
#
# PCOD9100019 Si02
#       5
#     2   2   2   2   2
#     4  10  21  39  62  93 130 170 218 270 326 392
#     4  11  26  44  73 100 134 184 224 274 346 398
#     4  10  20  37  62  90 129 171 211 269 328 381
#     4  12  25  45  71 101 137 177 226 279 335 405
#     4  11  26  46  68 102 139 173 226 284 332 401
#
# _framework density 26.487389
#
# number of rings (size 3 to 8) (size 9 to 14) (size 15 to 20)
#    0.000    1.200    0.000    7.200    0.000    9.600 
#    0.000    0.000    0.000    0.000    0.000    0.000 
#    0.000    0.000    0.000    0.000    0.000    0.000 
#
# Total GULP energy -56082.331957 kJ/mol
# GULP energy per Si atom -5608.233196 kJ/mol
# Density = 2.642710 g / cm^3
# Si number density = 26.487389 Si / 1000 Ang^3
#
#
#
# Elastic Constant Matrix: (Units=GPa)
#
#
# Indices 1 2 3 4 5 6 
#
# 1 135.4096 3.3730 -14.3983 -0.4751 21.1652 2.0619
# 2 3.3730 147.1928 -26.8043 14.3066 5.3875 14.2017
# 3 -14.3983 -26.8043 112.3262 5.4876 -14.6108 -1.9884
# 4 -0.4751 14.3066 5.4876 35.0202 0.1472 -4.6040
# 5 21.1652 5.3875 -14.6108 0.1472 31.0079 4.9257
# 6 2.0619 14.2017 -1.9884 -4.6040 4.9257 29.3806
#
#
#
# Elastic Compliance Matrix: (Units=1/GPa)
#
#
# Indices 1 2 3 4 5 6 
#
# 1 0.008284 0.000029 0.000347 0.000120 -0.005557 0.000379
# 2 0.000029 0.007993 0.002075 -0.004174 0.000293 -0.004428
# 3 0.000347 0.002075 0.010120 -0.002644 0.004422 -0.001498
# 4 0.000120 -0.004174 -0.002644 0.031617 -0.001880 0.007100
# 5 -0.005557 0.000293 0.004422 -0.001880 0.039085 -0.006299
# 6 0.000379 -0.004428 -0.001498 0.007100 -0.006299 0.038217
#
#
# Mechanical properties :
#
#
# Convention : Reuss Voigt Hill
#
# Bulk Modulus (GPa) = 31.95151 35.47436 33.71294
# Shear Modulus (GPa) = 35.49886 47.93232 41.71559
#
# Velocity S-wave (km/s) = 3.66487 4.25859 3.97283
# Velocity P-wave (km/s) = 5.47699 6.13211 5.81379
#
# Compressibility (1/GPa) = 0.03129742
#
# Stress axis : x y z
#
# Youngs Moduli (GPa) = 120.70882 125.10711 98.81439
#
# Poissons Ratio (x) = -0.00357 -0.03427
# Poissons Ratio (y) = -0.00345 -0.20500
# Poissons Ratio (z) = -0.04186 -0.25955
#
# Static dielectric constant tensor:
#      x y z
#    x -7.037370 -1.592210 10.720280 
#    y -1.592210 1.742720 1.884160 
#    z 10.720280 1.884160 -10.662180 
# 
# From -- ./inp_files/18183.got.cif
#   From: 2010.05.17/outbox.cif.g08.bks.cpg/sg2_10_cif.got.tgz:18183.got - 2010.06.03 11:33:40.
