data_PCOD9100654
_publ_section_title
;
Structure prediction by ZEFSAII (Michael W. Deem and Ramdas Pophale) SiO2 
 PCOD9100654
Probable space group: P -1
;
_chemical_formula_sum "Si O2"
_cell_formula_units_Z 12
_cell_length_a 7.566660
_cell_length_b 8.773844
_cell_length_c 11.640682
_cell_angle_alpha 97.721387
_cell_angle_beta 54.818702
_cell_angle_gamma 131.928264
_cell_volume 428.155672
_symmetry_space_group_name_H-M "P -1"
_symmetry_group_IT_number 2
_symmetry_cell_setting 'triclinic'
loop_
_space_group_symop_operation_xyz
x,y,z
-x,-y,-z
loop_
_atom_site_type_symbol
_atom_site_label
_atom_site_fract_x
_atom_site_fract_y
_atom_site_fract_z
Si Si1 0.081734 0.782934 0.577084
Si Si2 0.334613 0.226076 0.105784
Si Si3 0.297078 0.584775 0.497369
Si Si4 0.191405 0.386872 0.731897
Si Si5 0.439301 0.116111 0.275785
Si Si6 0.057190 0.254522 0.024824
O O1 0.336559 0.785891 0.515994
O O2 0.910368 0.786825 0.739815
O O3 0.819893 0.530941 0.594488
O O4 0.183015 0.939132 0.448166
O O5 0.340314 0.083475 0.175539
O O6 0.212224 0.182860 0.016965
O O7 0.687631 0.480323 0.006413
O O8 0.061621 0.403721 0.668152
O O9 0.625594 0.665927 0.391625
O O10 0.425308 0.645693 0.715396
O O11 0.036585 0.253982 0.894603
O O12 0.716413 0.133920 0.182137
#
# Coordination Sequence:
#
# PCOD9100654 Si02
#       6
#     2   2   2   2   2   2
#     4  11  22  40  60  93 118 156 202 248 297 352
#     4  10  20  37  65  88 120 156 201 250 293 348
#     4  10  22  38  62  84 125 160 192 240 309 363
#     4  10  20  40  62  87 116 163 200 239 296 363
#     4  11  22  39  64  95 116 151 210 255 285 342
#     4  10  21  38  60  93 119 155 201 248 297 350
#
# _framework density 28.027187000000001
#
# number of rings (size 3 to 8) (size 9 to 14) (size 15 to 20)
#    0.000    1.667    3.333    3.500    0.000    4.000 
#    3.000    1.667    0.000    0.000    0.000    0.000 
#    0.000    0.000    0.000    0.000    0.000    0.000 
#
# Total GULP energy -67183.116023 kJ/mol
# GULP energy per Si atom -5598.593002 kJ/mol
# Density = 2.796340 g / cm^3
# Si number density = 28.027187 Si / 1000 Ang^3
#
#
#
# Elastic Constant Matrix: (Units=GPa)
#
#
# Indices 1 2 3 4 5 6 
#
# 1 144.0722 16.1895 26.9185 9.3488 21.9087 -11.5541
# 2 16.1895 69.0892 5.8337 -3.5485 16.5176 -9.7994
# 3 26.9185 5.8337 110.0231 -9.1101 16.9730 0.4163
# 4 9.3488 -3.5485 -9.1101 32.8548 2.7579 21.0697
# 5 21.9087 16.5176 16.9730 2.7579 58.4620 7.5160
# 6 -11.5541 -9.7994 0.4163 21.0697 7.5160 53.9483
#
#
#
# Elastic Compliance Matrix: (Units=1/GPa)
#
#
# Indices 1 2 3 4 5 6 
#
# 1 0.008538 -0.000883 -0.002120 -0.005613 -0.002615 0.004241
# 2 -0.000883 0.016291 0.000097 0.000315 -0.004740 0.003307
# 3 -0.002120 0.000097 0.010371 0.005081 -0.002202 -0.002194
# 4 -0.005613 0.000315 0.005081 0.045683 0.000845 -0.019143
# 5 -0.002615 -0.004740 -0.002202 0.000845 0.020616 -0.004606
# 6 0.004241 0.003307 -0.002194 -0.019143 -0.004606 0.028180
#
#
# Mechanical properties :
#
#
# Convention : Reuss Voigt Hill
#
# Bulk Modulus (GPa) = 34.02607 46.78532 40.40569
# Shear Modulus (GPa) = 34.41455 47.33589 40.87522
#
# Velocity S-wave (km/s) = 3.50794 4.11411 3.82306
# Velocity P-wave (km/s) = 5.34549 6.26873 5.82543
#
# Compressibility (1/GPa) = 0.02938923
#
# Stress axis : x y z
#
# Youngs Moduli (GPa) = 117.11974 61.38283 96.42178
#
# Poissons Ratio (x) = 0.05422 0.20437
# Poissons Ratio (y) = 0.10345 -0.00937
# Poissons Ratio (z) = 0.24824 -0.00596
#
# Static dielectric constant tensor:
#      x y z
#    x 2.358520 0.108740 0.033550 
#    y 0.108740 2.301370 -0.023760 
#    z 0.033550 -0.023760 2.127420 
# 
# From -- ./inp_files/186459.got.cif
#   From: 2010.05.17/outbox.cif.g08.bks.cpg/sg2_94_cif.got.tgz:186459.got - 2010.06.03 11:33:40.
