data_PCOD9100470
_publ_section_title
;
Structure prediction by ZEFSAII (Michael W. Deem and Ramdas Pophale) SiO2 
 PCOD9100470
Probable space group: P -1
;
_chemical_formula_sum "Si O2"
_cell_formula_units_Z 16
_cell_length_a 9.395077
_cell_length_b 15.234704
_cell_length_c 11.731201
_cell_angle_alpha 57.675166
_cell_angle_beta 61.901423
_cell_angle_gamma 109.928447
_cell_volume 759.105616
_symmetry_space_group_name_H-M "P -1"
_symmetry_group_IT_number 2
_symmetry_cell_setting 'triclinic'
loop_
_space_group_symop_operation_xyz
x,y,z
-x,-y,-z
loop_
_atom_site_type_symbol
_atom_site_label
_atom_site_fract_x
_atom_site_fract_y
_atom_site_fract_z
Si Si1 0.797074 0.100811 0.435215
Si Si2 0.384810 0.608362 0.279448
Si Si3 0.308931 0.576723 0.740098
Si Si4 0.724519 0.251397 0.192466
Si Si5 0.404727 0.894944 0.276006
Si Si6 0.621705 0.589585 0.013560
Si Si7 0.807373 0.258027 0.781380
Si Si8 0.312038 0.182536 0.767086
O O1 0.767132 0.159184 0.295272
O O2 0.769571 0.161506 0.512247
O O3 0.549268 0.895423 0.671756
O O4 0.092544 0.208099 0.248673
O O5 0.443137 0.569919 0.174290
O O6 0.324009 0.695262 0.204092
O O7 0.620264 0.728689 0.199818
O O8 0.118271 0.430848 0.564556
O O9 0.323370 0.689820 0.729654
O O10 0.329787 0.492905 0.879325
O O11 0.544667 0.686783 0.483170
O O12 0.007962 0.422879 0.908609
O O13 0.238080 0.811950 0.279835
O O14 0.529537 0.845429 0.273086
O O15 0.649050 0.100306 0.032031
O O16 0.500000 0.500000 0.000000
O O17 0.000000 0.000000 0.000000
#
# Coordination Sequence:
#
# PCOD9100470 Si02
#       8
#     2   2   2   2   2   2   2   2
#     4  10  20  37  64  90 120 157 201 259 298 368
#     4  10  23  43  63  89 124 160 215 249 311 367
#     4  10  22  41  62  90 126 165 206 252 313 361
#     4   9  20  38  62  91 119 157 208 251 300 365
#     4  10  20  39  64  89 121 157 207 249 311 358
#     4  11  25  42  62  91 129 166 203 256 312 369
#     4   9  21  41  64  89 116 163 205 258 294 372
#     4  11  25  39  64  93 131 164 197 261 310 372
#
# _framework density 21.077432999999999
#
# number of rings (size 3 to 8) (size 9 to 14) (size 15 to 20)
#    0.000    2.000    1.250    0.750    5.250    2.500 
#    2.250    1.250    0.000    0.000    0.000    0.000 
#    0.000    0.000    0.000    0.000    0.000    0.000 
#
# Total GULP energy -89345.454194 kJ/mol
# GULP energy per Si atom -5584.090887 kJ/mol
# Density = 2.102946 g / cm^3
# Si number density = 21.077433 Si / 1000 Ang^3
#
#
#
# Elastic Constant Matrix: (Units=GPa)
#
#
# Indices 1 2 3 4 5 6 
#
# 1 23.2244 11.2743 22.9129 -6.2709 -3.8734 12.1829
# 2 11.2743 81.7139 31.7767 -7.8348 -12.8120 10.1270
# 3 22.9129 31.7767 87.6675 -5.5654 -8.5828 21.6234
# 4 -6.2709 -7.8348 -5.5654 36.1532 0.0009 -3.0784
# 5 -3.8734 -12.8120 -8.5828 0.0009 24.5342 -5.4312
# 6 12.1829 10.1270 21.6234 -3.0784 -5.4312 24.8536
#
#
#
# Elastic Compliance Matrix: (Units=1/GPa)
#
#
# Indices 1 2 3 4 5 6 
#
# 1 0.068951 -0.001355 -0.011469 0.008028 0.001298 -0.021990
# 2 -0.001355 0.015368 -0.004433 0.002406 0.006243 -0.000079
# 3 -0.011469 -0.004433 0.018036 -0.000880 0.000347 -0.008296
# 4 0.008028 0.002406 -0.000880 0.029437 0.002210 -0.000021
# 5 0.001298 0.006243 0.000347 0.002210 0.045854 0.006812
# 6 -0.021990 -0.000079 -0.008296 -0.000021 0.006812 0.059751
#
#
# Mechanical properties :
#
#
# Convention : Reuss Voigt Hill
#
# Bulk Modulus (GPa) = 14.74046 36.05927 25.39987
# Shear Modulus (GPa) = 16.97656 25.55099 21.26378
#
# Velocity S-wave (km/s) = 2.84110 3.48551 3.17967
# Velocity P-wave (km/s) = 4.21558 5.77438 5.05542
#
# Compressibility (1/GPa) = 0.06784047
#
# Stress axis : x y z
#
# Youngs Moduli (GPa) = 14.50307 65.07063 55.44591
#
# Poissons Ratio (x) = 0.08815 0.63593
# Poissons Ratio (y) = 0.01965 0.24579
# Poissons Ratio (z) = 0.16634 0.28845
#
# Static dielectric constant tensor:
#      x y z
#    x 1.756380 0.018940 0.016740 
#    y 0.018940 1.750410 -0.029710 
#    z 0.016740 -0.029710 1.778470 
# 
# From -- ./inp_files/262724.got.cif
#   From: 2010.05.17/outbox.cif.g08.bks.cpg/sg2_132_cif.got.tgz:262724.got - 2010.06.03 11:33:40.
