data_PCOD9100404
_publ_section_title
;
Structure prediction by ZEFSAII (Michael W. Deem and Ramdas Pophale) SiO2 
 PCOD9100404
Probable space group: P -1
;
_chemical_formula_sum "Si O2"
_cell_formula_units_Z 16
_cell_length_a 17.053043
_cell_length_b 13.857530
_cell_length_c 13.732882
_cell_angle_alpha 21.285441
_cell_angle_beta 145.621560
_cell_angle_gamma 133.638825
_cell_volume 613.933977
_symmetry_space_group_name_H-M "P -1"
_symmetry_group_IT_number 2
_symmetry_cell_setting 'triclinic'
loop_
_space_group_symop_operation_xyz
x,y,z
-x,-y,-z
loop_
_atom_site_type_symbol
_atom_site_label
_atom_site_fract_x
_atom_site_fract_y
_atom_site_fract_z
Si Si1 0.000696 0.966111 0.648506
Si Si2 0.667016 0.957468 0.800852
Si Si3 0.284546 0.959596 0.651499
Si Si4 0.079132 0.213776 0.913300
Si Si5 0.373757 0.417432 0.394404
Si Si6 0.931794 0.660726 0.496072
Si Si7 0.505233 0.600010 0.082308
Si Si8 0.716305 0.527942 0.545579
O O1 0.885041 0.822215 0.700049
O O2 0.961794 0.219376 0.450092
O O3 0.000000 0.000000 0.500000
O O4 0.175967 0.792977 0.014358
O O5 0.547816 0.281751 0.383883
O O6 0.745245 0.902695 0.826427
O O7 0.817213 0.885164 0.090271
O O8 0.589514 0.749060 0.958965
O O9 0.390304 0.143861 0.601899
O O10 0.297755 0.706870 0.981064
O O11 0.335698 0.804692 0.744936
O O12 0.000000 0.500000 0.500000
O O13 0.026158 0.352083 0.834374
O O14 0.000000 0.000000 0.000000
O O15 0.500000 0.500000 0.500000
O O16 0.310036 0.326529 0.513184
O O17 0.818223 0.631550 0.485759
O O18 0.580362 0.546521 0.318813
#
# Coordination Sequence:
#
# PCOD9100404 Si02
#       8
#     2   2   2   2   2   2   2   2
#     4  12  25  42  62  92 136 182 215 264 319 389
#     4  10  20  39  65  97 125 161 207 273 326 378
#     4  12  27  41  62  90 126 172 221 261 323 382
#     4  10  20  37  64 102 133 157 207 276 338 381
#     4  12  25  42  63  89 122 170 223 277 313 368
#     4  10  23  38  65  97 134 171 212 268 330 390
#     4  11  22  39  64  92 126 163 214 266 319 377
#     4  11  23  38  64  88 130 166 223 261 324 371
#
# _framework density 26.061433999999998
#
# number of rings (size 3 to 8) (size 9 to 14) (size 15 to 20)
#    0.000    1.000    3.750    4.125    3.500    1.000 
#    0.000    0.000    0.000    1.500    0.000    0.000 
#    0.000    0.000    0.000    0.000    0.000    0.000 
#
# Total GULP energy -89304.406288 kJ/mol
# GULP energy per Si atom -5581.525393 kJ/mol
# Density = 2.600212 g / cm^3
# Si number density = 26.061434 Si / 1000 Ang^3
#
#
#
# Elastic Constant Matrix: (Units=GPa)
#
#
# Indices 1 2 3 4 5 6 
#
# 1 141.8144 17.6463 18.8852 -2.3348 3.9652 11.3192
# 2 17.6463 85.2732 27.0249 -6.4704 -1.2122 -4.4464
# 3 18.8852 27.0249 81.9483 -20.0491 -2.2759 -2.5214
# 4 -2.3348 -6.4704 -20.0491 44.8842 -1.3481 0.1777
# 5 3.9652 -1.2122 -2.2759 -1.3481 48.7964 1.4582
# 6 11.3192 -4.4464 -2.5214 0.1777 1.4582 17.9820
#
#
#
# Elastic Compliance Matrix: (Units=1/GPa)
#
#
# Indices 1 2 3 4 5 6 
#
# 1 0.007900 -0.001445 -0.001662 -0.000536 -0.000606 -0.005509
# 2 -0.001445 0.013486 -0.003977 0.000083 0.000159 0.003673
# 3 -0.001662 -0.003977 0.015526 0.006293 0.000871 0.002107
# 4 -0.000536 0.000083 0.006293 0.025101 0.001005 0.000911
# 5 -0.000606 0.000159 0.000871 0.001005 0.020649 -0.001142
# 6 -0.005509 0.003673 0.002107 0.000911 -0.001142 0.060366
#
#
# Mechanical properties :
#
#
# Convention : Reuss Voigt Hill
#
# Bulk Modulus (GPa) = 43.96360 48.46095 46.21228
# Shear Modulus (GPa) = 30.34390 38.69782 34.52086
#
# Velocity S-wave (km/s) = 3.41592 3.85758 3.64345
# Velocity P-wave (km/s) = 5.69770 6.20294 5.95568
#
# Compressibility (1/GPa) = 0.02274609
#
# Stress axis : x y z
#
# Youngs Moduli (GPa) = 126.57682 74.14856 64.40835
#
# Poissons Ratio (x) = 0.10713 0.10702
# Poissons Ratio (y) = 0.18288 0.25615
# Poissons Ratio (z) = 0.21032 0.29488
#
# Static dielectric constant tensor:
#      x y z
#    x 2.162980 0.021080 0.088340 
#    y 0.021080 2.170900 0.119440 
#    z 0.088340 0.119440 2.218130 
# 
# From -- ./inp_files/538799.got.cif
#   From: 2010.05.17/outbox.cif.g08.bks.cpg/sg2_270_cif.got.tgz:538799.got - 2010.06.03 11:33:40.
