data_PCOD9100183
_publ_section_title
;
Structure prediction by ZEFSAII (Michael W. Deem and Ramdas Pophale) SiO2 
 PCOD9100183
Probable space group: P -1
;
_chemical_formula_sum "Si O2"
_cell_formula_units_Z 14
_cell_length_a 7.957072
_cell_length_b 8.693393
_cell_length_c 14.475250
_cell_angle_alpha 76.910766
_cell_angle_beta 124.536445
_cell_angle_gamma 134.172144
_cell_volume 567.028027
_symmetry_space_group_name_H-M "P -1"
_symmetry_group_IT_number 2
_symmetry_cell_setting 'triclinic'
loop_
_space_group_symop_operation_xyz
x,y,z
-x,-y,-z
loop_
_atom_site_type_symbol
_atom_site_label
_atom_site_fract_x
_atom_site_fract_y
_atom_site_fract_z
Si Si1 0.170562 0.006255 0.287040
Si Si2 0.840936 0.620979 0.916860
Si Si3 0.728589 0.460044 0.447235
Si Si4 0.725556 0.769149 0.014150
Si Si5 0.679124 0.270498 0.647358
Si Si6 0.291373 0.212682 0.679534
Si Si7 0.821412 0.363417 0.111573
O O1 0.280368 0.886564 0.352367
O O2 0.951722 0.878205 0.151546
O O3 0.988825 0.974705 0.321030
O O4 0.455009 0.264869 0.325100
O O5 0.544027 0.401457 0.805634
O O6 0.075497 0.738845 0.892443
O O7 0.837094 0.784993 0.945430
O O8 0.900340 0.534811 0.032909
O O9 0.636828 0.360784 0.534951
O O10 0.783068 0.673642 0.419606
O O11 0.000000 0.500000 0.500000
O O12 0.500000 0.500000 0.000000
O O13 0.511941 0.801333 0.945281
O O14 0.430224 0.159116 0.662082
O O15 0.976534 0.487647 0.759545
#
# Coordination Sequence:
#
# PCOD9100183 Si02
#       7
#     2   2   2   2   2   2   2
#     4  12  23  43  68  98 124 175 217 258 323 382
#     4   9  16  30  59  93 123 158 201 251 317 375
#     4  12  28  45  64  93 135 168 219 272 314 376
#     4  10  16  31  62  92 125 155 204 256 312 376
#     4  11  22  42  70  93 127 173 215 260 322 379
#     4  11  23  43  68  94 130 170 210 269 322 376
#     4   9  16  29  61  95 117 159 206 252 313 374
#
# _framework density 24.690137
#
# number of rings (size 3 to 8) (size 9 to 14) (size 15 to 20)
#    0.000    1.429    7.143    0.857    0.000    0.571 
#    2.571    0.714    0.000    1.714    0.000    0.000 
#    0.000    0.000    0.000    0.000    0.000    0.000 
#
# Total GULP energy -78368.776946 kJ/mol
# GULP energy per Si atom -5597.769782 kJ/mol
# Density = 2.463394 g / cm^3
# Si number density = 24.690137 Si / 1000 Ang^3
#
#
#
# Elastic Constant Matrix: (Units=GPa)
#
#
# Indices 1 2 3 4 5 6 
#
# 1 143.1008 1.5956 9.9910 17.5886 6.3321 44.5874
# 2 1.5956 40.6386 18.0447 5.1405 5.9213 5.7424
# 3 9.9910 18.0447 116.8328 8.7366 3.5773 12.4849
# 4 17.5886 5.1405 8.7366 38.4904 6.6174 8.7919
# 5 6.3321 5.9213 3.5773 6.6174 35.1563 1.6242
# 6 44.5874 5.7424 12.4849 8.7919 1.6242 24.8643
#
#
#
# Elastic Compliance Matrix: (Units=1/GPa)
#
#
# Indices 1 2 3 4 5 6 
#
# 1 0.016758 0.003515 0.001489 -0.000989 -0.002138 -0.031120
# 2 0.003515 0.028216 -0.003308 -0.001525 -0.004284 -0.010339
# 3 0.001489 -0.003308 0.009707 -0.000933 -0.000226 -0.006436
# 4 -0.000989 -0.001525 -0.000933 0.029356 -0.004650 -0.007482
# 5 -0.002138 -0.004284 -0.000226 -0.004650 0.030237 0.004606
# 6 -0.031120 -0.010339 -0.006436 -0.007482 0.004606 0.103988
#
#
# Mechanical properties :
#
#
# Convention : Reuss Voigt Hill
#
# Bulk Modulus (GPa) = 17.21996 39.98162 28.60079
# Shear Modulus (GPa) = 21.34667 37.76493 29.55580
#
# Velocity S-wave (km/s) = 2.94357 3.91520 3.46362
# Velocity P-wave (km/s) = 4.30609 6.05532 5.25401
#
# Compressibility (1/GPa) = 0.05807214
#
# Stress axis : x y z
#
# Youngs Moduli (GPa) = 59.67468 35.44046 103.01517
#
# Poissons Ratio (x) = -0.12457 -0.15340
# Poissons Ratio (y) = -0.20975 0.34082
# Poissons Ratio (z) = -0.08886 0.11725
#
# Static dielectric constant tensor:
#      x y z
#    x 2.107860 0.008450 0.025000 
#    y 0.008450 2.039600 0.030320 
#    z 0.025000 0.030320 1.921280 
# 
# From -- ./inp_files/499121.got.cif
#   From: 2010.05.17/outbox.cif.g08.bks.cpg/sg2_250_cif.got.tgz:499121.got - 2010.06.03 11:33:40.
