data_PCOD9100167
_publ_section_title
;
Structure prediction by ZEFSAII (Michael W. Deem and Ramdas Pophale) SiO2 
 PCOD9100167
Probable space group: P -1
;
_chemical_formula_sum "Si O2"
_cell_formula_units_Z 16
_cell_length_a 19.813585
_cell_length_b 11.498779
_cell_length_c 20.248989
_cell_angle_alpha 30.642278
_cell_angle_beta 160.720340
_cell_angle_gamma 140.181867
_cell_volume 749.309325
_symmetry_space_group_name_H-M "P -1"
_symmetry_group_IT_number 2
_symmetry_cell_setting 'triclinic'
loop_
_space_group_symop_operation_xyz
x,y,z
-x,-y,-z
loop_
_atom_site_type_symbol
_atom_site_label
_atom_site_fract_x
_atom_site_fract_y
_atom_site_fract_z
Si Si1 0.960826 0.483047 0.076954
Si Si2 0.995326 0.024360 0.270595
Si Si3 0.069730 0.050260 0.468107
Si Si4 0.216938 0.527366 0.716855
Si Si5 0.502729 0.792974 0.516328
Si Si6 0.132155 0.945163 0.002160
Si Si7 0.567880 0.387680 0.008166
Si Si8 0.698143 0.225354 0.524247
O O1 0.705417 0.573507 0.797217
O O2 0.035036 0.283003 0.186683
O O3 0.054362 0.705456 0.051252
O O4 0.042409 0.326629 0.294355
O O5 0.849461 0.012089 0.079895
O O6 0.940100 0.987716 0.314535
O O7 0.198758 0.807454 0.551391
O O8 0.301422 0.873648 0.762157
O O9 0.000000 0.000000 0.500000
O O10 0.269989 0.491014 0.861122
O O11 0.000000 0.500000 0.500000
O O12 0.399412 0.378056 0.913289
O O13 0.353983 0.890022 0.270098
O O14 0.351324 0.739594 0.460706
O O15 0.605669 0.002713 0.530372
O O16 0.942866 0.145685 0.764595
O O17 0.442098 0.549449 0.754892
#
# Coordination Sequence:
#
# PCOD9100167 Si02
#       8
#     2   2   2   2   2   2   2   2
#     4   9  21  39  57  84 119 154 199 242 287 358
#     4   9  20  37  57  85 118 148 197 245 287 349
#     4   9  19  38  61  84 118 159 194 240 300 358
#     4  10  21  38  58  93 116 149 201 249 294 355
#     4  10  22  37  58  89 116 159 193 239 298 346
#     4  11  20  38  60  86 118 153 201 246 291 349
#     4  10  20  37  63  84 116 161 186 244 310 341
#     4  10  21  37  60  87 120 149 197 244 294 356
#
# _framework density 21.352996999999998
#
# number of rings (size 3 to 8) (size 9 to 14) (size 15 to 20)
#    0.750    1.500    1.250    1.500    1.750    0.500 
#    2.250    2.500    0.000    4.500    0.000    0.000 
#    0.000    0.000    0.000    0.000    0.000    0.000 
#
# Total GULP energy -89090.449534 kJ/mol
# GULP energy per Si atom -5568.153096 kJ/mol
# Density = 2.130440 g / cm^3
# Si number density = 21.352997 Si / 1000 Ang^3
#
#
#
# Elastic Constant Matrix: (Units=GPa)
#
#
# Indices 1 2 3 4 5 6 
#
# 1 81.8653 13.2301 37.4896 -5.3390 -12.6502 -3.7727
# 2 13.2301 26.2512 34.4142 -2.2213 11.5300 3.0022
# 3 37.4896 34.4142 150.1306 -22.7948 -0.3241 -3.7648
# 4 -5.3390 -2.2213 -22.7948 26.0357 1.7986 -4.0025
# 5 -12.6502 11.5300 -0.3241 1.7986 41.4650 -3.7095
# 6 -3.7727 3.0022 -3.7648 -4.0025 -3.7095 13.3910
#
#
#
# Elastic Compliance Matrix: (Units=1/GPa)
#
#
# Indices 1 2 3 4 5 6 
#
# 1 0.016714 -0.013111 -0.000417 0.002985 0.009604 0.011084
# 2 -0.013111 0.090774 -0.021515 -0.018389 -0.032603 -0.044621
# 3 -0.000417 -0.021515 0.013873 0.011918 0.006702 0.014025
# 4 0.002985 -0.018389 0.011918 0.051361 0.006159 0.025372
# 5 0.009604 -0.032603 0.006702 0.006159 0.038070 0.024286
# 6 0.011084 -0.044621 0.014025 0.025372 0.024286 0.106058
#
#
# Mechanical properties :
#
#
# Convention : Reuss Voigt Hill
#
# Bulk Modulus (GPa) = 19.50257 47.61277 33.55767
# Shear Modulus (GPa) = 12.37543 27.71924 20.04734
#
# Velocity S-wave (km/s) = 2.41003 3.60688 3.06740
# Velocity P-wave (km/s) = 4.11066 6.30020 5.31931
#
# Compressibility (1/GPa) = 0.05127530
#
# Stress axis : x y z
#
# Youngs Moduli (GPa) = 59.82956 11.01641 72.08506
#
# Poissons Ratio (x) = 0.14443 0.03003
# Poissons Ratio (y) = 0.78440 1.55094
# Poissons Ratio (z) = 0.02492 0.23702
#
# Static dielectric constant tensor:
#      x y z
#    x 1.818220 0.004780 -0.038370 
#    y 0.004780 1.827600 -0.016280 
#    z -0.038370 -0.016280 1.795150 
# 
# From -- ./inp_files/109323.got.cif
#   From: 2010.05.17/outbox.cif.g08.bks.cpg/sg2_55_cif.got.tgz:109323.got - 2010.06.03 11:33:40.
