data_PCOD9100954
_publ_section_title
;
Structure prediction by ZEFSAII (Michael W. Deem and Ramdas Pophale) SiO2 
 PCOD9100954
Probable space group: P -1
;
_chemical_formula_sum "Si O2"
_cell_formula_units_Z 16
_cell_length_a 9.146313
_cell_length_b 23.714427
_cell_length_c 13.773551
_cell_angle_alpha 154.120978
_cell_angle_beta 141.503782
_cell_angle_gamma 47.941254
_cell_volume 805.178120
_symmetry_space_group_name_H-M "P -1"
_symmetry_group_IT_number 2
_symmetry_cell_setting 'triclinic'
loop_
_space_group_symop_operation_xyz
x,y,z
-x,-y,-z
loop_
_atom_site_type_symbol
_atom_site_label
_atom_site_fract_x
_atom_site_fract_y
_atom_site_fract_z
Si Si1 0.544017 0.156868 0.106999
Si Si2 0.282159 0.581443 0.512779
Si Si3 0.534900 0.631092 0.283880
Si Si4 0.001656 0.134036 0.864246
Si Si5 0.024761 0.628078 0.644845
Si Si6 0.884561 0.129705 0.424159
Si Si7 0.045866 0.588868 0.067679
Si Si8 0.385720 0.889446 0.541621
O O1 0.649311 0.287829 0.310564
O O2 0.713339 0.134321 0.250492
O O3 0.275337 0.167618 0.021733
O O4 0.535246 0.031557 0.837283
O O5 0.500000 0.500000 0.500000
O O6 0.211603 0.614718 0.636301
O O7 0.074295 0.487984 0.205709
O O8 0.780591 0.641599 0.483471
O O9 0.323073 0.618775 0.233159
O O10 0.515170 0.759856 0.407951
O O11 0.500000 0.500000 0.000000
O O12 0.826513 0.118939 0.658256
O O13 0.985196 0.998427 0.704774
O O14 0.928049 0.247792 0.069182
O O15 0.000000 0.500000 0.500000
O O16 0.037583 0.270361 0.735911
O O17 0.726278 0.111908 0.411246
O O18 0.000000 0.500000 0.000000
#
# Coordination Sequence:
#
# PCOD9100954 Si02
#       8
#     2   2   2   2   2   2   2   2
#     4  11  21  41  64  98 128 172 216 267 325 379
#     4  12  28  42  66  96 134 169 213 271 328 389
#     4  11  22  42  67  91 131 170 221 263 313 385
#     4  11  22  40  67  97 128 170 221 267 317 381
#     4  12  26  45  65  98 131 172 216 266 328 387
#     4  10  20  37  67  94 130 170 217 264 313 389
#     4  11  23  42  65 100 128 170 216 262 326 377
#     4  10  22  37  65  98 127 172 218 264 316 386
#
# _framework density 19.871381
#
# number of rings (size 3 to 8) (size 9 to 14) (size 15 to 20)
#    0.000    1.000    2.500    6.750    8.750    0.000 
#    0.000    4.375    0.000    0.000    0.000    0.000 
#    0.000    0.000    0.000    0.000    0.000    0.000 
#
# Total GULP energy -89402.085093 kJ/mol
# GULP energy per Si atom -5587.630318 kJ/mol
# Density = 1.982615 g / cm^3
# Si number density = 19.871381 Si / 1000 Ang^3
#
#
#
# Elastic Constant Matrix: (Units=GPa)
#
#
# Indices 1 2 3 4 5 6 
#
# 1 82.1297 47.4043 32.4873 7.7043 -11.2490 0.6455
# 2 47.4043 164.2680 58.7919 17.9595 -2.8942 5.3850
# 3 32.4873 58.7919 118.9612 28.8706 -14.6464 0.6950
# 4 7.7043 17.9595 28.8706 41.8357 -4.0649 -4.0264
# 5 -11.2490 -2.8942 -14.6464 -4.0649 29.9100 3.9065
# 6 0.6455 5.3850 0.6950 -4.0264 3.9065 24.9409
#
#
#
# Elastic Compliance Matrix: (Units=1/GPa)
#
#
# Indices 1 2 3 4 5 6 
#
# 1 0.015747 -0.003809 -0.001969 0.000532 0.004685 -0.000178
# 2 -0.003809 0.008432 -0.003104 -0.001123 -0.002095 -0.001489
# 3 -0.001969 -0.003104 0.012671 -0.006755 0.004431 -0.001417
# 4 0.000532 -0.001123 -0.006755 0.029456 0.000114 0.005155
# 5 0.004685 -0.002095 0.004431 0.000114 0.037924 -0.005714
# 6 -0.000178 -0.001489 -0.001417 0.005155 -0.005714 0.042187
#
#
# Mechanical properties :
#
#
# Convention : Reuss Voigt Hill
#
# Bulk Modulus (GPa) = 52.39457 71.41398 61.90428
# Shear Modulus (GPa) = 29.31804 34.44901 31.88352
#
# Velocity S-wave (km/s) = 3.84525 4.16817 4.00996
# Velocity P-wave (km/s) = 6.79254 7.69292 7.25671
#
# Compressibility (1/GPa) = 0.01908595
#
# Stress axis : x y z
#
# Youngs Moduli (GPa) = 63.50607 118.59005 78.92135
#
# Poissons Ratio (x) = 0.45174 0.15540
# Poissons Ratio (y) = 0.24191 0.24495
# Poissons Ratio (z) = 0.12504 0.36807
#
# Static dielectric constant tensor:
#      x y z
#    x 1.686130 -0.020130 0.001250 
#    y -0.020130 1.710630 0.029860 
#    z 0.001250 0.029860 1.763030 
# 
# From -- ./inp_files/346088.got.cif
#   From: 2010.05.17/outbox.cif.g08.bks.cpg/sg2_174_cif.got.tgz:346088.got - 2010.06.03 11:33:40.
