data_PCOD9100773
_publ_section_title
;
Structure prediction by ZEFSAII (Michael W. Deem and Ramdas Pophale) SiO2 
 PCOD9100773
Probable space group: P -1
;
_chemical_formula_sum "Si O2"
_cell_formula_units_Z 16
_cell_length_a 12.482895
_cell_length_b 18.731097
_cell_length_c 9.493651
_cell_angle_alpha 101.386790
_cell_angle_beta 47.929398
_cell_angle_gamma 140.565772
_cell_volume 768.556463
_symmetry_space_group_name_H-M "P -1"
_symmetry_group_IT_number 2
_symmetry_cell_setting 'triclinic'
loop_
_space_group_symop_operation_xyz
x,y,z
-x,-y,-z
loop_
_atom_site_type_symbol
_atom_site_label
_atom_site_fract_x
_atom_site_fract_y
_atom_site_fract_z
Si Si1 0.674428 0.651890 0.881441
Si Si2 0.139640 0.519833 0.252605
Si Si3 0.455843 0.762007 0.512274
Si Si4 0.727813 0.312564 0.027534
Si Si5 0.706738 0.627874 0.527369
Si Si6 0.631337 0.114678 0.036393
Si Si7 0.685771 0.023360 0.436578
Si Si8 0.558090 0.404659 0.504101
O O1 0.777767 0.691841 0.642147
O O2 0.965393 0.798654 0.777257
O O3 0.500000 0.500000 0.000000
O O4 0.398164 0.584579 0.113612
O O5 0.000000 0.500000 0.500000
O O6 0.848380 0.360057 0.360770
O O7 0.319635 0.645590 0.025238
O O8 0.369321 0.720338 0.738739
O O9 0.578928 0.732893 0.369546
O O10 0.652524 0.923210 0.380912
O O11 0.579368 0.172829 0.048721
O O12 0.088149 0.458860 0.761480
O O13 0.533948 0.472480 0.632045
O O14 0.541837 0.614843 0.571828
O O15 0.011015 0.742548 0.219205
O O16 0.479483 0.044538 0.293577
O O17 0.500000 0.000000 0.000000
O O18 0.500000 0.000000 0.500000
#
# Coordination Sequence:
#
# PCOD9100773 Si02
#       8
#     2   2   2   2   2   2   2   2
#     4  12  26  41  68  94 134 173 228 272 335 400
#     4  11  24  41  66  97 132 175 219 275 331 393
#     4  10  20  41  66  89 130 173 216 270 334 397
#     4   9  19  36  63  88 127 167 214 258 330 386
#     4  10  20  37  65  97 127 166 226 270 318 397
#     4  10  20  39  65  92 125 173 216 272 320 394
#     4  11  25  45  65  96 137 177 216 278 351 392
#     4   9  18  33  63  94 125 159 215 271 318 382
#
# _framework density 20.818249000000002
#
# number of rings (size 3 to 8) (size 9 to 14) (size 15 to 20)
#    0.000    1.750    1.250    3.750    5.250    5.000 
#    2.250    2.500    0.000    0.000    0.000    0.000 
#    0.000    0.000    0.000    0.000    0.000    0.000 
#
# Total GULP energy -89168.567716 kJ/mol
# GULP energy per Si atom -5573.035482 kJ/mol
# Density = 2.077087 g / cm^3
# Si number density = 20.818249 Si / 1000 Ang^3
#
#
#
# Elastic Constant Matrix: (Units=GPa)
#
#
# Indices 1 2 3 4 5 6 
#
# 1 131.6911 65.9372 25.5012 -21.0978 -22.5491 -12.9695
# 2 65.9372 159.3762 25.5441 -20.2857 -5.8090 -11.8259
# 3 25.5012 25.5441 65.7536 -5.4535 -8.5031 -5.3488
# 4 -21.0978 -20.2857 -5.4535 26.6327 -5.6878 3.6047
# 5 -22.5491 -5.8090 -8.5031 -5.6878 22.7516 3.5799
# 6 -12.9695 -11.8259 -5.3488 3.6047 3.5799 29.1548
#
#
#
# Elastic Compliance Matrix: (Units=1/GPa)
#
#
# Indices 1 2 3 4 5 6 
#
# 1 0.014189 -0.003588 -0.001064 0.011389 0.015381 0.001364
# 2 -0.003588 0.008425 -0.001755 0.002689 -0.001603 0.001364
# 3 -0.001064 -0.001755 0.017280 0.002369 0.005385 0.001031
# 4 0.011389 0.002689 0.002369 0.055418 0.027282 -0.003610
# 5 0.015381 -0.001603 0.005385 0.027282 0.068343 -0.004585
# 6 0.001364 0.001364 0.001031 -0.003610 -0.004585 0.036658
#
#
# Mechanical properties :
#
#
# Convention : Reuss Voigt Hill
#
# Bulk Modulus (GPa) = 36.92887 65.64290 51.28588
# Shear Modulus (GPa) = 22.50694 31.69704 27.10199
#
# Velocity S-wave (km/s) = 3.29160 3.90623 3.61201
# Velocity P-wave (km/s) = 5.67656 7.20727 6.48722
#
# Compressibility (1/GPa) = 0.02707909
#
# Stress axis : x y z
#
# Youngs Moduli (GPa) = 70.47746 118.69200 57.87197
#
# Poissons Ratio (x) = 0.42588 0.06159
# Poissons Ratio (y) = 0.25288 0.10156
# Poissons Ratio (z) = 0.07501 0.20829
#
# Static dielectric constant tensor:
#      x y z
#    x 1.750960 -0.024830 0.013230 
#    y -0.024830 1.805010 -0.009350 
#    z 0.013230 -0.009350 1.776870 
# 
# From -- ./inp_files/279491.got.cif
#   From: 2010.05.17/outbox.cif.g08.bks.cpg/sg2_140_cif.got.tgz:279491.got - 2010.06.03 11:33:40.
