data_PCOD9100197
_publ_section_title
;
Structure prediction by ZEFSAII (Michael W. Deem and Ramdas Pophale) SiO2 
 PCOD9100197
Probable space group: P -1
;
_chemical_formula_sum "Si O2"
_cell_formula_units_Z 16
_cell_length_a 12.070147
_cell_length_b 9.255752
_cell_length_c 14.346588
_cell_angle_alpha 128.934322
_cell_angle_beta 136.122924
_cell_angle_gamma 67.753057
_cell_volume 855.871683
_symmetry_space_group_name_H-M "P -1"
_symmetry_group_IT_number 2
_symmetry_cell_setting 'triclinic'
loop_
_space_group_symop_operation_xyz
x,y,z
-x,-y,-z
loop_
_atom_site_type_symbol
_atom_site_label
_atom_site_fract_x
_atom_site_fract_y
_atom_site_fract_z
Si Si1 0.728530 0.555987 0.577820
Si Si2 0.124396 0.038416 0.506434
Si Si3 0.490811 0.507219 0.860339
Si Si4 0.859186 0.625190 0.478871
Si Si5 0.473978 0.179176 0.854560
Si Si6 0.755505 0.567152 0.903615
Si Si7 0.576714 0.772264 0.733463
Si Si8 0.921550 0.365126 0.763975
O O1 0.800960 0.629728 0.552709
O O2 0.644051 0.705668 0.648230
O O3 0.591129 0.370970 0.409947
O O4 0.874394 0.496158 0.704733
O O5 0.082482 0.178580 0.457339
O O6 0.291938 0.123649 0.688309
O O7 0.140801 0.843277 0.389185
O O8 0.000000 0.000000 0.500000
O O9 0.301712 0.463201 0.708977
O O10 0.544773 0.355126 0.903626
O O11 0.591198 0.483306 0.819276
O O12 0.525804 0.720546 0.004554
O O13 0.000000 0.500000 0.500000
O O14 0.552259 0.989183 0.813997
O O15 0.705657 0.729685 0.872804
O O16 0.825302 0.423361 0.818799
O O17 0.892023 0.620670 0.086390
#
# Coordination Sequence:
#
# PCOD9100197 Si02
#       8
#     2   2   2   2   2   2   2   2
#     4  10  20  39  60  87 121 153 199 249 295 355
#     4  11  22  37  59  87 119 159 205 244 299 362
#     4  10  22  40  56  85 123 154 200 249 300 358
#     4  11  24  38  59  88 121 159 200 253 300 350
#     4  10  22  37  59  85 115 159 198 246 304 353
#     4  10  21  38  61  88 120 156 198 251 298 353
#     4  10  20  37  63  87 115 157 202 245 296 354
#     4  10  21  38  61  88 119 158 199 245 302 357
#
# _framework density 18.694391
#
# number of rings (size 3 to 8) (size 9 to 14) (size 15 to 20)
#    0.000    1.750    2.500    1.500    0.000    4.500 
#    0.000    2.500    0.000    5.250    0.000    0.000 
#    0.000    0.000    0.000    0.000    0.000    0.000 
#
# Total GULP energy -89209.398120 kJ/mol
# GULP energy per Si atom -5575.587383 kJ/mol
# Density = 1.865184 g / cm^3
# Si number density = 18.694391 Si / 1000 Ang^3
#
#
#
# Elastic Constant Matrix: (Units=GPa)
#
#
# Indices 1 2 3 4 5 6 
#
# 1 94.5294 64.2230 15.5493 3.0175 6.0613 9.3624
# 2 64.2230 118.3346 31.0804 6.0182 -3.7153 -9.9131
# 3 15.5493 31.0804 69.9469 -4.4676 -5.1569 -3.5422
# 4 3.0175 6.0182 -4.4676 33.3606 -3.7259 -0.6985
# 5 6.0613 -3.7153 -5.1569 -3.7259 18.4958 -6.8982
# 6 9.3624 -9.9131 -3.5422 -0.6985 -6.8982 25.4693
#
#
#
# Elastic Compliance Matrix: (Units=1/GPa)
#
#
# Indices 1 2 3 4 5 6 
#
# 1 0.024372 -0.015078 -0.001324 -0.002257 -0.019423 -0.020334
# 2 -0.015078 0.019380 -0.003460 -0.000711 0.013816 0.016327
# 3 -0.001324 -0.003460 0.017024 0.003822 0.006515 0.003377
# 4 -0.002257 -0.000711 0.003822 0.032015 0.009837 0.004627
# 5 -0.019423 0.013816 0.006515 0.009837 0.080215 0.035419
# 6 -0.020334 0.016327 0.003377 0.004627 0.035419 0.063282
#
#
# Mechanical properties :
#
#
# Convention : Reuss Voigt Hill
#
# Bulk Modulus (GPa) = 47.50042 56.05736 51.77889
# Shear Modulus (GPa) = 17.66612 26.92902 22.29757
#
# Velocity S-wave (km/s) = 3.07741 3.79949 3.45736
# Velocity P-wave (km/s) = 6.17182 7.02136 6.61025
#
# Compressibility (1/GPa) = 0.02105244
#
# Stress axis : x y z
#
# Youngs Moduli (GPa) = 41.03100 51.59956 58.74208
#
# Poissons Ratio (x) = 0.77801 0.07778
# Poissons Ratio (y) = 0.61866 0.20322
# Poissons Ratio (z) = 0.05433 0.17851
#
# Static dielectric constant tensor:
#      x y z
#    x 1.884190 0.667080 -0.899480 
#    y 0.667080 3.416120 -2.454330 
#    z -0.899480 -2.454330 5.004250 
# 
# From -- ./inp_files/181339.got.cif
#   From: 2010.05.17/outbox.cif.g08.bks.cpg/sg2_91_cif.got.tgz:181339.got - 2010.06.03 11:33:40.
