data_PCOD9100775
_publ_section_title
;
Structure prediction by ZEFSAII (Michael W. Deem and Ramdas Pophale) SiO2 
 PCOD9100775
Probable space group: P -1
;
_chemical_formula_sum "Si O2"
_cell_formula_units_Z 16
_cell_length_a 5.199639
_cell_length_b 14.513092
_cell_length_c 14.413006
_cell_angle_alpha 59.025290
_cell_angle_beta 57.263553
_cell_angle_gamma 96.152968
_cell_volume 662.962627
_symmetry_space_group_name_H-M "P -1"
_symmetry_group_IT_number 2
_symmetry_cell_setting 'triclinic'
loop_
_space_group_symop_operation_xyz
x,y,z
-x,-y,-z
loop_
_atom_site_type_symbol
_atom_site_label
_atom_site_fract_x
_atom_site_fract_y
_atom_site_fract_z
Si Si1 0.963004 0.642979 0.161636
Si Si2 0.841461 0.425091 0.181612
Si Si3 0.300060 0.922777 0.985578
Si Si4 0.180459 0.606355 0.331587
Si Si5 0.897051 0.021897 0.406851
Si Si6 0.771228 0.704717 0.776862
Si Si7 0.516757 0.221319 0.498445
Si Si8 0.477683 0.160192 0.746433
O O1 0.025165 0.567420 0.108645
O O2 0.575528 0.626832 0.226568
O O3 0.272644 0.792125 0.035683
O O4 0.968813 0.580440 0.290620
O O5 0.590178 0.385939 0.161866
O O6 0.574712 0.338202 0.364336
O O7 0.892788 0.626625 0.855157
O O8 0.886298 0.874280 0.112297
O O9 0.500000 0.000000 0.000000
O O10 0.452056 0.026784 0.820186
O O11 0.214339 0.731345 0.305673
O O12 0.000000 0.500000 0.500000
O O13 0.177929 0.169682 0.251401
O O14 0.500000 0.000000 0.500000
O O15 0.814773 0.909344 0.411046
O O16 0.000000 0.000000 0.500000
O O17 0.098301 0.764822 0.605170
O O18 0.483037 0.217565 0.616536
#
# Coordination Sequence:
#
# PCOD9100775 Si02
#       8
#     2   2   2   2   2   2   2   2
#     4  11  22  36  54  74 101 145 183 217 265 317
#     4  10  19  31  50  78 108 135 175 209 261 324
#     4  10  21  40  55  67 106 145 193 228 264 300
#     4  11  22  35  52  77 109 136 170 222 278 323
#     4  10  16  32  50  76 113 145 164 198 268 334
#     4   9  18  32  50  77 114 141 160 209 267 331
#     4   9  20  30  53  79 112 132 178 214 261 327
#     4  10  21  37  53  79 101 146 182 229 265 307
#
# _framework density 24.134091999999999
#
# number of rings (size 3 to 8) (size 9 to 14) (size 15 to 20)
#    0.750    1.250    2.500    1.875    1.750    2.000 
#    0.000    0.000    0.000    0.000    0.000    1.750 
#    0.000    0.000    0.000    0.000    0.000    0.000 
#
# Total GULP energy -89354.978677 kJ/mol
# GULP energy per Si atom -5584.686167 kJ/mol
# Density = 2.407916 g / cm^3
# Si number density = 24.134092 Si / 1000 Ang^3
#
#
#
# Elastic Constant Matrix: (Units=GPa)
#
#
# Indices 1 2 3 4 5 6 
#
# 1 89.8733 21.5267 14.4041 2.9019 20.8051 17.0940
# 2 21.5267 154.1434 40.2764 -29.6318 10.8381 21.7375
# 3 14.4041 40.2764 95.7665 -4.0745 11.2666 -10.9894
# 4 2.9019 -29.6318 -4.0745 44.7252 -3.2469 4.6796
# 5 20.8051 10.8381 11.2666 -3.2469 28.1218 2.3552
# 6 17.0940 21.7375 -10.9894 4.6796 2.3552 33.9745
#
#
#
# Elastic Compliance Matrix: (Units=1/GPa)
#
#
# Indices 1 2 3 4 5 6 
#
# 1 0.015209 -0.000095 -0.001975 -0.001180 -0.009942 -0.007378
# 2 -0.000095 0.010678 -0.005209 0.007578 -0.000288 -0.009493
# 3 -0.001975 -0.005209 0.014303 -0.003280 -0.003448 0.009644
# 4 -0.001180 0.007578 -0.003280 0.028389 0.003336 -0.009458
# 5 -0.009942 -0.000288 -0.003448 0.003336 0.044750 0.000510
# 6 -0.007378 -0.009493 0.009644 -0.009458 0.000510 0.043607
#
#
# Mechanical properties :
#
#
# Convention : Reuss Voigt Hill
#
# Bulk Modulus (GPa) = 39.01544 54.68864 46.85204
# Shear Modulus (GPa) = 27.77200 38.93602 33.35401
#
# Velocity S-wave (km/s) = 3.39593 4.02097 3.72160
# Velocity P-wave (km/s) = 5.61940 6.65336 6.15812
#
# Compressibility (1/GPa) = 0.02563088
#
# Stress axis : x y z
#
# Youngs Moduli (GPa) = 65.74980 93.65370 69.91680
#
# Poissons Ratio (x) = 0.00891 0.13807
# Poissons Ratio (y) = 0.00626 0.36422
# Poissons Ratio (z) = 0.12984 0.48788
#
# Static dielectric constant tensor:
#      x y z
#    x 1.954740 -0.064390 -0.028590 
#    y -0.064390 1.969390 -0.073660 
#    z -0.028590 -0.073660 1.965710 
# 
# From -- ./inp_files/369368.got.cif
#   From: 2010.05.17/outbox.cif.g08.bks.cpg/sg2_185_cif.got.tgz:369368.got - 2010.06.03 11:33:40.
