data_PCOD9100371
_publ_section_title
;
Structure prediction by ZEFSAII (Michael W. Deem and Ramdas Pophale) SiO2 
 PCOD9100371
Probable space group: P -1
;
_chemical_formula_sum "Si O2"
_cell_formula_units_Z 16
_cell_length_a 18.651375
_cell_length_b 7.104191
_cell_length_c 5.267337
_cell_angle_alpha 76.350723
_cell_angle_beta 94.138347
_cell_angle_gamma 68.435997
_cell_volume 620.930238
_symmetry_space_group_name_H-M "P -1"
_symmetry_group_IT_number 2
_symmetry_cell_setting 'triclinic'
loop_
_space_group_symop_operation_xyz
x,y,z
-x,-y,-z
loop_
_atom_site_type_symbol
_atom_site_label
_atom_site_fract_x
_atom_site_fract_y
_atom_site_fract_z
Si Si1 0.272777 0.703132 0.652419
Si Si2 0.863617 0.086651 0.113896
Si Si3 0.823815 0.470424 0.610775
Si Si4 0.591669 0.847190 0.551651
Si Si5 0.583029 0.018833 0.991899
Si Si6 0.040296 0.703290 0.691700
Si Si7 0.115591 0.272476 0.174856
Si Si8 0.369637 0.628641 0.217103
O O1 0.193748 0.890405 0.671404
O O2 0.240993 0.526344 0.609359
O O3 0.313023 0.747898 0.398344
O O4 0.329189 0.641017 0.929093
O O5 0.942104 0.109373 0.227832
O O6 0.822179 0.305476 0.875675
O O7 0.869635 0.903254 0.980775
O O8 0.908481 0.361865 0.529112
O O9 0.817721 0.687115 0.663686
O O10 0.596721 0.611837 0.607173
O O11 0.500000 0.000000 0.500000
O O12 0.623753 0.932448 0.295954
O O13 0.628180 0.874046 0.817006
O O14 0.572257 0.255454 0.853286
O O15 0.500000 0.000000 0.000000
O O16 0.949594 0.746187 0.645838
O O17 0.077053 0.495899 0.944268
#
# Coordination Sequence:
#
# PCOD9100371 Si02
#       8
#     2   2   2   2   2   2   2   2
#     4  11  24  45  68  94 138 196 242 273 359 425
#     4  10  21  40  62  93 133 182 235 297 347 423
#     4  10  21  40  61  91 135 178 236 297 344 426
#     4  10  23  43  72 111 142 179 233 278 354 428
#     4  10  23  43  70 111 143 176 235 277 348 433
#     4   9  20  36  60  95 136 167 233 294 373 429
#     4  10  20  37  63  96 129 178 230 298 367 413
#     4  12  24  46  74  98 149 195 223 302 353 413
#
# _framework density 25.767789
#
# number of rings (size 3 to 8) (size 9 to 14) (size 15 to 20)
#    0.000    1.750    1.250    2.250    0.000    6.500 
#    2.250    6.250    0.000    0.000    0.000    0.000 
#    0.000    0.000    0.000    0.000    0.000    0.000 
#
# Total GULP energy -89538.612912 kJ/mol
# GULP energy per Si atom -5596.163307 kJ/mol
# Density = 2.570914 g / cm^3
# Si number density = 25.767789 Si / 1000 Ang^3
#
#
#
# Elastic Constant Matrix: (Units=GPa)
#
#
# Indices 1 2 3 4 5 6 
#
# 1 81.4592 47.8412 31.1042 12.7103 -2.8579 13.1916
# 2 47.8412 166.4305 39.0537 8.6761 -17.8419 40.6351
# 3 31.1042 39.0537 148.7985 20.3076 -22.7659 16.9488
# 4 12.7103 8.6761 20.3076 52.3042 9.4123 7.9403
# 5 -2.8579 -17.8419 -22.7659 9.4123 33.4007 -1.0290
# 6 13.1916 40.6351 16.9488 7.9403 -1.0290 29.4423
#
#
#
# Elastic Compliance Matrix: (Units=1/GPa)
#
#
# Indices 1 2 3 4 5 6 
#
# 1 0.015787 -0.004239 -0.002265 -0.002000 -0.001876 0.000555
# 2 -0.004239 0.010940 0.000300 0.000167 0.005231 -0.013234
# 3 -0.002265 0.000300 0.009113 -0.003813 0.007148 -0.003367
# 4 -0.002000 0.000167 -0.003813 0.023313 -0.009366 -0.003754
# 5 -0.001876 0.005231 0.007148 -0.009366 0.039882 -0.006574
# 6 0.000555 -0.013234 -0.003367 -0.003754 -0.006574 0.054703
#
#
# Mechanical properties :
#
#
# Convention : Reuss Voigt Hill
#
# Bulk Modulus (GPa) = 42.67682 70.29848 56.48765
# Shear Modulus (GPa) = 28.74294 41.60871 35.17582
#
# Velocity S-wave (km/s) = 3.34347 4.02276 3.69875
# Velocity P-wave (km/s) = 5.61276 6.99411 6.34116
#
# Compressibility (1/GPa) = 0.02343192
#
# Stress axis : x y z
#
# Youngs Moduli (GPa) = 63.34402 91.40762 109.73646
#
# Poissons Ratio (x) = 0.38746 0.24852
# Poissons Ratio (y) = 0.26851 -0.03289
# Poissons Ratio (z) = 0.14346 -0.02740
#
# Static dielectric constant tensor:
#      x y z
#    x 2.014950 -0.040880 -0.003830 
#    y -0.040880 2.013440 -0.013440 
#    z -0.003830 -0.013440 2.071900 
# 
# From -- ./inp_files/114529.got.cif
#   From: 2010.05.17/outbox.cif.g08.bks.cpg/sg2_58_cif.got.tgz:114529.got - 2010.06.03 11:33:40.
