data_PCOD9100266
_publ_section_title
;
Structure prediction by ZEFSAII (Michael W. Deem and Ramdas Pophale) SiO2 
 PCOD9100266
Probable space group: P -1
;
_chemical_formula_sum "Si O2"
_cell_formula_units_Z 14
_cell_length_a 9.330523
_cell_length_b 11.589772
_cell_length_c 8.084135
_cell_angle_alpha 103.555236
_cell_angle_beta 133.694707
_cell_angle_gamma 72.021749
_cell_volume 600.932317
_symmetry_space_group_name_H-M "P -1"
_symmetry_group_IT_number 2
_symmetry_cell_setting 'triclinic'
loop_
_space_group_symop_operation_xyz
x,y,z
-x,-y,-z
loop_
_atom_site_type_symbol
_atom_site_label
_atom_site_fract_x
_atom_site_fract_y
_atom_site_fract_z
Si Si1 0.993544 0.363792 0.229068
Si Si2 0.565474 0.882641 0.397577
Si Si3 0.715094 0.569506 0.246330
Si Si4 0.309675 0.017061 0.978401
Si Si5 0.610105 0.340115 0.232006
Si Si6 0.331185 0.267671 0.256039
Si Si7 0.973974 0.146388 0.330181
O O1 0.122076 0.375318 0.504889
O O2 0.125505 0.360985 0.170075
O O3 0.815133 0.479731 0.147566
O O4 0.943244 0.230619 0.165826
O O5 0.583820 0.774836 0.507585
O O6 0.780410 0.882064 0.477357
O O7 0.500000 0.000000 0.500000
O O8 0.388214 0.909108 0.134526
O O9 0.649207 0.475424 0.290273
O O10 0.536295 0.663367 0.046612
O O11 0.285990 0.149338 0.085231
O O12 0.500000 0.000000 0.000000
O O13 0.100496 0.979908 0.751012
O O14 0.487701 0.318882 0.287932
O O15 0.819844 0.240384 0.356430
#
# Coordination Sequence:
#
# PCOD9100266 Si02
#       7
#     2   2   2   2   2   2   2
#     4   9  20  38  61  87 121 161 202 253 310 358
#     4   9  22  40  58  85 126 160 198 255 294 351
#     4   9  20  39  63  85 120 163 203 256 305 360
#     4  11  22  40  63  91 126 162 203 247 297 373
#     4  10  20  37  63  91 116 162 208 248 306 366
#     4  10  21  36  59  91 125 154 204 253 299 362
#     4  10  21  37  66  87 122 165 204 238 306 374
#
# _framework density 23.297132000000001
#
# number of rings (size 3 to 8) (size 9 to 14) (size 15 to 20)
#    0.000    2.286    1.429    0.000    4.000    6.857 
#    0.000    0.000   18.857    0.000    0.000    0.000 
#    0.000    0.000    0.000    0.000    0.000    0.000 
#
# Total GULP energy -77997.733578 kJ/mol
# GULP energy per Si atom -5571.266684 kJ/mol
# Density = 2.324411 g / cm^3
# Si number density = 23.297132 Si / 1000 Ang^3
#
#
#
# Elastic Constant Matrix: (Units=GPa)
#
#
# Indices 1 2 3 4 5 6 
#
# 1 187.6640 45.5319 13.8591 5.8869 16.3414 8.7310
# 2 45.5319 73.0971 7.7079 -0.0183 2.0820 -13.7090
# 3 13.8591 7.7079 57.1909 -5.8403 14.0342 9.3874
# 4 5.8869 -0.0183 -5.8403 18.0062 1.5963 4.5783
# 5 16.3414 2.0820 14.0342 1.5963 26.5873 -3.3949
# 6 8.7310 -13.7090 9.3874 4.5783 -3.3949 49.3669
#
#
#
# Elastic Compliance Matrix: (Units=1/GPa)
#
#
# Indices 1 2 3 4 5 6 
#
# 1 0.007025 -0.004831 0.000407 -0.001044 -0.004459 -0.002871
# 2 -0.004831 0.018295 -0.003771 -0.001843 0.004549 0.007136
# 3 0.000407 -0.003771 0.023688 0.010722 -0.014071 -0.007586
# 4 -0.001044 -0.001843 0.010722 0.062463 -0.009751 -0.008829
# 5 -0.004459 0.004549 -0.014071 -0.009751 0.049160 0.009012
# 6 -0.002871 0.007136 -0.007586 -0.008829 0.009012 0.025627
#
#
# Mechanical properties :
#
#
# Convention : Reuss Voigt Hill
#
# Bulk Modulus (GPa) = 30.65586 50.23887 40.44737
# Shear Modulus (GPa) = 23.41706 35.51561 29.46634
#
# Velocity S-wave (km/s) = 3.17385 3.90867 3.56027
# Velocity P-wave (km/s) = 5.15929 6.47931 5.85661
#
# Compressibility (1/GPa) = 0.03262019
#
# Stress axis : x y z
#
# Youngs Moduli (GPa) = 142.34433 54.65886 42.21589
#
# Poissons Ratio (x) = 0.26404 -0.01720
# Poissons Ratio (y) = 0.68762 0.15918
# Poissons Ratio (z) = -0.05799 0.20610
#
# Static dielectric constant tensor:
#      x y z
#    x 1.902050 -0.048920 0.047680 
#    y -0.048920 1.939230 -0.019510 
#    z 0.047680 -0.019510 2.018710 
# 
# From -- ./inp_files/188857.got.cif
#   From: 2010.05.17/outbox.cif.g08.bks.cpg/sg2_95_cif.got.tgz:188857.got - 2010.06.03 11:33:40.
