data_PCOD9100326
_publ_section_title
;
Structure prediction by ZEFSAII (Michael W. Deem and Ramdas Pophale) SiO2 
 PCOD9100326
Probable space group: P -1
;
_chemical_formula_sum "Si O2"
_cell_formula_units_Z 16
_cell_length_a 8.586105
_cell_length_b 24.858116
_cell_length_c 11.441406
_cell_angle_alpha 37.299383
_cell_angle_beta 138.628896
_cell_angle_gamma 149.714016
_cell_volume 729.980867
_symmetry_space_group_name_H-M "P -1"
_symmetry_group_IT_number 2
_symmetry_cell_setting 'triclinic'
loop_
_space_group_symop_operation_xyz
x,y,z
-x,-y,-z
loop_
_atom_site_type_symbol
_atom_site_label
_atom_site_fract_x
_atom_site_fract_y
_atom_site_fract_z
Si Si1 0.503047 0.395380 0.698165
Si Si2 0.129834 0.604623 0.301839
Si Si3 0.565276 0.030791 0.177230
Si Si4 0.056845 0.969203 0.822772
Si Si5 0.152871 0.290946 0.113544
Si Si6 0.528962 0.290952 0.113546
Si Si7 0.416799 0.225378 0.541283
Si Si8 0.207342 0.774617 0.458716
O O1 0.500000 0.500000 0.500000
O O2 0.715786 0.406961 0.698386
O O3 0.136792 0.277796 0.677308
O O4 0.616754 0.384527 0.904158
O O5 0.393227 0.722206 0.322702
O O6 0.000000 0.500000 0.500000
O O7 0.885821 0.615480 0.095844
O O8 0.803513 0.159034 0.148673
O O9 0.767062 0.038213 0.171527
O O10 0.433787 0.913884 0.376862
O O11 0.262103 0.999996 0.000002
O O12 0.110622 0.086109 0.623142
O O13 0.710971 0.840958 0.851324
O O14 0.339324 0.293872 0.104642
O O15 0.327297 0.299036 0.313049
O O16 0.793995 0.299043 0.313053
O O17 0.638977 0.233157 0.556089
#
# Coordination Sequence:
#
# PCOD9100326 Si02
#       8
#     2   2   2   2   2   2   2   2
#     4  12  26  43  62  83 115 156 202 250 299 352
#     4  12  26  43  62  83 115 156 202 250 299 352
#     4   9  15  29  59  93 125 156 191 234 283 346
#     4   9  15  29  59  93 125 156 191 234 283 346
#     4  10  20  37  63  93 123 156 196 241 290 346
#     4  10  20  37  63  93 123 156 196 241 290 346
#     4  10  20  37  63  93 123 156 196 241 290 346
#     4  10  20  37  63  93 123 156 196 241 290 346
#
# _framework density 21.918382999999999
#
# number of rings (size 3 to 8) (size 9 to 14) (size 15 to 20)
#    0.000    1.750    2.500    3.000    0.000    5.000 
#    0.000    2.500    0.000    3.000    0.000    0.000 
#    0.000    0.000    0.000    0.000    0.000    0.000 
#
# Total GULP energy -89408.364559 kJ/mol
# GULP energy per Si atom -5588.022785 kJ/mol
# Density = 2.186850 g / cm^3
# Si number density = 21.918383 Si / 1000 Ang^3
#
#
#
# Elastic Constant Matrix: (Units=GPa)
#
#
# Indices 1 2 3 4 5 6 
#
# 1 39.2930 -1.2694 35.5186 5.9303 0.0731 0.9017
# 2 -1.2694 18.0033 -0.4164 -3.3162 0.2573 -0.1473
# 3 35.5186 -0.4164 167.7658 5.5510 0.4543 1.1897
# 4 5.9303 -3.3162 5.5510 36.0188 -0.3165 0.6048
# 5 0.0731 0.2573 0.4543 -0.3165 27.0378 2.1477
# 6 0.9017 -0.1473 1.1897 0.6048 2.1477 7.8313
#
#
#
# Elastic Compliance Matrix: (Units=1/GPa)
#
#
# Indices 1 2 3 4 5 6 
#
# 1 0.032187 0.001337 -0.006659 -0.004109 0.000154 -0.002394
# 2 0.001337 0.056571 -0.000312 0.005020 -0.000535 0.000717
# 3 -0.006659 -0.000312 0.007374 -0.000064 -0.000077 -0.000333
# 4 -0.004109 0.005020 -0.000064 0.028946 0.000445 -0.001780
# 5 0.000154 -0.000535 -0.000077 0.000445 0.037824 -0.010424
# 6 -0.002394 0.000717 -0.000333 -0.001780 -0.010424 0.131029
#
#
# Mechanical properties :
#
#
# Convention : Reuss Voigt Hill
#
# Bulk Modulus (GPa) = 11.78365 32.52530 22.15447
# Shear Modulus (GPa) = 14.99308 26.92619 20.95963
#
# Velocity S-wave (km/s) = 2.61826 3.50876 3.09570
# Velocity P-wave (km/s) = 3.81158 5.59345 4.78617
#
# Compressibility (1/GPa) = 0.08486337
#
# Stress axis : x y z
#
# Youngs Moduli (GPa) = 31.06873 17.67702 135.60558
#
# Poissons Ratio (x) = -0.02363 0.90294
# Poissons Ratio (y) = -0.04153 0.04235
# Poissons Ratio (z) = 0.20687 0.00552
#
# Static dielectric constant tensor:
#      x y z
#    x 1.746070 -0.003450 0.001230 
#    y -0.003450 1.847610 -0.013790 
#    z 0.001230 -0.013790 1.841880 
# 
# From -- ./inp_files/279348.got.cif
#   From: 2010.05.17/outbox.cif.g08.bks.cpg/sg2_140_cif.got.tgz:279348.got - 2010.06.03 11:33:40.
