data_PCOD9100866
_publ_section_title
;
Structure prediction by ZEFSAII (Michael W. Deem and Ramdas Pophale) SiO2 
 PCOD9100866
Probable space group: P -1
;
_chemical_formula_sum "Si O2"
_cell_formula_units_Z 14
_cell_length_a 19.121400
_cell_length_b 9.672839
_cell_length_c 11.886299
_cell_angle_alpha 140.879169
_cell_angle_beta 150.456267
_cell_angle_gamma 54.163938
_cell_volume 655.084827
_symmetry_space_group_name_H-M "P -1"
_symmetry_group_IT_number 2
_symmetry_cell_setting 'triclinic'
loop_
_space_group_symop_operation_xyz
x,y,z
-x,-y,-z
loop_
_atom_site_type_symbol
_atom_site_label
_atom_site_fract_x
_atom_site_fract_y
_atom_site_fract_z
Si Si1 0.766396 0.645025 0.309633
Si Si2 0.381703 0.973973 0.719884
Si Si3 0.128630 0.578267 0.874798
Si Si4 0.538671 0.326942 0.529528
Si Si5 0.951022 0.353585 0.952981
Si Si6 0.837261 0.889552 0.792598
Si Si7 0.519715 0.750488 0.358526
O O1 0.886390 0.588939 0.358796
O O2 0.849254 0.782197 0.619371
O O3 0.671967 0.802472 0.225933
O O4 0.635776 0.413530 0.007857
O O5 0.463000 0.909460 0.683175
O O6 0.224030 0.778771 0.389298
O O7 0.500000 0.000000 0.000000
O O8 0.292297 0.574178 0.136396
O O9 0.037615 0.519816 0.827957
O O10 0.148171 0.841974 0.033075
O O11 0.500000 0.500000 0.500000
O O12 0.450199 0.312359 0.511140
O O13 0.000000 0.500000 0.000000
O O14 0.050952 0.180537 0.008462
O O15 0.666672 0.765196 0.505785
O O16 0.500000 0.000000 0.500000
#
# Coordination Sequence:
#
# PCOD9100866 Si02
#       7
#     2   2   2   2   2   2   2
#     4  11  22  41  74 103 131 185 245 273 346 417
#     4  11  23  44  70 100 139 186 237 281 344 425
#     4  10  22  44  67  97 136 185 226 285 350 412
#     4  10  20  37  66  94 139 184 223 278 341 400
#     4  11  27  47  69 101 143 184 227 295 362 402
#     4  12  23  44  71  97 146 180 230 294 345 421
#     4  11  21  40  65 107 137 177 235 285 343 404
#
# _framework density 21.371278
#
# number of rings (size 3 to 8) (size 9 to 14) (size 15 to 20)
#    0.000    1.143    5.714    2.571    6.000    0.571 
#    0.000    0.714    0.000    0.000    0.000    0.000 
#    0.000    0.000    0.000    0.000    0.000    0.000 
#
# Total GULP energy -78096.496046 kJ/mol
# GULP energy per Si atom -5578.321146 kJ/mol
# Density = 2.132264 g / cm^3
# Si number density = 21.371278 Si / 1000 Ang^3
#
#
#
# Elastic Constant Matrix: (Units=GPa)
#
#
# Indices 1 2 3 4 5 6 
#
# 1 115.8229 44.7247 4.6866 8.9139 -14.0127 -3.1722
# 2 44.7247 151.8454 44.0378 -16.5562 -12.5532 6.1165
# 3 4.6866 44.0378 74.7692 -8.5638 -10.5029 -7.5632
# 4 8.9139 -16.5562 -8.5638 45.2186 -7.9655 -0.8631
# 5 -14.0127 -12.5532 -10.5029 -7.9655 38.5659 2.6027
# 6 -3.1722 6.1165 -7.5632 -0.8631 2.6027 33.9952
#
#
#
# Elastic Compliance Matrix: (Units=1/GPa)
#
#
# Indices 1 2 3 4 5 6 
#
# 1 0.010577 -0.003800 0.001792 -0.002676 0.002419 0.001816
# 2 -0.003800 0.009879 -0.005325 0.003530 0.001338 -0.003330
# 3 0.001792 -0.005325 0.017617 0.001788 0.003761 0.004802
# 4 -0.002676 0.003530 0.001788 0.025309 0.005911 -0.000297
# 5 0.002419 0.001338 0.003761 0.005911 0.029577 -0.001293
# 6 0.001816 -0.003330 0.004802 -0.000297 -0.001293 0.031344
#
#
# Mechanical properties :
#
#
# Convention : Reuss Voigt Hill
#
# Bulk Modulus (GPa) = 42.72078 58.81509 50.76793
# Shear Modulus (GPa) = 34.06667 40.15516 37.11092
#
# Velocity S-wave (km/s) = 3.99687 4.33937 4.17164
# Velocity P-wave (km/s) = 6.42909 7.25859 6.85640
#
# Compressibility (1/GPa) = 0.02340781
#
# Stress axis : x y z
#
# Youngs Moduli (GPa) = 94.54349 101.22606 56.76273
#
# Poissons Ratio (x) = 0.38468 -0.10173
# Poissons Ratio (y) = 0.35928 0.30225
# Poissons Ratio (z) = -0.16945 0.53901
#
# Static dielectric constant tensor:
#      x y z
#    x 1.859000 -0.027700 -0.090820 
#    y -0.027700 1.763550 0.007590 
#    z -0.090820 0.007590 1.820810 
# 
# From -- ./inp_files/392251.got.cif
#   From: 2010.05.17/outbox.cif.g08.bks.cpg/sg2_197_cif.got.tgz:392251.got - 2010.06.03 11:33:40.
