data_PCOD9100273
_publ_section_title
;
Structure prediction by ZEFSAII (Michael W. Deem and Ramdas Pophale) SiO2 
 PCOD9100273
Probable space group: P -1
;
_chemical_formula_sum "Si O2"
_cell_formula_units_Z 16
_cell_length_a 10.784873
_cell_length_b 14.180610
_cell_length_c 12.164620
_cell_angle_alpha 150.676416
_cell_angle_beta 84.185118
_cell_angle_gamma 114.721143
_cell_volume 667.083010
_symmetry_space_group_name_H-M "P -1"
_symmetry_group_IT_number 2
_symmetry_cell_setting 'triclinic'
loop_
_space_group_symop_operation_xyz
x,y,z
-x,-y,-z
loop_
_atom_site_type_symbol
_atom_site_label
_atom_site_fract_x
_atom_site_fract_y
_atom_site_fract_z
Si Si1 0.800747 0.143182 0.565643
Si Si2 0.329404 0.816974 0.760569
Si Si3 0.230069 0.017204 0.818433
Si Si4 0.155509 0.720386 0.066993
Si Si5 0.634216 0.431197 0.693278
Si Si6 0.694534 0.623732 0.108379
Si Si7 0.736792 0.774747 0.490533
Si Si8 0.831201 0.542506 0.389647
O O1 0.698864 0.018293 0.333637
O O2 0.740240 0.161011 0.707090
O O3 0.815270 0.928794 0.373430
O O4 0.976640 0.434029 0.820929
O O5 0.293231 0.993573 0.901800
O O6 0.337568 0.705771 0.534738
O O7 0.199546 0.575385 0.607729
O O8 0.500000 0.000000 0.000000
O O9 0.029954 0.776754 0.591617
O O10 0.270609 0.281123 0.068120
O O11 0.129854 0.913193 0.222581
O O12 0.233832 0.682275 0.921500
O O13 0.438772 0.292801 0.568278
O O14 0.694184 0.468288 0.852487
O O15 0.740829 0.635869 0.243089
O O16 0.500000 0.500000 0.000000
O O17 0.750767 0.662107 0.483530
#
# Coordination Sequence:
#
# PCOD9100273 Si02
#       8
#     2   2   2   2   2   2   2   2
#     4   8  16  34  58  87 120 154 191 234 293 353
#     4  12  26  42  62  85 114 159 206 247 294 348
#     4  10  23  42  61  87 120 152 198 250 295 351
#     4   9  18  35  58  88 126 154 186 238 290 350
#     4  10  22  41  63  87 118 157 200 245 293 349
#     4   8  16  34  60  90 121 154 194 239 292 352
#     4  10  20  37  63  91 121 156 194 240 296 354
#     4  11  24  39  60  91 121 156 199 241 294 355
#
# _framework density 23.985022000000001
#
# number of rings (size 3 to 8) (size 9 to 14) (size 15 to 20)
#    0.000    2.250    0.000    1.875    0.000    6.500 
#    0.000   21.250    0.000   10.500    0.000    0.000 
#    0.000    0.000    0.000    0.000    0.000    0.000 
#
# Total GULP energy -89352.098814 kJ/mol
# GULP energy per Si atom -5584.506176 kJ/mol
# Density = 2.393043 g / cm^3
# Si number density = 23.985022 Si / 1000 Ang^3
#
#
#
# Elastic Constant Matrix: (Units=GPa)
#
#
# Indices 1 2 3 4 5 6 
#
# 1 31.7581 14.4369 -5.1835 -2.1703 -1.6433 -14.8906
# 2 14.4369 91.0194 -5.4308 -7.3285 -9.0224 -10.7206
# 3 -5.1835 -5.4308 59.0183 -0.1611 -10.5233 9.3457
# 4 -2.1703 -7.3285 -0.1611 27.6135 8.5727 -1.2581
# 5 -1.6433 -9.0224 -10.5233 8.5727 22.2648 -2.6417
# 6 -14.8906 -10.7206 9.3457 -1.2581 -2.6417 39.0258
#
#
#
# Elastic Compliance Matrix: (Units=1/GPa)
#
#
# Indices 1 2 3 4 5 6 
#
# 1 0.040605 -0.004238 0.001455 0.001804 0.002962 0.014239
# 2 -0.004238 0.012593 0.001397 0.001524 0.005090 0.001902
# 3 0.001455 0.001397 0.019587 -0.002852 0.010659 -0.003122
# 4 0.001804 0.001524 -0.002852 0.041963 -0.016514 0.002025
# 5 0.002962 0.005090 0.010659 -0.016514 0.058999 0.003437
# 6 0.014239 0.001902 -0.003122 0.002025 0.003437 0.032625
#
#
# Mechanical properties :
#
#
# Convention : Reuss Voigt Hill
#
# Bulk Modulus (GPa) = 14.28288 21.04901 17.66595
# Shear Modulus (GPa) = 21.50696 29.64569 25.57632
#
# Velocity S-wave (km/s) = 2.99771 3.51951 3.26904
# Velocity P-wave (km/s) = 4.23669 5.03099 4.65083
#
# Compressibility (1/GPa) = 0.07001388
#
# Stress axis : x y z
#
# Youngs Moduli (GPa) = 24.62763 79.40670 51.05306
#
# Poissons Ratio (x) = 0.33650 -0.07426
# Poissons Ratio (y) = 0.10436 -0.07133
# Poissons Ratio (z) = -0.03582 -0.11095
#
# Static dielectric constant tensor:
#      x y z
#    x 1.939230 -0.018260 -0.024950 
#    y -0.018260 2.053250 0.025220 
#    z -0.024950 0.025220 1.962910 
# 
# From -- ./inp_files/434361.got.cif
#   From: 2010.05.17/outbox.cif.g08.bks.cpg/sg2_218_cif.got.tgz:434361.got - 2010.06.03 11:33:40.
