data_PCOD9100145
_publ_section_title
;
Structure prediction by ZEFSAII (Michael W. Deem and Ramdas Pophale) SiO2 
 PCOD9100145
Probable space group: P -1
;
_chemical_formula_sum "Si O2"
_cell_formula_units_Z 12
_cell_length_a 6.636390
_cell_length_b 14.862761
_cell_length_c 6.898818
_cell_angle_alpha 45.718398
_cell_angle_beta 99.680876
_cell_angle_gamma 111.297705
_cell_volume 450.148672
_symmetry_space_group_name_H-M "P -1"
_symmetry_group_IT_number 2
_symmetry_cell_setting 'triclinic'
loop_
_space_group_symop_operation_xyz
x,y,z
-x,-y,-z
loop_
_atom_site_type_symbol
_atom_site_label
_atom_site_fract_x
_atom_site_fract_y
_atom_site_fract_z
Si Si1 0.268730 0.915024 0.778892
Si Si2 0.154783 0.470799 0.903554
Si Si3 0.300988 0.659442 0.087483
Si Si4 0.963435 0.851969 0.139368
Si Si5 0.399711 0.400692 0.385845
Si Si6 0.663491 0.153168 0.521479
O O1 0.264319 0.922254 0.534079
O O2 0.427281 0.051887 0.692007
O O3 0.374865 0.799404 0.004438
O O4 0.032255 0.870998 0.898678
O O5 0.347345 0.573360 0.654047
O O6 0.960487 0.390917 0.849463
O O7 0.279792 0.393052 0.168603
O O8 0.000000 0.500000 0.000000
O O9 0.378418 0.533196 0.287091
O O10 0.353935 0.719640 0.785793
O O11 0.152205 0.812446 0.340315
O O12 0.739436 0.733230 0.324067
O O13 0.000000 0.000000 0.000000
#
# Coordination Sequence:
#
# PCOD9100145 Si02
#       6
#     2   2   2   2   2   2
#     4   9  21  42  66  95 126 177 215 266 335 366
#     4   9  18  35  62  94 126 169 208 264 325 381
#     4   9  18  40  67  91 125 169 214 275 319 373
#     4  12  25  40  61  99 135 172 216 268 325 396
#     4  10  20  37  62  98 125 167 224 260 325 390
#     4   9  20  44  65  94 125 177 216 267 323 384
#
# _framework density 26.657858000000001
#
# number of rings (size 3 to 8) (size 9 to 14) (size 15 to 20)
#    1.000    1.333    1.667    0.500    0.000    5.333 
#    9.000    0.833    0.000    0.000    0.000    0.000 
#    0.000    0.000    0.000    0.000    0.000    0.000 
#
# Total GULP energy -67000.632220 kJ/mol
# GULP energy per Si atom -5583.386018 kJ/mol
# Density = 2.659718 g / cm^3
# Si number density = 26.657858 Si / 1000 Ang^3
#
#
#
# Elastic Constant Matrix: (Units=GPa)
#
#
# Indices 1 2 3 4 5 6 
#
# 1 135.4631 31.1956 73.1834 -24.9978 -27.2077 1.9873
# 2 31.1956 57.4971 21.3083 -28.9973 -13.2613 -12.2310
# 3 73.1834 21.3083 130.8363 -38.8737 -32.2736 7.4613
# 4 -24.9978 -28.9973 -38.8737 54.1233 12.1716 -0.4017
# 5 -27.2077 -13.2613 -32.2736 12.1716 67.8220 2.5681
# 6 1.9873 -12.2310 7.4613 -0.4017 2.5681 43.7878
#
#
#
# Elastic Compliance Matrix: (Units=1/GPa)
#
#
# Indices 1 2 3 4 5 6 
#
# 1 0.011629 -0.004961 -0.005858 -0.001787 0.001266 -0.001006
# 2 -0.004961 0.028522 0.002411 0.014361 0.001861 0.007804
# 3 -0.005858 0.002411 0.013716 0.007678 0.003328 -0.001523
# 4 -0.001787 0.014361 0.007678 0.030862 0.000090 0.003062
# 5 0.001266 0.001861 0.003328 0.000090 0.017226 -0.001114
# 6 -0.001006 0.007804 -0.001523 0.003062 -0.001114 0.025416
#
#
# Mechanical properties :
#
#
# Convention : Reuss Voigt Hill
#
# Bulk Modulus (GPa) = 26.99013 63.90790 45.44901
# Shear Modulus (GPa) = 31.94127 46.35391 39.14759
#
# Velocity S-wave (km/s) = 3.46525 4.17447 3.83628
# Velocity P-wave (km/s) = 5.11441 6.87462 6.05878
#
# Compressibility (1/GPa) = 0.03705058
#
# Stress axis : x y z
#
# Youngs Moduli (GPa) = 85.99549 35.06013 72.90795
#
# Poissons Ratio (x) = 0.17395 0.42706
# Poissons Ratio (y) = 0.42666 -0.17576
# Poissons Ratio (z) = 0.50372 -0.08452
#
# Static dielectric constant tensor:
#      x y z
#    x 2.086220 0.051000 0.059550 
#    y 0.051000 2.263760 0.023620 
#    z 0.059550 0.023620 2.152830 
# 
# From -- ./inp_files/135991.got.cif
#   From: 2010.05.17/outbox.cif.g08.bks.cpg/sg2_68_cif.got.tgz:135991.got - 2010.06.03 11:33:40.
