data_PCOD9100048
_publ_section_title
;
Structure prediction by ZEFSAII (Michael W. Deem and Ramdas Pophale) SiO2 
 PCOD9100048
Probable space group: P -1
;
_chemical_formula_sum "Si O2"
_cell_formula_units_Z 14
_cell_length_a 8.918809
_cell_length_b 8.721994
_cell_length_c 10.992962
_cell_angle_alpha 78.865701
_cell_angle_beta 112.214756
_cell_angle_gamma 132.348490
_cell_volume 582.715167
_symmetry_space_group_name_H-M "P -1"
_symmetry_group_IT_number 2
_symmetry_cell_setting 'triclinic'
loop_
_space_group_symop_operation_xyz
x,y,z
-x,-y,-z
loop_
_atom_site_type_symbol
_atom_site_label
_atom_site_fract_x
_atom_site_fract_y
_atom_site_fract_z
Si Si1 0.927295 0.167417 0.712867
Si Si2 0.292327 0.979070 0.799565
Si Si3 0.208901 0.155729 0.957398
Si Si4 0.491862 0.181310 0.207275
Si Si5 0.848033 0.795165 0.610892
Si Si6 0.514217 0.367491 0.652211
Si Si7 0.321795 0.747220 0.494538
O O1 0.896208 0.304765 0.605262
O O2 0.147045 0.261940 0.835567
O O3 0.730651 0.035234 0.771567
O O4 0.886578 0.995150 0.637147
O O5 0.390797 0.871345 0.833847
O O6 0.075476 0.852591 0.670158
O O7 0.225367 0.009794 0.902164
O O8 0.463699 0.213469 0.764498
O O9 0.414400 0.278958 0.089459
O O10 0.000000 0.000000 0.000000
O O11 0.641094 0.297793 0.353583
O O12 0.688372 0.613012 0.688380
O O13 0.711910 0.712168 0.457678
O O14 0.616451 0.337251 0.575711
O O15 0.500000 0.000000 0.500000
#
# Coordination Sequence:
#
# PCOD9100048 Si02
#       7
#     2   2   2   2   2   2   2
#     4   9  16  34  57  81 116 152 189 236 288 338
#     4  11  20  35  60  85 114 150 204 235 284 350
#     4   9  20  33  56  88 112 154 199 234 287 348
#     4  10  17  32  58  84 115 154 191 236 289 344
#     4  10  21  34  56  90 121 150 188 245 290 338
#     4  11  20  35  59  87 121 155 189 237 297 340
#     4  10  16  31  59  86 112 154 186 237 293 337
#
# _framework density 24.025461
#
# number of rings (size 3 to 8) (size 9 to 14) (size 15 to 20)
#    0.000    2.000    5.714    0.857    0.000    1.143 
#    0.000    0.714    6.286   15.429    0.000    0.000 
#    0.000    0.000    0.000    0.000    0.000    0.000 
#
# Total GULP energy -78221.926806 kJ/mol
# GULP energy per Si atom -5587.280486 kJ/mol
# Density = 2.397078 g / cm^3
# Si number density = 24.025461 Si / 1000 Ang^3
#
#
#
# Elastic Constant Matrix: (Units=GPa)
#
#
# Indices 1 2 3 4 5 6 
#
# 1 150.7613 21.2301 63.2647 5.0165 18.0876 -4.6539
# 2 21.2301 63.7758 20.1277 1.3853 5.4814 19.1993
# 3 63.2647 20.1277 142.9284 -10.9013 36.9238 -2.6552
# 4 5.0165 1.3853 -10.9013 10.5692 -4.6487 5.1114
# 5 18.0876 5.4814 36.9238 -4.6487 62.0235 1.5737
# 6 -4.6539 19.1993 -2.6552 5.1114 1.5737 20.2948
#
#
#
# Elastic Compliance Matrix: (Units=1/GPa)
#
#
# Indices 1 2 3 4 5 6 
#
# 1 0.009969 -0.004371 -0.004361 -0.013727 -0.001192 0.009400
# 2 -0.004371 0.026004 -0.001814 0.011477 0.001649 -0.028859
# 3 -0.004361 -0.001814 0.011222 0.012259 -0.004315 -0.000569
# 4 -0.013727 0.011477 0.012259 0.138636 0.007296 -0.047884
# 5 -0.001192 0.001649 -0.004315 0.007296 0.019586 -0.005754
# 6 0.009400 -0.028859 -0.000569 -0.047884 -0.005754 0.091162
#
#
# Mechanical properties :
#
#
# Convention : Reuss Voigt Hill
#
# Bulk Modulus (GPa) = 38.31193 62.96782 50.63988
# Shear Modulus (GPa) = 15.31992 35.43371 25.37682
#
# Velocity S-wave (km/s) = 2.52792 3.84453 3.25352
# Velocity P-wave (km/s) = 4.94990 6.78033 5.93609
#
# Compressibility (1/GPa) = 0.02610153
#
# Stress axis : x y z
#
# Youngs Moduli (GPa) = 100.31441 38.45526 89.11386
#
# Poissons Ratio (x) = 0.16810 0.38866
# Poissons Ratio (y) = 0.43851 0.16164
# Poissons Ratio (z) = 0.43751 0.06975
#
# Static dielectric constant tensor:
#      x y z
#    x 1.927040 0.023030 0.023940 
#    y 0.023030 1.913520 -0.011520 
#    z 0.023940 -0.011520 2.012870 
# 
# From -- ./inp_files/378826.got.cif
#   From: 2010.05.17/outbox.cif.g08.bks.cpg/sg2_190_cif.got.tgz:378826.got - 2010.06.03 11:33:40.
