data_PCOD9100221
_publ_section_title
;
Structure prediction by ZEFSAII (Michael W. Deem and Ramdas Pophale) SiO2 
 PCOD9100221
Probable space group: P -1
;
_chemical_formula_sum "Si O2"
_cell_formula_units_Z 14
_cell_length_a 6.500096
_cell_length_b 14.792487
_cell_length_c 18.607470
_cell_angle_alpha 28.164558
_cell_angle_beta 60.655191
_cell_angle_gamma 60.554159
_cell_volume 728.377469
_symmetry_space_group_name_H-M "P -1"
_symmetry_group_IT_number 2
_symmetry_cell_setting 'triclinic'
loop_
_space_group_symop_operation_xyz
x,y,z
-x,-y,-z
loop_
_atom_site_type_symbol
_atom_site_label
_atom_site_fract_x
_atom_site_fract_y
_atom_site_fract_z
Si Si1 0.780496 0.721775 0.930964
Si Si2 0.695033 0.464497 0.825785
Si Si3 0.140956 0.401015 0.444909
Si Si4 0.217618 0.883152 0.262865
Si Si5 0.756836 0.566311 0.897287
Si Si6 0.306770 0.304464 0.634482
Si Si7 0.960126 0.038414 0.064033
O O1 0.776471 0.730623 0.838313
O O2 0.757451 0.929153 0.826336
O O3 0.564981 0.603648 0.073088
O O4 0.029153 0.601002 0.999679
O O5 0.726168 0.568382 0.672470
O O6 0.759513 0.591931 0.793138
O O7 0.877661 0.263213 0.935771
O O8 0.308280 0.391250 0.493429
O O9 0.008800 0.212023 0.604280
O O10 0.923308 0.576181 0.371398
O O11 0.446809 0.721219 0.347460
O O12 0.176861 0.951145 0.139804
O O13 0.500000 0.500000 0.000000
O O14 0.245667 0.086357 0.791511
O O15 0.000000 0.000000 0.000000
#
# Coordination Sequence:
#
# PCOD9100221 Si02
#       7
#     2   2   2   2   2   2   2
#     4  10  20  37  63  89 109 148 197 238 294 344
#     4  11  20  38  59  88 116 151 192 244 284 341
#     4  10  23  37  56  81 127 158 193 233 289 336
#     4  11  22  38  60  85 116 162 193 236 290 343
#     4   9  20  37  62  88 115 142 189 247 295 342
#     4  10  21  40  54  81 121 169 192 230 282 347
#     4  11  21  36  57  86 119 150 199 242 282 334
#
# _framework density 19.220801999999999
#
# number of rings (size 3 to 8) (size 9 to 14) (size 15 to 20)
#    0.000    1.714    4.286    0.429    0.000    1.714 
#    2.571    0.714    0.000    8.571    0.000    0.000 
#    0.000    0.000    0.000    0.000    0.000    0.000 
#
# Total GULP energy -78065.426659 kJ/mol
# GULP energy per Si atom -5576.101904 kJ/mol
# Density = 1.917705 g / cm^3
# Si number density = 19.220802 Si / 1000 Ang^3
#
#
#
# Elastic Constant Matrix: (Units=GPa)
#
#
# Indices 1 2 3 4 5 6 
#
# 1 131.2449 57.1073 40.4772 7.0061 23.8808 5.4784
# 2 57.1073 97.2734 41.3833 20.4863 22.3059 26.8528
# 3 40.4772 41.3833 80.0839 19.5767 13.1470 12.2571
# 4 7.0061 20.4863 19.5767 29.7130 8.2504 5.0286
# 5 23.8808 22.3059 13.1470 8.2504 21.0791 -5.7350
# 6 5.4784 26.8528 12.2571 5.0286 -5.7350 38.1520
#
#
#
# Elastic Compliance Matrix: (Units=1/GPa)
#
#
# Indices 1 2 3 4 5 6 
#
# 1 0.012041 -0.005275 -0.003568 0.004977 -0.007412 0.001360
# 2 -0.005275 0.026706 -0.002863 -0.005264 -0.023884 -0.020016
# 3 -0.003568 -0.002863 0.018542 -0.008433 -0.001900 -0.002604
# 4 0.004977 -0.005264 -0.008433 0.045774 -0.013362 -0.002342
# 5 -0.007412 -0.023884 -0.001900 -0.013362 0.097003 0.034828
# 6 0.001360 -0.020016 -0.002604 -0.002342 0.034828 0.046484
#
#
# Mechanical properties :
#
#
# Convention : Reuss Voigt Hill
#
# Bulk Modulus (GPa) = 29.51871 65.17087 47.34479
# Shear Modulus (GPa) = 17.77750 29.09778 23.43764
#
# Velocity S-wave (km/s) = 3.04453 3.89507 3.49576
# Velocity P-wave (km/s) = 5.26782 7.36266 6.40151
#
# Compressibility (1/GPa) = 0.03387682
#
# Stress axis : x y z
#
# Youngs Moduli (GPa) = 83.04735 37.44447 53.93259
#
# Poissons Ratio (x) = 0.19752 0.19244
# Poissons Ratio (y) = 0.43808 0.15441
# Poissons Ratio (z) = 0.29632 0.10720
#
# Static dielectric constant tensor:
#      x y z
#    x 1.714880 0.014790 -0.001250 
#    y 0.014790 1.695310 -0.009770 
#    z -0.001250 -0.009770 1.657650 
# 
# From -- ./inp_files/27904.got.cif
#   From: 2010.05.17/outbox.cif.g08.bks.cpg/sg2_14_cif.got.tgz:27904.got - 2010.06.03 11:33:40.
