data_PCOD9100821
_publ_section_title
;
Structure prediction by ZEFSAII (Michael W. Deem and Ramdas Pophale) SiO2 
 PCOD9100821
Probable space group: P -1
;
_chemical_formula_sum "Si O2"
_cell_formula_units_Z 14
_cell_length_a 14.925123
_cell_length_b 10.337491
_cell_length_c 11.785033
_cell_angle_alpha 115.200824
_cell_angle_beta 141.180286
_cell_angle_gamma 37.636543
_cell_volume 603.004762
_symmetry_space_group_name_H-M "P -1"
_symmetry_group_IT_number 2
_symmetry_cell_setting 'triclinic'
loop_
_space_group_symop_operation_xyz
x,y,z
-x,-y,-z
loop_
_atom_site_type_symbol
_atom_site_label
_atom_site_fract_x
_atom_site_fract_y
_atom_site_fract_z
Si Si1 0.479736 0.649756 0.767259
Si Si2 0.720717 0.503911 0.447449
Si Si3 0.078802 0.584129 0.976280
Si Si4 0.809007 0.878928 0.490128
Si Si5 0.368878 0.206718 0.331722
Si Si6 0.210358 0.240052 0.794177
Si Si7 0.370714 0.454943 0.879521
O O1 0.363266 0.587776 0.638563
O O2 0.325661 0.882842 0.622951
O O3 0.754802 0.417647 0.898582
O O4 0.501277 0.696456 0.933868
O O5 0.636211 0.684299 0.525547
O O6 0.626952 0.618323 0.270416
O O7 0.017162 0.272979 0.650496
O O8 0.121137 0.440290 0.860269
O O9 0.792654 0.803686 0.805267
O O10 0.217913 0.407548 0.157232
O O11 0.817483 0.738306 0.360299
O O12 0.084284 0.701803 0.719785
O O13 0.640761 0.972659 0.464342
O O14 0.500000 0.000000 0.000000
O O15 0.500000 0.500000 0.000000
#
# Coordination Sequence:
#
# PCOD9100821 Si02
#       7
#     2   2   2   2   2   2   2
#     4  10  19  36  57  81 106 140 183 221 261 316
#     4   9  20  32  53  78 112 140 173 223 272 308
#     4   9  18  31  55  79 107 143 177 219 268 310
#     4  10  20  34  61  79 104 146 181 213 271 318
#     4   9  17  33  53  78 110 143 174 216 271 321
#     4  10  16  32  50  80 106 135 180 218 257 315
#     4   9  20  37  53  79 111 138 176 228 264 308
#
# _framework density 23.217063
#
# number of rings (size 3 to 8) (size 9 to 14) (size 15 to 20)
#    0.000    2.571    2.857    0.000    0.000    7.429 
#    0.000   10.000    0.000   12.000    0.000    0.000 
#    0.000    0.000    0.000    0.000    0.000    0.000 
#
# Total GULP energy -78085.261815 kJ/mol
# GULP energy per Si atom -5577.518701 kJ/mol
# Density = 2.316422 g / cm^3
# Si number density = 23.217063 Si / 1000 Ang^3
#
#
#
# Elastic Constant Matrix: (Units=GPa)
#
#
# Indices 1 2 3 4 5 6 
#
# 1 161.6957 45.8103 82.4666 -6.2943 28.6132 -13.3109
# 2 45.8103 54.8754 60.8087 -11.1172 7.1270 -28.9648
# 3 82.4666 60.8087 153.6406 -7.1426 35.1651 -8.5305
# 4 -6.2943 -11.1172 -7.1426 24.5749 -1.2496 2.5047
# 5 28.6132 7.1270 35.1651 -1.2496 53.5113 -8.6253
# 6 -13.3109 -28.9648 -8.5305 2.5047 -8.6253 47.6379
#
#
#
# Elastic Compliance Matrix: (Units=1/GPa)
#
#
# Indices 1 2 3 4 5 6 
#
# 1 0.009406 -0.007382 -0.001535 -0.001279 -0.003503 -0.002702
# 2 -0.007382 0.085996 -0.031168 0.024218 0.021149 0.047200
# 3 -0.001535 -0.031168 0.021081 -0.007198 -0.011850 -0.017372
# 4 -0.001279 0.024218 -0.007198 0.048321 0.005166 0.011474
# 5 -0.003503 0.021149 -0.011850 0.005166 0.027998 0.014556
# 6 -0.002702 0.047200 -0.017372 0.011474 0.014556 0.047856
#
#
# Mechanical properties :
#
#
# Convention : Reuss Voigt Hill
#
# Bulk Modulus (GPa) = 27.53716 83.15366 55.34541
# Shear Modulus (GPa) = 15.01797 37.21990 26.11893
#
# Velocity S-wave (km/s) = 2.54608 4.00825 3.35772
# Velocity P-wave (km/s) = 4.53099 7.57066 6.23878
#
# Compressibility (1/GPa) = 0.03631456
#
# Stress axis : x y z
#
# Youngs Moduli (GPa) = 106.31108 11.62841 47.43525
#
# Poissons Ratio (x) = 0.08584 0.07280
# Poissons Ratio (y) = 0.78480 1.47845
# Poissons Ratio (z) = 0.16317 0.36243
#
# Static dielectric constant tensor:
#      x y z
#    x 1.927470 0.027550 -0.021040 
#    y 0.027550 1.879590 -0.024170 
#    z -0.021040 -0.024170 1.916350 
# 
# From -- ./inp_files/451561.got.cif
#   From: 2010.05.17/outbox.cif.g08.bks.cpg/sg2_226_cif.got.tgz:451561.got - 2010.06.03 11:33:40.
