data_PCOD9100679
_publ_section_title
;
Structure prediction by ZEFSAII (Michael W. Deem and Ramdas Pophale) SiO2 
 PCOD9100679
Probable space group: P -1
;
_chemical_formula_sum "Si O2"
_cell_formula_units_Z 16
_cell_length_a 12.260120
_cell_length_b 18.473295
_cell_length_c 9.263915
_cell_angle_alpha 121.124845
_cell_angle_beta 130.771169
_cell_angle_gamma 29.630503
_cell_volume 778.347058
_symmetry_space_group_name_H-M "P -1"
_symmetry_group_IT_number 2
_symmetry_cell_setting 'triclinic'
loop_
_space_group_symop_operation_xyz
x,y,z
-x,-y,-z
loop_
_atom_site_type_symbol
_atom_site_label
_atom_site_fract_x
_atom_site_fract_y
_atom_site_fract_z
Si Si1 0.693185 0.181586 0.277162
Si Si2 0.681655 0.882814 0.205512
Si Si3 0.847411 0.911739 0.110954
Si Si4 0.094806 0.012834 0.225002
Si Si5 0.052231 0.558983 0.513712
Si Si6 0.364844 0.740086 0.355863
Si Si7 0.201873 0.146843 0.406095
Si Si8 0.196963 0.361102 0.926296
O O1 0.649510 0.232057 0.455326
O O2 0.903219 0.125395 0.305664
O O3 0.784781 0.040443 0.211066
O O4 0.443383 0.299914 0.086116
O O5 0.789427 0.895290 0.195727
O O6 0.829256 0.826427 0.421192
O O7 0.737137 0.761516 0.075653
O O8 0.375393 0.027300 0.111219
O O9 0.139531 0.778994 0.177573
O O10 0.132268 0.083866 0.250639
O O11 0.304884 0.853955 0.325958
O O12 0.000000 0.000000 0.000000
O O13 0.351940 0.424641 0.607229
O O14 0.000000 0.500000 0.500000
O O15 0.932888 0.704702 0.620894
O O16 0.910269 0.605544 0.289182
O O17 0.500000 0.000000 0.500000
O O18 0.000000 0.500000 0.000000
#
# Coordination Sequence:
#
# PCOD9100679 Si02
#       8
#     2   2   2   2   2   2   2   2
#     4  10  20  37  65  90 124 164 215 255 319 382
#     4   9  19  36  61  90 122 156 213 261 309 379
#     4   9  18  34  60  91 121 154 206 261 311 371
#     4  11  25  41  68  95 128 173 215 269 319 383
#     4  11  25  43  63  93 131 172 214 270 330 385
#     4  11  21  39  66  91 129 165 212 267 327 378
#     4  11  24  42  65  88 126 174 217 257 322 396
#     4  10  20  39  60  91 121 167 211 258 318 381
#
# _framework density 20.556383
#
# number of rings (size 3 to 8) (size 9 to 14) (size 15 to 20)
#    0.000    1.750    1.250    3.750    8.750    0.000 
#    4.500    2.500    0.000    0.000    0.000    0.000 
#    0.000    0.000    0.000    0.000    0.000    0.000 
#
# Total GULP energy -89085.915421 kJ/mol
# GULP energy per Si atom -5567.869714 kJ/mol
# Density = 2.050960 g / cm^3
# Si number density = 20.556383 Si / 1000 Ang^3
#
#
#
# Elastic Constant Matrix: (Units=GPa)
#
#
# Indices 1 2 3 4 5 6 
#
# 1 120.6197 49.5690 20.2330 -7.2144 15.3468 13.1056
# 2 49.5690 119.9319 29.7079 -13.1938 16.9308 -8.6315
# 3 20.2330 29.7079 78.9984 -1.8204 11.7531 10.0041
# 4 -7.2144 -13.1938 -1.8204 31.1916 -1.2531 3.9670
# 5 15.3468 16.9308 11.7531 -1.2531 33.8732 -0.9740
# 6 13.1056 -8.6315 10.0041 3.9670 -0.9740 23.5124
#
#
#
# Elastic Compliance Matrix: (Units=1/GPa)
#
#
# Indices 1 2 3 4 5 6 
#
# 1 0.011742 -0.004999 0.000529 0.001650 -0.003203 -0.009016
# 2 -0.004999 0.012691 -0.004187 0.002774 -0.002274 0.008665
# 3 0.000529 -0.004187 0.015786 0.000230 -0.003867 -0.008748
# 4 0.001650 0.002774 0.000230 0.034326 -0.001112 -0.005836
# 5 -0.003203 -0.002274 -0.003867 -0.001112 0.033530 0.004172
# 6 -0.009016 0.008665 -0.008748 -0.005836 0.004172 0.055617
#
#
# Mechanical properties :
#
#
# Convention : Reuss Voigt Hill
#
# Bulk Modulus (GPa) = 43.66020 57.61885 50.63952
# Shear Modulus (GPa) = 26.50509 32.38477 29.44493
#
# Velocity S-wave (km/s) = 3.59470 3.97345 3.78881
# Velocity P-wave (km/s) = 6.20600 7.01011 6.62028
#
# Compressibility (1/GPa) = 0.02290416
#
# Stress axis : x y z
#
# Youngs Moduli (GPa) = 85.16317 78.79337 63.34701
#
# Poissons Ratio (x) = 0.39392 -0.03351
# Poissons Ratio (y) = 0.42577 0.26526
# Poissons Ratio (z) = -0.04505 0.32994
#
# Static dielectric constant tensor:
#      x y z
#    x 1.969580 -0.082150 0.122320 
#    y -0.082150 1.756590 -0.064030 
#    z 0.122320 -0.064030 1.861080 
# 
# From -- ./inp_files/279727.got.cif
#   From: 2010.05.17/outbox.cif.g08.bks.cpg/sg2_140_cif.got.tgz:279727.got - 2010.06.03 11:33:40.
