data_PCOD9100299
_publ_section_title
;
Structure prediction by ZEFSAII (Michael W. Deem and Ramdas Pophale) SiO2 
 PCOD9100299
Probable space group: P -1
;
_chemical_formula_sum "Si O2"
_cell_formula_units_Z 14
_cell_length_a 10.522585
_cell_length_b 17.121606
_cell_length_c 14.038546
_cell_angle_alpha 155.470311
_cell_angle_beta 46.333717
_cell_angle_gamma 145.958512
_cell_volume 565.523484
_symmetry_space_group_name_H-M "P -1"
_symmetry_group_IT_number 2
_symmetry_cell_setting 'triclinic'
loop_
_space_group_symop_operation_xyz
x,y,z
-x,-y,-z
loop_
_atom_site_type_symbol
_atom_site_label
_atom_site_fract_x
_atom_site_fract_y
_atom_site_fract_z
Si Si1 0.743920 0.276941 0.710815
Si Si2 0.450668 0.395115 0.015958
Si Si3 0.738300 0.397359 0.532726
Si Si4 0.998904 0.893503 0.616192
Si Si5 0.118078 0.778852 0.979837
Si Si6 0.464968 0.084448 0.961543
Si Si7 0.786063 0.749602 0.764317
O O1 0.913924 0.236825 0.622408
O O2 0.893079 0.478303 0.769232
O O3 0.500000 0.000000 0.500000
O O4 0.660603 0.406776 0.953204
O O5 0.358515 0.509011 0.245715
O O6 0.500000 0.500000 0.000000
O O7 0.220554 0.103596 0.802031
O O8 0.717587 0.496632 0.555536
O O9 0.000000 0.500000 0.500000
O O10 0.575258 0.101923 0.303355
O O11 0.813633 0.735704 0.621375
O O12 0.942697 0.049709 0.765232
O O13 0.245510 0.902608 0.949233
O O14 0.305147 0.809626 0.983873
O O15 0.429952 0.260226 0.128398
O O16 0.000000 0.000000 0.000000
#
# Coordination Sequence:
#
# PCOD9100299 Si02
#       7
#     2   2   2   2   2   2   2
#     4  10  22  36  61  91 121 165 213 268 318 374
#     4  11  22  37  60  95 125 161 217 270 316 383
#     4  12  23  39  63  93 131 167 214 271 330 381
#     4  10  20  37  63  92 121 167 210 270 324 374
#     4  10  20  42  62  94 135 162 223 263 321 400
#     4  10  23  38  65  94 129 178 203 273 332 380
#     4  11  20  36  60  95 127 157 219 270 321 383
#
# _framework density 24.755825999999999
#
# number of rings (size 3 to 8) (size 9 to 14) (size 15 to 20)
#    0.000    1.429    4.286    1.714    2.000    1.143 
#    2.571    5.000    0.000    1.714    0.000    0.000 
#    0.000    0.000    0.000    0.000    0.000    0.000 
#
# Total GULP energy -77966.288517 kJ/mol
# GULP energy per Si atom -5569.020608 kJ/mol
# Density = 2.469948 g / cm^3
# Si number density = 24.755826 Si / 1000 Ang^3
#
#
#
# Elastic Constant Matrix: (Units=GPa)
#
#
# Indices 1 2 3 4 5 6 
#
# 1 102.4864 20.8786 39.9253 -20.1926 -48.1594 34.6307
# 2 20.8786 94.2822 42.1413 -14.8465 -14.2282 12.8275
# 3 39.9253 42.1413 100.3611 -36.4298 -49.3786 26.9329
# 4 -20.1926 -14.8465 -36.4298 44.1031 9.1816 -20.6777
# 5 -48.1594 -14.2282 -49.3786 9.1816 52.4160 -13.1349
# 6 34.6307 12.8275 26.9329 -20.6777 -13.1349 32.4542
#
#
#
# Elastic Compliance Matrix: (Units=1/GPa)
#
#
# Indices 1 2 3 4 5 6 
#
# 1 0.030551 -0.004034 0.015451 0.006017 0.033892 -0.026278
# 2 -0.004034 0.013941 -0.009693 -0.002573 -0.008124 0.001911
# 3 0.015451 -0.009693 0.040449 0.021070 0.042022 -0.015792
# 4 0.006017 -0.002573 0.021070 0.044007 0.020322 0.013374
# 5 0.033892 -0.008124 0.042022 0.020322 0.078221 -0.023222
# 6 -0.026278 0.001911 -0.015792 0.013374 -0.023222 0.070325
#
#
# Mechanical properties :
#
#
# Convention : Reuss Voigt Hill
#
# Bulk Modulus (GPa) = 11.31366 55.89111 33.60239
# Shear Modulus (GPa) = 16.47402 38.74030 27.60716
#
# Velocity S-wave (km/s) = 2.58245 3.96017 3.34305
# Velocity P-wave (km/s) = 3.67043 6.59822 5.33894
#
# Compressibility (1/GPa) = 0.08838871
#
# Stress axis : x y z
#
# Youngs Moduli (GPa) = 32.73225 71.73052 24.72268
#
# Poissons Ratio (x) = 0.28939 -0.38200
# Poissons Ratio (y) = 0.13206 0.23964
# Poissons Ratio (z) = -0.50576 0.69528
#
# Static dielectric constant tensor:
#      x y z
#    x 1.948860 0.059330 0.017670 
#    y 0.059330 1.643920 0.011250 
#    z 0.017670 0.011250 2.087510 
# 
# From -- ./inp_files/570785.got.cif
#   From: 2010.05.17/outbox.cif.g08.bks.cpg/sg2_286_cif.got.tgz:570785.got - 2010.06.03 11:33:40.
