data_PCOD9100388
_publ_section_title
;
Structure prediction by ZEFSAII (Michael W. Deem and Ramdas Pophale) SiO2 
 PCOD9100388
Probable space group: P -1
;
_chemical_formula_sum "Si O2"
_cell_formula_units_Z 15
_cell_length_a 9.939128
_cell_length_b 4.945757
_cell_length_c 14.893350
_cell_angle_alpha 112.614827
_cell_angle_beta 67.654713
_cell_angle_gamma 114.712571
_cell_volume 592.530449
_symmetry_space_group_name_H-M "P -1"
_symmetry_group_IT_number 2
_symmetry_cell_setting 'triclinic'
loop_
_space_group_symop_operation_xyz
x,y,z
-x,-y,-z
loop_
_atom_site_type_symbol
_atom_site_label
_atom_site_fract_x
_atom_site_fract_y
_atom_site_fract_z
Si Si1 0.129223 0.793379 0.045980
Si Si2 0.680548 0.562971 0.954205
Si Si3 0.854794 0.438203 0.391541
Si Si4 0.910239 0.853295 0.263097
Si Si5 0.500000 0.500000 0.500000
Si Si6 0.294443 0.567246 0.276263
Si Si7 0.774815 0.867294 0.594513
Si Si8 0.406671 0.113739 0.662247
O O1 0.265405 0.680289 0.034417
O O2 0.039681 0.887890 0.162895
O O3 0.209988 0.092505 0.003505
O O4 0.000000 0.500000 0.000000
O O5 0.715150 0.524721 0.835822
O O6 0.500000 0.500000 0.000000
O O7 0.874857 0.684339 0.495699
O O8 0.899872 0.586351 0.301986
O O9 0.924372 0.164618 0.355034
O O10 0.666185 0.249210 0.399873
O O11 0.183326 0.768670 0.353742
O O12 0.744115 0.807799 0.255565
O O13 0.638621 0.791732 0.546531
O O14 0.467928 0.323988 0.587637
O O15 0.268073 0.288424 0.317183
O O16 0.466385 0.797165 0.282137
#
# Coordination Sequence:
#
# PCOD9100388 Si02
#       8
#     2   2   2   2   1   2   2   2
#     4  12  28  53  85 109 144 195 253 314 378 464
#     4  12  29  54  78 114 150 190 243 320 392 460
#     4  10  19  36  59 101 144 186 245 300 339 413
#     4  10  22  39  65 101 138 181 246 305 354 415
#     4  10  16  32  48 100 142 188 242 300 342 392
#     4  11  24  36  65  95 148 187 231 296 376 427
#     4  11  19  34  56  97 143 192 239 284 357 416
#     4   9  21  32  61  99 145 191 242 307 349 424
#
# _framework density 25.315152999999999
#
# number of rings (size 3 to 8) (size 9 to 14) (size 15 to 20)
#    0.800    0.533    1.333    4.800    3.733    3.200 
#    0.000    0.000    0.000   16.000    0.000    0.000 
#    0.000    0.000    0.000    0.000    0.000    0.000 
#
# Total GULP energy -83835.383353 kJ/mol
# GULP energy per Si atom -5589.025557 kJ/mol
# Density = 2.525753 g / cm^3
# Si number density = 25.315153 Si / 1000 Ang^3
#
#
#
# Elastic Constant Matrix: (Units=GPa)
#
#
# Indices 1 2 3 4 5 6 
#
# 1 102.2675 -3.0289 9.0467 17.5782 -16.1860 14.8687
# 2 -3.0289 95.3885 8.6473 2.5582 -4.7473 5.2395
# 3 9.0467 8.6473 56.1359 8.4701 -8.0826 4.4729
# 4 17.5782 2.5582 8.4701 31.6256 7.4458 6.1797
# 5 -16.1860 -4.7473 -8.0826 7.4458 44.4715 -2.7262
# 6 14.8687 5.2395 4.4729 6.1797 -2.7262 39.4971
#
#
#
# Elastic Compliance Matrix: (Units=1/GPa)
#
#
# Indices 1 2 3 4 5 6 
#
# 1 0.012534 0.001067 0.000088 -0.007807 0.005800 -0.003248
# 2 0.001067 0.010818 -0.001348 -0.001163 0.001407 -0.001405
# 3 0.000088 -0.001348 0.019627 -0.006077 0.004422 -0.000821
# 4 -0.007807 -0.001163 -0.006077 0.040967 -0.011138 -0.003397
# 5 0.005800 0.001407 0.004422 -0.011138 0.027463 0.000767
# 6 -0.003248 -0.001405 -0.000821 -0.003397 0.000767 0.027405
#
#
# Mechanical properties :
#
#
# Convention : Reuss Voigt Hill
#
# Bulk Modulus (GPa) = 23.47945 31.45799 27.46872
# Shear Modulus (GPa) = 32.59480 39.06062 35.82771
#
# Velocity S-wave (km/s) = 3.59215 3.93233 3.76609
# Velocity P-wave (km/s) = 5.14779 5.75075 5.45761
#
# Compressibility (1/GPa) = 0.04259044
#
# Stress axis : x y z
#
# Youngs Moduli (GPa) = 79.78116 92.43934 50.95150
#
# Poissons Ratio (x) = -0.09859 -0.00447
# Poissons Ratio (y) = -0.08509 0.06870
# Poissons Ratio (z) = -0.00699 0.12463
#
# Static dielectric constant tensor:
#      x y z
#    x 1.929600 0.182290 0.025310 
#    y 0.182290 2.002770 0.048760 
#    z 0.025310 0.048760 1.877160 
# 
# From -- ./inp_files/488556.got.cif
#   From: 2010.05.17/outbox.cif.g08.bks.cpg/sg2_245_cif.got.tgz:488556.got - 2010.06.03 11:33:40.
