data_PCOD9100617
_publ_section_title
;
Structure prediction by ZEFSAII (Michael W. Deem and Ramdas Pophale) SiO2 
 PCOD9100617
Probable space group: P -1
;
_chemical_formula_sum "Si O2"
_cell_formula_units_Z 16
_cell_length_a 15.109258
_cell_length_b 11.064245
_cell_length_c 9.702460
_cell_angle_alpha 126.958760
_cell_angle_beta 103.786646
_cell_angle_gamma 40.483696
_cell_volume 762.809661
_symmetry_space_group_name_H-M "P -1"
_symmetry_group_IT_number 2
_symmetry_cell_setting 'triclinic'
loop_
_space_group_symop_operation_xyz
x,y,z
-x,-y,-z
loop_
_atom_site_type_symbol
_atom_site_label
_atom_site_fract_x
_atom_site_fract_y
_atom_site_fract_z
Si Si1 0.922628 0.587457 0.880784
Si Si2 0.649237 0.812529 0.516476
Si Si3 0.355018 0.246556 0.198682
Si Si4 0.884615 0.743099 0.527617
Si Si5 0.813517 0.331004 0.081404
Si Si6 0.786999 0.248585 0.483525
Si Si7 0.124990 0.916755 0.308623
Si Si8 0.163167 0.963228 0.919234
O O1 0.789949 0.640440 0.849957
O O2 0.054978 0.361060 0.674338
O O3 0.855153 0.832336 0.959212
O O4 0.000000 0.500000 0.000000
O O5 0.634603 0.805864 0.670153
O O6 0.724963 0.876207 0.574622
O O7 0.753526 0.549041 0.299210
O O8 0.500000 0.000000 0.500000
O O9 0.324795 0.465355 0.339330
O O10 0.500000 0.000000 0.000000
O O11 0.000000 0.500000 0.500000
O O12 0.887405 0.917296 0.674879
O O13 0.762631 0.246242 0.084918
O O14 0.781550 0.335012 0.911450
O O15 0.991165 0.131476 0.990797
O O16 0.798439 0.147544 0.562376
O O17 0.758537 0.184771 0.297083
O O18 0.954480 0.093356 0.403747
#
# Coordination Sequence:
#
# PCOD9100617 Si02
#       8
#     2   2   2   2   2   2   2   2
#     4  12  25  40  70 103 133 170 227 275 323 389
#     4  12  27  46  68  97 137 178 219 274 336 403
#     4  12  28  47  66  95 141 182 214 268 343 403
#     4  12  22  43  69 101 134 168 229 283 323 381
#     4  10  21  37  65  96 128 168 217 274 333 379
#     4  10  20  40  62  95 137 170 216 266 334 391
#     4  10  21  35  67  99 127 166 221 282 323 380
#     4  10  20  37  64  99 128 164 220 278 321 381
#
# _framework density 20.975086999999998
#
# number of rings (size 3 to 8) (size 9 to 14) (size 15 to 20)
#    0.000    1.000    5.000    1.500    8.750    0.000 
#    0.000    2.500    0.000    0.000    0.000    0.000 
#    0.000    0.000    0.000    0.000    0.000    0.000 
#
# Total GULP energy -89194.880743 kJ/mol
# GULP energy per Si atom -5574.680046 kJ/mol
# Density = 2.092735 g / cm^3
# Si number density = 20.975087 Si / 1000 Ang^3
#
#
#
# Elastic Constant Matrix: (Units=GPa)
#
#
# Indices 1 2 3 4 5 6 
#
# 1 40.7854 5.3314 -4.0582 1.2776 3.8547 8.1425
# 2 5.3314 50.4009 15.7992 -13.6517 -11.8132 -7.3516
# 3 -4.0582 15.7992 149.3475 -0.5972 -14.2557 6.9299
# 4 1.2776 -13.6517 -0.5972 33.0678 5.7803 9.5024
# 5 3.8547 -11.8132 -14.2557 5.7803 29.6128 4.7468
# 6 8.1425 -7.3516 6.9299 9.5024 4.7468 22.0295
#
#
#
# Elastic Compliance Matrix: (Units=1/GPa)
#
#
# Indices 1 2 3 4 5 6 
#
# 1 0.028256 -0.005943 0.001657 0.000670 -0.003377 -0.012510
# 2 -0.005943 0.026056 -0.002497 0.007708 0.007377 0.006763
# 3 0.001657 -0.002497 0.007508 -0.000252 0.003154 -0.004378
# 4 0.000670 0.007708 -0.000252 0.037631 -0.002343 -0.013323
# 5 -0.003377 0.007377 0.003154 -0.002343 0.039908 -0.004871
# 6 -0.012510 0.006763 -0.004378 -0.013323 -0.004871 0.060448
#
#
# Mechanical properties :
#
#
# Convention : Reuss Voigt Hill
#
# Bulk Modulus (GPa) = 20.72329 30.51984 25.62156
# Shear Modulus (GPa) = 21.79057 31.83945 26.81501
#
# Velocity S-wave (km/s) = 3.22666 3.90033 3.57938
# Velocity P-wave (km/s) = 4.87680 5.90471 5.41520
#
# Compressibility (1/GPa) = 0.04825490
#
# Stress axis : x y z
#
# Youngs Moduli (GPa) = 35.39063 38.37937 133.18873
#
# Poissons Ratio (x) = 0.22810 -0.22074
# Poissons Ratio (y) = 0.21033 0.33253
# Poissons Ratio (z) = -0.05866 0.09582
#
# Static dielectric constant tensor:
#      x y z
#    x 1.786000 0.039040 0.057100 
#    y 0.039040 1.799940 -0.015550 
#    z 0.057100 -0.015550 1.813420 
# 
# From -- ./inp_files/308558.got.cif
#   From: 2010.05.17/outbox.cif.g08.bks.cpg/sg2_155_cif.got.tgz:308558.got - 2010.06.03 11:33:40.
