data_PCOD9100398
_publ_section_title
;
Structure prediction by ZEFSAII (Michael W. Deem and Ramdas Pophale) SiO2 
 PCOD9100398
Probable space group: P -1
;
_chemical_formula_sum "Si O2"
_cell_formula_units_Z 14
_cell_length_a 16.038280
_cell_length_b 8.993612
_cell_length_c 16.633165
_cell_angle_alpha 41.727428
_cell_angle_beta 145.880399
_cell_angle_gamma 151.783670
_cell_volume 634.998500
_symmetry_space_group_name_H-M "P -1"
_symmetry_group_IT_number 2
_symmetry_cell_setting 'triclinic'
loop_
_space_group_symop_operation_xyz
x,y,z
-x,-y,-z
loop_
_atom_site_type_symbol
_atom_site_label
_atom_site_fract_x
_atom_site_fract_y
_atom_site_fract_z
Si Si1 0.480985 0.985791 0.138355
Si Si2 0.764824 0.329759 0.364963
Si Si3 0.463172 0.808175 0.469001
Si Si4 0.054544 0.914382 0.922663
Si Si5 0.504061 0.498619 0.111882
Si Si6 0.636122 0.599449 0.782992
Si Si7 0.142748 0.532776 0.192244
O O1 0.703333 0.215187 0.269316
O O2 0.439281 0.735660 0.147973
O O3 0.326388 0.778957 0.174354
O O4 0.443538 0.185798 0.987362
O O5 0.682508 0.499102 0.242604
O O6 0.000000 0.500000 0.500000
O O7 0.628776 0.052530 0.434310
O O8 0.504641 0.601275 0.613383
O O9 0.241053 0.591712 0.333308
O O10 0.500000 0.000000 0.500000
O O11 0.880035 0.882424 0.838258
O O12 0.986510 0.796074 0.823875
O O13 0.023575 0.641295 0.052280
O O14 0.295804 0.234745 0.997812
O O15 0.413821 0.367799 0.181947
#
# Coordination Sequence:
#
# PCOD9100398 Si02
#       7
#     2   2   2   2   2   2   2
#     4  10  23  42  63  95 135 174 219 271 332 400
#     4  11  25  43  68  96 131 182 225 267 335 398
#     4  11  21  43  69  95 137 173 221 279 329 394
#     4  10  20  37  64 100 126 168 221 270 327 389
#     4  12  22  43  67  96 138 173 221 278 329 394
#     4  11  24  40  67 101 133 171 219 278 337 391
#     4   9  20  39  63  97 130 167 219 274 330 379
#
# _framework density 22.047294999999998
#
# number of rings (size 3 to 8) (size 9 to 14) (size 15 to 20)
#    0.000    1.429    4.286    1.286    2.000    5.143 
#    0.000    0.714    0.000    0.000    0.000    0.000 
#    0.000    0.000    0.000    0.000    0.000    0.000 
#
# Total GULP energy -78159.566961 kJ/mol
# GULP energy per Si atom -5582.826211 kJ/mol
# Density = 2.199711 g / cm^3
# Si number density = 22.047295 Si / 1000 Ang^3
#
#
#
# Elastic Constant Matrix: (Units=GPa)
#
#
# Indices 1 2 3 4 5 6 
#
# 1 60.6097 15.7146 40.8866 9.7183 1.9656 -9.0512
# 2 15.7146 93.9854 48.1697 -2.3621 9.8907 -4.8145
# 3 40.8866 48.1697 151.9502 20.9834 2.5352 -1.4207
# 4 9.7183 -2.3621 20.9834 40.6355 6.6170 -0.1286
# 5 1.9656 9.8907 2.5352 6.6170 35.4505 -1.0796
# 6 -9.0512 -4.8145 -1.4207 -0.1286 -1.0796 18.8354
#
#
#
# Elastic Compliance Matrix: (Units=1/GPa)
#
#
# Indices 1 2 3 4 5 6 
#
# 1 0.022158 -0.000516 -0.005354 -0.002546 0.000081 0.010100
# 2 -0.000516 0.013816 -0.004704 0.004042 -0.004161 0.002718
# 3 -0.005354 -0.004704 0.010076 -0.004471 0.001633 -0.002952
# 4 -0.002546 0.004042 -0.004471 0.028745 -0.006053 -0.000678
# 5 0.000081 -0.004161 0.001633 -0.006053 0.030402 0.000800
# 6 0.010100 0.002718 -0.002952 -0.000678 0.000800 0.058458
#
#
# Mechanical properties :
#
#
# Convention : Reuss Voigt Hill
#
# Bulk Modulus (GPa) = 40.15856 57.34301 48.75079
# Shear Modulus (GPa) = 25.89266 32.43590 29.16428
#
# Velocity S-wave (km/s) = 3.43069 3.83978 3.64098
# Velocity P-wave (km/s) = 5.82642 6.76196 6.31155
#
# Compressibility (1/GPa) = 0.02490129
#
# Stress axis : x y z
#
# Youngs Moduli (GPa) = 45.12953 72.37974 99.24875
#
# Poissons Ratio (x) = 0.03735 0.53139
# Poissons Ratio (y) = 0.02329 0.46690
# Poissons Ratio (z) = 0.24163 0.34050
#
# Static dielectric constant tensor:
#      x y z
#    x 1.843710 -0.011540 0.023630 
#    y -0.011540 1.908910 0.012490 
#    z 0.023630 0.012490 1.817060 
# 
# From -- ./inp_files/575505.got.cif
#   From: 2010.05.17/outbox.cif.g08.bks.cpg/sg2_288_cif.got.tgz:575505.got - 2010.06.03 11:33:40.
