data_PCOD9100990
_publ_section_title
;
Structure prediction by ZEFSAII (Michael W. Deem and Ramdas Pophale) SiO2 
 PCOD9100990
Probable space group: P -1
;
_chemical_formula_sum "Si O2"
_cell_formula_units_Z 16
_cell_length_a 8.221918
_cell_length_b 14.487982
_cell_length_c 6.059671
_cell_angle_alpha 94.652808
_cell_angle_beta 110.094285
_cell_angle_gamma 81.821854
_cell_volume 670.586089
_symmetry_space_group_name_H-M "P -1"
_symmetry_group_IT_number 2
_symmetry_cell_setting 'triclinic'
loop_
_space_group_symop_operation_xyz
x,y,z
-x,-y,-z
loop_
_atom_site_type_symbol
_atom_site_label
_atom_site_fract_x
_atom_site_fract_y
_atom_site_fract_z
Si Si1 0.588017 0.973813 0.785922
Si Si2 0.554667 0.777953 0.902435
Si Si3 0.263171 0.338855 0.678230
Si Si4 0.266223 0.730128 0.477819
Si Si5 0.588428 0.435063 0.717074
Si Si6 0.128327 0.518439 0.866301
Si Si7 0.235600 0.859034 0.094888
Si Si8 0.995967 0.268077 0.271016
O O1 0.611532 0.862824 0.803295
O O2 0.500000 0.000000 0.500000
O O3 0.756358 0.030533 0.878809
O O4 0.500000 0.000000 0.000000
O O5 0.444929 0.712084 0.695770
O O6 0.712280 0.723398 0.102208
O O7 0.399948 0.819410 0.008778
O O8 0.451470 0.369034 0.723806
O O9 0.136567 0.435260 0.676227
O O10 0.191456 0.281803 0.433116
O O11 0.254020 0.635801 0.322871
O O12 0.281387 0.817359 0.347269
O O13 0.098393 0.754587 0.551662
O O14 0.500000 0.500000 0.500000
O O15 0.674458 0.492962 0.951207
O O16 0.089331 0.626612 0.804243
O O17 0.000000 0.500000 0.000000
O O18 0.066589 0.810046 0.933848
#
# Coordination Sequence:
#
# PCOD9100990 Si02
#       8
#     2   2   2   2   2   2   2   2
#     4  10  20  37  68 102 131 169 224 278 337 404
#     4  10  21  38  63  98 126 159 216 278 325 388
#     4  12  24  40  59  94 129 166 216 270 328 383
#     4  11  19  39  63  86 124 163 213 259 326 387
#     4  12  22  37  61  91 123 163 215 275 326 380
#     4  12  24  42  60  88 126 171 218 259 323 397
#     4  10  20  40  64  92 123 171 213 262 325 397
#     4  11  24  40  60  88 127 172 217 258 320 408
#
# _framework density 23.859725999999998
#
# number of rings (size 3 to 8) (size 9 to 14) (size 15 to 20)
#    0.000    1.000    3.750    4.500    0.000    0.000 
#    0.000    0.625    0.000    0.750    0.000    0.000 
#    0.000    0.000    0.000    0.000    0.000    0.000 
#
# Total GULP energy -89292.350414 kJ/mol
# GULP energy per Si atom -5580.771901 kJ/mol
# Density = 2.380542 g / cm^3
# Si number density = 23.859726 Si / 1000 Ang^3
#
#
#
# Elastic Constant Matrix: (Units=GPa)
#
#
# Indices 1 2 3 4 5 6 
#
# 1 55.9807 18.7007 18.9492 10.3939 9.2241 17.2190
# 2 18.7007 130.5769 47.3135 -5.3336 13.3948 31.0486
# 3 18.9492 47.3135 113.6395 2.6653 25.8180 14.0834
# 4 10.3939 -5.3336 2.6653 48.8555 8.9928 -1.3002
# 5 9.2241 13.3948 25.8180 8.9928 42.8800 10.1255
# 6 17.2190 31.0486 14.0834 -1.3002 10.1255 32.9208
#
#
#
# Elastic Compliance Matrix: (Units=1/GPa)
#
#
# Indices 1 2 3 4 5 6 
#
# 1 0.023062 0.000023 -0.002379 -0.005115 0.000213 -0.011334
# 2 0.000023 0.011127 -0.003686 0.001046 0.000666 -0.009093
# 3 -0.002379 -0.003686 0.011889 0.000594 -0.005973 0.001495
# 4 -0.005115 0.001046 0.000594 0.022716 -0.005283 0.003956
# 5 0.000213 0.000666 -0.005973 -0.005283 0.029537 -0.007478
# 6 -0.011334 -0.009093 0.001495 0.003956 -0.007478 0.046697
#
#
# Mechanical properties :
#
#
# Convention : Reuss Voigt Hill
#
# Bulk Modulus (GPa) = 29.41611 52.23600 40.82605
# Shear Modulus (GPa) = 29.68394 39.28019 34.48207
#
# Velocity S-wave (km/s) = 3.53101 4.06186 3.80570
# Velocity P-wave (km/s) = 5.38327 6.62863 6.03814
#
# Compressibility (1/GPa) = 0.03399498
#
# Stress axis : x y z
#
# Youngs Moduli (GPa) = 43.36224 89.87142 84.11366
#
# Poissons Ratio (x) = -0.00211 0.20012
# Poissons Ratio (y) = -0.00102 0.31000
# Poissons Ratio (z) = 0.10316 0.33122
#
# Static dielectric constant tensor:
#      x y z
#    x 1.950760 -0.029780 -0.028230 
#    y -0.029780 1.858720 -0.007420 
#    z -0.028230 -0.007420 1.957580 
# 
# From -- ./inp_files/38466.got.cif
#   From: 2010.05.17/outbox.cif.g08.bks.cpg/sg2_20_cif.got.tgz:38466.got - 2010.06.03 11:33:40.
