data_PCOD9100040
_publ_section_title
;
Structure prediction by ZEFSAII (Michael W. Deem and Ramdas Pophale) SiO2 
 PCOD9100040
Probable space group: P -1
;
_chemical_formula_sum "Si O2"
_cell_formula_units_Z 16
_cell_length_a 17.382678
_cell_length_b 8.102557
_cell_length_c 16.502999
_cell_angle_alpha 135.066249
_cell_angle_beta 24.044518
_cell_angle_gamma 123.827681
_cell_volume 635.489171
_symmetry_space_group_name_H-M "P -1"
_symmetry_group_IT_number 2
_symmetry_cell_setting 'triclinic'
loop_
_space_group_symop_operation_xyz
x,y,z
-x,-y,-z
loop_
_atom_site_type_symbol
_atom_site_label
_atom_site_fract_x
_atom_site_fract_y
_atom_site_fract_z
Si Si1 0.796909 0.793733 0.172936
Si Si2 0.058551 0.169207 0.571517
Si Si3 0.532045 0.010452 0.230472
Si Si4 0.838366 0.576373 0.289540
Si Si5 0.488288 0.088250 0.950271
Si Si6 0.068789 0.265025 0.158898
Si Si7 0.439037 0.644269 0.409189
Si Si8 0.659745 0.386311 0.676531
O O1 0.637988 0.646200 0.263066
O O2 0.668356 0.070168 0.412043
O O3 0.894053 0.810658 0.997064
O O4 0.987451 0.651676 0.993758
O O5 0.039797 0.280281 0.722443
O O6 0.985447 0.436331 0.689549
O O7 0.278594 0.986525 0.314376
O O8 0.000000 0.000000 0.500000
O O9 0.585734 0.049503 0.099001
O O10 0.441818 0.785249 0.239638
O O11 0.345454 0.239135 0.518558
O O12 0.730586 0.909693 0.055124
O O13 0.709639 0.458607 0.432944
O O14 0.356046 0.370396 0.173852
O O15 0.500000 0.000000 0.000000
O O16 0.881044 0.247330 0.384477
O O17 0.469775 0.518793 0.248037
#
# Coordination Sequence:
#
# PCOD9100040 Si02
#       8
#     2   2   2   2   2   2   2   2
#     4  10  22  40  73  99 119 166 224 263 314 383
#     4  10  20  37  62  91 122 165 215 257 305 374
#     4  11  25  42  60  94 136 164 209 266 318 382
#     4  10  22  42  62  94 128 170 208 263 314 380
#     4  11  22  43  62  87 125 169 217 262 312 375
#     4  11  22  41  64  95 129 170 210 263 322 374
#     4  11  21  41  74  95 123 168 219 265 317 379
#     4  12  22  39  66  93 131 170 208 266 326 369
#
# _framework density 25.177454999999998
#
# number of rings (size 3 to 8) (size 9 to 14) (size 15 to 20)
#    0.000    1.250    5.000    2.250    1.750    2.500 
#    4.500    1.250    0.000    0.000    0.000    0.000 
#    0.000    0.000    0.000    0.000    0.000    0.000 
#
# Total GULP energy -89106.400030 kJ/mol
# GULP energy per Si atom -5569.150002 kJ/mol
# Density = 2.512015 g / cm^3
# Si number density = 25.177455 Si / 1000 Ang^3
#
#
#
# Elastic Constant Matrix: (Units=GPa)
#
#
# Indices 1 2 3 4 5 6 
#
# 1 72.7951 16.9739 39.1968 2.8661 -27.7728 -7.3032
# 2 16.9739 45.7226 16.9449 9.5061 -5.1018 4.0650
# 3 39.1968 16.9449 128.5284 11.7755 -27.0542 9.6040
# 4 2.8661 9.5061 11.7755 18.4687 -6.8865 2.8399
# 5 -27.7728 -5.1018 -27.0542 -6.8865 50.1538 9.2650
# 6 -7.3032 4.0650 9.6040 2.8399 9.2650 36.8841
#
#
#
# Elastic Compliance Matrix: (Units=1/GPa)
#
#
# Indices 1 2 3 4 5 6 
#
# 1 0.021211 -0.006732 -0.004524 0.005797 0.008775 0.003469
# 2 -0.006732 0.027294 -0.000722 -0.013170 -0.002694 -0.002462
# 3 -0.004524 -0.000722 0.010628 -0.003798 0.003399 -0.004145
# 4 0.005797 -0.013170 -0.003798 0.066681 0.009714 -0.003986
# 5 0.008775 -0.002694 0.003399 0.009714 0.028961 -0.006873
# 6 0.003469 -0.002462 -0.004145 -0.003986 -0.006873 0.031183
#
#
# Mechanical properties :
#
#
# Convention : Reuss Voigt Hill
#
# Bulk Modulus (GPa) = 28.42764 43.69746 36.06255
# Shear Modulus (GPa) = 22.55910 32.69667 27.62789
#
# Velocity S-wave (km/s) = 2.99658 3.60759 3.31619
# Velocity P-wave (km/s) = 4.82577 5.89461 5.38676
#
# Compressibility (1/GPa) = 0.03517703
#
# Stress axis : x y z
#
# Youngs Moduli (GPa) = 47.14589 36.63798 94.08755
#
# Poissons Ratio (x) = 0.24665 0.42567
# Poissons Ratio (y) = 0.31738 0.06792
# Poissons Ratio (z) = 0.21330 0.02645
#
# Static dielectric constant tensor:
#      x y z
#    x 2.125600 -0.029990 0.026930 
#    y -0.029990 2.087340 -0.021510 
#    z 0.026930 -0.021510 1.952460 
# 
# From -- ./inp_files/601213.got.cif
#   From: 2010.05.17/outbox.cif.g08.bks.cpg/sg2_301_cif.got.tgz:601213.got - 2010.06.03 11:33:40.
