data_PCOD9100436
_publ_section_title
;
Structure prediction by ZEFSAII (Michael W. Deem and Ramdas Pophale) SiO2 
 PCOD9100436
Probable space group: P -1
;
_chemical_formula_sum "Si O2"
_cell_formula_units_Z 16
_cell_length_a 11.812085
_cell_length_b 25.391063
_cell_length_c 7.744899
_cell_angle_alpha 134.004263
_cell_angle_beta 56.365118
_cell_angle_gamma 152.200805
_cell_volume 766.386021
_symmetry_space_group_name_H-M "P -1"
_symmetry_group_IT_number 2
_symmetry_cell_setting 'triclinic'
loop_
_space_group_symop_operation_xyz
x,y,z
-x,-y,-z
loop_
_atom_site_type_symbol
_atom_site_label
_atom_site_fract_x
_atom_site_fract_y
_atom_site_fract_z
Si Si1 0.126014 0.440273 0.189013
Si Si2 0.474465 0.065362 0.400902
Si Si3 0.066552 0.783708 0.219004
Si Si4 0.414376 0.352476 0.155150
Si Si5 0.870388 0.149435 0.069188
Si Si6 0.552484 0.559154 0.310419
Si Si7 0.023414 0.532623 0.312803
Si Si8 0.368208 0.706827 0.117095
O O1 0.358581 0.498481 0.192220
O O2 0.191311 0.541540 0.257718
O O3 0.993005 0.413622 0.407549
O O4 0.939651 0.304513 0.931487
O O5 0.726805 0.137241 0.296770
O O6 0.492924 0.154150 0.666637
O O7 0.309467 0.941342 0.386718
O O8 0.323137 0.994709 0.183616
O O9 0.824618 0.702584 0.337593
O O10 0.042264 0.771179 0.000619
O O11 0.525588 0.462143 0.175124
O O12 0.503713 0.421123 0.422727
O O13 0.118264 0.227923 0.115454
O O14 0.484301 0.298856 0.957605
O O15 0.136253 0.615223 0.232578
O O16 0.758304 0.376622 0.143379
#
# Coordination Sequence:
#
# PCOD9100436 Si02
#       8
#     2   2   2   2   2   2   2   2
#     4  11  20  40  58  91 123 153 204 256 301 360
#     4   9  21  40  67  84 125 160 208 246 298 365
#     4  10  20  37  64  88 117 160 204 250 294 365
#     4  11  23  37  62  93 125 160 199 256 314 348
#     4   9  20  39  61  90 113 163 205 243 299 357
#     4  11  22  37  62  91 126 157 203 256 303 365
#     4  10  24  35  63  88 122 161 196 254 312 348
#     4  11  22  41  59  93 124 159 201 251 302 374
#
# _framework density 20.877209000000001
#
# number of rings (size 3 to 8) (size 9 to 14) (size 15 to 20)
#    0.750    1.000    2.500    1.875    1.750    2.500 
#    0.000    3.125    0.000    0.000    0.000    0.000 
#    0.000    0.000    0.000    0.000    0.000    0.000 
#
# Total GULP energy -89106.358745 kJ/mol
# GULP energy per Si atom -5569.147422 kJ/mol
# Density = 2.082969 g / cm^3
# Si number density = 20.877209 Si / 1000 Ang^3
#
#
#
# Elastic Constant Matrix: (Units=GPa)
#
#
# Indices 1 2 3 4 5 6 
#
# 1 78.4845 30.6402 29.5320 5.6774 -13.0560 12.6551
# 2 30.6402 108.7004 36.2918 -2.0104 -15.6242 -1.6688
# 3 29.5320 36.2918 108.6624 15.1754 -28.0773 -3.6467
# 4 5.6774 -2.0104 15.1754 24.0080 -0.4064 3.8709
# 5 -13.0560 -15.6242 -28.0773 -0.4064 31.5441 -4.7533
# 6 12.6551 -1.6688 -3.6467 3.8709 -4.7533 22.7408
#
#
#
# Elastic Compliance Matrix: (Units=1/GPa)
#
#
# Indices 1 2 3 4 5 6 
#
# 1 0.017359 -0.003782 -0.003591 -0.000480 0.000555 -0.010316
# 2 -0.003782 0.011556 -0.002607 0.003150 0.002250 0.002469
# 3 -0.003591 -0.002607 0.016172 -0.010813 0.012822 0.008921
# 4 -0.000480 0.003150 -0.010813 0.050610 -0.009391 -0.011813
# 5 0.000555 0.002250 0.012822 -0.009391 0.046326 0.013194
# 6 -0.010316 0.002469 0.008921 -0.011813 0.013194 0.056095
#
#
# Mechanical properties :
#
#
# Convention : Reuss Voigt Hill
#
# Bulk Modulus (GPa) = 39.79686 54.30835 47.05260
# Shear Modulus (GPa) = 22.07957 28.95082 25.51519
#
# Velocity S-wave (km/s) = 3.25559 3.72791 3.49973
# Velocity P-wave (km/s) = 5.76503 6.67828 6.23839
#
# Compressibility (1/GPa) = 0.02512761
#
# Stress axis : x y z
#
# Youngs Moduli (GPa) = 57.60611 86.53736 61.83529
#
# Poissons Ratio (x) = 0.32727 0.22202
# Poissons Ratio (y) = 0.21786 0.16122
# Poissons Ratio (z) = 0.20684 0.22563
#
# Static dielectric constant tensor:
#      x y z
#    x 1.786990 -0.003670 0.024220 
#    y -0.003670 1.771310 0.011370 
#    z 0.024220 0.011370 1.791230 
# 
# From -- ./inp_files/285592.got.cif
#   From: 2010.05.17/outbox.cif.g08.bks.cpg/sg2_143_cif.got.tgz:285592.got - 2010.06.03 11:33:40.
