data_PCOD9100451
_publ_section_title
;
Structure prediction by ZEFSAII (Michael W. Deem and Ramdas Pophale) SiO2 
 PCOD9100451
Probable space group: P -1
;
_chemical_formula_sum "Si O2"
_cell_formula_units_Z 16
_cell_length_a 17.862090
_cell_length_b 5.784877
_cell_length_c 15.823111
_cell_angle_alpha 81.613687
_cell_angle_beta 27.453232
_cell_angle_gamma 72.513513
_cell_volume 691.282051
_symmetry_space_group_name_H-M "P -1"
_symmetry_group_IT_number 2
_symmetry_cell_setting 'triclinic'
loop_
_space_group_symop_operation_xyz
x,y,z
-x,-y,-z
loop_
_atom_site_type_symbol
_atom_site_label
_atom_site_fract_x
_atom_site_fract_y
_atom_site_fract_z
Si Si1 0.377113 0.599018 0.395631
Si Si2 0.344822 0.224814 0.984581
Si Si3 0.115845 0.225337 0.936009
Si Si4 0.094341 0.917719 0.543891
Si Si5 0.811643 0.021092 0.294239
Si Si6 0.145402 0.232918 0.337796
Si Si7 0.360852 0.907302 0.834523
Si Si8 0.072463 0.687430 0.163336
O O1 0.516113 0.661689 0.193864
O O2 0.209912 0.680860 0.496958
O O3 0.332129 0.788243 0.510799
O O4 0.455325 0.309826 0.362773
O O5 0.383243 0.970742 0.906425
O O6 0.310114 0.236813 0.118588
O O7 0.157683 0.407352 0.124808
O O8 0.223385 0.047541 0.760811
O O9 0.265012 0.163252 0.862797
O O10 0.000000 0.500000 0.000000
O O11 0.961552 0.138474 0.127604
O O12 0.958851 0.869003 0.619912
O O13 0.201056 0.040405 0.370679
O O14 0.995302 0.132672 0.698293
O O15 0.913177 0.758551 0.254897
O O16 0.000000 0.500000 0.500000
O O17 0.226099 0.765018 0.966953
#
# Coordination Sequence:
#
# PCOD9100451 Si02
#       8
#     2   2   2   2   2   2   2   2
#     4  10  24  40  58  87 127 160 188 240 307 352
#     4  11  21  37  60  88 118 156 202 241 295 353
#     4  10  20  37  64  89 116 154 205 244 285 347
#     4  10  21  39  60  87 118 153 198 249 292 345
#     4   9  20  38  58  88 119 155 197 242 290 348
#     4  11  22  37  64  91 113 153 206 250 289 346
#     4  10  21  37  57  86 122 160 191 242 298 352
#     4   9  17  36  60  81 116 155 198 242 287 343
#
# _framework density 23.145403000000002
#
# number of rings (size 3 to 8) (size 9 to 14) (size 15 to 20)
#    0.000    2.000    2.500    0.750    0.000    4.000 
#    0.000    2.500    0.000    0.000    0.000    0.000 
#    0.000    0.000    0.000    0.000    0.000    0.000 
#
# Total GULP energy -89253.395867 kJ/mol
# GULP energy per Si atom -5578.337242 kJ/mol
# Density = 2.309272 g / cm^3
# Si number density = 23.145403 Si / 1000 Ang^3
#
#
#
# Elastic Constant Matrix: (Units=GPa)
#
#
# Indices 1 2 3 4 5 6 
#
# 1 67.9249 4.8330 17.8385 12.6598 12.1976 -9.5822
# 2 4.8330 57.9311 10.0132 11.4165 -2.7197 -31.4559
# 3 17.8385 10.0132 85.3622 6.4186 10.3104 -8.6157
# 4 12.6598 11.4165 6.4186 36.3464 2.6437 -2.0600
# 5 12.1976 -2.7197 10.3104 2.6437 25.5866 -0.2296
# 6 -9.5822 -31.4559 -8.6157 -2.0600 -0.2296 29.0934
#
#
#
# Elastic Compliance Matrix: (Units=1/GPa)
#
#
# Indices 1 2 3 4 5 6 
#
# 1 0.019049 0.006356 -0.002180 -0.007083 -0.006688 0.011946
# 2 0.006356 0.049598 -0.001110 -0.014858 0.004712 0.054375
# 3 -0.002180 -0.001110 0.013060 -0.000784 -0.004244 0.001860
# 4 -0.007083 -0.014858 -0.000784 0.033977 -0.001543 -0.016235
# 5 -0.006688 0.004712 -0.004244 -0.001543 0.044658 0.001879
# 6 0.011946 0.054375 0.001860 -0.016235 0.001879 0.096513
#
#
# Mechanical properties :
#
#
# Convention : Reuss Voigt Hill
#
# Bulk Modulus (GPa) = 11.38454 30.73196 21.05825
# Shear Modulus (GPa) = 17.85695 30.10752 23.98224
#
# Velocity S-wave (km/s) = 2.78062 3.61057 3.22243
# Velocity P-wave (km/s) = 3.90366 5.53970 4.79201
#
# Compressibility (1/GPa) = 0.08783841
#
# Stress axis : x y z
#
# Youngs Moduli (GPa) = 52.49676 20.16223 76.57032
#
# Poissons Ratio (x) = -0.12816 0.16694
# Poissons Ratio (y) = -0.33368 0.08500
# Poissons Ratio (z) = 0.11445 0.02238
#
# Static dielectric constant tensor:
#      x y z
#    x 1.876700 -0.042130 0.009490 
#    y -0.042130 1.917020 -0.030140 
#    z 0.009490 -0.030140 1.934340 
# 
# From -- ./inp_files/44572.got.cif
#   From: 2010.05.17/outbox.cif.g08.bks.cpg/sg2_23_cif.got.tgz:44572.got - 2010.06.03 11:33:40.
