data_PCOD9100445
_publ_section_title
;
Structure prediction by ZEFSAII (Michael W. Deem and Ramdas Pophale) SiO2 
 PCOD9100445
Probable space group: P -1
;
_chemical_formula_sum "Si O2"
_cell_formula_units_Z 16
_cell_length_a 23.191392
_cell_length_b 19.364230
_cell_length_c 12.590091
_cell_angle_alpha 152.184590
_cell_angle_beta 27.171070
_cell_angle_gamma 163.085987
_cell_volume 727.198734
_symmetry_space_group_name_H-M "P -1"
_symmetry_group_IT_number 2
_symmetry_cell_setting 'triclinic'
loop_
_space_group_symop_operation_xyz
x,y,z
-x,-y,-z
loop_
_atom_site_type_symbol
_atom_site_label
_atom_site_fract_x
_atom_site_fract_y
_atom_site_fract_z
Si Si1 0.451474 0.307697 0.704184
Si Si2 0.755774 0.583763 0.748110
Si Si3 0.807317 0.946054 0.412904
Si Si4 0.644755 0.523723 0.226083
Si Si5 0.187017 0.818030 0.580623
Si Si6 0.677283 0.255778 0.923602
Si Si7 0.216374 0.765378 0.050426
Si Si8 0.710962 0.368984 0.735165
O O1 0.679877 0.488645 0.622237
O O2 0.396865 0.222769 0.556788
O O3 0.307025 0.077629 0.707407
O O4 0.384631 0.414328 0.974213
O O5 0.717809 0.417640 0.667225
O O6 0.995177 0.857863 0.722514
O O7 0.797112 0.783105 0.270746
O O8 0.817588 0.094456 0.674954
O O9 0.500000 0.500000 0.500000
O O10 0.709255 0.455672 0.110550
O O11 0.569873 0.347237 0.009297
O O12 0.182015 0.716814 0.343159
O O13 0.307506 0.822320 0.470395
O O14 0.947638 0.622712 0.736192
O O15 0.731438 0.272922 0.978861
O O16 0.437938 0.977664 0.913743
O O17 0.000000 0.500000 0.000000
#
# Coordination Sequence:
#
# PCOD9100445 Si02
#       8
#     2   2   2   2   2   2   2   2
#     4  11  22  38  62  96 126 164 210 255 323 373
#     4  11  23  37  64  98 124 162 210 265 310 379
#     4  12  22  42  66  89 132 167 209 264 314 371
#     4  11  22  40  67  91 126 176 206 250 323 377
#     4  10  20  37  64  88 122 165 202 261 320 367
#     4  10  22  42  63  91 127 165 211 261 313 374
#     4  11  24  40  66  94 123 169 217 260 310 375
#     4  10  20  38  64  92 125 159 212 259 313 372
#
# _framework density 22.002238999999999
#
# number of rings (size 3 to 8) (size 9 to 14) (size 15 to 20)
#    0.000    1.250    5.000    1.125    1.750    0.500 
#    0.000    1.875    8.250    0.000    0.000    0.000 
#    0.000    0.000    0.000    0.000    0.000    0.000 
#
# Total GULP energy -89261.208942 kJ/mol
# GULP energy per Si atom -5578.825559 kJ/mol
# Density = 2.195216 g / cm^3
# Si number density = 22.002239 Si / 1000 Ang^3
#
#
#
# Elastic Constant Matrix: (Units=GPa)
#
#
# Indices 1 2 3 4 5 6 
#
# 1 119.1150 51.5678 26.2606 15.2474 -25.3547 -15.4680
# 2 51.5678 72.3746 22.6359 11.9568 -5.5939 -1.7051
# 3 26.2606 22.6359 74.5300 1.7221 -10.3425 5.1135
# 4 15.2474 11.9568 1.7221 36.6418 -13.8264 -2.1348
# 5 -25.3547 -5.5939 -10.3425 -13.8264 33.8807 10.7467
# 6 -15.4680 -1.7051 5.1135 -2.1348 10.7467 40.4154
#
#
#
# Elastic Compliance Matrix: (Units=1/GPa)
#
#
# Indices 1 2 3 4 5 6 
#
# 1 0.015022 -0.009565 -0.001479 0.000248 0.008248 0.003353
# 2 -0.009565 0.022346 -0.004194 -0.005752 -0.006887 -0.000660
# 3 -0.001479 -0.004194 0.016224 0.003152 0.005760 -0.004161
# 4 0.000248 -0.005752 0.003152 0.034468 0.015137 -0.002751
# 5 0.008248 -0.006887 0.005760 0.015137 0.045383 -0.009130
# 6 0.003353 -0.000660 -0.004161 -0.002751 -0.009130 0.028807
#
#
# Mechanical properties :
#
#
# Convention : Reuss Voigt Hill
#
# Bulk Modulus (GPa) = 43.26005 51.88311 47.57158
# Shear Modulus (GPa) = 24.94616 33.22462 29.08539
#
# Velocity S-wave (km/s) = 3.37085 3.89016 3.63978
# Velocity P-wave (km/s) = 5.90377 6.61890 6.27154
#
# Compressibility (1/GPa) = 0.02311601
#
# Stress axis : x y z
#
# Youngs Moduli (GPa) = 66.57083 44.75014 61.63613
#
# Poissons Ratio (x) = 0.42803 0.09116
# Poissons Ratio (y) = 0.63674 0.25851
# Poissons Ratio (z) = 0.09845 0.18769
#
# Static dielectric constant tensor:
#      x y z
#    x 1.836670 0.014310 0.022630 
#    y 0.014310 1.856810 -0.033340 
#    z 0.022630 -0.033340 1.863400 
# 
# From -- ./inp_files/428359.got.cif
#   From: 2010.05.17/outbox.cif.g08.bks.cpg/sg2_215_cif.got.tgz:428359.got - 2010.06.03 11:33:40.
