data_PCOD9100588
_publ_section_title
;
Structure prediction by ZEFSAII (Michael W. Deem and Ramdas Pophale) SiO2 
 PCOD9100588
Probable space group: P -1
;
_chemical_formula_sum "Si O2"
_cell_formula_units_Z 16
_cell_length_a 12.777907
_cell_length_b 12.792567
_cell_length_c 7.846670
_cell_angle_alpha 137.285262
_cell_angle_beta 57.756045
_cell_angle_gamma 136.019888
_cell_volume 604.154722
_symmetry_space_group_name_H-M "P -1"
_symmetry_group_IT_number 2
_symmetry_cell_setting 'triclinic'
loop_
_space_group_symop_operation_xyz
x,y,z
-x,-y,-z
loop_
_atom_site_type_symbol
_atom_site_label
_atom_site_fract_x
_atom_site_fract_y
_atom_site_fract_z
Si Si1 0.864252 0.037860 0.006550
Si Si2 0.782618 0.809207 0.112894
Si Si3 0.163789 0.551225 0.027477
Si Si4 0.448822 0.805529 0.898732
Si Si5 0.836272 0.811875 0.449994
Si Si6 0.893905 0.399510 0.309302
Si Si7 0.458380 0.796863 0.254610
Si Si8 0.392659 0.585034 0.378643
O O1 0.046889 0.143832 0.987611
O O2 0.799634 0.861550 0.723216
O O3 0.839954 0.184893 0.116447
O O4 0.802391 0.976180 0.179522
O O5 0.751954 0.790181 0.319338
O O6 0.669091 0.619277 0.880015
O O7 0.273361 0.712555 0.991491
O O8 0.153903 0.365514 0.760599
O O9 0.279539 0.638839 0.193387
O O10 0.006000 0.502115 0.173562
O O11 0.467253 0.671608 0.599932
O O12 0.518459 0.813362 0.031239
O O13 0.500000 0.000000 0.000000
O O14 0.000000 0.000000 0.500000
O O15 0.755567 0.415129 0.466175
O O16 0.000000 0.500000 0.500000
O O17 0.493158 0.727193 0.309799
O O18 0.500000 0.000000 0.500000
#
# Coordination Sequence:
#
# PCOD9100588 Si02
#       8
#     2   2   2   2   2   2   2   2
#     4  10  20  31  49  75 106 153 184 213 256 335
#     4  10  18  31  52  74 102 149 187 218 257 316
#     4  10  19  34  51  82 116 145 178 227 280 328
#     4  10  21  34  53  81 105 140 196 234 268 315
#     4  10  16  32  49  72 112 142 186 223 258 328
#     4  12  19  35  52  80 124 152 168 215 297 350
#     4  10  19  35  57  81 110 144 189 238 279 310
#     4  12  20  35  58  81 117 145 177 228 287 335
#
# _framework density 26.483281999999999
#
# number of rings (size 3 to 8) (size 9 to 14) (size 15 to 20)
#    0.750    0.750    7.500    0.750    0.000    0.500 
#    0.000    2.500    0.000    0.000    0.000    8.750 
#    0.000    0.000    0.000    0.000    0.000    0.000 
#
# Total GULP energy -89518.416929 kJ/mol
# GULP energy per Si atom -5594.901058 kJ/mol
# Density = 2.642300 g / cm^3
# Si number density = 26.483282 Si / 1000 Ang^3
#
#
#
# Elastic Constant Matrix: (Units=GPa)
#
#
# Indices 1 2 3 4 5 6 
#
# 1 87.8685 30.6497 30.1719 -9.6433 -4.9205 -2.8442
# 2 30.6497 187.6416 54.5403 -23.0513 -7.8376 -15.7911
# 3 30.1719 54.5403 173.6252 -8.3529 23.0361 -0.6096
# 4 -9.6433 -23.0513 -8.3529 61.8672 -5.7776 4.9813
# 5 -4.9205 -7.8376 23.0361 -5.7776 44.6687 -15.9859
# 6 -2.8442 -15.7911 -0.6096 4.9813 -15.9859 33.0684
#
#
#
# Elastic Compliance Matrix: (Units=1/GPa)
#
#
# Indices 1 2 3 4 5 6 
#
# 1 0.012924 -0.000942 -0.002318 0.001503 0.003372 0.002023
# 2 -0.000942 0.007121 -0.002560 0.002174 0.004597 0.005167
# 3 -0.002318 -0.002560 0.007762 -0.000513 -0.006293 -0.004244
# 4 0.001503 0.002174 -0.000513 0.017424 0.003072 0.000018
# 5 0.003372 0.004597 -0.006293 0.003072 0.033724 0.018209
# 6 0.002023 0.005167 -0.004244 0.000018 0.018209 0.041604
#
#
# Mechanical properties :
#
#
# Convention : Reuss Voigt Hill
#
# Bulk Modulus (GPa) = 61.85399 75.53993 68.69696
# Shear Modulus (GPa) = 36.34009 50.17240 43.25625
#
# Velocity S-wave (km/s) = 3.70833 4.35730 4.04585
# Velocity P-wave (km/s) = 6.46082 7.34168 6.91529
#
# Compressibility (1/GPa) = 0.01616711
#
# Stress axis : x y z
#
# Youngs Moduli (GPa) = 77.37330 140.42477 128.83264
#
# Poissons Ratio (x) = 0.13221 0.29867
# Poissons Ratio (y) = 0.07285 0.32988
# Poissons Ratio (z) = 0.17937 0.35956
#
# Static dielectric constant tensor:
#      x y z
#    x 2.035070 -0.031910 0.091250 
#    y -0.031910 2.085540 -0.050860 
#    z 0.091250 -0.050860 2.055960 
# 
# From -- ./inp_files/335558.got.cif
#   From: 2010.05.17/outbox.cif.g08.bks.cpg/sg2_168_cif.got.tgz:335558.got - 2010.06.03 11:33:40.
