data_PCOD9100968
_publ_section_title
;
Structure prediction by ZEFSAII (Michael W. Deem and Ramdas Pophale) SiO2 
 PCOD9100968
Probable space group: P -1
;
_chemical_formula_sum "Si O2"
_cell_formula_units_Z 16
_cell_length_a 8.166195
_cell_length_b 14.544043
_cell_length_c 9.208027
_cell_angle_alpha 68.526107
_cell_angle_beta 79.699736
_cell_angle_gamma 126.185163
_cell_volume 698.690134
_symmetry_space_group_name_H-M "P -1"
_symmetry_group_IT_number 2
_symmetry_cell_setting 'triclinic'
loop_
_space_group_symop_operation_xyz
x,y,z
-x,-y,-z
loop_
_atom_site_type_symbol
_atom_site_label
_atom_site_fract_x
_atom_site_fract_y
_atom_site_fract_z
Si Si1 0.484435 0.788549 0.795152
Si Si2 0.633917 0.448422 0.900599
Si Si3 0.744458 0.351873 0.674030
Si Si4 0.988077 0.107676 0.055702
Si Si5 0.479778 0.542751 0.638375
Si Si6 0.341238 0.084198 0.020921
Si Si7 0.380768 0.191929 0.557079
Si Si8 0.043860 0.354317 0.999506
O O1 0.641913 0.918771 0.807565
O O2 0.538185 0.820490 0.599969
O O3 0.210118 0.699802 0.920083
O O4 0.524935 0.691322 0.892027
O O5 0.713021 0.409682 0.783239
O O6 0.529314 0.492065 0.796152
O O7 0.830981 0.570509 0.910157
O O8 0.587526 0.289132 0.588507
O O9 0.000000 0.500000 0.500000
O O10 0.612326 0.197228 0.851045
O O11 0.015221 0.225012 0.055107
O O12 0.230200 0.148061 0.968599
O O13 0.828751 0.964759 0.257767
O O14 0.841919 0.059470 0.956735
O O15 0.500000 0.500000 0.500000
O O16 0.666008 0.711904 0.515915
O O17 0.210834 0.461671 0.775785
#
# Coordination Sequence:
#
# PCOD9100968 Si02
#       8
#     2   2   2   2   2   2   2   2
#     4  11  24  42  68 100 133 177 221 276 341 394
#     4  11  23  41  64  99 139 170 221 282 333 384
#     4  10  20  37  67  96 130 174 215 274 331 383
#     4  10  24  46  67  92 136 184 218 276 328 402
#     4  12  26  42  68 105 129 173 238 279 323 394
#     4   9  22  42  66  90 132 179 220 265 342 388
#     4  11  24  43  68  99 137 173 228 275 328 398
#     4  12  25  42  70 100 137 177 221 274 340 403
#
# _framework density 22.899995000000001
#
# number of rings (size 3 to 8) (size 9 to 14) (size 15 to 20)
#    0.000    1.250    2.500    3.000    8.750    1.500 
#    0.000    0.000    0.000    0.000    0.000    0.000 
#    0.000    0.000    0.000    0.000    0.000    0.000 
#
# Total GULP energy -89187.869008 kJ/mol
# GULP energy per Si atom -5574.241813 kJ/mol
# Density = 2.284787 g / cm^3
# Si number density = 22.899995 Si / 1000 Ang^3
#
#
#
# Elastic Constant Matrix: (Units=GPa)
#
#
# Indices 1 2 3 4 5 6 
#
# 1 42.6003 24.0231 34.4482 5.6091 5.8915 9.4769
# 2 24.0231 162.1090 61.8436 21.1362 -3.8549 19.3644
# 3 34.4482 61.8436 146.4015 16.6203 -7.5840 12.4513
# 4 5.6091 21.1362 16.6203 53.3130 -0.9811 10.5728
# 5 5.8915 -3.8549 -7.5840 -0.9811 27.6557 -5.2977
# 6 9.4769 19.3644 12.4513 10.5728 -5.2977 30.7201
#
#
#
# Elastic Compliance Matrix: (Units=1/GPa)
#
#
# Indices 1 2 3 4 5 6 
#
# 1 0.033444 -0.001576 -0.007132 0.000835 -0.010919 -0.008603
# 2 -0.001576 0.007933 -0.002544 -0.001607 0.000130 -0.002908
# 3 -0.007132 -0.002544 0.009870 -0.001441 0.004010 0.000991
# 4 0.000835 -0.001607 -0.001441 0.020938 -0.001218 -0.006077
# 5 -0.010919 0.000130 0.004010 -0.001218 0.041323 0.009206
# 6 -0.008603 -0.002908 0.000991 -0.006077 0.009206 0.040316
#
#
# Mechanical properties :
#
#
# Convention : Reuss Voigt Hill
#
# Bulk Modulus (GPa) = 34.79090 65.74896 50.26993
# Shear Modulus (GPa) = 26.89477 37.72418 32.30948
#
# Velocity S-wave (km/s) = 3.43073 4.06315 3.76026
# Velocity P-wave (km/s) = 5.56047 7.12643 6.39159
#
# Compressibility (1/GPa) = 0.02874315
#
# Stress axis : x y z
#
# Youngs Moduli (GPa) = 29.90056 126.06280 101.31372
#
# Poissons Ratio (x) = 0.19867 0.72261
# Poissons Ratio (y) = 0.04712 0.25770
# Poissons Ratio (z) = 0.21326 0.32065
#
# Static dielectric constant tensor:
#      x y z
#    x 2.009970 0.013590 0.005150 
#    y 0.013590 1.870570 -0.037400 
#    z 0.005150 -0.037400 1.927590 
# 
# From -- ./inp_files/206374.got.cif
#   From: 2010.05.17/outbox.cif.g08.bks.cpg/sg2_104_cif.got.tgz:206374.got - 2010.06.03 11:33:40.
