data_PCOD9100107
_publ_section_title
;
Structure prediction by ZEFSAII (Michael W. Deem and Ramdas Pophale) SiO2 
 PCOD9100107
Probable space group: P -1
;
_chemical_formula_sum "Si O2"
_cell_formula_units_Z 16
_cell_length_a 11.899970
_cell_length_b 13.039172
_cell_length_c 12.902464
_cell_angle_alpha 56.998886
_cell_angle_beta 78.426942
_cell_angle_gamma 30.373818
_cell_volume 655.838815
_symmetry_space_group_name_H-M "P -1"
_symmetry_group_IT_number 2
_symmetry_cell_setting 'triclinic'
loop_
_space_group_symop_operation_xyz
x,y,z
-x,-y,-z
loop_
_atom_site_type_symbol
_atom_site_label
_atom_site_fract_x
_atom_site_fract_y
_atom_site_fract_z
Si Si1 0.386949 0.499594 0.702308
Si Si2 0.681282 0.454708 0.620187
Si Si3 0.163909 0.314766 0.415242
Si Si4 0.824651 0.438131 0.790785
Si Si5 0.768172 0.971914 0.310179
Si Si6 0.867583 0.844667 0.665939
Si Si7 0.116255 0.132944 0.124510
Si Si8 0.568514 0.540569 0.044725
O O1 0.484114 0.528115 0.611066
O O2 0.066249 0.763575 0.634771
O O3 0.562732 0.222797 0.762330
O O4 0.498961 0.406645 0.851389
O O5 0.844524 0.303576 0.784850
O O6 0.951110 0.216482 0.626161
O O7 0.459284 0.785673 0.475996
O O8 0.070268 0.546416 0.301283
O O9 0.134813 0.260274 0.552216
O O10 0.057778 0.337905 0.324879
O O11 0.500000 0.000000 0.500000
O O12 0.486273 0.761191 0.705934
O O13 0.986947 0.294192 0.948620
O O14 0.593584 0.181141 0.123923
O O15 0.917675 0.756101 0.825407
O O16 0.912100 0.219083 0.146267
O O17 0.500000 0.500000 0.000000
#
# Coordination Sequence:
#
# PCOD9100107 Si02
#       8
#     2   2   2   2   2   2   2   2
#     4  11  24  41  62  93 137 170 205 256 315 388
#     4  12  23  39  67  95 125 172 213 253 315 376
#     4  10  21  45  67  89 125 162 214 273 310 366
#     4  10  22  44  67  94 124 164 213 272 308 364
#     4  10  21  36  64  94 122 156 214 258 306 366
#     4  11  25  42  62  94 130 168 209 259 318 380
#     4  10  23  40  62  92 131 167 208 253 325 375
#     4  10  20  37  62  94 127 168 211 258 305 370
#
# _framework density 24.396239000000001
#
# number of rings (size 3 to 8) (size 9 to 14) (size 15 to 20)
#    0.000    1.500    2.500    3.375    1.750    4.000 
#    0.000    0.625    0.000    0.000    0.000    0.000 
#    0.000    0.000    0.000    0.000    0.000    0.000 
#
# Total GULP energy -89202.760724 kJ/mol
# GULP energy per Si atom -5575.172545 kJ/mol
# Density = 2.434071 g / cm^3
# Si number density = 24.396239 Si / 1000 Ang^3
#
#
#
# Elastic Constant Matrix: (Units=GPa)
#
#
# Indices 1 2 3 4 5 6 
#
# 1 91.6753 25.0760 25.4533 14.8211 -0.1631 -14.0699
# 2 25.0760 129.5485 41.9845 11.9271 0.7738 -13.2680
# 3 25.4533 41.9845 66.3364 18.1959 8.4765 -4.0692
# 4 14.8211 11.9271 18.1959 47.1104 -2.8354 5.2268
# 5 -0.1631 0.7738 8.4765 -2.8354 32.3547 7.4669
# 6 -14.0699 -13.2680 -4.0692 5.2268 7.4669 33.1467
#
#
#
# Elastic Compliance Matrix: (Units=1/GPa)
#
#
# Indices 1 2 3 4 5 6 
#
# 1 0.013453 -0.000590 -0.003408 -0.003444 -0.000653 0.005746
# 2 -0.000590 0.010100 -0.005959 -0.000365 0.000596 0.002984
# 3 -0.003408 -0.005959 0.023031 -0.006911 -0.006892 0.001638
# 4 -0.003444 -0.000365 -0.006911 0.026311 0.005941 -0.007943
# 5 -0.000653 0.000596 -0.006892 0.005941 0.035481 -0.009814
# 6 0.005746 0.002984 0.001638 -0.007943 -0.009814 0.037467
#
#
# Mechanical properties :
#
#
# Convention : Reuss Voigt Hill
#
# Bulk Modulus (GPa) = 37.49575 52.50976 45.00275
# Shear Modulus (GPa) = 28.62918 35.52543 32.07731
#
# Velocity S-wave (km/s) = 3.42937 3.82014 3.63002
# Velocity P-wave (km/s) = 5.57527 6.40534 6.00466
#
# Compressibility (1/GPa) = 0.02666969
#
# Stress axis : x y z
#
# Youngs Moduli (GPa) = 74.33216 99.00756 43.42047
#
# Poissons Ratio (x) = 0.05843 0.14798
# Poissons Ratio (y) = 0.04387 0.25874
# Poissons Ratio (z) = 0.25332 0.58998
#
# Static dielectric constant tensor:
#      x y z
#    x 1.989540 0.062420 0.001820 
#    y 0.062420 1.981000 0.016370 
#    z 0.001820 0.016370 2.048590 
# 
# From -- ./inp_files/522337.got.cif
#   From: 2010.05.17/outbox.cif.g08.bks.cpg/sg2_262_cif.got.tgz:522337.got - 2010.06.03 11:33:40.
