data_PCOD9100678
_publ_section_title
;
Structure prediction by ZEFSAII (Michael W. Deem and Ramdas Pophale) SiO2 
 PCOD9100678
Probable space group: P -1
;
_chemical_formula_sum "Si O2"
_cell_formula_units_Z 14
_cell_length_a 19.145364
_cell_length_b 12.853932
_cell_length_c 7.986512
_cell_angle_alpha 39.998607
_cell_angle_beta 145.865908
_cell_angle_gamma 150.075740
_cell_volume 541.784692
_symmetry_space_group_name_H-M "P -1"
_symmetry_group_IT_number 2
_symmetry_cell_setting 'triclinic'
loop_
_space_group_symop_operation_xyz
x,y,z
-x,-y,-z
loop_
_atom_site_type_symbol
_atom_site_label
_atom_site_fract_x
_atom_site_fract_y
_atom_site_fract_z
Si Si1 0.489496 0.299317 0.249056
Si Si2 0.303509 0.541938 0.849165
Si Si3 0.202555 0.086119 0.151379
Si Si4 0.357880 0.810717 0.074017
Si Si5 0.622101 0.841936 0.246845
Si Si6 0.983324 0.394155 0.274787
Si Si7 0.079614 0.030850 0.441125
O O1 0.576032 0.304937 0.250391
O O2 0.304724 0.103612 0.175494
O O3 0.591678 0.313137 0.588872
O O4 0.500000 0.500000 0.000000
O O5 0.147562 0.524846 0.550190
O O6 0.249305 0.313673 0.986496
O O7 0.430980 0.644013 0.129104
O O8 0.276956 0.073765 0.481969
O O9 0.012055 0.927888 0.923987
O O10 0.164498 0.652704 0.852666
O O11 0.500000 0.000000 0.000000
O O12 0.363660 0.963182 0.032193
O O13 0.724802 0.802120 0.387698
O O14 0.958943 0.186086 0.423890
O O15 0.000000 0.500000 0.000000
O O16 0.000000 0.000000 0.500000
#
# Coordination Sequence:
#
# PCOD9100678 Si02
#       7
#     2   2   2   2   2   2   2
#     4  10  20  37  65  90 123 174 221 259 324 392
#     4  10  21  38  63  92 125 173 220 260 319 399
#     4  10  20  38  62  89 134 171 212 263 329 389
#     4  11  22  41  65  92 132 169 219 277 334 376
#     4  11  22  38  63  96 131 169 214 277 328 379
#     4  10  21  42  65  91 130 178 216 265 328 397
#     4  10  22  40  63  97 128 167 224 274 320 387
#
# _framework density 25.840522
#
# number of rings (size 3 to 8) (size 9 to 14) (size 15 to 20)
#    0.000    1.714    2.857    1.714    0.000    1.714 
#    2.571    0.714    0.000    0.000    0.000    0.000 
#    0.000    0.000    0.000    0.000    0.000    0.000 
#
# Total GULP energy -78102.302589 kJ/mol
# GULP energy per Si atom -5578.735899 kJ/mol
# Density = 2.578171 g / cm^3
# Si number density = 25.840522 Si / 1000 Ang^3
#
#
#
# Elastic Constant Matrix: (Units=GPa)
#
#
# Indices 1 2 3 4 5 6 
#
# 1 96.7097 19.2496 54.0354 5.7235 -1.8032 27.4548
# 2 19.2496 54.0537 59.4338 16.3727 8.2136 17.2365
# 3 54.0354 59.4338 205.9060 24.2689 23.6384 23.9125
# 4 5.7235 16.3727 24.2689 44.8329 14.6086 2.0979
# 5 -1.8032 8.2136 23.6384 14.6086 44.4105 9.5008
# 6 27.4548 17.2365 23.9125 2.0979 9.5008 31.2210
#
#
#
# Elastic Compliance Matrix: (Units=1/GPa)
#
#
# Indices 1 2 3 4 5 6 
#
# 1 0.016340 0.002874 -0.003830 -0.002360 0.006095 -0.014718
# 2 0.002874 0.033253 -0.008016 -0.008906 0.004481 -0.015512
# 3 -0.003830 -0.008016 0.008298 -0.000012 -0.003630 0.002543
# 4 -0.002360 -0.008906 -0.000012 0.028607 -0.009561 0.007988
# 5 0.006095 0.004481 -0.003630 -0.009561 0.029904 -0.013511
# 6 -0.014718 -0.015512 0.002543 0.007988 -0.013511 0.055163
#
#
# Mechanical properties :
#
#
# Convention : Reuss Voigt Hill
#
# Bulk Modulus (GPa) = 25.03268 69.12301 47.07785
# Shear Modulus (GPa) = 24.65179 39.02290 31.83734
#
# Velocity S-wave (km/s) = 3.09204 3.89027 3.51389
# Velocity P-wave (km/s) = 4.73877 6.85470 5.89249
#
# Compressibility (1/GPa) = 0.03994777
#
# Stress axis : x y z
#
# Youngs Moduli (GPa) = 61.20041 30.07203 120.50737
#
# Poissons Ratio (x) = -0.08643 0.46154
# Poissons Ratio (y) = -0.17590 0.96599
# Poissons Ratio (z) = 0.23439 0.24106
#
# Static dielectric constant tensor:
#      x y z
#    x 2.168720 0.007680 -0.022030 
#    y 0.007680 2.125020 0.110430 
#    z -0.022030 0.110430 2.136000 
# 
# From -- ./inp_files/347154.got.cif
#   From: 2010.05.17/outbox.cif.g08.bks.cpg/sg2_174_cif.got.tgz:347154.got - 2010.06.03 11:33:40.
