data_PCOD9100414
_publ_section_title
;
Structure prediction by ZEFSAII (Michael W. Deem and Ramdas Pophale) SiO2 
 PCOD9100414
Probable space group: P -1
;
_chemical_formula_sum "Si O2"
_cell_formula_units_Z 14
_cell_length_a 8.181096
_cell_length_b 11.739593
_cell_length_c 13.193585
_cell_angle_alpha 46.432703
_cell_angle_beta 90.456323
_cell_angle_gamma 124.906502
_cell_volume 571.982504
_symmetry_space_group_name_H-M "P -1"
_symmetry_group_IT_number 2
_symmetry_cell_setting 'triclinic'
loop_
_space_group_symop_operation_xyz
x,y,z
-x,-y,-z
loop_
_atom_site_type_symbol
_atom_site_label
_atom_site_fract_x
_atom_site_fract_y
_atom_site_fract_z
Si Si1 0.150795 0.022339 0.715024
Si Si2 0.535295 0.003848 0.378994
Si Si3 0.889844 0.540283 0.102814
Si Si4 0.411419 0.800929 0.037400
Si Si5 0.385613 0.234520 0.795268
Si Si6 0.883966 0.660855 0.238964
Si Si7 0.865944 0.137628 0.679506
O O1 0.301688 0.031072 0.626977
O O2 0.362487 0.183311 0.709146
O O3 0.022441 0.101211 0.660217
O O4 0.920780 0.732654 0.932352
O O5 0.730102 0.300145 0.181808
O O6 0.500000 0.000000 0.500000
O O7 0.271958 0.849028 0.409053
O O8 0.792459 0.487415 0.251453
O O9 0.175399 0.689135 0.041073
O O10 0.619500 0.899109 0.895322
O O11 0.362670 0.626288 0.224900
O O12 0.500000 0.000000 0.000000
O O13 0.339970 0.381896 0.717840
O O14 0.133685 0.950870 0.017214
O O15 0.964306 0.658554 0.351638
#
# Coordination Sequence:
#
# PCOD9100414 Si02
#       7
#     2   2   2   2   2   2   2
#     4  10  20  38  64  88 111 148 200 237 286 351
#     4  12  27  43  54  77 123 166 196 236 282 336
#     4  11  20  35  60  95 117 141 196 238 285 353
#     4  11  15  28  60  95 120 139 176 243 305 334
#     4   8  14  27  53  90 116 135 170 238 303 329
#     4   8  15  30  55  87 111 139 183 234 284 348
#     4  10  20  37  64  85 117 152 186 238 300 336
#
# _framework density 24.47627
#
# number of rings (size 3 to 8) (size 9 to 14) (size 15 to 20)
#    0.000    2.000    5.714    3.000    0.000    1.143 
#    2.571    0.714    0.000    1.714    0.000    0.000 
#    0.000    0.000    0.000    0.000    0.000    0.000 
#
# Total GULP energy -77995.615968 kJ/mol
# GULP energy per Si atom -5571.115426 kJ/mol
# Density = 2.442056 g / cm^3
# Si number density = 24.476270 Si / 1000 Ang^3
#
#
#
# Elastic Constant Matrix: (Units=GPa)
#
#
# Indices 1 2 3 4 5 6 
#
# 1 136.4752 59.1368 43.7565 17.2358 -13.3320 -15.2115
# 2 59.1368 125.9156 37.0142 23.3069 -5.5978 -19.9462
# 3 43.7565 37.0142 71.2216 14.1696 -2.1738 -12.0630
# 4 17.2358 23.3069 14.1696 40.1254 -5.0547 -6.2831
# 5 -13.3320 -5.5978 -2.1738 -5.0547 30.5981 13.4032
# 6 -15.2115 -19.9462 -12.0630 -6.2831 13.4032 40.9075
#
#
#
# Elastic Compliance Matrix: (Units=1/GPa)
#
#
# Indices 1 2 3 4 5 6 
#
# 1 0.010703 -0.003463 -0.004620 -0.000539 0.003785 -0.000394
# 2 -0.003463 0.011534 -0.002523 -0.003989 -0.001800 0.003569
# 3 -0.004620 -0.002523 0.019291 -0.003240 -0.003061 0.003246
# 4 -0.000539 -0.003989 -0.003240 0.029091 0.003517 0.000215
# 5 0.003785 -0.001800 -0.003061 0.003517 0.040038 -0.012951
# 6 -0.000394 0.003569 0.003246 0.000215 -0.012951 0.031273
#
#
# Mechanical properties :
#
#
# Convention : Reuss Voigt Hill
#
# Bulk Modulus (GPa) = 49.22340 68.15860 58.69100
# Shear Modulus (GPa) = 29.42655 35.23984 32.33320
#
# Velocity S-wave (km/s) = 3.47111 3.79853 3.63850
# Velocity P-wave (km/s) = 6.01823 6.86627 6.45619
#
# Compressibility (1/GPa) = 0.02031554
#
# Stress axis : x y z
#
# Youngs Moduli (GPa) = 93.43098 86.70265 51.83706
#
# Poissons Ratio (x) = 0.30025 0.23948
# Poissons Ratio (y) = 0.32355 0.13081
# Poissons Ratio (z) = 0.43163 0.21879
#
# Static dielectric constant tensor:
#      x y z
#    x 2.033410 0.018080 0.011710 
#    y 0.018080 1.946930 -0.100990 
#    z 0.011710 -0.100990 2.161930 
# 
# From -- ./inp_files/392357.got.cif
#   From: 2010.05.17/outbox.cif.g08.bks.cpg/sg2_197_cif.got.tgz:392357.got - 2010.06.03 11:33:40.
