data_PCOD9100616
_publ_section_title
;
Structure prediction by ZEFSAII (Michael W. Deem and Ramdas Pophale) SiO2 
 PCOD9100616
Probable space group: P -1
;
_chemical_formula_sum "Si O2"
_cell_formula_units_Z 16
_cell_length_a 20.928916
_cell_length_b 11.969648
_cell_length_c 11.611830
_cell_angle_alpha 43.846058
_cell_angle_beta 148.672291
_cell_angle_gamma 150.547018
_cell_volume 740.763242
_symmetry_space_group_name_H-M "P -1"
_symmetry_group_IT_number 2
_symmetry_cell_setting 'triclinic'
loop_
_space_group_symop_operation_xyz
x,y,z
-x,-y,-z
loop_
_atom_site_type_symbol
_atom_site_label
_atom_site_fract_x
_atom_site_fract_y
_atom_site_fract_z
Si Si1 0.551007 0.193754 0.017517
Si Si2 0.317890 0.399948 0.242478
Si Si3 0.627787 0.769944 0.975288
Si Si4 0.776461 0.671139 0.601748
Si Si5 0.385084 0.846804 0.605558
Si Si6 0.616620 0.779266 0.694706
Si Si7 0.086955 0.472892 0.252248
Si Si8 0.816834 0.019277 0.298012
O O1 0.654413 0.240488 0.258119
O O2 0.646392 0.418255 0.922516
O O3 0.365589 0.084348 0.859398
O O4 0.500000 0.000000 0.000000
O O5 0.500000 0.500000 0.500000
O O6 0.211999 0.356753 0.224087
O O7 0.262263 0.194788 0.232346
O O8 0.529405 0.850295 0.784041
O O9 0.693578 0.832631 0.900205
O O10 0.500000 0.500000 0.000000
O O11 0.776336 0.897837 0.203548
O O12 0.568838 0.486285 0.391520
O O13 0.841281 0.606602 0.655073
O O14 0.868598 0.927351 0.532879
O O15 0.236491 0.693153 0.394726
O O16 0.431560 0.079374 0.509377
O O17 0.950241 0.281581 0.277714
O O18 0.000000 0.500000 0.000000
#
# Coordination Sequence:
#
# PCOD9100616 Si02
#       8
#     2   2   2   2   2   2   2   2
#     4  11  22  40  71 102 126 164 218 279 324 382
#     4  10  20  37  64  99 125 162 210 272 328 380
#     4  11  19  36  63  97 124 158 222 279 323 370
#     4  11  22  40  65  92 128 169 214 267 327 388
#     4  11  24  38  64  98 129 173 214 272 327 377
#     4  11  19  36  63  93 130 154 219 273 320 380
#     4  12  27  43  62  93 138 176 214 263 327 394
#     4  11  23  40  65  95 126 172 211 259 337 390
#
# _framework density 21.599343999999999
#
# number of rings (size 3 to 8) (size 9 to 14) (size 15 to 20)
#    0.000    1.000    5.000    3.750    5.250    0.000 
#    0.000    1.875    0.000    3.750    0.000    0.000 
#    0.000    0.000    0.000    0.000    0.000    0.000 
#
# Total GULP energy -89324.827029 kJ/mol
# GULP energy per Si atom -5582.801689 kJ/mol
# Density = 2.155018 g / cm^3
# Si number density = 21.599344 Si / 1000 Ang^3
#
#
#
# Elastic Constant Matrix: (Units=GPa)
#
#
# Indices 1 2 3 4 5 6 
#
# 1 119.9453 29.6164 40.9981 -11.2801 -33.4230 -10.1744
# 2 29.6164 71.4091 23.9192 -26.8125 -1.4718 -0.0352
# 3 40.9981 23.9192 70.8339 -19.5725 -23.5474 0.8840
# 4 -11.2801 -26.8125 -19.5725 29.5411 1.6890 -1.7049
# 5 -33.4230 -1.4718 -23.5474 1.6890 35.2612 -6.9549
# 6 -10.1744 -0.0352 0.8840 -1.7049 -6.9549 34.3632
#
#
#
# Elastic Compliance Matrix: (Units=1/GPa)
#
#
# Indices 1 2 3 4 5 6 
#
# 1 0.014869 -0.005538 -0.002764 -0.001541 0.013496 0.007123
# 2 -0.005538 0.023723 -0.001985 0.018377 -0.006868 -0.002043
# 3 -0.002764 -0.001985 0.024237 0.012550 0.013248 0.001860
# 4 -0.001541 0.018377 0.012550 0.058127 0.005544 0.003246
# 5 0.013496 -0.006868 0.013248 0.005544 0.052308 0.014510
# 6 0.007123 -0.002043 0.001860 0.003246 0.014510 0.034258
#
#
# Mechanical properties :
#
#
# Convention : Reuss Voigt Hill
#
# Bulk Modulus (GPa) = 23.66671 50.13953 36.90312
# Shear Modulus (GPa) = 20.64560 31.01007 25.82783
#
# Velocity S-wave (km/s) = 3.09503 3.79317 3.46174
# Velocity P-wave (km/s) = 4.87372 6.51521 5.75331
#
# Compressibility (1/GPa) = 0.04225344
#
# Stress axis : x y z
#
# Youngs Moduli (GPa) = 67.25251 42.15317 41.26004
#
# Poissons Ratio (x) = 0.23343 0.11406
# Poissons Ratio (y) = 0.37243 0.08192
# Poissons Ratio (z) = 0.18592 0.08369
#
# Static dielectric constant tensor:
#      x y z
#    x 1.863190 0.001620 0.022680 
#    y 0.001620 1.841270 -0.010270 
#    z 0.022680 -0.010270 1.812440 
# 
# From -- ./inp_files/283294.got.cif
#   From: 2010.05.17/outbox.cif.g08.bks.cpg/sg2_142_cif.got.tgz:283294.got - 2010.06.03 11:33:40.
