data_PCOD9100200
_publ_section_title
;
Structure prediction by ZEFSAII (Michael W. Deem and Ramdas Pophale) SiO2 
 PCOD9100200
Probable space group: P -1
;
_chemical_formula_sum "Si O2"
_cell_formula_units_Z 16
_cell_length_a 13.482322
_cell_length_b 18.104489
_cell_length_c 8.813628
_cell_angle_alpha 68.468310
_cell_angle_beta 108.940068
_cell_angle_gamma 158.151501
_cell_volume 743.947798
_symmetry_space_group_name_H-M "P -1"
_symmetry_group_IT_number 2
_symmetry_cell_setting 'triclinic'
loop_
_space_group_symop_operation_xyz
x,y,z
-x,-y,-z
loop_
_atom_site_type_symbol
_atom_site_label
_atom_site_fract_x
_atom_site_fract_y
_atom_site_fract_z
Si Si1 0.840366 0.653210 0.662916
Si Si2 0.542805 0.333553 0.181646
Si Si3 0.943490 0.311806 0.037224
Si Si4 0.221984 0.081149 0.920850
Si Si5 0.477057 0.857934 0.112538
Si Si6 0.404369 0.129026 0.538800
Si Si7 0.284085 0.302517 0.213421
Si Si8 0.339874 0.253173 0.566053
O O1 0.702743 0.600827 0.780512
O O2 0.619278 0.493744 0.544440
O O3 0.111592 0.884954 0.569419
O O4 0.925777 0.626358 0.787047
O O5 0.510262 0.235456 0.351889
O O6 0.506486 0.394811 0.198289
O O7 0.823029 0.523068 0.093768
O O8 0.305868 0.162393 0.069022
O O9 0.775739 0.275600 0.985612
O O10 0.728429 0.093446 0.053192
O O11 0.429176 0.156907 0.912759
O O12 0.234756 0.165811 0.749361
O O13 0.931941 0.844356 0.916751
O O14 0.432797 0.812285 0.305908
O O15 0.389401 0.200495 0.569173
O O16 0.182977 0.188306 0.404334
#
# Coordination Sequence:
#
# PCOD9100200 Si02
#       8
#     2   2   2   2   2   2   2   2
#     4  11  20  40  64  89 119 166 215 234 298 377
#     4  11  24  37  59  94 129 155 194 259 314 352
#     4  10  20  40  64  90 118 154 214 251 301 356
#     4  11  20  40  60  92 121 163 204 248 306 358
#     4   9  20  41  70  81 115 169 203 253 295 363
#     4   9  21  41  61  89 125 159 200 255 301 359
#     4  11  22  39  58  89 130 163 193 255 302 364
#     4  10  20  37  63  87 118 166 211 241 289 374
#
# _framework density 21.506885
#
# number of rings (size 3 to 8) (size 9 to 14) (size 15 to 20)
#    0.000    1.750    5.000    1.125    1.750    1.500 
#    4.500    0.000    0.000    2.250    0.000    0.000 
#    0.000    0.000    0.000    0.000    0.000    0.000 
#
# Total GULP energy -89182.672873 kJ/mol
# GULP energy per Si atom -5573.917055 kJ/mol
# Density = 2.145793 g / cm^3
# Si number density = 21.506885 Si / 1000 Ang^3
#
#
#
# Elastic Constant Matrix: (Units=GPa)
#
#
# Indices 1 2 3 4 5 6 
#
# 1 58.3105 22.4497 21.1973 10.5805 13.5453 15.8912
# 2 22.4497 68.8225 23.8375 -1.6432 0.1415 -4.4350
# 3 21.1973 23.8375 117.0935 -7.4164 3.9691 3.2568
# 4 10.5805 -1.6432 -7.4164 29.2559 -2.3245 -6.2278
# 5 13.5453 0.1415 3.9691 -2.3245 26.6533 6.3005
# 6 15.8912 -4.4350 3.2568 -6.2278 6.3005 30.0650
#
#
#
# Elastic Compliance Matrix: (Units=1/GPa)
#
#
# Indices 1 2 3 4 5 6 
#
# 1 0.036629 -0.012331 -0.004339 -0.020875 -0.014526 -0.021990
# 2 -0.012331 0.020012 -0.001799 0.007687 0.004669 0.010278
# 3 -0.004339 -0.001799 0.009898 0.004400 0.000718 0.001717
# 4 -0.020875 0.007687 0.004400 0.048223 0.009462 0.019697
# 5 -0.014526 0.004669 0.000718 0.009462 0.045422 0.000730
# 6 -0.021990 0.010278 0.001717 0.019697 0.000730 0.050142
#
#
# Mechanical properties :
#
#
# Convention : Reuss Voigt Hill
#
# Bulk Modulus (GPa) = 33.78170 42.13284 37.95727
# Shear Modulus (GPa) = 19.44535 28.97766 24.21150
#
# Velocity S-wave (km/s) = 3.01016 3.67463 3.35887
# Velocity P-wave (km/s) = 5.27474 6.13489 5.72100
#
# Compressibility (1/GPa) = 0.02960183
#
# Stress axis : x y z
#
# Youngs Moduli (GPa) = 27.30048 49.97023 101.02619
#
# Poissons Ratio (x) = 0.61619 0.43833
# Poissons Ratio (y) = 0.33665 0.18174
# Poissons Ratio (z) = 0.11845 0.08989
#
# Static dielectric constant tensor:
#      x y z
#    x 1.795240 -0.028370 0.040180 
#    y -0.028370 1.834520 -0.035670 
#    z 0.040180 -0.035670 1.860100 
# 
# From -- ./inp_files/318942.got.cif
#   From: 2010.05.17/outbox.cif.g08.bks.cpg/sg2_160_cif.got.tgz:318942.got - 2010.06.03 11:33:40.
