data_PCOD9100173
_publ_section_title
;
Structure prediction by ZEFSAII (Michael W. Deem and Ramdas Pophale) SiO2 
 PCOD9100173
Probable space group: P -1
;
_chemical_formula_sum "Si O2"
_cell_formula_units_Z 16
_cell_length_a 7.178281
_cell_length_b 22.934175
_cell_length_c 6.604833
_cell_angle_alpha 70.747266
_cell_angle_beta 68.116421
_cell_angle_gamma 120.329180
_cell_volume 664.292919
_symmetry_space_group_name_H-M "P -1"
_symmetry_group_IT_number 2
_symmetry_cell_setting 'triclinic'
loop_
_space_group_symop_operation_xyz
x,y,z
-x,-y,-z
loop_
_atom_site_type_symbol
_atom_site_label
_atom_site_fract_x
_atom_site_fract_y
_atom_site_fract_z
Si Si1 0.803657 0.908113 0.802331
Si Si2 0.792769 0.314845 0.782071
Si Si3 0.799458 0.532725 0.872335
Si Si4 0.398472 0.924289 0.911518
Si Si5 0.396072 0.201771 0.680956
Si Si6 0.225659 0.796460 0.776415
Si Si7 0.922242 0.130951 0.511223
Si Si8 0.304079 0.634683 0.848908
O O1 0.566576 0.905310 0.978267
O O2 0.827620 0.859135 0.678746
O O3 0.886288 0.890568 0.995293
O O4 0.000000 0.000000 0.500000
O O5 0.587900 0.245281 0.763857
O O6 0.024972 0.407423 0.464991
O O7 0.893215 0.278852 0.922745
O O8 0.659365 0.331089 0.982121
O O9 0.009806 0.595245 0.905311
O O10 0.500000 0.500000 0.000000
O O11 0.729460 0.445458 0.030903
O O12 0.343120 0.877698 0.776418
O O13 0.619039 0.030040 0.687387
O O14 0.126034 0.876209 0.221298
O O15 0.543287 0.190312 0.467213
O O16 0.442631 0.281212 0.488236
O O17 0.038223 0.793508 0.694210
#
# Coordination Sequence:
#
# PCOD9100173 Si02
#       8
#     2   2   2   2   2   2   2   2
#     4  10  20  38  58  82 118 161 204 260 316 365
#     4  10  20  37  63  85 122 167 195 251 323 368
#     4  10  21  39  62  96 126 158 208 258 305 383
#     4  10  20  39  56  77 120 158 197 265 319 364
#     4  10  20  39  61  83 121 166 205 258 317 377
#     4  11  19  36  61  82 113 159 204 252 314 374
#     4  10  21  35  56  84 113 154 210 259 313 377
#     4   9  21  39  64  89 125 171 204 248 326 376
#
# _framework density 24.085757999999998
#
# number of rings (size 3 to 8) (size 9 to 14) (size 15 to 20)
#    0.000    2.000    2.500    0.750    0.000    1.500 
#    2.250    6.250    0.000    0.000    0.000    0.000 
#    0.000    0.000    0.000    0.000    0.000    0.000 
#
# Total GULP energy -89111.370213 kJ/mol
# GULP energy per Si atom -5569.460638 kJ/mol
# Density = 2.403094 g / cm^3
# Si number density = 24.085758 Si / 1000 Ang^3
#
#
#
# Elastic Constant Matrix: (Units=GPa)
#
#
# Indices 1 2 3 4 5 6 
#
# 1 60.3207 8.4033 36.5005 7.4598 27.9635 1.2371
# 2 8.4033 83.4419 48.5098 12.0974 5.5518 -0.6277
# 3 36.5005 48.5098 179.0515 1.0264 37.3441 -5.4762
# 4 7.4598 12.0974 1.0264 41.5462 -7.0925 -0.9795
# 5 27.9635 5.5518 37.3441 -7.0925 43.0485 -2.4364
# 6 1.2371 -0.6277 -5.4762 -0.9795 -2.4364 26.1717
#
#
#
# Elastic Compliance Matrix: (Units=1/GPa)
#
#
# Indices 1 2 3 4 5 6 
#
# 1 0.026793 0.000844 -0.002178 -0.008015 -0.017148 -0.003598
# 2 0.000844 0.015016 -0.004348 -0.004342 0.000532 -0.000702
# 3 -0.002178 -0.004348 0.008295 0.000621 -0.005045 0.001288
# 4 -0.008015 -0.004342 0.000621 0.028533 0.010065 0.002409
# 5 -0.017148 0.000532 -0.005045 0.010065 0.040556 0.003920
# 6 -0.003598 -0.000702 0.001288 0.002409 0.003920 0.039087
#
#
# Mechanical properties :
#
#
# Convention : Reuss Voigt Hill
#
# Bulk Modulus (GPa) = 25.81341 56.62681 41.22011
# Shear Modulus (GPa) = 27.38875 37.44665 32.41770
#
# Velocity S-wave (km/s) = 3.37580 3.94727 3.67267
# Velocity P-wave (km/s) = 5.09267 6.65854 5.92754
#
# Compressibility (1/GPa) = 0.03873956
#
# Stress axis : x y z
#
# Youngs Moduli (GPa) = 37.32351 66.59624 120.55518
#
# Poissons Ratio (x) = -0.05620 0.26259
# Poissons Ratio (y) = -0.03150 0.52414
# Poissons Ratio (z) = 0.08130 0.28954
#
# Static dielectric constant tensor:
#      x y z
#    x 19.561580 -13.183360 18.853450 
#    y -13.183360 12.108930 -14.449430 
#    z 18.853450 -14.449430 22.460030 
# 
# From -- ./inp_files/54770.got.cif
#   From: 2010.05.17/outbox.cif.g08.bks.cpg/sg2_28_cif.got.tgz:54770.got - 2010.06.03 11:33:40.
