data_PCOD9100517
_publ_section_title
;
Structure prediction by ZEFSAII (Michael W. Deem and Ramdas Pophale) SiO2 
 PCOD9100517
Probable space group: P -1
;
_chemical_formula_sum "Si O2"
_cell_formula_units_Z 16
_cell_length_a 11.542684
_cell_length_b 11.575217
_cell_length_c 13.503252
_cell_angle_alpha 77.370224
_cell_angle_beta 135.423603
_cell_angle_gamma 65.259256
_cell_volume 673.317391
_symmetry_space_group_name_H-M "P -1"
_symmetry_group_IT_number 2
_symmetry_cell_setting 'triclinic'
loop_
_space_group_symop_operation_xyz
x,y,z
-x,-y,-z
loop_
_atom_site_type_symbol
_atom_site_label
_atom_site_fract_x
_atom_site_fract_y
_atom_site_fract_z
Si Si1 0.587083 0.519826 0.645599
Si Si2 0.910504 0.989233 0.191445
Si Si3 0.472901 0.902531 0.237953
Si Si4 0.505897 0.106432 0.084822
Si Si5 0.927164 0.447744 0.547734
Si Si6 0.573546 0.417818 0.853988
Si Si7 0.822805 0.746241 0.871155
Si Si8 0.729558 0.578797 0.955943
O O1 0.500000 0.500000 0.500000
O O2 0.689868 0.366815 0.822281
O O3 0.879341 0.428637 0.840179
O O4 0.271177 0.764190 0.445303
O O5 0.759235 0.016600 0.188889
O O6 0.792210 0.194846 0.082663
O O7 0.770798 0.010433 0.002738
O O8 0.705118 0.656219 0.444711
O O9 0.592817 0.946227 0.241264
O O10 0.354021 0.031674 0.242603
O O11 0.336093 0.312429 0.004386
O O12 0.230835 0.225465 0.826616
O O13 0.742384 0.457204 0.379255
O O14 0.000000 0.500000 0.500000
O O15 0.551510 0.562077 0.856989
O O16 0.649686 0.730376 0.798968
O O17 0.952710 0.657992 0.855716
#
# Coordination Sequence:
#
# PCOD9100517 Si02
#       8
#     2   2   2   2   2   2   2   2
#     4  11  22  38  64  92 121 161 206 257 306 360
#     4  11  22  37  60  99 124 155 207 257 315 356
#     4  10  20  37  64  92 124 160 201 263 303 359
#     4  11  22  39  66  91 125 164 206 249 309 373
#     4  11  22  38  62  99 123 157 204 257 310 361
#     4  10  23  41  59  91 131 155 203 259 304 363
#     4   9  19  42  63  87 124 163 213 247 305 367
#     4   9  21  42  64  83 127 175 192 253 313 363
#
# _framework density 23.762938999999999
#
# number of rings (size 3 to 8) (size 9 to 14) (size 15 to 20)
#    0.000    1.750    3.750    1.125    3.500    1.000 
#    2.250   10.000    0.000    0.000    0.000    0.000 
#    0.000    0.000    0.000    0.000    0.000    0.000 
#
# Total GULP energy -89266.837687 kJ/mol
# GULP energy per Si atom -5579.177355 kJ/mol
# Density = 2.370885 g / cm^3
# Si number density = 23.762939 Si / 1000 Ang^3
#
#
#
# Elastic Constant Matrix: (Units=GPa)
#
#
# Indices 1 2 3 4 5 6 
#
# 1 59.3171 34.0388 24.6616 1.1561 11.3218 18.6285
# 2 34.0388 129.9271 26.6182 -5.4359 16.0766 14.2734
# 3 24.6616 26.6182 92.0888 -26.4037 13.1443 10.6129
# 4 1.1561 -5.4359 -26.4037 28.9216 -2.9326 5.8874
# 5 11.3218 16.0766 13.1443 -2.9326 27.2905 0.3972
# 6 18.6285 14.2734 10.6129 5.8874 0.3972 49.6323
#
#
#
# Elastic Compliance Matrix: (Units=1/GPa)
#
#
# Indices 1 2 3 4 5 6 
#
# 1 0.024761 -0.004217 -0.005734 -0.006354 -0.005621 -0.006056
# 2 -0.004217 0.009533 -0.000649 0.001255 -0.003402 -0.001142
# 3 -0.005734 -0.000649 0.018607 0.017408 -0.004277 -0.003671
# 4 -0.006354 0.001255 0.017408 0.052496 -0.000731 -0.007920
# 5 -0.005621 -0.003402 -0.004277 -0.000731 0.042906 0.003746
# 6 -0.006056 -0.001142 -0.003671 -0.007920 0.003746 0.024444
#
#
# Mechanical properties :
#
#
# Convention : Reuss Voigt Hill
#
# Bulk Modulus (GPa) = 31.54473 50.21890 40.88181
# Shear Modulus (GPa) = 24.44815 34.23650 29.34233
#
# Velocity S-wave (km/s) = 3.21103 3.79984 3.51778
# Velocity P-wave (km/s) = 5.20107 6.35853 5.80870
#
# Compressibility (1/GPa) = 0.03170102
#
# Stress axis : x y z
#
# Youngs Moduli (GPa) = 40.38603 104.89437 53.74375
#
# Poissons Ratio (x) = 0.44238 0.30815
# Poissons Ratio (y) = 0.17032 0.03489
# Poissons Ratio (z) = 0.23156 0.06809
#
# Static dielectric constant tensor:
#      x y z
#    x 1.994820 -0.005670 0.066220 
#    y -0.005670 1.986330 -0.006130 
#    z 0.066220 -0.006130 1.951260 
# 
# From -- ./inp_files/518914.got.cif
#   From: 2010.05.17/outbox.cif.g08.bks.cpg/sg2_260_cif.got.tgz:518914.got - 2010.06.03 11:33:40.
