data_PCOD9100055
_publ_section_title
;
Structure prediction by ZEFSAII (Michael W. Deem and Ramdas Pophale) SiO2 
 PCOD9100055
Probable space group: P -1
;
_chemical_formula_sum "Si O2"
_cell_formula_units_Z 14
_cell_length_a 26.068794
_cell_length_b 17.375306
_cell_length_c 16.721442
_cell_angle_alpha 16.804431
_cell_angle_beta 21.293320
_cell_angle_gamma 17.188363
_cell_volume 633.851192
_symmetry_space_group_name_H-M "P -1"
_symmetry_group_IT_number 2
_symmetry_cell_setting 'triclinic'
loop_
_space_group_symop_operation_xyz
x,y,z
-x,-y,-z
loop_
_atom_site_type_symbol
_atom_site_label
_atom_site_fract_x
_atom_site_fract_y
_atom_site_fract_z
Si Si1 0.627015 0.150070 0.073323
Si Si2 0.695521 0.229797 0.379449
Si Si3 0.194560 0.156415 0.047938
Si Si4 0.126425 0.106116 0.709564
Si Si5 0.614502 0.072741 0.345414
Si Si6 0.713123 0.725209 0.952397
Si Si7 0.301515 0.520454 0.623155
O O1 0.698748 0.999117 0.207712
O O2 0.753064 0.963773 0.999897
O O3 0.460233 0.136659 0.321390
O O4 0.552039 0.534828 0.801300
O O5 0.741443 0.478705 0.086582
O O6 0.483447 0.437359 0.475508
O O7 0.761597 0.051331 0.376720
O O8 0.772267 0.947990 0.616900
O O9 0.324726 0.241340 0.807991
O O10 0.000000 0.500000 0.000000
O O11 0.210400 0.867127 0.364172
O O12 0.000000 0.500000 0.500000
O O13 0.252698 0.985280 0.722198
O O14 0.000000 0.000000 0.000000
O O15 0.788490 0.514499 0.133904
O O16 0.500000 0.000000 0.000000
#
# Coordination Sequence:
#
# PCOD9100055 Si02
#       7
#     2   2   2   2   2   2   2
#     4  10  21  42  69  92 120 162 226 264 309 364
#     4  11  21  39  64  90 122 168 213 253 299 372
#     4  12  24  39  59  96 128 161 202 259 329 379
#     4  12  25  41  60  96 136 164 207 258 334 387
#     4  10  22  42  69  92 119 168 218 271 301 373
#     4  10  20  37  62  92 119 152 211 254 294 366
#     4  11  22  40  64  88 122 165 210 254 299 368
#
# _framework density 22.087204
#
# number of rings (size 3 to 8) (size 9 to 14) (size 15 to 20)
#    0.000    1.143    0.000    9.000    0.000    0.000 
#    7.714    0.000    0.000    0.000    0.000    0.000 
#    0.000    0.000    0.000    0.000    0.000    0.000 
#
# Total GULP energy -78292.134340 kJ/mol
# GULP energy per Si atom -5592.295310 kJ/mol
# Density = 2.203693 g / cm^3
# Si number density = 22.087204 Si / 1000 Ang^3
#
#
#
# Elastic Constant Matrix: (Units=GPa)
#
#
# Indices 1 2 3 4 5 6 
#
# 1 81.3536 63.0745 33.0940 -8.0792 25.9207 58.0488
# 2 63.0745 38.2054 16.2260 -8.8311 18.9480 10.1029
# 3 33.0940 16.2260 128.6780 -14.8985 9.1387 2.1266
# 4 -8.0792 -8.8311 -14.8985 24.0574 7.4204 -7.1141
# 5 25.9207 18.9480 9.1387 7.4204 44.7872 -2.7642
# 6 58.0488 10.1029 2.1266 -7.1141 -2.7642 11.0954
#
#
#
# Elastic Compliance Matrix: (Units=1/GPa)
#
#
# Indices 1 2 3 4 5 6 
#
# 1 -0.003333 -0.000883 0.000974 0.004781 0.002656 0.021782
# 2 -0.000883 0.058935 -0.002619 0.015086 -0.029236 -0.046153
# 3 0.000974 -0.002619 0.008587 0.004803 -0.002115 -0.001802
# 4 0.004781 0.015086 0.004803 0.055045 -0.019824 -0.009318
# 5 0.002656 -0.029236 -0.002115 -0.019824 0.037478 0.009756
# 6 0.021782 -0.046153 -0.001802 -0.009318 0.009756 0.014996
#
#
# Mechanical properties :
#
#
# Convention : Reuss Voigt Hill
#
# Bulk Modulus (GPa) = 16.91097 52.55843 34.73470
# Shear Modulus (GPa) = 25.44845 25.04417 25.24631
#
# Velocity S-wave (km/s) = 3.39806 3.37096 3.38454
# Velocity P-wave (km/s) = 4.80300 6.24489 5.57080
#
# Compressibility (1/GPa) = 0.05913320
#
# Stress axis : x y z
#
# Youngs Moduli (GPa) = -300.04016 16.96773 116.45163
#
# Poissons Ratio (x) = 0.01498 -0.11337
# Poissons Ratio (y) = -0.26493 0.30496
# Poissons Ratio (z) = 0.29209 0.04443
#
# Static dielectric constant tensor:
#      x y z
#    x 1.819000 -0.007640 0.012990 
#    y -0.007640 1.792150 0.023550 
#    z 0.012990 0.023550 1.789300 
# 
# From -- ./inp_files/439525.got.cif
#   From: 2010.05.17/outbox.cif.g08.bks.cpg/sg2_220_cif.got.tgz:439525.got - 2010.06.03 11:33:40.
