data_PCOD9100969
_publ_section_title
;
Structure prediction by ZEFSAII (Michael W. Deem and Ramdas Pophale) SiO2 
 PCOD9100969
Probable space group: P -1
;
_chemical_formula_sum "Si O2"
_cell_formula_units_Z 14
_cell_length_a 17.702403
_cell_length_b 14.213654
_cell_length_c 8.749102
_cell_angle_alpha 142.358064
_cell_angle_beta 147.962548
_cell_angle_gamma 35.596308
_cell_volume 641.157157
_symmetry_space_group_name_H-M "P -1"
_symmetry_group_IT_number 2
_symmetry_cell_setting 'triclinic'
loop_
_space_group_symop_operation_xyz
x,y,z
-x,-y,-z
loop_
_atom_site_type_symbol
_atom_site_label
_atom_site_fract_x
_atom_site_fract_y
_atom_site_fract_z
Si Si1 0.681602 0.898220 0.232292
Si Si2 0.171608 0.934144 0.514283
Si Si3 0.222259 0.449414 0.235373
Si Si4 0.557515 0.381293 0.298036
Si Si5 0.446159 0.357285 0.772222
Si Si6 0.349408 0.025398 0.374949
Si Si7 0.966855 0.782096 0.106382
O O1 0.677907 0.890864 0.398202
O O2 0.782815 0.997728 0.473822
O O3 0.744573 0.716390 0.022137
O O4 0.500000 0.000000 0.000000
O O5 0.338356 0.814977 0.727580
O O6 0.080839 0.814252 0.219037
O O7 0.064824 0.096262 0.643187
O O8 0.329056 0.546324 0.493847
O O9 0.294002 0.382904 0.442522
O O10 0.048460 0.593107 0.075616
O O11 0.500000 0.500000 0.500000
O O12 0.427709 0.382788 0.956557
O O13 0.599407 0.176840 0.769963
O O14 0.500000 0.500000 0.000000
O O15 0.500000 0.000000 0.500000
O O16 0.199157 0.139862 0.163689
#
# Coordination Sequence:
#
# PCOD9100969 Si02
#       7
#     2   2   2   2   2   2   2
#     4  12  24  41  67 102 139 170 230 279 331 399
#     4  10  22  41  67  95 132 186 212 275 339 392
#     4  10  23  41  63  99 133 178 216 280 334 390
#     4  10  20  37  67  96 133 174 227 270 326 396
#     4  10  22  40  63  99 128 172 228 264 327 391
#     4  12  26  45  70  97 132 181 225 277 342 403
#     4  10  23  46  66  94 139 179 226 266 342 405
#
# _framework density 21.835522000000001
#
# number of rings (size 3 to 8) (size 9 to 14) (size 15 to 20)
#    0.000    1.429    2.857    1.714    6.000    1.714 
#    0.000    2.857    0.000    0.000    0.000    0.000 
#    0.000    0.000    0.000    0.000    0.000    0.000 
#
# Total GULP energy -78086.618836 kJ/mol
# GULP energy per Si atom -5577.615631 kJ/mol
# Density = 2.178582 g / cm^3
# Si number density = 21.835522 Si / 1000 Ang^3
#
#
#
# Elastic Constant Matrix: (Units=GPa)
#
#
# Indices 1 2 3 4 5 6 
#
# 1 104.4648 26.8746 45.2217 -8.5900 -0.2847 13.6520
# 2 26.8746 181.5507 59.0630 -13.0819 -9.1465 -3.6324
# 3 45.2217 59.0630 113.1066 -26.8723 -19.8614 -3.2113
# 4 -8.5900 -13.0819 -26.8723 42.5156 -4.7119 1.9158
# 5 -0.2847 -9.1465 -19.8614 -4.7119 32.9360 5.1802
# 6 13.6520 -3.6324 -3.2113 1.9158 5.1802 32.4530
#
#
#
# Elastic Compliance Matrix: (Units=1/GPa)
#
#
# Indices 1 2 3 4 5 6 
#
# 1 0.012825 -0.000317 -0.005943 -0.001336 -0.002890 -0.005478
# 2 -0.000317 0.006655 -0.003463 -0.000274 -0.000378 0.000612
# 3 -0.005943 -0.003463 0.017225 0.009716 0.010518 0.001564
# 4 -0.001336 -0.000274 0.009716 0.030556 0.010454 -0.001980
# 5 -0.002890 -0.000378 0.010518 0.010454 0.038793 -0.004595
# 6 -0.005478 0.000612 0.001564 -0.001980 -0.004595 0.034192
#
#
# Mechanical properties :
#
#
# Convention : Reuss Voigt Hill
#
# Bulk Modulus (GPa) = 57.93424 73.49344 65.71384
# Shear Modulus (GPa) = 30.22182 39.44510 34.83346
#
# Velocity S-wave (km/s) = 3.72434 4.25486 3.99841
# Velocity P-wave (km/s) = 6.71446 7.60719 7.17472
#
# Compressibility (1/GPa) = 0.01726095
#
# Stress axis : x y z
#
# Youngs Moduli (GPa) = 77.97422 150.26488 58.05413
#
# Poissons Ratio (x) = 0.04757 0.34499
# Poissons Ratio (y) = 0.02469 0.20103
# Poissons Ratio (z) = 0.46337 0.52034
#
# Static dielectric constant tensor:
#      x y z
#    x 1.886700 0.030230 0.015590 
#    y 0.030230 1.925590 0.006290 
#    z 0.015590 0.006290 1.837380 
# 
# From -- ./inp_files/347411.got.cif
#   From: 2010.05.17/outbox.cif.g08.bks.cpg/sg2_174_cif.got.tgz:347411.got - 2010.06.03 11:33:40.
