data_PCOD9100622
_publ_section_title
;
Structure prediction by ZEFSAII (Michael W. Deem and Ramdas Pophale) SiO2 
 PCOD9100622
Probable space group: P -1
;
_chemical_formula_sum "Si O2"
_cell_formula_units_Z 16
_cell_length_a 22.042801
_cell_length_b 5.098256
_cell_length_c 10.706216
_cell_angle_alpha 78.328172
_cell_angle_beta 32.987986
_cell_angle_gamma 84.934840
_cell_volume 634.012260
_symmetry_space_group_name_H-M "P -1"
_symmetry_group_IT_number 2
_symmetry_cell_setting 'triclinic'
loop_
_space_group_symop_operation_xyz
x,y,z
-x,-y,-z
loop_
_atom_site_type_symbol
_atom_site_label
_atom_site_fract_x
_atom_site_fract_y
_atom_site_fract_z
Si Si1 0.166954 0.518466 0.438014
Si Si2 0.383394 0.082783 0.241755
Si Si3 0.351085 0.973935 0.052398
Si Si4 0.969894 0.702389 0.638924
Si Si5 0.738380 0.634082 0.974850
Si Si6 0.679169 0.519177 0.486033
Si Si7 0.918991 0.720803 0.146653
Si Si8 0.494036 0.756281 0.633766
O O1 0.273002 0.729132 0.275016
O O2 0.198904 0.427897 0.255140
O O3 0.138859 0.306636 0.614558
O O4 0.056230 0.666925 0.603076
O O5 0.354358 0.181222 0.140465
O O6 0.327858 0.804508 0.440008
O O7 0.375348 0.335959 0.318779
O O8 0.500000 0.000000 0.000000
O O9 0.285241 0.062461 0.036834
O O10 0.460723 0.890089 0.808892
O O11 0.836597 0.627822 0.906008
O O12 0.000000 0.500000 0.500000
O O13 0.000000 0.000000 0.500000
O O14 0.614786 0.457344 0.202002
O O15 0.810526 0.662629 0.247044
O O16 0.601739 0.603672 0.494706
O O17 0.000000 0.500000 0.000000
O O18 0.000000 0.000000 0.000000
O O19 0.500000 0.000000 0.500000
#
# Coordination Sequence:
#
# PCOD9100622 Si02
#       8
#     2   2   2   2   2   2   2   2
#     4  10  22  41  68  98 137 174 231 298 344 412
#     4  12  23  40  76 110 139 177 243 296 355 422
#     4  11  21  40  71 103 135 180 233 295 354 412
#     4  10  20  37  65 100 133 171 225 283 341 396
#     4  10  22  41  70 102 134 181 236 288 347 417
#     4  12  26  48  71 104 145 190 236 296 360 424
#     4  12  28  47  68 101 140 186 236 290 360 423
#     4  11  27  46  65 103 149 190 233 286 357 440
#
# _framework density 25.236103
#
# number of rings (size 3 to 8) (size 9 to 14) (size 15 to 20)
#    0.000    1.000    3.750    2.625    3.500    1.500 
#    2.250    0.000    0.000    0.000    0.000    0.000 
#    0.000    0.000    0.000    0.000    0.000    0.000 
#
# Total GULP energy -89214.765203 kJ/mol
# GULP energy per Si atom -5575.922825 kJ/mol
# Density = 2.517866 g / cm^3
# Si number density = 25.236103 Si / 1000 Ang^3
#
#
#
# Elastic Constant Matrix: (Units=GPa)
#
#
# Indices 1 2 3 4 5 6 
#
# 1 116.9688 30.4651 55.5054 1.6956 -15.3163 -29.7638
# 2 30.4651 100.9460 21.0763 -9.8611 -16.8448 -6.7706
# 3 55.5054 21.0763 125.3417 -14.0374 -30.3242 -13.2796
# 4 1.6956 -9.8611 -14.0374 52.4899 -4.6508 -0.8946
# 5 -15.3163 -16.8448 -30.3242 -4.6508 46.7232 14.4394
# 6 -29.7638 -6.7706 -13.2796 -0.8946 14.4394 51.3181
#
#
#
# Elastic Compliance Matrix: (Units=1/GPa)
#
#
# Indices 1 2 3 4 5 6 
#
# 1 0.013427 -0.003139 -0.005675 -0.002670 -0.002727 0.006626
# 2 -0.003139 0.011618 0.000645 0.002811 0.004250 -0.001268
# 3 -0.005675 0.000645 0.012464 0.004269 0.007511 -0.002020
# 4 -0.002670 0.002811 0.004269 0.021265 0.005404 -0.001223
# 5 -0.002727 0.004250 0.007511 0.005404 0.029724 -0.007346
# 6 0.006626 -0.001268 -0.002020 -0.001223 -0.007346 0.024685
#
#
# Mechanical properties :
#
#
# Convention : Reuss Voigt Hill
#
# Bulk Modulus (GPa) = 47.23261 61.92778 54.58019
# Shear Modulus (GPa) = 36.60923 45.85354 41.23139
#
# Velocity S-wave (km/s) = 3.81290 4.26723 4.04645
# Velocity P-wave (km/s) = 6.17585 6.99083 6.59594
#
# Compressibility (1/GPa) = 0.02117182
#
# Stress axis : x y z
#
# Youngs Moduli (GPa) = 74.47442 86.07584 80.23146
#
# Poissons Ratio (x) = 0.27018 0.45531
# Poissons Ratio (y) = 0.23377 -0.05177
# Poissons Ratio (z) = 0.42264 -0.05554
#
# Static dielectric constant tensor:
#      x y z
#    x 2.420000 -0.092800 -0.193090 
#    y -0.092800 2.181160 0.029810 
#    z -0.193090 0.029810 2.043770 
# 
# From -- ./inp_files/473364.got.cif
#   From: 2010.05.17/outbox.cif.g08.bks.cpg/sg2_237_cif.got.tgz:473364.got - 2010.06.03 11:33:40.
