data_PCOD9100142
_publ_section_title
;
Structure prediction by ZEFSAII (Michael W. Deem and Ramdas Pophale) SiO2 
 PCOD9100142
Probable space group: P -1
;
_chemical_formula_sum "Si O2"
_cell_formula_units_Z 16
_cell_length_a 11.259841
_cell_length_b 12.004771
_cell_length_c 8.241993
_cell_angle_alpha 54.214705
_cell_angle_beta 116.136755
_cell_angle_gamma 84.746642
_cell_volume 712.022550
_symmetry_space_group_name_H-M "P -1"
_symmetry_group_IT_number 2
_symmetry_cell_setting 'triclinic'
loop_
_space_group_symop_operation_xyz
x,y,z
-x,-y,-z
loop_
_atom_site_type_symbol
_atom_site_label
_atom_site_fract_x
_atom_site_fract_y
_atom_site_fract_z
Si Si1 0.862349 0.233166 0.350387
Si Si2 0.207852 0.122828 0.601988
Si Si3 0.387243 0.140814 0.423832
Si Si4 0.894540 0.976768 0.824477
Si Si5 0.654569 0.094801 0.832851
Si Si6 0.803055 0.283677 0.906464
Si Si7 0.815349 0.564843 0.167014
Si Si8 0.835292 0.556315 0.556144
O O1 0.825387 0.128475 0.538647
O O2 0.827683 0.398508 0.266978
O O3 0.043819 0.136434 0.513222
O O4 0.784516 0.263177 0.103145
O O5 0.275165 0.091887 0.489589
O O6 0.188638 0.291570 0.492711
O O7 0.317736 0.999464 0.903601
O O8 0.489415 0.161856 0.605059
O O9 0.500000 0.000000 0.500000
O O10 0.295518 0.297763 0.133117
O O11 0.767433 0.975712 0.864521
O O12 0.000000 0.000000 0.000000
O O13 0.019145 0.826645 0.933189
O O14 0.707097 0.223868 0.793832
O O15 0.771673 0.456002 0.695039
O O16 0.770879 0.597602 0.300622
O O17 0.983105 0.544723 0.267753
#
# Coordination Sequence:
#
# PCOD9100142 Si02
#       8
#     2   2   2   2   2   2   2   2
#     4  11  21  39  70 102 128 163 218 285 321 376
#     4  11  23  43  66  97 129 170 221 267 327 376
#     4  12  27  43  64  94 135 177 218 261 320 404
#     4  10  20  37  62  97 132 162 215 265 327 371
#     4  11  25  41  63  94 136 176 212 263 325 398
#     4  11  22  37  63  99 131 165 215 269 327 377
#     4  10  22  41  66  96 128 169 220 270 329 376
#     4  10  22  40  71  95 128 164 218 283 325 372
#
# _framework density 22.471201000000001
#
# number of rings (size 3 to 8) (size 9 to 14) (size 15 to 20)
#    0.000    1.250    2.500    4.500    7.000    2.000 
#    0.000    5.000    0.000    1.500    0.000    0.000 
#    0.000    0.000    0.000    0.000    0.000    0.000 
#
# Total GULP energy -89577.047843 kJ/mol
# GULP energy per Si atom -5598.565490 kJ/mol
# Density = 2.242006 g / cm^3
# Si number density = 22.471201 Si / 1000 Ang^3
#
#
#
# Elastic Constant Matrix: (Units=GPa)
#
#
# Indices 1 2 3 4 5 6 
#
# 1 47.3130 16.4974 25.6762 0.8498 -8.0144 -3.5897
# 2 16.4974 58.8107 16.8598 2.1851 -15.6243 8.6561
# 3 25.6762 16.8598 137.7515 8.5744 -17.3215 13.9547
# 4 0.8498 2.1851 8.5744 33.3526 8.6397 -4.0257
# 5 -8.0144 -15.6243 -17.3215 8.6397 38.6921 6.9361
# 6 -3.5897 8.6561 13.9547 -4.0257 6.9361 41.8159
#
#
#
# Elastic Compliance Matrix: (Units=1/GPa)
#
#
# Indices 1 2 3 4 5 6 
#
# 1 0.026553 -0.007274 -0.004920 0.002063 -0.001143 0.005816
# 2 -0.007274 0.023031 0.001066 -0.005403 0.010926 -0.008080
# 3 -0.004920 0.001066 0.009559 -0.004486 0.005624 -0.005198
# 4 0.002063 -0.005403 -0.004486 0.035902 -0.013295 0.008454
# 5 -0.001143 0.010926 0.005624 -0.013295 0.037614 -0.011756
# 6 0.005816 -0.008080 -0.005198 0.008454 -0.011756 0.030585
#
#
# Mechanical properties :
#
#
# Convention : Reuss Voigt Hill
#
# Bulk Modulus (GPa) = 27.11093 40.21578 33.66336
# Shear Modulus (GPa) = 25.27839 35.09491 30.18665
#
# Velocity S-wave (km/s) = 3.35763 3.95621 3.66915
# Velocity P-wave (km/s) = 5.20793 6.22931 5.74137
#
# Compressibility (1/GPa) = 0.03688549
#
# Stress axis : x y z
#
# Youngs Moduli (GPa) = 37.66039 43.41894 104.61184
#
# Poissons Ratio (x) = 0.31585 0.51473
# Poissons Ratio (y) = 0.27396 -0.11149
# Poissons Ratio (z) = 0.18530 -0.04627
#
# Static dielectric constant tensor:
#      x y z
#    x 1.842160 -0.006810 0.016350 
#    y -0.006810 1.858920 0.015940 
#    z 0.016350 0.015940 1.787930 
# 
# From -- ./inp_files/261699.got.cif
#   From: 2010.05.17/outbox.cif.g08.bks.cpg/sg2_131_cif.got.tgz:261699.got - 2010.06.03 11:33:40.
