data_PCOD9100132
_publ_section_title
;
Structure prediction by ZEFSAII (Michael W. Deem and Ramdas Pophale) SiO2 
 PCOD9100132
Probable space group: P -1
;
_chemical_formula_sum "Si O2"
_cell_formula_units_Z 14
_cell_length_a 12.259695
_cell_length_b 11.439324
_cell_length_c 5.334596
_cell_angle_alpha 89.016613
_cell_angle_beta 80.716939
_cell_angle_gamma 131.263992
_cell_volume 547.242684
_symmetry_space_group_name_H-M "P -1"
_symmetry_group_IT_number 2
_symmetry_cell_setting 'triclinic'
loop_
_space_group_symop_operation_xyz
x,y,z
-x,-y,-z
loop_
_atom_site_type_symbol
_atom_site_label
_atom_site_fract_x
_atom_site_fract_y
_atom_site_fract_z
Si Si1 0.058849 0.403615 0.700451
Si Si2 0.544527 0.666265 0.502240
Si Si3 0.388700 0.641336 0.068612
Si Si4 0.142448 0.279734 0.027074
Si Si5 0.833173 0.911536 0.648087
Si Si6 0.771891 0.278210 0.131622
Si Si7 0.860536 0.157980 0.407964
O O1 0.975718 0.334613 0.472658
O O2 0.187076 0.588270 0.695009
O O3 0.924041 0.344924 0.936983
O O4 0.128735 0.327701 0.755740
O O5 0.500000 0.500000 0.500000
O O6 0.481655 0.670698 0.787601
O O7 0.720344 0.797281 0.474017
O O8 0.480624 0.688331 0.285588
O O9 0.331131 0.731633 0.032575
O O10 0.249698 0.450279 0.122238
O O11 0.197605 0.191706 0.095658
O O12 0.970417 0.164270 0.185990
O O13 0.815526 0.039500 0.653683
O O14 0.000000 0.000000 0.500000
O O15 0.731382 0.134856 0.312575
#
# Coordination Sequence:
#
# PCOD9100132 Si02
#       7
#     2   2   2   2   2   2   2
#     4   9  18  33  60  93 132 171 228 279 324 389
#     4  12  26  48  70 103 135 175 227 276 333 409
#     4  11  25  42  73  98 134 175 227 278 335 389
#     4   9  20  37  60 101 127 176 223 280 332 393
#     4  10  23  44  65  98 135 173 223 275 344 399
#     4   9  20  36  59  97 129 175 226 275 326 394
#     4  10  20  37  62  96 137 175 225 275 335 396
#
# _framework density 25.582801
#
# number of rings (size 3 to 8) (size 9 to 14) (size 15 to 20)
#    0.000    2.000    1.429    1.714    6.000    0.571 
#    7.714    1.429    0.000    0.000    0.000    0.000 
#    0.000    0.000    0.000    0.000    0.000    0.000 
#
# Total GULP energy -78224.047001 kJ/mol
# GULP energy per Si atom -5587.431929 kJ/mol
# Density = 2.552457 g / cm^3
# Si number density = 25.582801 Si / 1000 Ang^3
#
#
#
# Elastic Constant Matrix: (Units=GPa)
#
#
# Indices 1 2 3 4 5 6 
#
# 1 183.3944 48.0370 82.8961 -14.8339 66.3205 -10.1589
# 2 48.0370 68.8685 21.7734 1.6026 16.8769 16.7403
# 3 82.8961 21.7734 128.5708 3.2391 45.2599 -5.3807
# 4 -14.8339 1.6026 3.2391 23.8376 -4.7964 17.3696
# 5 66.3205 16.8769 45.2599 -4.7964 60.3098 -4.3510
# 6 -10.1589 16.7403 -5.3807 17.3696 -4.3510 41.1279
#
#
#
# Elastic Compliance Matrix: (Units=1/GPa)
#
#
# Indices 1 2 3 4 5 6 
#
# 1 0.012451 -0.005821 -0.004194 0.005933 -0.008334 0.001509
# 2 -0.005821 0.021466 -0.000553 0.003623 0.000249 -0.011751
# 3 -0.004194 -0.000553 0.012757 -0.008053 -0.005179 0.003711
# 4 0.005933 0.003623 -0.008053 0.068604 0.001808 -0.029845
# 5 -0.008334 0.000249 -0.005179 0.001808 0.029674 -0.000462
# 6 0.001509 -0.011751 0.003711 -0.029845 -0.000462 0.042511
#
#
# Mechanical properties :
#
#
# Convention : Reuss Voigt Hill
#
# Bulk Modulus (GPa) = 39.15771 76.24966 57.70369
# Shear Modulus (GPa) = 23.02959 40.26354 31.64657
#
# Velocity S-wave (km/s) = 3.00359 3.97148 3.52095
# Velocity P-wave (km/s) = 5.23146 7.13442 6.25573
#
# Compressibility (1/GPa) = 0.02553775
#
# Stress axis : x y z
#
# Youngs Moduli (GPa) = 80.31730 46.58422 78.38732
#
# Poissons Ratio (x) = 0.27116 0.32878
# Poissons Ratio (y) = 0.46751 0.04336
# Poissons Ratio (z) = 0.33687 0.02577
#
# Static dielectric constant tensor:
#      x y z
#    x 2.049780 -0.047510 -0.016350 
#    y -0.047510 2.093490 -0.061120 
#    z -0.016350 -0.061120 2.047020 
# 
# From -- ./inp_files/65528.got.cif
#   From: 2010.05.17/outbox.cif.g08.bks.cpg/sg2_33_cif.got.tgz:65528.got - 2010.06.03 11:33:40.
