data_PCOD9100458
_publ_section_title
;
Structure prediction by ZEFSAII (Michael W. Deem and Ramdas Pophale) SiO2 
 PCOD9100458
Probable space group: P -1
;
_chemical_formula_sum "Si O2"
_cell_formula_units_Z 16
_cell_length_a 8.663745
_cell_length_b 8.223552
_cell_length_c 21.231632
_cell_angle_alpha 149.812510
_cell_angle_beta 113.968545
_cell_angle_gamma 62.805181
_cell_volume 676.331945
_symmetry_space_group_name_H-M "P -1"
_symmetry_group_IT_number 2
_symmetry_cell_setting 'triclinic'
loop_
_space_group_symop_operation_xyz
x,y,z
-x,-y,-z
loop_
_atom_site_type_symbol
_atom_site_label
_atom_site_fract_x
_atom_site_fract_y
_atom_site_fract_z
Si Si1 0.153149 0.898078 0.156399
Si Si2 0.957255 0.707800 0.854002
Si Si3 0.189622 0.165310 0.867142
Si Si4 0.294797 0.536177 0.724082
Si Si5 0.913859 0.684033 0.485760
Si Si6 0.805119 0.966677 0.367968
Si Si7 0.660652 0.395363 0.692158
Si Si8 0.504067 0.137160 0.283929
O O1 0.015775 0.869192 0.180145
O O2 0.344626 0.971075 0.222699
O O3 0.177550 0.548269 0.007909
O O4 0.060279 0.181059 0.185344
O O5 0.087464 0.344179 0.761633
O O6 0.768655 0.653575 0.820231
O O7 0.000000 0.000000 0.000000
O O8 0.257081 0.929941 0.860845
O O9 0.351692 0.059696 0.809043
O O10 0.199197 0.534847 0.640664
O O11 0.231305 0.252939 0.654755
O O12 0.497736 0.406617 0.711612
O O13 0.000000 0.500000 0.500000
O O14 0.781635 0.033531 0.591286
O O15 0.074999 0.784228 0.510907
O O16 0.629701 0.157450 0.369651
O O17 0.587685 0.524108 0.654003
#
# Coordination Sequence:
#
# PCOD9100458 Si02
#       8
#     2   2   2   2   2   2   2   2
#     4  10  20  38  62  90 124 171 217 258 318 368
#     4  10  20  38  62  88 128 168 210 262 315 372
#     4  10  20  37  64  89 121 170 214 261 314 370
#     4  11  22  42  62  92 131 161 210 267 312 373
#     4  11  23  43  69  91 119 166 208 259 324 384
#     4  11  23  41  58  96 124 164 210 260 319 374
#     4   9  22  42  65  91 123 164 211 258 318 381
#     4  10  21  41  64  87 132 166 211 257 318 380
#
# _framework density 23.657024
#
# number of rings (size 3 to 8) (size 9 to 14) (size 15 to 20)
#    0.000    1.750    1.250    3.375    0.000    3.000 
#   11.250    2.500    0.000    0.000    0.000    0.000 
#    0.000    0.000    0.000    0.000    0.000    0.000 
#
# Total GULP energy -89200.491122 kJ/mol
# GULP energy per Si atom -5575.030695 kJ/mol
# Density = 2.360318 g / cm^3
# Si number density = 23.657024 Si / 1000 Ang^3
#
#
#
# Elastic Constant Matrix: (Units=GPa)
#
#
# Indices 1 2 3 4 5 6 
#
# 1 138.7511 21.6128 27.2265 2.2895 35.3119 -22.8653
# 2 21.6128 115.4699 14.2010 14.4855 3.4290 -24.6684
# 3 27.2265 14.2010 57.7971 7.8501 15.0617 -16.7382
# 4 2.2895 14.4855 7.8501 32.7726 -3.0066 7.1086
# 5 35.3119 3.4290 15.0617 -3.0066 35.4979 0.2720
# 6 -22.8653 -24.6684 -16.7382 7.1086 0.2720 33.0136
#
#
#
# Elastic Compliance Matrix: (Units=1/GPa)
#
#
# Indices 1 2 3 4 5 6 
#
# 1 0.012036 0.000971 0.001431 -0.005214 -0.013200 0.011019
# 2 0.000971 0.012297 0.002768 -0.009447 -0.004231 0.013334
# 3 0.001431 0.002768 0.027384 -0.013557 -0.014611 0.019983
# 4 -0.005214 -0.009447 -0.013557 0.045732 0.015936 -0.027522
# 5 -0.013200 -0.004231 -0.014611 0.015936 0.049440 -0.023550
# 6 0.011019 0.013334 0.019983 -0.027522 -0.023550 0.064137
#
#
# Mechanical properties :
#
#
# Convention : Reuss Voigt Hill
#
# Bulk Modulus (GPa) = 16.11413 48.67763 32.39588
# Shear Modulus (GPa) = 22.58635 36.85533 29.72084
#
# Velocity S-wave (km/s) = 3.09324 3.95131 3.54831
# Velocity P-wave (km/s) = 4.42537 6.43725 5.52368
#
# Compressibility (1/GPa) = 0.06205732
#
# Stress axis : x y z
#
# Youngs Moduli (GPa) = 83.08091 81.31849 36.51797
#
# Poissons Ratio (x) = -0.07898 -0.05224
# Poissons Ratio (y) = -0.08069 -0.10108
# Poissons Ratio (z) = -0.11885 -0.22510
#
# Static dielectric constant tensor:
#      x y z
#    x 2.026670 0.037400 -0.068540 
#    y 0.037400 1.959470 0.028320 
#    z -0.068540 0.028320 1.915000 
# 
# From -- ./inp_files/606942.got.cif
#   From: 2010.05.17/outbox.cif.g08.bks.cpg/sg2_304_cif.got.tgz:606942.got - 2010.06.03 11:33:40.
