data_PCOD9100395
_publ_section_title
;
Structure prediction by ZEFSAII (Michael W. Deem and Ramdas Pophale) SiO2 
 PCOD9100395
Probable space group: P -1
;
_chemical_formula_sum "Si O2"
_cell_formula_units_Z 16
_cell_length_a 10.994384
_cell_length_b 19.096284
_cell_length_c 6.548740
_cell_angle_alpha 134.253087
_cell_angle_beta 58.425614
_cell_angle_gamma 139.428414
_cell_volume 640.454083
_symmetry_space_group_name_H-M "P -1"
_symmetry_group_IT_number 2
_symmetry_cell_setting 'triclinic'
loop_
_space_group_symop_operation_xyz
x,y,z
-x,-y,-z
loop_
_atom_site_type_symbol
_atom_site_label
_atom_site_fract_x
_atom_site_fract_y
_atom_site_fract_z
Si Si1 0.870681 0.744933 0.391182
Si Si2 0.076265 0.923840 0.238272
Si Si3 0.638611 0.765065 0.867308
Si Si4 0.091071 0.473238 0.692613
Si Si5 0.602412 0.461969 0.129868
Si Si6 0.641412 0.329307 0.454257
Si Si7 0.848027 0.186430 0.390548
Si Si8 0.530173 0.890324 0.524572
O O1 0.835947 0.828419 0.720453
O O2 0.677055 0.599659 0.277277
O O3 0.919697 0.788685 0.207380
O O4 0.041868 0.766290 0.395408
O O5 0.270900 0.988331 0.316576
O O6 0.114533 0.898530 0.930395
O O7 0.000000 0.000000 0.500000
O O8 0.595770 0.655142 0.837653
O O9 0.511813 0.722287 0.691099
O O10 0.590342 0.835680 0.194359
O O11 0.267097 0.506665 0.727365
O O12 0.167350 0.571277 0.637967
O O13 0.949618 0.322534 0.462194
O O14 0.000000 0.500000 0.000000
O O15 0.638553 0.409216 0.797202
O O16 0.578138 0.205665 0.381904
O O17 0.626960 0.109462 0.434413
#
# Coordination Sequence:
#
# PCOD9100395 Si02
#       8
#     2   2   2   2   2   2   2   2
#     4  11  24  42  66  93 130 170 213 274 328 374
#     4  12  27  46  68  94 125 171 228 272 317 378
#     4  10  21  39  65  96 130 170 212 261 325 389
#     4  10  20  37  63  98 134 167 207 257 323 395
#     4   9  20  36  59  96 129 165 212 261 322 390
#     4  10  20  37  64  94 134 171 206 263 324 379
#     4  11  25  44  66  96 130 168 216 267 323 387
#     4  11  25  43  65  95 129 170 219 263 315 386
#
# _framework density 24.982275000000001
#
# number of rings (size 3 to 8) (size 9 to 14) (size 15 to 20)
#    0.000    1.500    0.000    5.250    0.000   10.000 
#    0.000    0.000    0.000    0.000    0.000    0.000 
#    0.000    0.000    0.000    0.000    0.000    0.000 
#
# Total GULP energy -89378.641189 kJ/mol
# GULP energy per Si atom -5586.165074 kJ/mol
# Density = 2.492541 g / cm^3
# Si number density = 24.982275 Si / 1000 Ang^3
#
#
#
# Elastic Constant Matrix: (Units=GPa)
#
#
# Indices 1 2 3 4 5 6 
#
# 1 57.8513 -5.4401 -3.5105 2.1300 9.8635 16.5479
# 2 -5.4401 45.8649 21.8565 -24.0119 2.1621 -11.5466
# 3 -3.5105 21.8565 79.3013 -1.5325 -2.2352 7.9548
# 4 2.1300 -24.0119 -1.5325 32.4456 2.2140 4.2759
# 5 9.8635 2.1621 -2.2352 2.2140 38.5232 4.2986
# 6 16.5479 -11.5466 7.9548 4.2759 4.2986 28.7250
#
#
#
# Elastic Compliance Matrix: (Units=1/GPa)
#
#
# Indices 1 2 3 4 5 6 
#
# 1 0.021818 -0.002842 0.003006 -0.001327 -0.003636 -0.013802
# 2 -0.002842 0.056943 -0.017815 0.038778 -0.008516 0.024962
# 3 0.003006 -0.017815 0.018838 -0.011013 0.003404 -0.012979
# 4 -0.001327 0.038778 -0.011013 0.058013 -0.007130 0.011833
# 5 -0.003636 -0.008516 0.003404 -0.007130 0.028587 -0.005488
# 6 -0.013802 0.024962 -0.012979 0.011833 -0.005488 0.055452
#
#
# Mechanical properties :
#
#
# Convention : Reuss Voigt Hill
#
# Bulk Modulus (GPa) = 16.05252 23.20327 19.62790
# Shear Modulus (GPa) = 16.90800 31.27951 24.09375
#
# Velocity S-wave (km/s) = 2.60436 3.54230 3.10890
# Velocity P-wave (km/s) = 3.93486 5.10280 4.55640
#
# Compressibility (1/GPa) = 0.06229550
#
# Stress axis : x y z
#
# Youngs Moduli (GPa) = 45.83476 17.56157 53.08369
#
# Poissons Ratio (x) = 0.04992 -0.15955
# Poissons Ratio (y) = 0.13028 0.94566
# Poissons Ratio (z) = -0.13776 0.31285
#
# Static dielectric constant tensor:
#      x y z
#    x 2.003510 -0.014600 -0.012420 
#    y -0.014600 2.045330 0.065050 
#    z -0.012420 0.065050 1.948050 
# 
# From -- ./inp_files/83517.got.cif
#   From: 2010.05.17/outbox.cif.g08.bks.cpg/sg2_42_cif.got.tgz:83517.got - 2010.06.03 11:33:40.
