data_PCOD9100428
_publ_section_title
;
Structure prediction by ZEFSAII (Michael W. Deem and Ramdas Pophale) SiO2 
 PCOD9100428
Probable space group: P -1
;
_chemical_formula_sum "Si O2"
_cell_formula_units_Z 16
_cell_length_a 9.482182
_cell_length_b 8.727706
_cell_length_c 21.276456
_cell_angle_alpha 135.060941
_cell_angle_beta 142.756151
_cell_angle_gamma 59.445231
_cell_volume 746.435150
_symmetry_space_group_name_H-M "P -1"
_symmetry_group_IT_number 2
_symmetry_cell_setting 'triclinic'
loop_
_space_group_symop_operation_xyz
x,y,z
-x,-y,-z
loop_
_atom_site_type_symbol
_atom_site_label
_atom_site_fract_x
_atom_site_fract_y
_atom_site_fract_z
Si Si1 0.753583 0.987507 0.182341
Si Si2 0.990117 0.551811 0.333626
Si Si3 0.639820 0.449014 0.288857
Si Si4 0.786924 0.854576 0.688588
Si Si5 0.533901 0.712423 0.431132
Si Si6 0.495879 0.533991 0.935139
Si Si7 0.752887 0.337285 0.866556
Si Si8 0.125187 0.886496 0.381558
O O1 0.879653 0.926915 0.274431
O O2 0.607109 0.188685 0.195247
O O3 0.615792 0.780217 0.039862
O O4 0.971006 0.073206 0.240708
O O5 0.881134 0.537601 0.361756
O O6 0.760856 0.488928 0.191479
O O7 0.165612 0.373305 0.329096
O O8 0.094469 0.787243 0.411349
O O9 0.623548 0.501066 0.372108
O O10 0.429846 0.561048 0.215201
O O11 0.605209 0.775327 0.545729
O O12 0.747644 0.078778 0.774657
O O13 0.254828 0.723044 0.335023
O O14 0.688469 0.896560 0.496802
O O15 0.643884 0.367208 0.904839
O O16 0.500000 0.500000 0.000000
O O17 0.000000 0.500000 0.000000
#
# Coordination Sequence:
#
# PCOD9100428 Si02
#       8
#     2   2   2   2   2   2   2   2
#     4  10  20  37  64  87 125 161 201 239 308 360
#     4  10  23  38  61  91 127 154 208 249 305 353
#     4  10  23  39  61  96 118 161 208 249 294 365
#     4  10  22  41  63  90 120 165 204 250 299 359
#     4  10  22  41  66  84 125 161 208 246 302 362
#     4  11  22  39  61  89 128 162 194 254 304 360
#     4  11  22  37  64  88 121 161 207 244 298 363
#     4  10  20  39  62  85 117 167 196 253 296 356
#
# _framework density 21.435217000000002
#
# number of rings (size 3 to 8) (size 9 to 14) (size 15 to 20)
#    0.000    1.750    2.500    2.250    1.750    7.000 
#    2.250    0.625    0.000    0.000    0.000    0.000 
#    0.000    0.000    0.000    0.000    0.000    0.000 
#
# Total GULP energy -89199.517526 kJ/mol
# GULP energy per Si atom -5574.969845 kJ/mol
# Density = 2.138643 g / cm^3
# Si number density = 21.435217 Si / 1000 Ang^3
#
#
#
# Elastic Constant Matrix: (Units=GPa)
#
#
# Indices 1 2 3 4 5 6 
#
# 1 63.1683 28.4617 22.6038 0.7397 -22.2092 -21.9379
# 2 28.4617 92.0124 5.2459 -1.9235 -9.7706 -23.1842
# 3 22.6038 5.2459 48.5120 -7.7921 -3.2601 -12.0368
# 4 0.7397 -1.9235 -7.7921 20.5829 -7.9040 -3.8865
# 5 -22.2092 -9.7706 -3.2601 -7.9040 34.9203 12.2707
# 6 -21.9379 -23.1842 -12.0368 -3.8865 12.2707 37.2554
#
#
#
# Elastic Compliance Matrix: (Units=1/GPa)
#
#
# Indices 1 2 3 4 5 6 
#
# 1 0.028918 -0.005371 -0.010332 0.001069 0.014126 0.005807
# 2 -0.005371 0.014205 0.003381 0.003875 -0.000870 0.007461
# 3 -0.010332 0.003381 0.028614 0.011814 -0.002898 0.007452
# 4 0.001069 0.003875 0.011814 0.060181 0.013427 0.008714
# 5 0.014126 -0.000870 -0.002898 0.013427 0.042125 -0.005634
# 6 0.005807 0.007461 0.007452 0.008714 -0.005634 0.040076
#
#
# Mechanical properties :
#
#
# Convention : Reuss Voigt Hill
#
# Bulk Modulus (GPa) = 21.23351 35.14619 28.18985
# Shear Modulus (GPa) = 19.64942 28.37714 24.01328
#
# Velocity S-wave (km/s) = 3.03097 3.64243 3.35068
# Velocity P-wave (km/s) = 4.70919 5.84139 5.30557
#
# Compressibility (1/GPa) = 0.04709537
#
# Stress axis : x y z
#
# Youngs Moduli (GPa) = 34.57996 70.39755 34.94847
#
# Poissons Ratio (x) = 0.37807 0.36108
# Poissons Ratio (y) = 0.18571 -0.11817
# Poissons Ratio (z) = 0.35727 -0.23804
#
# Static dielectric constant tensor:
#      x y z
#    x 1.821140 0.000020 -0.002100 
#    y 0.000020 1.901610 -0.011690 
#    z -0.002100 -0.011690 1.836190 
# 
# From -- ./inp_files/587563.got.cif
#   From: 2010.05.17/outbox.cif.g08.bks.cpg/sg2_294_cif.got.tgz:587563.got - 2010.06.03 11:33:40.
