data_PCOD9100426
_publ_section_title
;
Structure prediction by ZEFSAII (Michael W. Deem and Ramdas Pophale) SiO2 
 PCOD9100426
Probable space group: P -1
;
_chemical_formula_sum "Si O2"
_cell_formula_units_Z 16
_cell_length_a 22.006888
_cell_length_b 8.103193
_cell_length_c 8.171738
_cell_angle_alpha 125.177194
_cell_angle_beta 119.163667
_cell_angle_gamma 34.900250
_cell_volume 681.148423
_symmetry_space_group_name_H-M "P -1"
_symmetry_group_IT_number 2
_symmetry_cell_setting 'triclinic'
loop_
_space_group_symop_operation_xyz
x,y,z
-x,-y,-z
loop_
_atom_site_type_symbol
_atom_site_label
_atom_site_fract_x
_atom_site_fract_y
_atom_site_fract_z
Si Si1 0.299656 0.127869 0.823446
Si Si2 0.299038 0.533573 0.230342
Si Si3 0.971590 0.452438 0.604581
Si Si4 0.869036 0.671098 0.046626
Si Si5 0.486435 0.889435 0.082207
Si Si6 0.311817 0.773337 0.076304
Si Si7 0.258835 0.217125 0.456253
Si Si8 0.864066 0.247611 0.613366
O O1 0.208602 0.192171 0.819748
O O2 0.316629 0.088917 0.631191
O O3 0.411301 0.867060 0.915572
O O4 0.265161 0.429697 0.000846
O O5 0.315036 0.681540 0.213938
O O6 0.207226 0.741262 0.359758
O O7 0.408893 0.205523 0.264408
O O8 0.022482 0.474642 0.828050
O O9 0.000000 0.500000 0.500000
O O10 0.847885 0.681819 0.595124
O O11 0.030402 0.107130 0.486616
O O12 0.881664 0.425589 0.831656
O O13 0.800287 0.975122 0.019140
O O14 0.598233 0.550458 0.083404
O O15 0.500000 0.000000 0.000000
O O16 0.326022 0.979906 0.256817
O O17 0.208384 0.537641 0.514317
#
# Coordination Sequence:
#
# PCOD9100426 Si02
#       8
#     2   2   2   2   2   2   2   2
#     4   9  19  38  59  85 127 148 198 249 295 351
#     4   8  18  38  59  85 118 156 196 240 295 356
#     4  12  24  41  64  87 123 160 203 249 305 354
#     4  10  23  41  60  94 119 157 206 246 300 363
#     4   8  17  35  64  88 115 160 199 239 305 356
#     4  10  20  37  64  87 119 160 196 246 301 356
#     4  11  23  39  57  92 122 156 202 251 296 356
#     4  10  23  41  60  88 122 161 198 252 299 354
#
# _framework density 23.489742
#
# number of rings (size 3 to 8) (size 9 to 14) (size 15 to 20)
#    0.750    1.500    1.250    1.125    1.750    3.500 
#    2.250    0.000    0.000    2.250    0.000    0.000 
#    0.000    0.000    0.000    0.000    0.000    0.000 
#
# Total GULP energy -89170.121352 kJ/mol
# GULP energy per Si atom -5573.132585 kJ/mol
# Density = 2.343628 g / cm^3
# Si number density = 23.489742 Si / 1000 Ang^3
#
#
#
# Elastic Constant Matrix: (Units=GPa)
#
#
# Indices 1 2 3 4 5 6 
#
# 1 38.7568 6.2078 3.3843 0.6745 2.7731 3.8562
# 2 6.2078 125.1608 17.3991 18.6109 4.1949 3.5332
# 3 3.3843 17.3991 57.3635 -0.3842 -4.1529 3.7310
# 4 0.6745 18.6109 -0.3842 32.8093 3.1461 -4.1641
# 5 2.7731 4.1949 -4.1529 3.1461 21.0695 -2.5109
# 6 3.8562 3.5332 3.7310 -4.1641 -2.5109 32.9396
#
#
#
# Elastic Compliance Matrix: (Units=1/GPa)
#
#
# Indices 1 2 3 4 5 6 
#
# 1 0.026668 -0.000896 -0.001383 -0.000079 -0.003972 -0.003182
# 2 -0.000896 0.009313 -0.002839 -0.005312 -0.001666 -0.001371
# 3 -0.001383 -0.002839 0.018758 0.001315 0.004108 -0.001179
# 4 -0.000079 -0.005312 0.001315 0.034398 -0.003269 0.004529
# 5 -0.003972 -0.001666 0.004108 -0.003269 0.050041 0.003580
# 6 -0.003182 -0.001371 -0.001179 0.004529 0.003580 0.031857
#
#
# Mechanical properties :
#
#
# Convention : Reuss Voigt Hill
#
# Bulk Modulus (GPa) = 22.46951 30.58484 26.52718
# Shear Modulus (GPa) = 25.49649 30.31634 27.90641
#
# Velocity S-wave (km/s) = 3.29816 3.59642 3.45051
# Velocity P-wave (km/s) = 4.90818 5.50404 5.21463
#
# Compressibility (1/GPa) = 0.04450474
#
# Stress axis : x y z
#
# Youngs Moduli (GPa) = 37.49768 107.37420 53.30992
#
# Poissons Ratio (x) = 0.09618 0.07372
# Poissons Ratio (y) = 0.03359 0.15135
# Poissons Ratio (z) = 0.05185 0.30483
#
# Static dielectric constant tensor:
#      x y z
#    x 1.983820 0.015730 -0.011270 
#    y 0.015730 1.884380 -0.001480 
#    z -0.011270 -0.001480 1.915590 
# 
# From -- ./inp_files/296422.got.cif
#   From: 2010.05.17/outbox.cif.g08.bks.cpg/sg2_149_cif.got.tgz:296422.got - 2010.06.03 11:33:40.
