data_PCOD9100176
_publ_section_title
;
Structure prediction by ZEFSAII (Michael W. Deem and Ramdas Pophale) SiO2 
 PCOD9100176
Probable space group: P -1
;
_chemical_formula_sum "Si O2"
_cell_formula_units_Z 14
_cell_length_a 20.359286
_cell_length_b 9.271166
_cell_length_c 21.458452
_cell_angle_alpha 25.838103
_cell_angle_beta 20.152610
_cell_angle_gamma 34.846078
_cell_volume 600.199630
_symmetry_space_group_name_H-M "P -1"
_symmetry_group_IT_number 2
_symmetry_cell_setting 'triclinic'
loop_
_space_group_symop_operation_xyz
x,y,z
-x,-y,-z
loop_
_atom_site_type_symbol
_atom_site_label
_atom_site_fract_x
_atom_site_fract_y
_atom_site_fract_z
Si Si1 0.830199 0.348657 0.162473
Si Si2 0.486092 0.749575 0.334119
Si Si3 0.854320 0.782171 0.153717
Si Si4 0.791964 0.533586 0.904507
Si Si5 0.462055 0.532087 0.949224
Si Si6 0.801174 0.322486 0.487694
Si Si7 0.358474 0.424032 0.349042
O O1 0.666127 0.581463 0.217582
O O2 0.732939 0.966752 0.413129
O O3 0.000000 0.500000 0.000000
O O4 0.948721 0.330964 0.000052
O O5 0.324542 0.472436 0.617658
O O6 0.370766 0.856597 0.333604
O O7 0.540266 0.066609 0.206612
O O8 0.819018 0.689734 0.293731
O O9 0.841094 0.158642 0.002456
O O10 0.732960 0.634718 0.847887
O O11 0.586167 0.493097 0.138276
O O12 0.980893 0.753143 0.679255
O O13 0.629367 0.469367 0.776030
O O14 0.500000 0.500000 0.000000
O O15 0.746125 0.366651 0.590880
#
# Coordination Sequence:
#
# PCOD9100176 Si02
#       7
#     2   2   2   2   2   2   2
#     4  12  22  32  59  94 129 156 191 234 307 369
#     4  10  23  38  60  89 125 154 195 250 295 353
#     4  10  21  33  61  91 132 146 187 230 310 367
#     4  10  20  37  63  85 125 158 194 234 301 358
#     4  10  23  45  63  79 116 165 211 254 289 333
#     4  10  22  37  60  97 123 157 191 235 310 370
#     4  10  22  36  63  86 125 158 196 237 308 350
#
# _framework density 23.325572000000001
#
# number of rings (size 3 to 8) (size 9 to 14) (size 15 to 20)
#    1.714    0.000    2.857    2.143    2.000    2.857 
#    0.000    2.143    0.000    0.000    0.000    0.000 
#    0.000    0.000    0.000    0.000    0.000    0.000 
#
# Total GULP energy -78023.581606 kJ/mol
# GULP energy per Si atom -5573.112972 kJ/mol
# Density = 2.327248 g / cm^3
# Si number density = 23.325572 Si / 1000 Ang^3
#
#
#
# Elastic Constant Matrix: (Units=GPa)
#
#
# Indices 1 2 3 4 5 6 
#
# 1 96.7112 5.6371 28.3632 -1.5216 -0.5220 -2.3009
# 2 5.6371 35.4978 17.5436 11.5079 -6.0406 -1.1823
# 3 28.3632 17.5436 125.7992 22.0815 -13.5083 5.9825
# 4 -1.5216 11.5079 22.0815 32.6575 4.3728 -2.4457
# 5 -0.5220 -6.0406 -13.5083 4.3728 55.6682 3.1109
# 6 -2.3009 -1.1823 5.9825 -2.4457 3.1109 39.7262
#
#
#
# Elastic Compliance Matrix: (Units=1/GPa)
#
#
# Indices 1 2 3 4 5 6 
#
# 1 0.011441 -0.001532 -0.003170 0.003479 -0.001180 0.001401
# 2 -0.001532 0.033691 -0.001977 -0.011130 0.004024 0.000211
# 3 -0.003170 -0.001977 0.010662 -0.007259 0.003055 -0.002534
# 4 0.003479 -0.011130 -0.007259 0.040762 -0.006360 0.003971
# 5 -0.001180 0.004024 0.003055 -0.006360 0.019761 -0.002348
# 6 0.001401 0.000211 -0.002534 0.003971 -0.002348 0.026070
#
#
# Mechanical properties :
#
#
# Convention : Reuss Voigt Hill
#
# Bulk Modulus (GPa) = 23.56517 40.12177 31.84347
# Shear Modulus (GPa) = 29.43057 39.37467 34.40262
#
# Velocity S-wave (km/s) = 3.55594 4.11304 3.84459
# Velocity P-wave (km/s) = 5.19464 6.30827 5.77834
#
# Compressibility (1/GPa) = 0.04243551
#
# Stress axis : x y z
#
# Youngs Moduli (GPa) = 87.40727 29.68129 93.78798
#
# Poissons Ratio (x) = 0.04548 0.29729
# Poissons Ratio (y) = 0.13393 0.18546
# Poissons Ratio (z) = 0.27706 0.05869
#
# Static dielectric constant tensor:
#      x y z
#    x 1.943400 -0.055390 -0.024410 
#    y -0.055390 1.908490 -0.089690 
#    z -0.024410 -0.089690 1.960140 
# 
# From -- ./inp_files/613676.got.cif
#   From: 2010.05.17/outbox.cif.g08.bks.cpg/sg2_307_cif.got.tgz:613676.got - 2010.06.03 11:33:40.
