data_PCOD9100591
_publ_section_title
;
Structure prediction by ZEFSAII (Michael W. Deem and Ramdas Pophale) SiO2 
 PCOD9100591
Probable space group: P -1
;
_chemical_formula_sum "Si O2"
_cell_formula_units_Z 16
_cell_length_a 9.034878
_cell_length_b 12.955568
_cell_length_c 19.317172
_cell_angle_alpha 27.072424
_cell_angle_beta 46.567368
_cell_angle_gamma 48.797659
_cell_volume 739.844463
_symmetry_space_group_name_H-M "P -1"
_symmetry_group_IT_number 2
_symmetry_cell_setting 'triclinic'
loop_
_space_group_symop_operation_xyz
x,y,z
-x,-y,-z
loop_
_atom_site_type_symbol
_atom_site_label
_atom_site_fract_x
_atom_site_fract_y
_atom_site_fract_z
Si Si1 0.487539 0.501900 0.199323
Si Si2 0.960760 0.315876 0.426690
Si Si3 0.960157 0.401782 0.646303
Si Si4 0.257557 0.501147 0.130146
Si Si5 0.251242 0.979863 0.778864
Si Si6 0.330090 0.039506 0.294430
Si Si7 0.850579 0.734428 0.922940
Si Si8 0.230426 0.965743 0.643993
O O1 0.278167 0.545681 0.284572
O O2 0.412407 0.536310 0.122445
O O3 0.616440 0.246206 0.309715
O O4 0.656107 0.666272 0.067682
O O5 0.903873 0.469276 0.421016
O O6 0.040705 0.487364 0.244406
O O7 0.805210 0.165437 0.531399
O O8 0.150893 0.136865 0.505357
O O9 0.000000 0.500000 0.500000
O O10 0.042557 0.133642 0.777258
O O11 0.304993 0.250733 0.230282
O O12 0.249888 0.708861 0.954738
O O13 0.430055 0.048491 0.729753
O O14 0.321493 0.040893 0.642034
O O15 0.249196 0.155104 0.180372
O O16 0.019397 0.898078 0.787545
O O17 0.000000 0.500000 0.000000
#
# Coordination Sequence:
#
# PCOD9100591 Si02
#       8
#     2   2   2   2   2   2   2   2
#     4  10  20  37  64  96 129 167 218 267 321 382
#     4  10  24  41  65  93 135 169 219 269 327 389
#     4  11  25  44  63  92 135 178 221 263 325 398
#     4  11  21  37  64 101 130 158 221 273 326 381
#     4  12  23  40  70  94 132 173 216 269 330 388
#     4  11  21  39  65  99 131 167 215 272 330 382
#     4   9  18  35  61  95 131 160 206 268 328 375
#     4  10  20  39  68  95 125 172 215 272 324 381
#
# _framework density 21.626168
#
# number of rings (size 3 to 8) (size 9 to 14) (size 15 to 20)
#    0.000    1.500    3.750    2.250    0.000    5.500 
#    0.000    3.125    0.000    0.000    0.000    0.000 
#    0.000    0.000    0.000    0.000    0.000    0.000 
#
# Total GULP energy -89173.220714 kJ/mol
# GULP energy per Si atom -5573.326295 kJ/mol
# Density = 2.157695 g / cm^3
# Si number density = 21.626168 Si / 1000 Ang^3
#
#
#
# Elastic Constant Matrix: (Units=GPa)
#
#
# Indices 1 2 3 4 5 6 
#
# 1 61.0700 29.9519 28.2592 4.8442 -12.0323 -14.0433
# 2 29.9519 106.3909 20.5906 6.0201 -5.8101 -6.6722
# 3 28.2592 20.5906 78.0536 11.0336 -16.3487 -3.4798
# 4 4.8442 6.0201 11.0336 23.7165 2.8370 -3.2511
# 5 -12.0323 -5.8101 -16.3487 2.8370 35.3609 3.1512
# 6 -14.0433 -6.6722 -3.4798 -3.2511 3.1512 23.1187
#
#
#
# Elastic Compliance Matrix: (Units=1/GPa)
#
#
# Indices 1 2 3 4 5 6 
#
# 1 0.025439 -0.004910 -0.006659 0.000444 0.003612 0.012603
# 2 -0.004910 0.011031 -0.000991 -0.001327 -0.000201 -0.000108
# 3 -0.006659 -0.000991 0.017881 -0.008029 0.006812 -0.003697
# 4 0.000444 -0.001327 -0.008029 0.048027 -0.008216 0.006552
# 5 0.003612 -0.000201 0.006812 -0.008216 0.033513 -0.002562
# 6 0.012603 -0.000108 -0.003697 0.006552 -0.002562 0.051594
#
#
# Mechanical properties :
#
#
# Convention : Reuss Voigt Hill
#
# Bulk Modulus (GPa) = 34.21276 44.79086 39.50181
# Shear Modulus (GPa) = 22.48710 27.55341 25.02026
#
# Velocity S-wave (km/s) = 3.22811 3.57329 3.40508
# Velocity P-wave (km/s) = 5.45423 6.14662 5.81075
#
# Compressibility (1/GPa) = 0.02922886
#
# Stress axis : x y z
#
# Youngs Moduli (GPa) = 39.30980 90.65401 55.92502
#
# Poissons Ratio (x) = 0.44515 0.37241
# Poissons Ratio (y) = 0.19303 0.05545
# Poissons Ratio (z) = 0.26177 0.08988
#
# Static dielectric constant tensor:
#      x y z
#    x 1.822750 -0.040150 -0.053910 
#    y -0.040150 1.768570 -0.000110 
#    z -0.053910 -0.000110 1.850670 
# 
# From -- ./inp_files/559496.got.cif
#   From: 2010.05.17/outbox.cif.g08.bks.cpg/sg2_280_cif.got.tgz:559496.got - 2010.06.03 11:33:40.
