data_PCOD9100380
_publ_section_title
;
Structure prediction by ZEFSAII (Michael W. Deem and Ramdas Pophale) SiO2 
 PCOD9100380
Probable space group: P -1
;
_chemical_formula_sum "Si O2"
_cell_formula_units_Z 16
_cell_length_a 9.934500
_cell_length_b 23.236400
_cell_length_c 13.202290
_cell_angle_alpha 158.108550
_cell_angle_beta 131.826164
_cell_angle_gamma 47.836758
_cell_volume 831.516704
_symmetry_space_group_name_H-M "P -1"
_symmetry_group_IT_number 2
_symmetry_cell_setting 'triclinic'
loop_
_space_group_symop_operation_xyz
x,y,z
-x,-y,-z
loop_
_atom_site_type_symbol
_atom_site_label
_atom_site_fract_x
_atom_site_fract_y
_atom_site_fract_z
Si Si1 0.963629 0.378921 0.193895
Si Si2 0.271904 0.883436 0.726917
Si Si3 0.951110 0.158979 0.990797
Si Si4 0.713778 0.928891 0.493249
Si Si5 0.826288 0.914435 0.291887
Si Si6 0.483180 0.107240 0.319190
Si Si7 0.988861 0.672130 0.318391
Si Si8 0.132995 0.352480 0.562139
O O1 0.867705 0.260775 0.018963
O O2 0.863945 0.480996 0.218248
O O3 0.000000 0.500000 0.500000
O O4 0.130194 0.254341 0.021444
O O5 0.424026 0.829053 0.629244
O O6 0.154477 0.758694 0.506189
O O7 0.372398 0.971476 0.005861
O O8 0.124771 0.022918 0.828365
O O9 0.033013 0.262574 0.281751
O O10 0.804210 0.067714 0.812959
O O11 0.792668 0.894604 0.362539
O O12 0.798849 0.778421 0.356473
O O13 0.500000 0.000000 0.500000
O O14 0.644031 0.026686 0.341727
O O15 0.000000 0.000000 0.500000
O O16 0.333672 0.251469 0.519377
O O17 0.982976 0.649111 0.397656
O O18 0.000000 0.500000 0.000000
#
# Coordination Sequence:
#
# PCOD9100380 Si02
#       8
#     2   2   2   2   2   2   2   2
#     4  10  20  38  62  90 121 159 202 254 303 367
#     4   9  19  37  64  86 121 155 199 259 294 362
#     4   9  18  39  62  87 115 159 203 248 305 356
#     4  11  23  38  61  88 123 156 206 259 295 367
#     4  12  21  38  65  89 121 167 207 250 311 370
#     4  10  20  37  63  97 114 151 217 255 303 352
#     4  11  23  43  57  85 128 167 197 244 320 376
#     4  10  22  37  64  89 120 159 201 254 309 365
#
# _framework density 19.241945000000001
#
# number of rings (size 3 to 8) (size 9 to 14) (size 15 to 20)
#    0.000    1.750    2.500    2.250    1.750    5.500 
#    2.250    1.250    0.000    3.750    0.000    0.000 
#    0.000    0.000    0.000    0.000    0.000    0.000 
#
# Total GULP energy -89123.354859 kJ/mol
# GULP energy per Si atom -5570.209679 kJ/mol
# Density = 1.919815 g / cm^3
# Si number density = 19.241945 Si / 1000 Ang^3
#
#
#
# Elastic Constant Matrix: (Units=GPa)
#
#
# Indices 1 2 3 4 5 6 
#
# 1 86.6725 20.2265 42.2164 6.4151 -0.9194 9.2729
# 2 20.2265 110.1051 40.3233 16.4107 12.1019 0.4013
# 3 42.2164 40.3233 82.8970 23.3710 6.4017 -1.2097
# 4 6.4151 16.4107 23.3710 25.6093 0.2718 8.6171
# 5 -0.9194 12.1019 6.4017 0.2718 17.8762 -2.3889
# 6 9.2729 0.4013 -1.2097 8.6171 -2.3889 38.3273
#
#
#
# Elastic Compliance Matrix: (Units=1/GPa)
#
#
# Indices 1 2 3 4 5 6 
#
# 1 0.017272 -0.000791 -0.011230 0.008448 0.004496 -0.006144
# 2 -0.000791 0.011936 -0.003712 -0.004150 -0.006667 0.000467
# 3 -0.011230 -0.003712 0.026186 -0.021334 -0.006049 0.008002
# 4 0.008448 -0.004150 -0.021334 0.064606 0.007667 -0.016721
# 5 0.004496 -0.006667 -0.006049 0.007667 0.062866 0.000986
# 6 -0.006144 0.000467 0.008002 -0.016721 0.000986 0.031646
#
#
# Mechanical properties :
#
#
# Convention : Reuss Voigt Hill
#
# Bulk Modulus (GPa) = 41.79002 53.91190 47.85096
# Shear Modulus (GPa) = 19.68860 28.15645 23.92252
#
# Velocity S-wave (km/s) = 3.20224 3.82944 3.52980
# Velocity P-wave (km/s) = 5.95296 6.90156 6.44474
#
# Compressibility (1/GPa) = 0.02392916
#
# Stress axis : x y z
#
# Youngs Moduli (GPa) = 57.89776 83.77697 38.18819
#
# Poissons Ratio (x) = 0.06628 0.42884
# Poissons Ratio (y) = 0.04581 0.14174
# Poissons Ratio (z) = 0.65018 0.31095
#
# Static dielectric constant tensor:
#      x y z
#    x 1.724680 0.013860 -0.024640 
#    y 0.013860 1.694690 -0.010760 
#    z -0.024640 -0.010760 1.700920 
# 
# From -- ./inp_files/405477.got.cif
#   From: 2010.05.17/outbox.cif.g08.bks.cpg/sg2_203_cif.got.tgz:405477.got - 2010.06.03 11:33:40.
