data_PCOD9100719
_publ_section_title
;
Structure prediction by ZEFSAII (Michael W. Deem and Ramdas Pophale) SiO2 
 PCOD9100719
Probable space group: P -1
;
_chemical_formula_sum "Si O2"
_cell_formula_units_Z 16
_cell_length_a 9.889948
_cell_length_b 11.646504
_cell_length_c 18.151584
_cell_angle_alpha 30.077397
_cell_angle_beta 107.753496
_cell_angle_gamma 120.272649
_cell_volume 862.288016
_symmetry_space_group_name_H-M "P -1"
_symmetry_group_IT_number 2
_symmetry_cell_setting 'triclinic'
loop_
_space_group_symop_operation_xyz
x,y,z
-x,-y,-z
loop_
_atom_site_type_symbol
_atom_site_label
_atom_site_fract_x
_atom_site_fract_y
_atom_site_fract_z
Si Si1 0.056372 0.925771 0.265550
Si Si2 0.405811 0.725818 0.925678
Si Si3 0.318340 0.758801 0.623796
Si Si4 0.567436 0.755367 0.421198
Si Si5 0.872097 0.053602 0.405977
Si Si6 0.075305 0.356440 0.139080
Si Si7 0.296849 0.357771 0.965649
Si Si8 0.758973 0.362525 0.487200
O O1 0.190681 0.842021 0.356544
O O2 0.888808 0.655181 0.374206
O O3 0.039680 0.090387 0.238295
O O4 0.123364 0.116379 0.099296
O O5 0.353892 0.563162 0.930063
O O6 0.400965 0.992058 0.762772
O O7 0.270898 0.546092 0.063481
O O8 0.579375 0.755547 0.957752
O O9 0.311835 0.526392 0.802410
O O10 0.231886 0.647783 0.593196
O O11 0.500000 0.000000 0.500000
O O12 0.224522 0.872259 0.592774
O O13 0.500000 0.500000 0.500000
O O14 0.731041 0.829972 0.453823
O O15 0.422308 0.713024 0.475958
O O16 0.000000 0.000000 0.500000
O O17 0.987113 0.291569 0.238246
O O18 0.000000 0.500000 0.000000
#
# Coordination Sequence:
#
# PCOD9100719 Si02
#       8
#     2   2   2   2   2   2   2   2
#     4  10  22  40  65  96 122 172 218 273 310 384
#     4  10  20  37  65  93 119 168 218 266 313 377
#     4  12  24  41  65  94 128 169 213 264 329 389
#     4  12  23  42  67  97 131 170 214 270 326 389
#     4  12  25  41  62  99 132 167 214 266 328 381
#     4  11  21  37  63  91 124 166 218 261 315 383
#     4  10  20  38  67  91 126 161 222 267 311 384
#     4  11  23  40  65  93 129 165 221 263 326 384
#
# _framework density 18.555282999999999
#
# number of rings (size 3 to 8) (size 9 to 14) (size 15 to 20)
#    0.000    1.000    5.000    2.250    5.250    1.500 
#    0.000    0.000    0.000    1.500    0.000    0.000 
#    0.000    0.000    0.000    0.000    0.000    0.000 
#
# Total GULP energy -89355.360257 kJ/mol
# GULP energy per Si atom -5584.710016 kJ/mol
# Density = 1.851305 g / cm^3
# Si number density = 18.555283 Si / 1000 Ang^3
#
#
#
# Elastic Constant Matrix: (Units=GPa)
#
#
# Indices 1 2 3 4 5 6 
#
# 1 113.0224 34.9359 43.5407 0.7689 -13.1431 -0.8623
# 2 34.9359 67.0911 35.3601 -1.0600 7.1856 -2.4442
# 3 43.5407 35.3601 119.2900 10.7022 -2.1605 -0.7679
# 4 0.7689 -1.0600 10.7022 31.9280 -8.7388 4.6918
# 5 -13.1431 7.1856 -2.1605 -8.7388 39.0750 7.0699
# 6 -0.8623 -2.4442 -0.7679 4.6918 7.0699 29.7209
#
#
#
# Elastic Compliance Matrix: (Units=1/GPa)
#
#
# Indices 1 2 3 4 5 6 
#
# 1 0.012367 -0.005524 -0.003000 0.002430 0.005908 -0.001962
# 2 -0.005524 0.020826 -0.004259 0.000051 -0.006449 0.002969
# 3 -0.003000 -0.004259 0.011097 -0.004057 -0.000636 0.000641
# 4 0.002430 0.000051 -0.004057 0.036649 0.010274 -0.008260
# 5 0.005908 -0.006449 -0.000636 0.010274 0.032801 -0.009800
# 6 -0.001962 0.002969 0.000641 -0.008260 -0.009800 0.037485
#
#
# Mechanical properties :
#
#
# Convention : Reuss Voigt Hill
#
# Bulk Modulus (GPa) = 53.41030 58.56410 55.98720
# Shear Modulus (GPa) = 27.31747 32.51589 29.91668
#
# Velocity S-wave (km/s) = 3.84112 4.19068 4.01970
# Velocity P-wave (km/s) = 6.96557 7.41932 7.19602
#
# Compressibility (1/GPa) = 0.01872298
#
# Stress axis : x y z
#
# Youngs Moduli (GPa) = 80.86287 48.01631 90.11440
#
# Poissons Ratio (x) = 0.26526 0.27033
# Poissons Ratio (y) = 0.44672 0.38382
# Poissons Ratio (z) = 0.24258 0.20451
#
# Static dielectric constant tensor:
#      x y z
#    x 1.666240 0.018340 -0.017330 
#    y 0.018340 1.621580 -0.012650 
#    z -0.017330 -0.012650 1.645460 
# 
# From -- ./inp_files/277976.got.cif
#   From: 2010.05.17/outbox.cif.g08.bks.cpg/sg2_139_cif.got.tgz:277976.got - 2010.06.03 11:33:40.
