data_PCOD9100079
_publ_section_title
;
Structure prediction by ZEFSAII (Michael W. Deem and Ramdas Pophale) SiO2 
 PCOD9100079
Probable space group: P -1
;
_chemical_formula_sum "Si O2"
_cell_formula_units_Z 16
_cell_length_a 10.308061
_cell_length_b 8.743158
_cell_length_c 16.142659
_cell_angle_alpha 48.851261
_cell_angle_beta 88.242366
_cell_angle_gamma 56.357847
_cell_volume 771.919132
_symmetry_space_group_name_H-M "P -1"
_symmetry_group_IT_number 2
_symmetry_cell_setting 'triclinic'
loop_
_space_group_symop_operation_xyz
x,y,z
-x,-y,-z
loop_
_atom_site_type_symbol
_atom_site_label
_atom_site_fract_x
_atom_site_fract_y
_atom_site_fract_z
Si Si1 0.717043 0.708347 0.089409
Si Si2 0.498937 0.295167 0.665179
Si Si3 0.750384 0.072215 0.881374
Si Si4 0.476867 0.254236 0.504384
Si Si5 0.896610 0.396356 0.032133
Si Si6 0.199383 0.308144 0.396279
Si Si7 0.176815 0.651947 0.127447
Si Si8 0.110085 0.666233 0.613264
O O1 0.773966 0.519090 0.072905
O O2 0.805340 0.496717 0.241542
O O3 0.500000 0.000000 0.000000
O O4 0.806247 0.833987 0.029910
O O5 0.606136 0.118252 0.808730
O O6 0.549771 0.125439 0.640785
O O7 0.550130 0.475250 0.592676
O O8 0.283260 0.506775 0.607185
O O9 0.679059 0.347151 0.834475
O O10 0.920239 0.944871 0.863033
O O11 0.291710 0.341948 0.453490
O O12 0.634752 0.021794 0.519489
O O13 0.790442 0.471426 0.921234
O O14 0.000000 0.500000 0.000000
O O15 0.156684 0.500261 0.250236
O O16 0.026379 0.361657 0.402121
O O17 0.000000 0.000000 0.000000
O O18 0.000000 0.000000 0.500000
#
# Coordination Sequence:
#
# PCOD9100079 Si02
#       8
#     2   2   2   2   2   2   2   2
#     4  11  23  40  65  94 130 169 214 261 327 389
#     4  11  22  42  65  94 128 170 216 266 321 383
#     4  10  20  39  66  92 125 165 216 270 315 376
#     4  10  24  39  66  94 122 169 221 267 306 391
#     4   9  20  35  62  94 117 163 212 260 312 381
#     4  11  22  41  64  94 127 166 215 261 327 380
#     4  10  20  37  62  93 123 156 213 268 313 367
#     4  12  25  41  65  91 133 173 209 263 331 383
#
# _framework density 20.727558999999999
#
# number of rings (size 3 to 8) (size 9 to 14) (size 15 to 20)
#    0.000    1.500    3.750    2.250    5.250    0.500 
#    0.000    0.625    2.750    0.000    0.000    0.000 
#    0.000    0.000    0.000    0.000    0.000    0.000 
#
# Total GULP energy -89141.752929 kJ/mol
# GULP energy per Si atom -5571.359558 kJ/mol
# Density = 2.068038 g / cm^3
# Si number density = 20.727559 Si / 1000 Ang^3
#
#
#
# Elastic Constant Matrix: (Units=GPa)
#
#
# Indices 1 2 3 4 5 6 
#
# 1 111.2855 46.3759 29.1012 13.4644 16.4459 10.9285
# 2 46.3759 93.8549 18.4118 17.2469 12.2169 8.3136
# 3 29.1012 18.4118 92.0106 -0.3650 5.8841 14.2583
# 4 13.4644 17.2469 -0.3650 32.4804 6.8295 12.3069
# 5 16.4459 12.2169 5.8841 6.8295 32.1431 -0.6149
# 6 10.9285 8.3136 14.2583 12.3069 -0.6149 29.6819
#
#
#
# Elastic Compliance Matrix: (Units=1/GPa)
#
#
# Indices 1 2 3 4 5 6 
#
# 1 0.012535 -0.004827 -0.002501 -0.001223 -0.003892 -0.001635
# 2 -0.004827 0.014495 -0.001405 -0.005647 -0.001569 0.000701
# 3 -0.002501 -0.001405 0.013181 0.005012 -0.001801 -0.007133
# 4 -0.001223 -0.005647 0.005012 0.042890 -0.007608 -0.018316
# 5 -0.003892 -0.001569 -0.001801 -0.007608 0.035772 0.006633
# 6 -0.001635 0.000701 -0.007133 -0.018316 0.006633 0.045254
#
#
# Mechanical properties :
#
#
# Convention : Reuss Voigt Hill
#
# Bulk Modulus (GPa) = 43.96422 53.88097 48.92260
# Shear Modulus (GPa) = 26.43046 32.41188 29.42117
#
# Velocity S-wave (km/s) = 3.57478 3.95867 3.77161
# Velocity P-wave (km/s) = 6.18832 6.85172 6.52845
#
# Compressibility (1/GPa) = 0.02274577
#
# Stress axis : x y z
#
# Youngs Moduli (GPa) = 79.77421 68.98752 75.86761
#
# Poissons Ratio (x) = 0.33300 0.18977
# Poissons Ratio (y) = 0.38507 0.10656
# Poissons Ratio (z) = 0.19954 0.09690
#
# Static dielectric constant tensor:
#      x y z
#    x 1.819590 0.027180 0.067290 
#    y 0.027180 1.777790 0.007600 
#    z 0.067290 0.007600 1.866560 
# 
# From -- ./inp_files/514103.got.cif
#   From: 2010.05.17/outbox.cif.g08.bks.cpg/sg2_258_cif.got.tgz:514103.got - 2010.06.03 11:33:40.
