data_PCOD9100772
_publ_section_title
;
Structure prediction by ZEFSAII (Michael W. Deem and Ramdas Pophale) SiO2 
 PCOD9100772
Probable space group: P -1
;
_chemical_formula_sum "Si O2"
_cell_formula_units_Z 16
_cell_length_a 9.167253
_cell_length_b 16.055401
_cell_length_c 10.472568
_cell_angle_alpha 143.802520
_cell_angle_beta 108.370725
_cell_angle_gamma 56.876424
_cell_volume 737.295106
_symmetry_space_group_name_H-M "P -1"
_symmetry_group_IT_number 2
_symmetry_cell_setting 'triclinic'
loop_
_space_group_symop_operation_xyz
x,y,z
-x,-y,-z
loop_
_atom_site_type_symbol
_atom_site_label
_atom_site_fract_x
_atom_site_fract_y
_atom_site_fract_z
Si Si1 0.160646 0.041706 0.510678
Si Si2 0.639325 0.565953 0.996103
Si Si3 0.673709 0.838206 0.486225
Si Si4 0.489085 0.087311 0.971448
Si Si5 0.078876 0.683752 0.404498
Si Si6 0.877234 0.831425 0.056196
Si Si7 0.255612 0.675056 0.033628
Si Si8 0.818296 0.099968 0.156503
O O1 0.554305 0.951140 0.708558
O O2 0.189886 0.863517 0.282317
O O3 0.311163 0.050521 0.481038
O O4 0.154155 0.094587 0.718467
O O5 0.794335 0.493976 0.843254
O O6 0.701868 0.429850 0.956080
O O7 0.616642 0.722241 0.259016
O O8 0.450175 0.602163 0.931938
O O9 0.884421 0.722067 0.446675
O O10 0.275587 0.215462 0.057900
O O11 0.158639 0.025693 0.878194
O O12 0.636355 0.141200 0.084107
O O13 0.500000 0.000000 0.000000
O O14 0.182196 0.739298 0.595770
O O15 0.015822 0.818935 0.439614
O O16 0.086982 0.688099 0.929241
O O17 0.000000 0.000000 0.000000
#
# Coordination Sequence:
#
# PCOD9100772 Si02
#       8
#     2   2   2   2   2   2   2   2
#     4  10  20  37  65  97 125 159 219 270 339 358
#     4  11  23  36  61  98 140 168 199 255 356 391
#     4  10  21  40  62  98 133 163 208 276 325 398
#     4  10  23  37  62  96 124 174 220 268 309 370
#     4  10  20  37  66  93 127 162 209 266 326 383
#     4  11  20  36  60  91 131 159 214 274 318 373
#     4  11  21  36  56  95 132 168 201 261 321 395
#     4  11  20  40  64  92 125 168 230 268 303 372
#
# _framework density 21.700945999999998
#
# number of rings (size 3 to 8) (size 9 to 14) (size 15 to 20)
#    0.750    0.750    3.750    2.250    0.000    5.000 
#    0.000    0.000    0.000    7.500    3.250    0.000 
#    0.000    0.000    0.000    0.000    0.000    0.000 
#
# Total GULP energy -89251.747711 kJ/mol
# GULP energy per Si atom -5578.234232 kJ/mol
# Density = 2.165155 g / cm^3
# Si number density = 21.700946 Si / 1000 Ang^3
#
#
#
# Elastic Constant Matrix: (Units=GPa)
#
#
# Indices 1 2 3 4 5 6 
#
# 1 119.8596 39.2799 24.1382 -12.3611 -0.7426 -32.2813
# 2 39.2799 61.5497 22.0443 2.2166 3.9096 -31.3474
# 3 24.1382 22.0443 57.8613 -12.7923 -4.1274 -2.7562
# 4 -12.3611 2.2166 -12.7923 17.1023 0.5621 2.4712
# 5 -0.7426 3.9096 -4.1274 0.5621 19.4175 -8.3844
# 6 -32.2813 -31.3474 -2.7562 2.4712 -8.3844 66.6644
#
#
#
# Elastic Compliance Matrix: (Units=1/GPa)
#
#
# Indices 1 2 3 4 5 6 
#
# 1 0.012352 -0.006969 -0.000127 0.009255 0.002747 0.002701
# 2 -0.006969 0.032688 -0.013994 -0.021293 -0.004161 0.011684
# 3 -0.000127 -0.013994 0.027942 0.023252 0.005644 -0.005639
# 4 0.009255 -0.021293 0.023252 0.086233 0.003948 -0.007269
# 5 0.002747 -0.004161 0.005644 0.003948 0.056356 0.006548
# 6 0.002701 0.011684 -0.005639 -0.007269 0.006548 0.022662
#
#
# Mechanical properties :
#
#
# Convention : Reuss Voigt Hill
#
# Bulk Modulus (GPa) = 32.46623 45.57726 39.02174
# Shear Modulus (GPa) = 17.20102 30.89073 24.04588
#
# Velocity S-wave (km/s) = 2.81844 3.77699 3.33236
# Velocity P-wave (km/s) = 5.05813 6.33000 5.72947
#
# Compressibility (1/GPa) = 0.03080124
#
# Stress axis : x y z
#
# Youngs Moduli (GPa) = 80.96161 30.59192 35.78864
#
# Poissons Ratio (x) = 0.21320 0.00454
# Poissons Ratio (y) = 0.56424 0.50084
# Poissons Ratio (z) = 0.01026 0.42811
#
# Static dielectric constant tensor:
#      x y z
#    x 1.862850 -0.078640 0.008560 
#    y -0.078640 1.839460 -0.006640 
#    z 0.008560 -0.006640 1.763810 
# 
# From -- ./inp_files/267386.got.cif
#   From: 2010.05.17/outbox.cif.g08.bks.cpg/sg2_134_cif.got.tgz:267386.got - 2010.06.03 11:33:40.
