data_PCOD9100710
_publ_section_title
;
Structure prediction by ZEFSAII (Michael W. Deem and Ramdas Pophale) SiO2 
 PCOD9100710
Probable space group: P -1
;
_chemical_formula_sum "Si O2"
_cell_formula_units_Z 16
_cell_length_a 7.542195
_cell_length_b 22.964708
_cell_length_c 5.096571
_cell_angle_alpha 118.207999
_cell_angle_beta 83.387055
_cell_angle_gamma 119.923548
_cell_volume 665.746534
_symmetry_space_group_name_H-M "P -1"
_symmetry_group_IT_number 2
_symmetry_cell_setting 'triclinic'
loop_
_space_group_symop_operation_xyz
x,y,z
-x,-y,-z
loop_
_atom_site_type_symbol
_atom_site_label
_atom_site_fract_x
_atom_site_fract_y
_atom_site_fract_z
Si Si1 0.781513 0.264086 0.310823
Si Si2 0.307570 0.294123 0.608904
Si Si3 0.305360 0.969025 0.267123
Si Si4 0.571657 0.328590 0.139833
Si Si5 0.070745 0.819923 0.229225
Si Si6 0.115739 0.400078 0.871143
Si Si7 0.550166 0.117905 0.333894
Si Si8 0.280305 0.496736 0.546438
O O1 0.714533 0.297554 0.156129
O O2 0.582863 0.188281 0.301947
O O3 0.903999 0.329475 0.645444
O O4 0.939312 0.237383 0.118422
O O5 0.380053 0.290469 0.297613
O O6 0.268906 0.365632 0.778812
O O7 0.104299 0.222057 0.613805
O O8 0.485997 0.309572 0.820234
O O9 0.101978 0.900497 0.291432
O O10 0.500000 0.000000 0.500000
O O11 0.329910 0.047581 0.316143
O O12 0.352080 0.924431 0.938154
O O13 0.680418 0.419815 0.343773
O O14 0.292768 0.843696 0.371255
O O15 0.191928 0.466941 0.786063
O O16 0.130248 0.435945 0.227440
O O17 0.500000 0.500000 0.500000
#
# Coordination Sequence:
#
# PCOD9100710 Si02
#       8
#     2   2   2   2   2   2   2   2
#     4  11  25  40  61  97 130 166 207 272 323 376
#     4  12  23  42  65  95 122 172 217 263 312 387
#     4   8  16  31  56  99 122 157 207 265 299 363
#     4  12  28  41  64  93 133 166 213 266 336 377
#     4  10  20  37  65  92 126 163 218 260 304 376
#     4  12  23  41  69  88 120 167 223 264 315 377
#     4   9  17  33  62  90 126 162 206 261 311 364
#     4  12  23  42  65  91 121 168 215 271 317 383
#
# _framework density 24.033170999999999
#
# number of rings (size 3 to 8) (size 9 to 14) (size 15 to 20)
#    0.000    1.250    3.750    2.625    3.500    1.000 
#    0.000    0.000    0.000    1.500    0.000    0.000 
#    0.000    0.000    0.000    0.000    0.000    0.000 
#
# Total GULP energy -89511.979632 kJ/mol
# GULP energy per Si atom -5594.498727 kJ/mol
# Density = 2.397847 g / cm^3
# Si number density = 24.033171 Si / 1000 Ang^3
#
#
#
# Elastic Constant Matrix: (Units=GPa)
#
#
# Indices 1 2 3 4 5 6 
#
# 1 66.5002 45.0038 22.2482 5.6470 6.2974 -2.5264
# 2 45.0038 198.2376 21.7189 11.4947 3.0995 4.6121
# 3 22.2482 21.7189 78.0866 0.3397 10.3206 -8.9755
# 4 5.6470 11.4947 0.3397 41.6190 -0.7280 2.4974
# 5 6.2974 3.0995 10.3206 -0.7280 18.1266 -14.4996
# 6 -2.5264 4.6121 -8.9755 2.4974 -14.4996 31.9577
#
#
#
# Elastic Compliance Matrix: (Units=1/GPa)
#
#
# Indices 1 2 3 4 5 6 
#
# 1 0.019484 -0.003796 -0.003981 -0.001582 -0.004775 -0.001073
# 2 -0.003796 0.006093 -0.000707 -0.001078 -0.000626 -0.001578
# 3 -0.003981 -0.000707 0.015080 0.000432 -0.006081 0.001230
# 4 -0.001582 -0.001078 0.000432 0.024642 0.000092 -0.001732
# 5 -0.004775 -0.000626 -0.006081 0.000092 0.092294 0.039873
# 6 -0.001073 -0.001578 0.001230 -0.001732 0.039873 0.050006
#
#
# Mechanical properties :
#
#
# Convention : Reuss Voigt Hill
#
# Bulk Modulus (GPa) = 42.21267 57.86292 50.03779
# Shear Modulus (GPa) = 21.50880 35.26422 28.38651
#
# Velocity S-wave (km/s) = 2.99484 3.83471 3.44050
# Velocity P-wave (km/s) = 5.43702 6.61326 6.05378
#
# Compressibility (1/GPa) = 0.02368957
#
# Stress axis : x y z
#
# Youngs Moduli (GPa) = 51.32441 164.13275 66.31125
#
# Poissons Ratio (x) = 0.62300 0.26398
# Poissons Ratio (y) = 0.19481 0.04689
# Poissons Ratio (z) = 0.20432 0.11605
#
# Static dielectric constant tensor:
#      x y z
#    x 1.948620 0.043080 -0.001360 
#    y 0.043080 1.973870 -0.015430 
#    z -0.001360 -0.015430 1.962830 
# 
# From -- ./inp_files/53518.got.cif
#   From: 2010.05.17/outbox.cif.g08.bks.cpg/sg2_27_cif.got.tgz:53518.got - 2010.06.03 11:33:40.
