data_PCOD9100501
_publ_section_title
;
Structure prediction by ZEFSAII (Michael W. Deem and Ramdas Pophale) SiO2 
 PCOD9100501
Probable space group: P -1
;
_chemical_formula_sum "Si O2"
_cell_formula_units_Z 16
_cell_length_a 9.512889
_cell_length_b 25.010822
_cell_length_c 9.450807
_cell_angle_alpha 133.292177
_cell_angle_beta 63.742696
_cell_angle_gamma 153.260837
_cell_volume 629.414494
_symmetry_space_group_name_H-M "P -1"
_symmetry_group_IT_number 2
_symmetry_cell_setting 'triclinic'
loop_
_space_group_symop_operation_xyz
x,y,z
-x,-y,-z
loop_
_atom_site_type_symbol
_atom_site_label
_atom_site_fract_x
_atom_site_fract_y
_atom_site_fract_z
Si Si1 0.078727 0.215889 0.345913
Si Si2 0.694328 0.368840 0.242288
Si Si3 0.291021 0.987837 0.593521
Si Si4 0.251828 0.143366 0.527658
Si Si5 0.417898 0.496275 0.874645
Si Si6 0.118338 0.317491 0.256106
Si Si7 0.626954 0.250479 0.307296
Si Si8 0.757743 0.317901 0.850760
O O1 0.436582 0.320719 0.338387
O O2 0.189509 0.334381 0.603412
O O3 0.935612 0.181209 0.194423
O O4 0.812579 0.057180 0.276199
O O5 0.597975 0.253805 0.160484
O O6 0.113207 0.570029 0.441191
O O7 0.645173 0.334846 0.037745
O O8 0.907386 0.844520 0.422923
O O9 0.500000 0.000000 0.500000
O O10 0.543377 0.157054 0.719350
O O11 0.273529 0.108843 0.306091
O O12 0.637149 0.291041 0.700266
O O13 0.000000 0.000000 0.500000
O O14 0.760476 0.653745 0.902942
O O15 0.169811 0.463435 0.933457
O O16 0.500000 0.500000 0.000000
O O17 0.500000 0.500000 0.500000
O O18 0.855531 0.275550 0.285618
#
# Coordination Sequence:
#
# PCOD9100501 Si02
#       8
#     2   2   2   2   2   2   2   2
#     4  11  22  44  64  94 131 176 216 265 335 392
#     4  11  24  40  66  98 130 173 215 271 333 392
#     4  11  23  45  71  91 126 179 228 273 331 396
#     4  10  23  42  64  95 130 174 219 274 328 388
#     4  11  22  40  68  99 133 171 216 269 324 392
#     4  10  20  37  64  91 128 170 207 262 324 386
#     4  11  21  40  66  94 133 175 213 260 341 390
#     4  11  25  42  67  99 132 169 228 278 322 388
#
# _framework density 25.420449000000001
#
# number of rings (size 3 to 8) (size 9 to 14) (size 15 to 20)
#    0.000    1.250    5.000    2.250    3.500    1.000 
#    2.250    0.000    0.000    3.750    0.000    0.000 
#    0.000    0.000    0.000    0.000    0.000    0.000 
#
# Total GULP energy -89483.594965 kJ/mol
# GULP energy per Si atom -5592.724685 kJ/mol
# Density = 2.536259 g / cm^3
# Si number density = 25.420449 Si / 1000 Ang^3
#
#
#
# Elastic Constant Matrix: (Units=GPa)
#
#
# Indices 1 2 3 4 5 6 
#
# 1 185.5498 75.2994 18.2457 -24.1608 30.3932 -6.5552
# 2 75.2994 143.4318 38.9374 -37.8773 6.2522 -18.4692
# 3 18.2457 38.9374 47.3116 -23.9141 8.9343 -7.7759
# 4 -24.1608 -37.8773 -23.9141 39.9452 -13.2941 1.2667
# 5 30.3932 6.2522 8.9343 -13.2941 38.7690 -10.8175
# 6 -6.5552 -18.4692 -7.7759 1.2667 -10.8175 61.2562
#
#
#
# Elastic Compliance Matrix: (Units=1/GPa)
#
#
# Indices 1 2 3 4 5 6 
#
# 1 0.008111 -0.004796 0.001297 -0.001038 -0.006679 -0.001571
# 2 -0.004796 0.013506 -0.005481 0.008817 0.006959 0.003910
# 3 0.001297 -0.005481 0.033356 0.014763 -0.002192 0.002028
# 4 -0.001038 0.008817 0.014763 0.045861 0.013342 0.005829
# 5 -0.006679 0.006959 -0.002192 0.013342 0.037044 0.007371
# 6 -0.001571 0.003910 0.002028 0.005829 0.007371 0.018774
#
#
# Mechanical properties :
#
#
# Convention : Reuss Voigt Hill
#
# Bulk Modulus (GPa) = 27.01604 71.25089 49.13347
# Shear Modulus (GPa) = 26.74507 44.24812 35.49660
#
# Velocity S-wave (km/s) = 3.24714 4.17664 3.74087
# Velocity P-wave (km/s) = 4.97085 7.16581 6.16677
#
# Compressibility (1/GPa) = 0.03701505
#
# Stress axis : x y z
#
# Youngs Moduli (GPa) = 123.28371 74.04131 29.97921
#
# Poissons Ratio (x) = 0.35508 -0.03889
# Poissons Ratio (y) = 0.59123 0.16431
# Poissons Ratio (z) = -0.15993 0.40581
#
# Static dielectric constant tensor:
#      x y z
#    x 1.733090 0.023300 -0.067530 
#    y 0.023300 2.080620 0.157710 
#    z -0.067530 0.157710 2.044240 
# 
# From -- ./inp_files/225499.got.cif
#   From: 2010.05.17/outbox.cif.g08.bks.cpg/sg2_113_cif.got.tgz:225499.got - 2010.06.03 11:33:40.
