data_PCOD9100727
_publ_section_title
;
Structure prediction by ZEFSAII (Michael W. Deem and Ramdas Pophale) SiO2 
 PCOD9100727
Probable space group: P -1
;
_chemical_formula_sum "Si O2"
_cell_formula_units_Z 10
_cell_length_a 5.512387
_cell_length_b 14.448394
_cell_length_c 15.683235
_cell_angle_alpha 26.753235
_cell_angle_beta 59.802867
_cell_angle_gamma 43.811104
_cell_volume 346.877171
_symmetry_space_group_name_H-M "P -1"
_symmetry_group_IT_number 2
_symmetry_cell_setting 'triclinic'
loop_
_space_group_symop_operation_xyz
x,y,z
-x,-y,-z
loop_
_atom_site_type_symbol
_atom_site_label
_atom_site_fract_x
_atom_site_fract_y
_atom_site_fract_z
Si Si1 0.492244 0.049221 0.862247
Si Si2 0.768449 0.422850 0.222351
Si Si3 0.378485 0.679593 0.494533
Si Si4 0.337005 0.439226 0.152650
Si Si5 0.673805 0.959310 0.269332
O O1 0.436752 0.320172 0.627500
O O2 0.174225 0.117962 0.795012
O O3 0.500000 0.000000 0.000000
O O4 0.927221 0.750863 0.002759
O O5 0.572554 0.501748 0.286114
O O6 0.648338 0.291352 0.295077
O O7 0.205218 0.282075 0.274980
O O8 0.586604 0.703840 0.967871
O O9 0.437775 0.865997 0.383009
O O10 0.961363 0.830583 0.403233
O O11 0.500000 0.500000 0.000000
#
# Coordination Sequence:
#
# PCOD9100727 Si02
#       5
#     2   2   2   2   2
#     4   9  21  41  66  90 129 168 207 264 320 370
#     4  11  20  41  67  89 128 171 211 256 322 377
#     4  10  20  37  65  93 125 165 215 256 316 380
#     4  11  23  42  66  92 131 168 208 265 322 372
#     4   9  19  37  60  88 132 154 212 259 318 359
#
# _framework density 28.828652000000002
#
# number of rings (size 3 to 8) (size 9 to 14) (size 15 to 20)
#    1.200    0.800    2.000    1.800    0.000    0.800 
#    0.000    7.000    0.000    0.000    0.000    0.000 
#    0.000    0.000    0.000    0.000    0.000    0.000 
#
# Total GULP energy -55737.577220 kJ/mol
# GULP energy per Si atom -5573.757722 kJ/mol
# Density = 2.876304 g / cm^3
# Si number density = 28.828652 Si / 1000 Ang^3
#
#
#
# Elastic Constant Matrix: (Units=GPa)
#
#
# Indices 1 2 3 4 5 6 
#
# 1 274.0457 15.3059 53.1216 2.3154 23.3675 -16.3508
# 2 15.3059 82.6822 33.9796 50.6921 8.7525 -1.9645
# 3 53.1216 33.9796 171.9032 31.9598 18.6582 7.9768
# 4 2.3154 50.6921 31.9598 48.1786 12.3700 4.1689
# 5 23.3675 8.7525 18.6582 12.3700 52.9810 4.4500
# 6 -16.3508 -1.9645 7.9768 4.1689 4.4500 16.1466
#
#
#
# Elastic Compliance Matrix: (Units=1/GPa)
#
#
# Indices 1 2 3 4 5 6 
#
# 1 0.004497 -0.001136 -0.001567 0.002124 -0.002180 0.005242
# 2 -0.001136 0.037941 -0.000372 -0.041544 0.002924 0.013571
# 3 -0.001567 -0.000372 0.007355 -0.003908 -0.000581 -0.004096
# 4 0.002124 -0.041544 -0.003908 0.070410 -0.007706 -0.017028
# 5 -0.002180 0.002924 -0.000581 -0.007706 0.021827 -0.005591
# 6 0.005242 0.013571 -0.004096 -0.017028 -0.005591 0.076853
#
#
# Mechanical properties :
#
#
# Convention : Reuss Voigt Hill
#
# Bulk Modulus (GPa) = 22.91275 81.49392 52.20333
# Shear Modulus (GPa) = 20.86997 51.87617 36.37307
#
# Velocity S-wave (km/s) = 2.69352 4.24661 3.55589
# Velocity P-wave (km/s) = 4.19983 7.23704 5.91664
#
# Compressibility (1/GPa) = 0.04364383
#
# Stress axis : x y z
#
# Youngs Moduli (GPa) = 222.37762 26.35674 135.96787
#
# Poissons Ratio (x) = 0.02993 0.21302
# Poissons Ratio (y) = 0.25252 0.05059
# Poissons Ratio (z) = 0.34839 0.00981
#
# Static dielectric constant tensor:
#      x y z
#    x 2.323540 0.041470 -0.018370 
#    y 0.041470 2.548160 -0.039540 
#    z -0.018370 -0.039540 2.210420 
# 
# From -- ./inp_files/23710.got.cif
#   From: 2010.05.17/outbox.cif.g08.bks.cpg/sg2_12_cif.got.tgz:23710.got - 2010.06.03 11:33:40.
