data_PCOD9100796
_publ_section_title
;
Structure prediction by ZEFSAII (Michael W. Deem and Ramdas Pophale) SiO2 
 PCOD9100796
Probable space group: P -1
;
_chemical_formula_sum "Si O2"
_cell_formula_units_Z 14
_cell_length_a 8.381954
_cell_length_b 11.725368
_cell_length_c 9.397030
_cell_angle_alpha 80.405500
_cell_angle_beta 83.134703
_cell_angle_gamma 41.219333
_cell_volume 600.032978
_symmetry_space_group_name_H-M "P -1"
_symmetry_group_IT_number 2
_symmetry_cell_setting 'triclinic'
loop_
_space_group_symop_operation_xyz
x,y,z
-x,-y,-z
loop_
_atom_site_type_symbol
_atom_site_label
_atom_site_fract_x
_atom_site_fract_y
_atom_site_fract_z
Si Si1 0.135224 0.646274 0.104025
Si Si2 0.299054 0.589164 0.628535
Si Si3 0.669497 0.806621 0.965202
Si Si4 0.378936 0.746474 0.142828
Si Si5 0.534099 0.727604 0.764102
Si Si6 0.887093 0.444860 0.577852
Si Si7 0.955754 0.049721 0.327721
O O1 0.213875 0.738568 0.077198
O O2 0.374180 0.435268 0.122203
O O3 0.027602 0.668913 0.267111
O O4 0.938491 0.700519 0.005475
O O5 0.500000 0.500000 0.500000
O O6 0.430040 0.433587 0.754261
O O7 0.094680 0.646933 0.538773
O O8 0.173420 0.756585 0.696173
O O9 0.532257 0.767774 0.053185
O O10 0.668121 0.766179 0.809154
O O11 0.500000 0.000000 0.000000
O O12 0.196457 0.903881 0.242455
O O13 0.625302 0.634790 0.619331
O O14 0.254364 0.908827 0.739522
O O15 0.000000 0.500000 0.500000
O O16 0.000000 0.000000 0.500000
#
# Coordination Sequence:
#
# PCOD9100796 Si02
#       7
#     2   2   2   2   2   2   2
#     4  10  22  46  70  99 142 185 240 290 350 425
#     4  12  19  43  67 100 140 177 226 286 350 423
#     4  12  28  47  67 101 147 186 248 298 343 422
#     4  12  25  45  73 106 142 190 237 292 358 418
#     4  10  23  44  67 102 138 193 238 286 359 422
#     4  10  20  37  66 100 136 174 234 287 346 420
#     4  12  22  39  75 108 140 179 234 291 356 427
#
# _framework density 23.332051
#
# number of rings (size 3 to 8) (size 9 to 14) (size 15 to 20)
#    0.857    0.000    5.714    2.143    0.000    4.000 
#    2.571    0.000    0.000    6.857    0.000    0.000 
#    0.000    0.000    0.000    0.000    0.000    0.000 
#
# Total GULP energy -77981.523470 kJ/mol
# GULP energy per Si atom -5570.108819 kJ/mol
# Density = 2.327895 g / cm^3
# Si number density = 23.332051 Si / 1000 Ang^3
#
#
#
# Elastic Constant Matrix: (Units=GPa)
#
#
# Indices 1 2 3 4 5 6 
#
# 1 114.9713 21.8644 66.8693 7.1237 5.2976 23.0881
# 2 21.8644 131.1967 30.9868 5.3528 -5.8150 12.1033
# 3 66.8693 30.9868 62.9234 4.7336 22.7058 -0.1530
# 4 7.1237 5.3528 4.7336 31.4208 1.1161 7.4523
# 5 5.2976 -5.8150 22.7058 1.1161 49.6430 5.4254
# 6 23.0881 12.1033 -0.1530 7.4523 5.4254 40.1769
#
#
#
# Elastic Compliance Matrix: (Units=1/GPa)
#
#
# Indices 1 2 3 4 5 6 
#
# 1 0.094643 0.025737 -0.137035 0.009878 0.063353 -0.073050
# 2 0.025737 0.016643 -0.043617 0.002679 0.021649 -0.023390
# 3 -0.137035 -0.043617 0.221968 -0.017336 -0.103635 0.109944
# 4 0.009878 0.002679 -0.017336 0.034798 0.007945 -0.014077
# 5 0.063353 0.021649 -0.103635 0.007945 0.069056 -0.054122
# 6 -0.073050 -0.023390 0.109944 -0.014077 -0.054122 0.084254
#
#
# Mechanical properties :
#
#
# Convention : Reuss Voigt Hill
#
# Bulk Modulus (GPa) = 42.68977 60.94803 51.81890
# Shear Modulus (GPa) = 5.95948 36.87286 21.41617
#
# Velocity S-wave (km/s) = 1.59992 3.97968 3.03295
# Velocity P-wave (km/s) = 4.66362 6.87720 5.87559
#
# Compressibility (1/GPa) = 0.02342481
#
# Stress axis : x y z
#
# Youngs Moduli (GPa) = 10.56597 60.08649 4.50516
#
# Poissons Ratio (x) = -1.54644 0.61736
# Poissons Ratio (y) = -0.27194 0.19650
# Poissons Ratio (z) = 1.44790 2.62079
#
# Static dielectric constant tensor:
#      x y z
#    x 2.029390 -0.154450 -0.087430 
#    y -0.154450 1.919560 0.131340 
#    z -0.087430 0.131340 2.024930 
# 
# From -- ./inp_files/387306.got.cif
#   From: 2010.05.17/outbox.cif.g08.bks.cpg/sg2_194_cif.got.tgz:387306.got - 2010.06.03 11:33:40.
