data_PCOD9100883
_publ_section_title
;
Structure prediction by ZEFSAII (Michael W. Deem and Ramdas Pophale) SiO2 
 PCOD9100883
Probable space group: P -1
;
_chemical_formula_sum "Si O2"
_cell_formula_units_Z 16
_cell_length_a 11.592057
_cell_length_b 11.242575
_cell_length_c 9.142384
_cell_angle_alpha 119.560679
_cell_angle_beta 91.193117
_cell_angle_gamma 46.447933
_cell_volume 647.788395
_symmetry_space_group_name_H-M "P -1"
_symmetry_group_IT_number 2
_symmetry_cell_setting 'triclinic'
loop_
_space_group_symop_operation_xyz
x,y,z
-x,-y,-z
loop_
_atom_site_type_symbol
_atom_site_label
_atom_site_fract_x
_atom_site_fract_y
_atom_site_fract_z
Si Si1 0.119380 0.691587 0.384574
Si Si2 0.701974 0.748117 0.375724
Si Si3 0.309808 0.497346 0.973499
Si Si4 0.290065 0.302187 0.311838
Si Si5 0.587302 0.368640 0.572759
Si Si6 0.673280 0.238273 0.968499
Si Si7 0.199982 0.078930 0.671484
Si Si8 0.721161 0.960741 0.026621
O O1 0.148852 0.554279 0.427783
O O2 0.217104 0.737195 0.470451
O O3 0.919157 0.891205 0.434334
O O4 0.229738 0.529101 0.148026
O O5 0.727410 0.578447 0.197175
O O6 0.727352 0.720557 0.533036
O O7 0.815691 0.754422 0.290508
O O8 0.500000 0.000000 0.500000
O O9 0.224753 0.728502 0.084621
O O10 0.530900 0.301057 0.889829
O O11 0.500425 0.155968 0.183922
O O12 0.242574 0.216660 0.157605
O O13 0.500000 0.500000 0.500000
O O14 0.458181 0.551458 0.801905
O O15 0.612052 0.184363 0.478874
O O16 0.757382 0.046412 0.960058
O O17 0.164888 0.119495 0.869814
#
# Coordination Sequence:
#
# PCOD9100883 Si02
#       8
#     2   2   2   2   2   2   2   2
#     4  11  25  44  62  94 138 174 207 260 334 395
#     4  12  24  38  66 100 127 165 228 276 311 372
#     4  10  22  39  62  95 131 166 209 270 321 381
#     4  11  23  40  64  95 131 169 218 273 313 383
#     4  11  21  41  70  96 122 167 217 267 315 380
#     4  10  20  37  66  96 124 161 219 270 319 368
#     4  12  25  41  66  96 131 174 213 264 331 388
#     4  11  21  40  65  93 127 171 218 262 324 382
#
# _framework density 24.699424
#
# number of rings (size 3 to 8) (size 9 to 14) (size 15 to 20)
#    0.000    1.000    5.000    2.625    1.750    4.500 
#    0.000    0.625    0.000    0.000    0.000    0.000 
#    0.000    0.000    0.000    0.000    0.000    0.000 
#
# Total GULP energy -89444.947942 kJ/mol
# GULP energy per Si atom -5590.309246 kJ/mol
# Density = 2.464321 g / cm^3
# Si number density = 24.699424 Si / 1000 Ang^3
#
#
#
# Elastic Constant Matrix: (Units=GPa)
#
#
# Indices 1 2 3 4 5 6 
#
# 1 59.6150 36.3751 5.0808 -2.7210 14.5345 21.5763
# 2 36.3751 139.6736 22.7150 -31.7887 -4.3820 36.1243
# 3 5.0808 22.7150 62.0576 -13.9361 8.3458 12.8704
# 4 -2.7210 -31.7887 -13.9361 44.8130 8.5160 -2.8588
# 5 14.5345 -4.3820 8.3458 8.5160 27.7512 0.4688
# 6 21.5763 36.1243 12.8704 -2.8588 0.4688 37.9721
#
#
#
# Elastic Compliance Matrix: (Units=1/GPa)
#
#
# Indices 1 2 3 4 5 6 
#
# 1 0.028378 -0.004938 0.005021 0.002323 -0.017650 -0.012736
# 2 -0.004938 0.012450 -0.001275 0.007066 0.002904 -0.008110
# 3 0.005021 -0.001275 0.021079 0.007601 -0.011366 -0.008073
# 4 0.002323 0.007066 0.007601 0.031585 -0.011943 -0.008093
# 5 -0.017650 0.002904 -0.011366 -0.011943 0.052659 0.009570
# 6 -0.012736 -0.008110 -0.008073 -0.008093 0.009570 0.043296
#
#
# Mechanical properties :
#
#
# Convention : Reuss Voigt Hill
#
# Bulk Modulus (GPa) = 16.79997 43.29866 30.04932
# Shear Modulus (GPa) = 23.62149 35.25230 29.43690
#
# Velocity S-wave (km/s) = 3.09586 3.78200 3.45600
# Velocity P-wave (km/s) = 4.42670 6.05307 5.30261
#
# Compressibility (1/GPa) = 0.05952391
#
# Stress axis : x y z
#
# Youngs Moduli (GPa) = 35.23816 80.32436 47.43991
#
# Poissons Ratio (x) = 0.39665 -0.23819
# Poissons Ratio (y) = 0.17401 0.06046
# Poissons Ratio (z) = -0.17693 0.10238
#
# Static dielectric constant tensor:
#      x y z
#    x 2.266850 0.003690 -0.119600 
#    y 0.003690 1.979180 -0.001930 
#    z -0.119600 -0.001930 1.945860 
# 
# From -- ./inp_files/263089.got.cif
#   From: 2010.05.17/outbox.cif.g08.bks.cpg/sg2_132_cif.got.tgz:263089.got - 2010.06.03 11:33:40.
