data_PCOD9100599
_publ_section_title
;
Structure prediction by ZEFSAII (Michael W. Deem and Ramdas Pophale) SiO2 
 PCOD9100599
Probable space group: P -1
;
_chemical_formula_sum "Si O2"
_cell_formula_units_Z 15
_cell_length_a 12.691890
_cell_length_b 19.435904
_cell_length_c 8.989409
_cell_angle_alpha 43.223982
_cell_angle_beta 136.579948
_cell_angle_gamma 155.672686
_cell_volume 610.136740
_symmetry_space_group_name_H-M "P -1"
_symmetry_group_IT_number 2
_symmetry_cell_setting 'triclinic'
loop_
_space_group_symop_operation_xyz
x,y,z
-x,-y,-z
loop_
_atom_site_type_symbol
_atom_site_label
_atom_site_fract_x
_atom_site_fract_y
_atom_site_fract_z
Si Si1 0.500000 0.500000 0.500000
Si Si2 0.897977 0.686429 0.281084
Si Si3 0.700438 0.964320 0.678911
Si Si4 0.239471 0.596900 0.303519
Si Si5 0.926348 0.314442 0.821893
Si Si6 0.092523 0.818958 0.704900
Si Si7 0.288377 0.729140 0.874219
Si Si8 0.531394 0.649621 0.996426
O O1 0.794039 0.689431 0.568946
O O2 0.516040 0.592550 0.234436
O O3 0.085668 0.731299 0.285833
O O4 0.692485 0.655770 0.052390
O O5 0.739251 0.510618 0.475123
O O6 0.061681 0.844440 0.309682
O O7 0.475155 0.868713 0.718502
O O8 0.685958 0.836277 0.867144
O O9 0.708134 0.000221 0.457561
O O10 0.234917 0.672192 0.316322
O O11 0.942877 0.449646 0.168119
O O12 0.409847 0.725020 0.136121
O O13 0.862202 0.188219 0.066616
O O14 0.236661 0.503847 0.863142
O O15 0.152726 0.746946 0.794862
#
# Coordination Sequence:
#
# PCOD9100599 Si02
#       8
#     1   2   2   2   2   2   2   2
#     4  10  20  38  64  90 118 160 218 254 292 364
#     4  12  24  39  62  96 126 164 203 267 312 369
#     4  12  23  37  65  95 127 157 215 257 314 359
#     4  10  20  39  65  91 120 163 216 249 309 373
#     4  10  23  43  62  87 130 165 211 248 316 377
#     4  10  21  39  63  92 126 166 204 262 308 369
#     4  10  20  37  64  97 118 161 213 262 300 367
#     4  11  23  40  64  91 122 166 212 256 306 373
#
# _framework density 24.584652999999999
#
# number of rings (size 3 to 8) (size 9 to 14) (size 15 to 20)
#    0.000    1.333    4.000    1.600    3.733    0.000 
#    0.000    4.667    0.000    0.000    0.000    0.000 
#    0.000    0.000    0.000    0.000    0.000    0.000 
#
# Total GULP energy -83549.164285 kJ/mol
# GULP energy per Si atom -5569.944286 kJ/mol
# Density = 2.452870 g / cm^3
# Si number density = 24.584653 Si / 1000 Ang^3
#
#
#
# Elastic Constant Matrix: (Units=GPa)
#
#
# Indices 1 2 3 4 5 6 
#
# 1 86.5718 25.3215 35.4780 -8.3391 15.8605 -15.1071
# 2 25.3215 68.7095 36.4071 -14.3475 0.1533 -11.4523
# 3 35.4780 36.4071 149.6012 -45.2250 -2.1162 -17.9706
# 4 -8.3391 -14.3475 -45.2250 34.4095 4.8262 -0.9375
# 5 15.8605 0.1533 -2.1162 4.8262 32.9682 -8.7505
# 6 -15.1071 -11.4523 -17.9706 -0.9375 -8.7505 31.3487
#
#
#
# Elastic Compliance Matrix: (Units=1/GPa)
#
#
# Indices 1 2 3 4 5 6 
#
# 1 0.015437 -0.003930 -0.002553 -0.000222 -0.006844 0.002623
# 2 -0.003930 0.018585 -0.001651 0.004433 0.002303 0.004725
# 3 -0.002553 -0.001651 0.013486 0.016392 0.001509 0.006809
# 4 -0.000222 0.004433 0.016392 0.053219 -0.003601 0.011495
# 5 -0.006844 0.002303 0.001509 -0.003601 0.036491 0.008487
# 6 0.002623 0.004725 0.006809 0.011495 0.008487 0.041505
#
#
# Mechanical properties :
#
#
# Convention : Reuss Voigt Hill
#
# Bulk Modulus (GPa) = 32.00971 55.47730 43.74351
# Shear Modulus (GPa) = 24.34219 33.59034 28.96627
#
# Velocity S-wave (km/s) = 3.15006 3.70038 3.43625
# Velocity P-wave (km/s) = 5.12630 6.39311 5.79443
#
# Compressibility (1/GPa) = 0.03124052
#
# Stress axis : x y z
#
# Youngs Moduli (GPa) = 64.77913 53.80676 74.14933
#
# Poissons Ratio (x) = 0.21146 0.18933
# Poissons Ratio (y) = 0.25458 0.12239
# Poissons Ratio (z) = 0.16541 0.08881
#
# Static dielectric constant tensor:
#      x y z
#    x -0.081650 -0.988110 0.160000 
#    y -0.988110 1.464610 0.115670 
#    z 0.160000 0.115670 2.035630 
# 
# From -- ./inp_files/281531.got.cif
#   From: 2010.05.17/outbox.cif.g08.bks.cpg/sg2_141_cif.got.tgz:281531.got - 2010.06.03 11:33:40.
