data_PCOD9100328
_publ_section_title
;
Structure prediction by ZEFSAII (Michael W. Deem and Ramdas Pophale) SiO2 
 PCOD9100328
Probable space group: P -1
;
_chemical_formula_sum "Si O2"
_cell_formula_units_Z 16
_cell_length_a 5.731161
_cell_length_b 9.512475
_cell_length_c 17.879252
_cell_angle_alpha 124.507113
_cell_angle_beta 72.200505
_cell_angle_gamma 121.622240
_cell_volume 683.920640
_symmetry_space_group_name_H-M "P -1"
_symmetry_group_IT_number 2
_symmetry_cell_setting 'triclinic'
loop_
_space_group_symop_operation_xyz
x,y,z
-x,-y,-z
loop_
_atom_site_type_symbol
_atom_site_label
_atom_site_fract_x
_atom_site_fract_y
_atom_site_fract_z
Si Si1 0.975467 0.188641 0.581657
Si Si2 0.684623 0.345626 0.992645
Si Si3 0.963274 0.757789 0.709876
Si Si4 0.882915 0.440670 0.242058
Si Si5 0.412398 0.573143 0.137841
Si Si6 0.526837 0.059737 0.710596
Si Si7 0.813657 0.602756 0.527020
Si Si8 0.651096 0.967598 0.833793
O O1 0.704128 0.101022 0.632053
O O2 0.162261 0.376974 0.672220
O O3 0.009089 0.274100 0.521913
O O4 0.000000 0.000000 0.500000
O O5 0.549289 0.354626 0.929332
O O6 0.654951 0.132873 0.937330
O O7 0.534030 0.422438 0.089645
O O8 0.000000 0.500000 0.000000
O O9 0.782856 0.698054 0.635729
O O10 0.896198 0.911009 0.806109
O O11 0.945745 0.593413 0.716944
O O12 0.266215 0.859254 0.677387
O O13 0.621203 0.235998 0.195866
O O14 0.093624 0.491557 0.167693
O O15 0.561195 0.769094 0.227502
O O16 0.674125 0.054744 0.773342
O O17 0.500000 0.500000 0.500000
O O18 0.000000 0.500000 0.500000
#
# Coordination Sequence:
#
# PCOD9100328 Si02
#       8
#     2   2   2   2   2   2   2   2
#     4  11  23  42  68  97 129 174 231 292 340 415
#     4  10  20  37  63  93 125 164 215 268 336 401
#     4  11  22  40  65  87 130 174 218 276 342 416
#     4  10  22  42  62  91 128 171 219 272 348 406
#     4   9  20  39  62  90 127 161 207 280 327 409
#     4   9  21  41  62  94 124 167 223 271 346 396
#     4  12  27  47  70  99 140 184 232 294 356 419
#     4  10  21  39  63  90 127 174 215 273 335 412
#
# _framework density 23.394528000000001
#
# number of rings (size 3 to 8) (size 9 to 14) (size 15 to 20)
#    0.000    1.750    1.250    2.250    3.500    3.000 
#    2.250    6.250    0.000    0.000    0.000    0.000 
#    0.000    0.000    0.000    0.000    0.000    0.000 
#
# Total GULP energy -89188.302815 kJ/mol
# GULP energy per Si atom -5574.268926 kJ/mol
# Density = 2.334128 g / cm^3
# Si number density = 23.394528 Si / 1000 Ang^3
#
#
#
# Elastic Constant Matrix: (Units=GPa)
#
#
# Indices 1 2 3 4 5 6 
#
# 1 54.6691 20.8650 22.6398 14.8533 -15.5803 -7.6506
# 2 20.8650 108.3546 24.6351 3.5293 -19.1163 -6.6200
# 3 22.6398 24.6351 101.1558 30.7609 -41.0185 -12.6297
# 4 14.8533 3.5293 30.7609 48.4484 -11.3757 -8.2612
# 5 -15.5803 -19.1163 -41.0185 -11.3757 36.7901 4.9116
# 6 -7.6506 -6.6200 -12.6297 -8.2612 4.9116 27.7664
#
#
#
# Elastic Compliance Matrix: (Units=1/GPa)
#
#
# Indices 1 2 3 4 5 6 
#
# 1 0.022954 -0.002966 -0.000040 -0.004808 0.006238 0.003065
# 2 -0.002966 0.010663 -0.000760 0.001716 0.003805 0.001217
# 3 -0.000040 -0.000760 0.021157 -0.008024 0.020233 0.003465
# 4 -0.004808 0.001716 -0.008024 0.027239 -0.002192 0.003927
# 5 0.006238 0.003805 0.020233 -0.002192 0.053451 0.001722
# 6 0.003065 0.001217 0.003465 0.003927 0.001722 0.039589
#
#
# Mechanical properties :
#
#
# Convention : Reuss Voigt Hill
#
# Bulk Modulus (GPa) = 21.16839 44.49547 32.83193
# Shear Modulus (GPa) = 25.21023 35.67029 30.44026
#
# Velocity S-wave (km/s) = 3.28626 3.90901 3.61109
# Velocity P-wave (km/s) = 4.84432 6.27971 5.60813
#
# Compressibility (1/GPa) = 0.04724025
#
# Stress axis : x y z
#
# Youngs Moduli (GPa) = 43.56557 93.78505 47.26608
#
# Poissons Ratio (x) = 0.27820 0.00191
# Poissons Ratio (y) = 0.12923 0.03591
# Poissons Ratio (z) = 0.00176 0.07125
#
# Static dielectric constant tensor:
#      x y z
#    x 1.979000 -0.032180 -0.041050 
#    y -0.032180 1.849560 0.066320 
#    z -0.041050 0.066320 2.047330 
# 
# From -- ./inp_files/548303.got.cif
#   From: 2010.05.17/outbox.cif.g08.bks.cpg/sg2_275_cif.got.tgz:548303.got - 2010.06.03 11:33:40.
