data_PCOD9100251
_publ_section_title
;
Structure prediction by ZEFSAII (Michael W. Deem and Ramdas Pophale) SiO2 
 PCOD9100251
Probable space group: P -1
;
_chemical_formula_sum "Si O2"
_cell_formula_units_Z 14
_cell_length_a 9.320192
_cell_length_b 14.183706
_cell_length_c 12.439723
_cell_angle_alpha 31.359659
_cell_angle_beta 124.648079
_cell_angle_gamma 125.244190
_cell_volume 687.731248
_symmetry_space_group_name_H-M "P -1"
_symmetry_group_IT_number 2
_symmetry_cell_setting 'triclinic'
loop_
_space_group_symop_operation_xyz
x,y,z
-x,-y,-z
loop_
_atom_site_type_symbol
_atom_site_label
_atom_site_fract_x
_atom_site_fract_y
_atom_site_fract_z
Si Si1 0.742796 0.568990 0.868508
Si Si2 0.185503 0.964274 0.156183
Si Si3 0.984477 0.827190 0.407898
Si Si4 0.705657 0.074869 0.986781
Si Si5 0.102012 0.570995 0.141365
Si Si6 0.467286 0.223873 0.148317
Si Si7 0.719035 0.942880 0.548790
O O1 0.797430 0.465140 0.889250
O O2 0.725712 0.777453 0.631000
O O3 0.567814 0.434687 0.972432
O O4 0.905179 0.592082 0.000395
O O5 0.132013 0.845940 0.356782
O O6 0.312577 0.155311 0.062769
O O7 0.273356 0.881758 0.174029
O O8 0.000000 0.000000 0.000000
O O9 0.920019 0.615268 0.617681
O O10 0.823437 0.921633 0.211553
O O11 0.090395 0.943797 0.438495
O O12 0.793405 0.253198 0.920512
O O13 0.500000 0.000000 0.000000
O O14 0.382418 0.167300 0.283947
O O15 0.609480 0.092926 0.318771
#
# Coordination Sequence:
#
# PCOD9100251 Si02
#       7
#     2   2   2   2   2   2   2
#     4  11  22  37  58  94 123 155 198 250 308 359
#     4   9  21  41  64  87 120 166 199 243 302 355
#     4  10  21  42  62  88 124 157 203 254 300 359
#     4  11  23  42  64  86 123 166 202 248 297 362
#     4  11  24  37  61  89 121 162 202 245 304 360
#     4  10  20  38  63  91 118 152 206 250 299 365
#     4  10  20  37  63  90 121 155 194 255 313 348
#
# _framework density 20.356788999999999
#
# number of rings (size 3 to 8) (size 9 to 14) (size 15 to 20)
#    0.000    1.714    2.857    1.286    0.000    4.000 
#    0.000    2.857    0.000    0.000    0.000    0.000 
#    0.000    0.000    0.000    0.000    0.000    0.000 
#
# Total GULP energy -78214.578390 kJ/mol
# GULP energy per Si atom -5586.755599 kJ/mol
# Density = 2.031046 g / cm^3
# Si number density = 20.356789 Si / 1000 Ang^3
#
#
#
# Elastic Constant Matrix: (Units=GPa)
#
#
# Indices 1 2 3 4 5 6 
#
# 1 86.9209 48.2543 20.8695 -10.0440 -7.8043 9.9748
# 2 48.2543 136.1053 27.9178 -20.4234 -13.1841 7.4437
# 3 20.8695 27.9178 68.2422 -24.2998 -1.7868 2.7884
# 4 -10.0440 -20.4234 -24.2998 21.5378 2.8400 3.8579
# 5 -7.8043 -13.1841 -1.7868 2.8400 28.8133 -3.0487
# 6 9.9748 7.4437 2.7884 3.8579 -3.0487 30.0700
#
#
#
# Elastic Compliance Matrix: (Units=1/GPa)
#
#
# Indices 1 2 3 4 5 6 
#
# 1 0.015176 -0.004455 -0.002430 0.000565 0.001482 -0.003628
# 2 -0.004455 0.010454 0.000026 0.007854 0.002608 -0.001856
# 3 -0.002430 0.000026 0.026145 0.029748 -0.002560 -0.005701
# 4 0.000565 0.007854 0.029748 0.091468 -0.005239 -0.017157
# 5 0.001482 0.002608 -0.002560 -0.005239 0.037032 0.003527
# 6 -0.003628 -0.001856 -0.005701 -0.017157 0.003527 0.038006
#
#
# Mechanical properties :
#
#
# Convention : Reuss Voigt Hill
#
# Bulk Modulus (GPa) = 26.27637 53.92797 40.10217
# Shear Modulus (GPa) = 20.43452 29.03267 24.73360
#
# Velocity S-wave (km/s) = 3.17175 3.78059 3.48947
# Velocity P-wave (km/s) = 5.13315 6.75323 5.99814
#
# Compressibility (1/GPa) = 0.03805701
#
# Stress axis : x y z
#
# Youngs Moduli (GPa) = 65.89226 95.65725 38.24871
#
# Poissons Ratio (x) = 0.42618 0.09295
# Poissons Ratio (y) = 0.29357 -0.00101
# Poissons Ratio (z) = 0.16013 -0.00253
#
# Static dielectric constant tensor:
#      x y z
#    x 1.773450 -0.029470 -0.005650 
#    y -0.029470 1.703150 0.027120 
#    z -0.005650 0.027120 1.711360 
# 
# From -- ./inp_files/60498.got.cif
#   From: 2010.05.17/outbox.cif.g08.bks.cpg/sg2_31_cif.got.tgz:60498.got - 2010.06.03 11:33:40.
