data_PCOD9100850
_publ_section_title
;
Structure prediction by ZEFSAII (Michael W. Deem and Ramdas Pophale) SiO2 
 PCOD9100850
Probable space group: P -1
;
_chemical_formula_sum "Si O2"
_cell_formula_units_Z 16
_cell_length_a 15.892238
_cell_length_b 23.314729
_cell_length_c 9.385418
_cell_angle_alpha 130.353801
_cell_angle_beta 49.955799
_cell_angle_gamma 162.573104
_cell_volume 788.662252
_symmetry_space_group_name_H-M "P -1"
_symmetry_group_IT_number 2
_symmetry_cell_setting 'triclinic'
loop_
_space_group_symop_operation_xyz
x,y,z
-x,-y,-z
loop_
_atom_site_type_symbol
_atom_site_label
_atom_site_fract_x
_atom_site_fract_y
_atom_site_fract_z
Si Si1 0.333036 0.509997 0.351099
Si Si2 0.664791 0.607443 0.345712
Si Si3 0.285189 0.851825 0.839486
Si Si4 0.317108 0.951367 0.691261
Si Si5 0.648430 0.446972 0.913034
Si Si6 0.287224 0.643136 0.756862
Si Si7 0.300525 0.988467 0.266286
Si Si8 0.659903 0.316122 0.897567
O O1 0.542628 0.595941 0.361857
O O2 0.473525 0.607447 0.196980
O O3 0.283845 0.561048 0.551669
O O4 0.022323 0.273016 0.314800
O O5 0.500000 0.500000 0.500000
O O6 0.637006 0.513496 0.131965
O O7 0.995431 0.825660 0.373405
O O8 0.374537 0.973464 0.831184
O O9 0.477574 0.900429 0.680355
O O10 0.964469 0.626308 0.803117
O O11 0.260452 0.880655 0.062751
O O12 0.500000 0.000000 0.500000
O O13 0.447179 0.113362 0.772323
O O14 0.576259 0.331415 0.907897
O O15 0.532765 0.848953 0.752685
O O16 0.986957 0.494875 0.814270
O O17 0.344999 0.667779 0.901981
#
# Coordination Sequence:
#
# PCOD9100850 Si02
#       8
#     2   2   2   2   2   2   2   2
#     4  11  25  43  64  94 135 176 215 259 333 388
#     4  11  25  44  68  93 128 180 223 260 315 398
#     4   9  19  36  62  96 122 163 210 263 330 372
#     4  11  22  37  62  96 133 169 205 270 323 388
#     4  10  22  43  67  92 130 170 215 272 323 386
#     4  11  22  38  67 101 135 164 214 278 321 385
#     4  10  20  37  66  92 128 163 216 266 318 375
#     4  11  22  39  66 103 132 166 216 271 332 375
#
# _framework density 20.287520000000001
#
# number of rings (size 3 to 8) (size 9 to 14) (size 15 to 20)
#    0.000    1.500    3.750    1.125    1.750    2.000 
#    0.000    0.625    0.000    0.000    0.000    0.000 
#    0.000    0.000    0.000    0.000    0.000    0.000 
#
# Total GULP energy -89134.184553 kJ/mol
# GULP energy per Si atom -5570.886535 kJ/mol
# Density = 2.024134 g / cm^3
# Si number density = 20.287520 Si / 1000 Ang^3
#
#
#
# Elastic Constant Matrix: (Units=GPa)
#
#
# Indices 1 2 3 4 5 6 
#
# 1 116.1569 35.0454 26.3974 -17.5894 2.0018 -13.5424
# 2 35.0454 88.0402 21.3054 -18.1164 -0.5616 -6.2465
# 3 26.3974 21.3054 79.7635 -1.5717 3.2692 1.2299
# 4 -17.5894 -18.1164 -1.5717 22.3716 -0.7469 -9.7522
# 5 2.0018 -0.5616 3.2692 -0.7469 19.4665 -3.4213
# 6 -13.5424 -6.2465 1.2299 -9.7522 -3.4213 29.3229
#
#
#
# Elastic Compliance Matrix: (Units=1/GPa)
#
#
# Indices 1 2 3 4 5 6 
#
# 1 0.013215 -0.000373 -0.004235 0.014800 0.001903 0.011346
# 2 -0.000373 0.016877 -0.004342 0.017483 0.003656 0.009846
# 3 -0.004235 -0.004342 0.015185 -0.008927 -0.003800 -0.006930
# 4 0.014800 0.017483 -0.008927 0.088390 0.011191 0.041636
# 5 0.001903 0.003656 -0.003800 0.011191 0.054437 0.011891
# 6 0.011346 0.009846 -0.006930 0.041636 0.011891 0.056966
#
#
# Mechanical properties :
#
#
# Convention : Reuss Voigt Hill
#
# Bulk Modulus (GPa) = 36.52627 49.93967 43.23297
# Shear Modulus (GPa) = 18.37589 27.64636 23.01112
#
# Velocity S-wave (km/s) = 3.01287 3.69552 3.37152
# Velocity P-wave (km/s) = 5.49059 6.54817 6.04256
#
# Compressibility (1/GPa) = 0.02737756
#
# Stress axis : x y z
#
# Youngs Moduli (GPa) = 75.67078 59.25229 65.85398
#
# Poissons Ratio (x) = 0.02210 0.27891
# Poissons Ratio (y) = 0.02822 0.28592
# Poissons Ratio (z) = 0.32048 0.25726
#
# Static dielectric constant tensor:
#      x y z
#    x 1.882310 0.089120 0.090600 
#    y 0.089120 1.768040 0.032900 
#    z 0.090600 0.032900 1.741820 
# 
# From -- ./inp_files/319465.got.cif
#   From: 2010.05.17/outbox.cif.g08.bks.cpg/sg2_160_cif.got.tgz:319465.got - 2010.06.03 11:33:40.
