data_PCOD9100793
_publ_section_title
;
Structure prediction by ZEFSAII (Michael W. Deem and Ramdas Pophale) SiO2 
 PCOD9100793
Probable space group: P -1
;
_chemical_formula_sum "Si O2"
_cell_formula_units_Z 12
_cell_length_a 9.023016
_cell_length_b 13.183910
_cell_length_c 9.073830
_cell_angle_alpha 31.772708
_cell_angle_beta 103.611363
_cell_angle_gamma 117.322048
_cell_volume 476.483087
_symmetry_space_group_name_H-M "P -1"
_symmetry_group_IT_number 2
_symmetry_cell_setting 'triclinic'
loop_
_space_group_symop_operation_xyz
x,y,z
-x,-y,-z
loop_
_atom_site_type_symbol
_atom_site_label
_atom_site_fract_x
_atom_site_fract_y
_atom_site_fract_z
Si Si1 0.678129 0.955116 0.539203
Si Si2 0.125925 0.428263 0.700919
Si Si3 0.528415 0.841712 0.313377
Si Si4 0.962921 0.682996 0.851362
Si Si5 0.354480 0.621281 0.993895
Si Si6 0.298007 0.358676 0.574938
O O1 0.664183 0.171010 0.318485
O O2 0.597398 0.912900 0.407778
O O3 0.564258 0.735620 0.881991
O O4 0.887928 0.068816 0.463302
O O5 0.328066 0.628342 0.534422
O O6 0.035877 0.335222 0.951095
O O7 0.161387 0.281857 0.770375
O O8 0.000000 0.500000 0.500000
O O9 0.685403 0.816193 0.307368
O O10 0.500000 0.000000 0.000000
O O11 0.761746 0.593712 0.867110
O O12 0.000000 0.500000 0.000000
O O13 0.283594 0.535192 0.246581
O O14 0.500000 0.500000 0.500000
#
# Coordination Sequence:
#
# PCOD9100793 Si02
#       6
#     2   2   2   2   2   2
#     4  10  20  37  66 100 126 176 225 263 329 401
#     4  11  21  40  67  97 135 178 214 274 341 394
#     4  11  22  41  67  97 131 176 230 275 330 399
#     4  10  20  38  64  98 135 173 217 268 333 397
#     4  10  20  40  67  92 134 173 220 273 332 395
#     4  10  23  42  67  96 133 180 222 274 340 395
#
# _framework density 25.184524
#
# number of rings (size 3 to 8) (size 9 to 14) (size 15 to 20)
#    0.000    1.667    1.667    5.000    0.000    0.667 
#    0.000    4.167    7.333    0.000    0.000    0.000 
#    0.000    0.000    0.000    0.000    0.000    0.000 
#
# Total GULP energy -66963.947627 kJ/mol
# GULP energy per Si atom -5580.328969 kJ/mol
# Density = 2.512720 g / cm^3
# Si number density = 25.184524 Si / 1000 Ang^3
#
#
#
# Elastic Constant Matrix: (Units=GPa)
#
#
# Indices 1 2 3 4 5 6 
#
# 1 117.0685 35.7579 34.6158 -3.4650 -12.5331 -20.0830
# 2 35.7579 117.6354 34.8941 8.8475 -22.9345 -5.5003
# 3 34.6158 34.8941 87.9094 8.5360 -16.0667 9.7348
# 4 -3.4650 8.8475 8.5360 43.2736 10.0184 -19.8978
# 5 -12.5331 -22.9345 -16.0667 10.0184 42.2844 -0.4152
# 6 -20.0830 -5.5003 9.7348 -19.8978 -0.4152 54.2636
#
#
#
# Elastic Compliance Matrix: (Units=1/GPa)
#
#
# Indices 1 2 3 4 5 6 
#
# 1 0.012301 -0.002453 -0.005559 0.006377 -0.001233 0.007630
# 2 -0.002453 0.011145 -0.002038 -0.003650 0.005402 -0.000710
# 3 -0.005559 -0.002038 0.017203 -0.008652 0.005750 -0.008479
# 4 0.006377 -0.003650 -0.008652 0.036576 -0.011877 0.016863
# 5 -0.001233 0.005402 0.005750 -0.011877 0.031163 -0.005057
# 6 0.007630 -0.000710 -0.008479 0.016863 -0.005057 0.028847
#
#
# Mechanical properties :
#
#
# Convention : Reuss Voigt Hill
#
# Bulk Modulus (GPa) = 48.66476 59.23877 53.95176
# Shear Modulus (GPa) = 30.45332 42.45404 36.45368
#
# Velocity S-wave (km/s) = 3.48114 4.11021 3.80868
# Velocity P-wave (km/s) = 5.96012 6.78955 6.38831
#
# Compressibility (1/GPa) = 0.02054875
#
# Stress axis : x y z
#
# Youngs Moduli (GPa) = 81.29490 89.72249 58.12862
#
# Poissons Ratio (x) = 0.22012 0.32316
# Poissons Ratio (y) = 0.19944 0.11845
# Poissons Ratio (z) = 0.45195 0.18283
#
# Static dielectric constant tensor:
#      x y z
#    x 2.274620 -0.031970 -0.031060 
#    y -0.031970 2.084650 -0.035100 
#    z -0.031060 -0.035100 1.980570 
# 
# From -- ./inp_files/146869.got.cif
#   From: 2010.05.17/outbox.cif.g08.bks.cpg/sg2_74_cif.got.tgz:146869.got - 2010.06.03 11:33:40.
