data_PCOD9100569
_publ_section_title
;
Structure prediction by ZEFSAII (Michael W. Deem and Ramdas Pophale) SiO2 
 PCOD9100569
Probable space group: P -1
;
_chemical_formula_sum "Si O2"
_cell_formula_units_Z 16
_cell_length_a 19.535227
_cell_length_b 5.329288
_cell_length_c 7.945026
_cell_angle_alpha 95.716123
_cell_angle_beta 120.373967
_cell_angle_gamma 74.055195
_cell_volume 685.390379
_symmetry_space_group_name_H-M "P -1"
_symmetry_group_IT_number 2
_symmetry_cell_setting 'triclinic'
loop_
_space_group_symop_operation_xyz
x,y,z
-x,-y,-z
loop_
_atom_site_type_symbol
_atom_site_label
_atom_site_fract_x
_atom_site_fract_y
_atom_site_fract_z
Si Si1 0.163448 0.420387 0.122318
Si Si2 0.677127 0.896859 0.864543
Si Si3 0.237663 0.446277 0.776154
Si Si4 0.118814 0.101658 0.266205
Si Si5 0.725451 0.303387 0.505615
Si Si6 0.926271 0.753552 0.442545
Si Si7 0.597586 0.434324 0.621840
Si Si8 0.121789 0.841272 0.885876
O O1 0.230405 0.174966 0.107586
O O2 0.109906 0.394347 0.214736
O O3 0.226169 0.569425 0.287762
O O4 0.104520 0.571938 0.915042
O O5 0.626206 0.696257 0.718940
O O6 0.632218 0.191898 0.777485
O O7 0.696857 0.798045 0.073975
O O8 0.269373 0.560505 0.656788
O O9 0.155321 0.350371 0.641248
O O10 0.209290 0.684768 0.893398
O O11 0.067340 0.089031 0.365190
O O12 0.214132 0.985606 0.433125
O O13 0.106669 0.986611 0.059537
O O14 0.637777 0.333284 0.482951
O O15 0.000000 0.500000 0.500000
O O16 0.917235 0.957134 0.292943
O O17 0.500000 0.500000 0.500000
#
# Coordination Sequence:
#
# PCOD9100569 Si02
#       8
#     2   2   2   2   2   2   2   2
#     4   9  18  35  63  92 119 166 232 274 320 404
#     4  10  22  38  68  97 137 185 231 282 346 419
#     4  11  23  41  66  95 130 179 241 282 340 422
#     4  11  20  41  67  90 126 175 237 275 339 429
#     4  10  20  37  64  95 124 179 222 278 331 422
#     4  12  27  43  64  98 137 176 229 303 361 407
#     4  11  23  42  67 106 142 178 227 290 360 419
#     4  10  22  39  63  91 126 169 226 289 345 408
#
# _framework density 23.344360999999999
#
# number of rings (size 3 to 8) (size 9 to 14) (size 15 to 20)
#    0.000    1.500    3.750    2.625    5.250    1.000 
#    0.000    2.500    0.000    0.000    0.000    0.000 
#    0.000    0.000    0.000    0.000    0.000    0.000 
#
# Total GULP energy -89132.480228 kJ/mol
# GULP energy per Si atom -5570.780014 kJ/mol
# Density = 2.329123 g / cm^3
# Si number density = 23.344361 Si / 1000 Ang^3
#
#
#
# Elastic Constant Matrix: (Units=GPa)
#
#
# Indices 1 2 3 4 5 6 
#
# 1 131.7894 46.3727 80.5471 -20.6568 -21.2905 -1.5697
# 2 46.3727 102.2721 58.8579 -27.4894 -11.5703 -3.8191
# 3 80.5471 58.8579 152.5464 -32.8106 -40.4979 -4.4336
# 4 -20.6568 -27.4894 -32.8106 57.3086 12.5604 -8.9634
# 5 -21.2905 -11.5703 -40.4979 12.5604 52.3521 -3.4628
# 6 -1.5697 -3.8191 -4.4336 -8.9634 -3.4628 29.2799
#
#
#
# Elastic Compliance Matrix: (Units=1/GPa)
#
#
# Indices 1 2 3 4 5 6 
#
# 1 0.011592 -0.002246 -0.005228 0.000007 0.000143 -0.000444
# 2 -0.002246 0.013992 -0.003564 0.004567 -0.001516 0.002384
# 3 -0.005228 -0.003564 0.013215 0.002946 0.006798 0.002962
# 4 0.000007 0.004567 0.002946 0.022929 -0.001690 0.007861
# 5 0.000143 -0.001516 0.006798 -0.001690 0.024704 0.003243
# 6 -0.000444 0.002384 0.002962 0.007861 0.003243 0.037679
#
#
# Mechanical properties :
#
#
# Convention : Reuss Voigt Hill
#
# Bulk Modulus (GPa) = 59.79139 84.24040 72.01589
# Shear Modulus (GPa) = 32.94663 41.17680 37.06171
#
# Velocity S-wave (km/s) = 3.76084 4.20442 3.98880
# Velocity P-wave (km/s) = 6.67285 7.72877 7.22014
#
# Compressibility (1/GPa) = 0.01672482
#
# Stress axis : x y z
#
# Youngs Moduli (GPa) = 86.26515 71.46851 75.67128
#
# Poissons Ratio (x) = 0.16053 0.39558
# Poissons Ratio (y) = 0.19376 0.26966
# Poissons Ratio (z) = 0.45096 0.25468
#
# Static dielectric constant tensor:
#      x y z
#    x 1.914810 0.079180 -0.007380 
#    y 0.079180 2.215620 0.130840 
#    z -0.007380 0.130840 2.004880 
# 
# From -- ./inp_files/323732.got.cif
#   From: 2010.05.17/outbox.cif.g08.bks.cpg/sg2_162_cif.got.tgz:323732.got - 2010.06.03 11:33:40.
