data_PCOD9100602
_publ_section_title
;
Structure prediction by ZEFSAII (Michael W. Deem and Ramdas Pophale) SiO2 
 PCOD9100602
Probable space group: P -1
;
_chemical_formula_sum "Si O2"
_cell_formula_units_Z 16
_cell_length_a 19.010949
_cell_length_b 7.646286
_cell_length_c 9.558661
_cell_angle_alpha 114.037528
_cell_angle_beta 65.260437
_cell_angle_gamma 145.984726
_cell_volume 700.937853
_symmetry_space_group_name_H-M "P -1"
_symmetry_group_IT_number 2
_symmetry_cell_setting 'triclinic'
loop_
_space_group_symop_operation_xyz
x,y,z
-x,-y,-z
loop_
_atom_site_type_symbol
_atom_site_label
_atom_site_fract_x
_atom_site_fract_y
_atom_site_fract_z
Si Si1 0.873100 0.840780 0.118004
Si Si2 0.402645 0.286757 0.880660
Si Si3 0.720432 0.333954 0.630960
Si Si4 0.032107 0.288715 0.544914
Si Si5 0.361987 0.643267 0.010733
Si Si6 0.786826 0.753718 0.460894
Si Si7 0.494341 0.765676 0.474543
Si Si8 0.118854 0.715468 0.867792
O O1 0.746980 0.495958 0.046465
O O2 0.856615 0.800728 0.284356
O O3 0.870724 0.058246 0.143630
O O4 0.000000 0.000000 0.000000
O O5 0.384789 0.467288 0.903704
O O6 0.464494 0.275928 0.707265
O O7 0.253283 0.931476 0.903646
O O8 0.500000 0.500000 0.000000
O O9 0.852471 0.479777 0.586603
O O10 0.747978 0.522100 0.534852
O O11 0.600710 0.965153 0.572306
O O12 0.688918 0.410977 0.809800
O O13 0.084419 0.493071 0.705907
O O14 0.000000 0.000000 0.500000
O O15 0.895440 0.102208 0.550242
O O16 0.500000 0.000000 0.000000
O O17 0.649645 0.567364 0.469824
O O18 0.500000 0.000000 0.500000
O O19 0.000000 0.500000 0.000000
#
# Coordination Sequence:
#
# PCOD9100602 Si02
#       8
#     2   2   2   2   2   2   2   2
#     4  11  26  45  68 101 142 179 226 289 344 404
#     4  11  24  43  68 102 137 180 229 283 341 409
#     4  10  20  40  70  91 129 180 226 277 340 404
#     4  10  22  40  68  97 132 177 228 282 340 401
#     4  11  25  46  68 102 140 179 228 284 347 407
#     4  10  22  38  67  95 129 175 231 266 340 402
#     4  10  20  37  64  97 127 168 224 277 330 398
#     4  11  27  43  69 103 140 179 232 283 346 411
#
# _framework density 22.826557999999999
#
# number of rings (size 3 to 8) (size 9 to 14) (size 15 to 20)
#    0.000    1.500    1.250    3.000   12.250    2.500 
#    2.250    1.875    0.000    0.000    0.000    0.000 
#    0.000    0.000    0.000    0.000    0.000    0.000 
#
# Total GULP energy -89341.441334 kJ/mol
# GULP energy per Si atom -5583.840083 kJ/mol
# Density = 2.277460 g / cm^3
# Si number density = 22.826558 Si / 1000 Ang^3
#
#
#
# Elastic Constant Matrix: (Units=GPa)
#
#
# Indices 1 2 3 4 5 6 
#
# 1 69.0677 49.6256 34.7868 6.1968 -10.3223 14.3868
# 2 49.6256 157.9461 40.7074 11.1230 -8.2868 54.3775
# 3 34.7868 40.7074 143.5059 -1.6502 -21.2299 1.5842
# 4 6.1968 11.1230 -1.6502 46.1515 2.8089 2.3641
# 5 -10.3223 -8.2868 -21.2299 2.8089 40.1043 -0.6191
# 6 14.3868 54.3775 1.5842 2.3641 -0.6191 48.8104
#
#
#
# Elastic Compliance Matrix: (Units=1/GPa)
#
#
# Indices 1 2 3 4 5 6 
#
# 1 0.020429 -0.005483 -0.003028 -0.001706 0.002646 0.000301
# 2 -0.005483 0.013250 -0.002302 -0.001877 0.000039 -0.012979
# 3 -0.003028 -0.002302 0.008835 0.000908 0.003407 0.003170
# 4 -0.001706 -0.001877 0.000908 0.022422 -0.001895 0.001454
# 5 0.002646 0.000039 0.003407 -0.001895 0.027553 -0.000493
# 6 0.000301 -0.012979 0.003170 0.001454 -0.000493 0.034678
#
#
# Mechanical properties :
#
#
# Convention : Reuss Voigt Hill
#
# Bulk Modulus (GPa) = 47.87549 68.97327 58.42438
# Shear Modulus (GPa) = 32.10140 43.37322 37.73731
#
# Velocity S-wave (km/s) = 3.75416 4.36377 4.07039
# Velocity P-wave (km/s) = 6.30958 7.46135 6.90950
#
# Compressibility (1/GPa) = 0.02088751
#
# Stress axis : x y z
#
# Youngs Moduli (GPa) = 48.94967 75.47256 113.18745
#
# Poissons Ratio (x) = 0.41381 0.34277
# Poissons Ratio (y) = 0.26839 0.26055
# Poissons Ratio (z) = 0.14823 0.17373
#
# Static dielectric constant tensor:
#      x y z
#    x 2.408520 -0.010090 -0.254730 
#    y -0.010090 1.949930 0.072730 
#    z -0.254730 0.072730 1.959360 
# 
# From -- ./inp_files/343760.got.cif
#   From: 2010.05.17/outbox.cif.g08.bks.cpg/sg2_172_cif.got.tgz:343760.got - 2010.06.03 11:33:40.
