data_PCOD9100062
_publ_section_title
;
Structure prediction by ZEFSAII (Michael W. Deem and Ramdas Pophale) SiO2 
 PCOD9100062
Probable space group: P -1
;
_chemical_formula_sum "Si O2"
_cell_formula_units_Z 16
_cell_length_a 6.096756
_cell_length_b 20.340932
_cell_length_c 12.118128
_cell_angle_alpha 39.990760
_cell_angle_beta 53.631459
_cell_angle_gamma 46.579028
_cell_volume 694.360612
_symmetry_space_group_name_H-M "P -1"
_symmetry_group_IT_number 2
_symmetry_cell_setting 'triclinic'
loop_
_space_group_symop_operation_xyz
x,y,z
-x,-y,-z
loop_
_atom_site_type_symbol
_atom_site_label
_atom_site_fract_x
_atom_site_fract_y
_atom_site_fract_z
Si Si1 0.822766 0.922941 0.141823
Si Si2 0.698120 0.690467 0.340164
Si Si3 0.088976 0.278187 0.991423
Si Si4 0.948853 0.146260 0.605042
Si Si5 0.106642 0.074096 0.133349
Si Si6 0.096303 0.308370 0.196683
Si Si7 0.625428 0.465704 0.627316
Si Si8 0.431282 0.450150 0.929337
O O1 0.931527 0.846203 0.317383
O O2 0.461547 0.002176 0.152721
O O3 0.894700 0.880372 0.049134
O O4 0.000000 0.000000 0.000000
O O5 0.420685 0.790937 0.356099
O O6 0.653388 0.577314 0.517132
O O7 0.047760 0.644279 0.331617
O O8 0.687024 0.722370 0.172352
O O9 0.983224 0.181455 0.113456
O O10 0.209704 0.260648 0.101684
O O11 0.786901 0.398612 0.915879
O O12 0.061093 0.213247 0.401827
O O13 0.036415 0.015206 0.713486
O O14 0.768168 0.420660 0.139103
O O15 0.296169 0.364997 0.118897
O O16 0.500000 0.500000 0.500000
O O17 0.413096 0.448179 0.803362
#
# Coordination Sequence:
#
# PCOD9100062 Si02
#       8
#     2   2   2   2   2   2   2   2
#     4   9  19  38  64  93 130 164 206 265 319 377
#     4  10  21  37  60  95 122 156 212 258 313 369
#     4  11  23  41  65  89 130 170 209 267 310 382
#     4  11  23  41  66  98 130 166 213 267 319 378
#     4  10  22  40  63  97 125 170 214 256 325 380
#     4  11  24  43  63  92 129 170 217 256 320 386
#     4  10  20  37  62  92 123 158 207 266 311 367
#     4  10  23  44  62  90 125 175 215 253 326 379
#
# _framework density 23.042783
#
# number of rings (size 3 to 8) (size 9 to 14) (size 15 to 20)
#    0.000    1.750    1.250    3.375    0.000    7.500 
#    4.500    1.250    0.000    0.000    0.000    0.000 
#    0.000    0.000    0.000    0.000    0.000    0.000 
#
# Total GULP energy -89412.412039 kJ/mol
# GULP energy per Si atom -5588.275752 kJ/mol
# Density = 2.299034 g / cm^3
# Si number density = 23.042783 Si / 1000 Ang^3
#
#
#
# Elastic Constant Matrix: (Units=GPa)
#
#
# Indices 1 2 3 4 5 6 
#
# 1 44.9721 12.3409 24.6766 0.3545 12.4998 9.8862
# 2 12.3409 50.5207 25.3034 -10.9865 5.2837 7.4592
# 3 24.6766 25.3034 163.7046 3.3400 -5.2716 13.7548
# 4 0.3545 -10.9865 3.3400 37.5172 6.4030 -0.4056
# 5 12.4998 5.2837 -5.2716 6.4030 33.8915 5.4054
# 6 9.8862 7.4592 13.7548 -0.4056 5.4054 20.8676
#
#
#
# Elastic Compliance Matrix: (Units=1/GPa)
#
#
# Indices 1 2 3 4 5 6 
#
# 1 0.029554 -0.003018 -0.003655 0.000762 -0.009875 -0.007941
# 2 -0.003018 0.025090 -0.003392 0.008362 -0.004262 -0.004036
# 3 -0.003655 -0.003392 0.007627 -0.002357 0.004014 -0.003169
# 4 0.000762 0.008362 -0.002357 0.030659 -0.007878 0.000840
# 5 -0.009875 -0.004262 0.004014 -0.007878 0.036907 -0.006157
# 6 -0.007941 -0.004036 -0.003169 0.000840 -0.006157 0.056826
#
#
# Mechanical properties :
#
#
# Convention : Reuss Voigt Hill
#
# Bulk Modulus (GPa) = 23.72913 42.64881 33.18897
# Shear Modulus (GPa) = 22.64077 31.58035 27.11056
#
# Velocity S-wave (km/s) = 3.13797 3.70606 3.43378
# Velocity P-wave (km/s) = 4.84246 6.07140 5.49141
#
# Compressibility (1/GPa) = 0.04214230
#
# Stress axis : x y z
#
# Youngs Moduli (GPa) = 33.83637 39.85663 131.10651
#
# Poissons Ratio (x) = 0.12028 0.47917
# Poissons Ratio (y) = 0.10211 0.44470
# Poissons Ratio (z) = 0.12367 0.13519
#
# Static dielectric constant tensor:
#      x y z
#    x 1.916540 0.038130 -0.007100 
#    y 0.038130 1.883130 -0.006010 
#    z -0.007100 -0.006010 1.847840 
# 
# From -- ./inp_files/370327.got.cif
#   From: 2010.05.17/outbox.cif.g08.bks.cpg/sg2_186_cif.got.tgz:370327.got - 2010.06.03 11:33:40.
