data_PCOD9100037
_publ_section_title
;
Structure prediction by ZEFSAII (Michael W. Deem and Ramdas Pophale) SiO2 
 PCOD9100037
Probable space group: P -1
;
_chemical_formula_sum "Si O2"
_cell_formula_units_Z 16
_cell_length_a 8.253112
_cell_length_b 9.821635
_cell_length_c 13.722174
_cell_angle_alpha 90.239638
_cell_angle_beta 105.324569
_cell_angle_gamma 132.445072
_cell_volume 765.130939
_symmetry_space_group_name_H-M "P -1"
_symmetry_group_IT_number 2
_symmetry_cell_setting 'triclinic'
loop_
_space_group_symop_operation_xyz
x,y,z
-x,-y,-z
loop_
_atom_site_type_symbol
_atom_site_label
_atom_site_fract_x
_atom_site_fract_y
_atom_site_fract_z
Si Si1 0.877587 0.500496 0.572468
Si Si2 0.620047 0.235033 0.701914
Si Si3 0.395833 0.282511 0.399830
Si Si4 0.324890 0.031868 0.226696
Si Si5 0.103228 0.910933 0.652244
Si Si6 0.274292 0.192920 0.052506
Si Si7 0.595306 0.509508 0.779339
Si Si8 0.797432 0.829738 0.170575
O O1 0.796605 0.344167 0.639263
O O2 0.627566 0.425603 0.501510
O O3 0.000000 0.500000 0.500000
O O4 0.043298 0.717037 0.637317
O O5 0.639566 0.107610 0.764481
O O6 0.679133 0.404259 0.772648
O O7 0.340084 0.080105 0.630031
O O8 0.388443 0.394607 0.315821
O O9 0.141653 0.150045 0.411219
O O10 0.423078 0.159434 0.340377
O O11 0.048468 0.908309 0.188545
O O12 0.404361 0.156380 0.142012
O O13 0.163657 0.002815 0.770403
O O14 0.284974 0.338571 0.114961
O O15 0.351717 0.245900 0.952807
O O16 0.000000 0.000000 0.000000
O O17 0.328731 0.337307 0.771673
#
# Coordination Sequence:
#
# PCOD9100037 Si02
#       8
#     2   2   2   2   2   2   2   2
#     4  12  26  40  63  90 126 164 206 259 313 365
#     4  11  24  41  61  92 129 160 204 257 316 355
#     4  10  21  41  63  87 121 168 212 246 308 360
#     4   9  20  38  59  90 125 158 202 256 307 355
#     4  10  22  42  62  89 124 164 205 259 295 365
#     4   9  18  36  64  88 121 164 207 243 299 370
#     4  10  20  37  62  91 121 160 208 250 295 373
#     4   9  19  37  65  89 119 165 208 248 297 369
#
# _framework density 20.911455
#
# number of rings (size 3 to 8) (size 9 to 14) (size 15 to 20)
#    0.000    2.000    1.250    2.250    1.750    2.500 
#    2.250    5.000    0.000    0.000    0.000    0.000 
#    0.000    0.000    0.000    0.000    0.000    0.000 
#
# Total GULP energy -89226.324094 kJ/mol
# GULP energy per Si atom -5576.645256 kJ/mol
# Density = 2.086386 g / cm^3
# Si number density = 20.911455 Si / 1000 Ang^3
#
#
#
# Elastic Constant Matrix: (Units=GPa)
#
#
# Indices 1 2 3 4 5 6 
#
# 1 71.2628 37.0557 21.4091 -0.9187 -14.9318 -6.1245
# 2 37.0557 111.1371 36.2295 14.5375 -9.6655 -12.7263
# 3 21.4091 36.2295 59.5934 13.9494 -8.3854 -4.9889
# 4 -0.9187 14.5375 13.9494 26.9000 0.4780 -5.7154
# 5 -14.9318 -9.6655 -8.3854 0.4780 11.2071 -0.3600
# 6 -6.1245 -12.7263 -4.9889 -5.7154 -0.3600 44.0244
#
#
#
# Elastic Compliance Matrix: (Units=1/GPa)
#
#
# Indices 1 2 3 4 5 6 
#
# 1 0.022681 -0.004996 -0.002745 0.004952 0.023716 0.002237
# 2 -0.004996 0.013153 -0.004822 -0.004376 0.001330 0.002003
# 3 -0.002745 -0.004822 0.024711 -0.010554 0.011115 -0.000255
# 4 0.004952 -0.004376 -0.010554 0.046190 -0.006909 0.004168
# 5 0.023716 0.001330 0.011115 -0.006909 0.130750 0.005116
# 6 0.002237 0.002003 -0.000255 0.004168 0.005116 0.024159
#
#
# Mechanical properties :
#
#
# Convention : Reuss Voigt Hill
#
# Bulk Modulus (GPa) = 28.23484 47.93132 38.08308
# Shear Modulus (GPa) = 16.74603 26.24624 21.49614
#
# Velocity S-wave (km/s) = 2.83292 3.54660 3.20966
# Velocity P-wave (km/s) = 4.92260 6.30413 5.65571
#
# Compressibility (1/GPa) = 0.03541724
#
# Stress axis : x y z
#
# Youngs Moduli (GPa) = 44.09025 76.02624 40.46719
#
# Poissons Ratio (x) = 0.37986 0.11110
# Poissons Ratio (y) = 0.22029 0.19514
# Poissons Ratio (z) = 0.12105 0.36662
#
# Static dielectric constant tensor:
#      x y z
#    x 1.769050 0.005960 -0.016680 
#    y 0.005960 1.798260 -0.013210 
#    z -0.016680 -0.013210 1.806100 
# 
# From -- ./inp_files/493004.got.cif
#   From: 2010.05.17/outbox.cif.g08.bks.cpg/sg2_247_cif.got.tgz:493004.got - 2010.06.03 11:33:40.
