data_PCOD9100937
_publ_section_title
;
Structure prediction by ZEFSAII (Michael W. Deem and Ramdas Pophale) SiO2 
 PCOD9100937
Probable space group: P -1
;
_chemical_formula_sum "Si O2"
_cell_formula_units_Z 16
_cell_length_a 9.474093
_cell_length_b 9.646866
_cell_length_c 19.478571
_cell_angle_alpha 122.213197
_cell_angle_beta 37.940160
_cell_angle_gamma 100.260452
_cell_volume 819.499312
_symmetry_space_group_name_H-M "P -1"
_symmetry_group_IT_number 2
_symmetry_cell_setting 'triclinic'
loop_
_space_group_symop_operation_xyz
x,y,z
-x,-y,-z
loop_
_atom_site_type_symbol
_atom_site_label
_atom_site_fract_x
_atom_site_fract_y
_atom_site_fract_z
Si Si1 0.979038 0.836511 0.898207
Si Si2 0.842428 0.515211 0.172937
Si Si3 0.631298 0.023754 0.191486
Si Si4 0.612626 0.673899 0.158417
Si Si5 0.134717 0.419145 0.497494
Si Si6 0.381739 0.175179 0.543280
Si Si7 0.751092 0.321380 0.383243
Si Si8 0.954660 0.195384 0.603360
O O1 0.132556 0.671078 0.850429
O O2 0.108559 0.971463 0.883773
O O3 0.034127 0.755730 0.779347
O O4 0.693037 0.943016 0.068761
O O5 0.652854 0.600686 0.202446
O O6 0.760479 0.654160 0.304790
O O7 0.127960 0.459771 0.018094
O O8 0.408334 0.232901 0.336060
O O9 0.592024 0.878851 0.215686
O O10 0.347296 0.703087 0.232826
O O11 0.155522 0.589310 0.569667
O O12 0.000000 0.500000 0.500000
O O13 0.976253 0.337692 0.579535
O O14 0.622869 0.191071 0.419349
O O15 0.172370 0.167156 0.569039
O O16 0.500000 0.000000 0.500000
O O17 0.500000 0.500000 0.500000
O O18 0.000000 0.000000 0.500000
#
# Coordination Sequence:
#
# PCOD9100937 Si02
#       8
#     2   2   2   2   2   2   2   2
#     4  10  20  37  67  89 124 163 217 261 306 373
#     4  10  21  41  62  95 122 171 213 256 316 384
#     4  10  20  39  61  93 123 169 206 258 319 367
#     4  10  23  38  64  92 133 161 211 263 317 386
#     4  12  26  41  65  94 131 168 210 264 323 379
#     4  12  26  40  67  93 126 169 217 267 315 379
#     4  12  22  43  63  93 124 165 219 259 310 380
#     4  12  24  41  61  93 130 167 210 266 322 369
#
# _framework density 19.524114999999998
#
# number of rings (size 3 to 8) (size 9 to 14) (size 15 to 20)
#    0.000    1.000    5.000    0.750    7.000    0.500 
#    0.000    0.625    0.000    0.000    0.000    0.000 
#    0.000    0.000    0.000    0.000    0.000    0.000 
#
# Total GULP energy -89203.654606 kJ/mol
# GULP energy per Si atom -5575.228413 kJ/mol
# Density = 1.947968 g / cm^3
# Si number density = 19.524115 Si / 1000 Ang^3
#
#
#
# Elastic Constant Matrix: (Units=GPa)
#
#
# Indices 1 2 3 4 5 6 
#
# 1 108.4898 51.6209 23.0962 -6.5405 19.0058 0.1484
# 2 51.6209 122.9489 12.6322 -10.8405 -3.0587 -4.4482
# 3 23.0962 12.6322 91.0657 1.0846 16.0179 3.1596
# 4 -6.5405 -10.8405 1.0846 29.1156 3.9796 2.3584
# 5 19.0058 -3.0587 16.0179 3.9796 28.3590 -1.3403
# 6 0.1484 -4.4482 3.1596 2.3584 -1.3403 28.1819
#
#
#
# Elastic Compliance Matrix: (Units=1/GPa)
#
#
# Indices 1 2 3 4 5 6 
#
# 1 0.014150 -0.005925 -0.000984 0.002503 -0.009992 -0.001584
# 2 -0.005925 0.011119 -0.001123 0.001917 0.005631 0.002019
# 3 -0.000984 -0.001123 0.012628 -0.000043 -0.006678 -0.001902
# 4 0.002503 0.001917 -0.000043 0.036799 -0.006758 -0.003107
# 5 -0.009992 0.005631 -0.006678 -0.006758 0.047500 0.004515
# 6 -0.001584 0.002019 -0.001902 -0.003107 0.004515 0.036499
#
#
# Mechanical properties :
#
#
# Convention : Reuss Voigt Hill
#
# Bulk Modulus (GPa) = 45.80424 55.24477 50.52450
# Shear Modulus (GPa) = 27.46734 32.80830 30.13782
#
# Velocity S-wave (km/s) = 3.75486 4.10371 3.93316
# Velocity P-wave (km/s) = 6.50460 7.12819 6.82352
#
# Compressibility (1/GPa) = 0.02183204
#
# Stress axis : x y z
#
# Youngs Moduli (GPa) = 70.67290 89.93899 79.19214
#
# Poissons Ratio (x) = 0.53288 0.07793
# Poissons Ratio (y) = 0.41873 0.08893
# Poissons Ratio (z) = 0.06955 0.10100
#
# Static dielectric constant tensor:
#      x y z
#    x 1.642390 -0.006580 0.048980 
#    y -0.006580 1.718510 0.043240 
#    z 0.048980 0.043240 1.858540 
# 
# From -- ./inp_files/223194.got.cif
#   From: 2010.05.17/outbox.cif.g08.bks.cpg/sg2_112_cif.got.tgz:223194.got - 2010.06.03 11:33:40.
