data_PCOD9100161
_publ_section_title
;
Structure prediction by ZEFSAII (Michael W. Deem and Ramdas Pophale) SiO2 
 PCOD9100161
Probable space group: P -1
;
_chemical_formula_sum "Si O2"
_cell_formula_units_Z 16
_cell_length_a 15.295494
_cell_length_b 5.498478
_cell_length_c 17.677031
_cell_angle_alpha 127.922008
_cell_angle_beta 137.868438
_cell_angle_gamma 50.033689
_cell_volume 736.220299
_symmetry_space_group_name_H-M "P -1"
_symmetry_group_IT_number 2
_symmetry_cell_setting 'triclinic'
loop_
_space_group_symop_operation_xyz
x,y,z
-x,-y,-z
loop_
_atom_site_type_symbol
_atom_site_label
_atom_site_fract_x
_atom_site_fract_y
_atom_site_fract_z
Si Si1 0.392018 0.526577 0.167675
Si Si2 0.634393 0.107109 0.620360
Si Si3 0.304916 0.887540 0.499308
Si Si4 0.806346 0.593250 0.093468
Si Si5 0.447687 0.109466 0.762922
Si Si6 0.090961 0.537988 0.327719
Si Si7 0.959036 0.580645 0.574962
Si Si8 0.220425 0.686529 0.814188
O O1 0.378493 0.713483 0.274279
O O2 0.469823 0.689411 0.189853
O O3 0.472410 0.143985 0.168570
O O4 0.247651 0.552567 0.040617
O O5 0.638508 0.280617 0.576022
O O6 0.500000 0.000000 0.500000
O O7 0.786606 0.820772 0.664254
O O8 0.183497 0.759219 0.418810
O O9 0.408772 0.885639 0.631780
O O10 0.209425 0.271939 0.501691
O O11 0.764332 0.440014 0.113345
O O12 0.971328 0.518358 0.191444
O O13 0.742089 0.991573 0.119286
O O14 0.311775 0.379480 0.763489
O O15 0.012012 0.664189 0.381617
O O16 0.000000 0.500000 0.500000
O O17 0.058182 0.777535 0.704736
#
# Coordination Sequence:
#
# PCOD9100161 Si02
#       8
#     2   2   2   2   2   2   2   2
#     4  12  28  46  67  98 134 184 235 276 331 398
#     4  11  24  45  69  98 136 175 221 290 344 392
#     4  11  22  40  68 101 136 167 224 277 344 409
#     4  11  25  47  68  97 139 180 229 274 329 411
#     4  12  26  42  70 104 133 178 228 276 343 407
#     4  10  24  40  68 100 136 180 222 277 342 401
#     4  10  20  37  63 102 137 173 216 273 342 407
#     4  11  23  43  70 100 139 179 217 281 342 396
#
# _framework density 21.732624999999999
#
# number of rings (size 3 to 8) (size 9 to 14) (size 15 to 20)
#    0.000    1.000    3.750    2.250    3.500    6.000 
#    0.000    0.625    0.000    0.000    0.000    0.000 
#    0.000    0.000    0.000    0.000    0.000    0.000 
#
# Total GULP energy -89123.900127 kJ/mol
# GULP energy per Si atom -5570.243758 kJ/mol
# Density = 2.168316 g / cm^3
# Si number density = 21.732625 Si / 1000 Ang^3
#
#
#
# Elastic Constant Matrix: (Units=GPa)
#
#
# Indices 1 2 3 4 5 6 
#
# 1 90.0971 24.1486 41.9549 1.9077 6.2436 18.0226
# 2 24.1486 84.3913 33.8508 -15.0135 -2.8140 6.4450
# 3 41.9549 33.8508 164.9133 -20.0333 -4.4978 12.6820
# 4 1.9077 -15.0135 -20.0333 22.0959 -3.0138 -2.5702
# 5 6.2436 -2.8140 -4.4978 -3.0138 24.8280 2.1658
# 6 18.0226 6.4450 12.6820 -2.5702 2.1658 32.0112
#
#
#
# Elastic Compliance Matrix: (Units=1/GPa)
#
#
# Indices 1 2 3 4 5 6 
#
# 1 0.016143 -0.004386 -0.003994 -0.009605 -0.005835 -0.006999
# 2 -0.004386 0.015407 -0.000636 0.010846 0.004032 0.000217
# 3 -0.003994 -0.000636 0.008296 0.007843 0.003432 -0.000512
# 4 -0.009605 0.010846 0.007843 0.062748 0.012305 0.004323
# 5 -0.005835 0.004032 0.003432 0.012305 0.044396 -0.000902
# 6 -0.006999 0.000217 -0.000512 0.004323 -0.000902 0.035747
#
#
# Mechanical properties :
#
#
# Convention : Reuss Voigt Hill
#
# Bulk Modulus (GPa) = 45.84269 59.92336 52.88302
# Shear Modulus (GPa) = 24.03386 31.75018 27.89202
#
# Velocity S-wave (km/s) = 3.32910 3.82638 3.58637
# Velocity P-wave (km/s) = 5.99307 6.86691 6.44482
#
# Compressibility (1/GPa) = 0.02181373
#
# Stress axis : x y z
#
# Youngs Moduli (GPa) = 61.94815 64.90549 120.53636
#
# Poissons Ratio (x) = 0.28467 0.48145
# Poissons Ratio (y) = 0.27170 0.07665
# Poissons Ratio (z) = 0.24743 0.04128
#
# Static dielectric constant tensor:
#      x y z
#    x 1.850500 0.057440 0.016190 
#    y 0.057440 2.207910 -0.045140 
#    z 0.016190 -0.045140 1.807770 
# 
# From -- ./inp_files/69391.got.cif
#   From: 2010.05.17/outbox.cif.g08.bks.cpg/sg2_35_cif.got.tgz:69391.got - 2010.06.03 11:33:40.
