data_PCOD9100605
_publ_section_title
;
Structure prediction by ZEFSAII (Michael W. Deem and Ramdas Pophale) SiO2 
 PCOD9100605
Probable space group: P -1
;
_chemical_formula_sum "Si O2"
_cell_formula_units_Z 16
_cell_length_a 28.251472
_cell_length_b 14.476607
_cell_length_c 18.481603
_cell_angle_alpha 157.675580
_cell_angle_beta 14.926532
_cell_angle_gamma 154.955983
_cell_volume 733.835497
_symmetry_space_group_name_H-M "P -1"
_symmetry_group_IT_number 2
_symmetry_cell_setting 'triclinic'
loop_
_space_group_symop_operation_xyz
x,y,z
-x,-y,-z
loop_
_atom_site_type_symbol
_atom_site_label
_atom_site_fract_x
_atom_site_fract_y
_atom_site_fract_z
Si Si1 0.658768 0.053825 0.244196
Si Si2 0.828866 0.857450 0.287466
Si Si3 0.385434 0.567719 0.647295
Si Si4 0.867976 0.726481 0.797171
Si Si5 0.511049 0.455092 0.683870
Si Si6 0.458773 0.074819 0.947626
Si Si7 0.466321 0.736856 0.177777
Si Si8 0.047801 0.726618 0.749052
O O1 0.578226 0.947572 0.210837
O O2 0.500000 0.000000 0.500000
O O3 0.668441 0.338062 0.413858
O O4 0.808750 0.892539 0.937664
O O5 0.982670 0.081240 0.243432
O O6 0.659583 0.980623 0.592326
O O7 0.901110 0.666477 0.985803
O O8 0.000000 0.000000 0.000000
O O9 0.500000 0.500000 0.500000
O O10 0.492424 0.608197 0.442206
O O11 0.324088 0.829447 0.950437
O O12 0.239671 0.324454 0.677756
O O13 0.946740 0.485338 0.472955
O O14 0.688445 0.635904 0.047870
O O15 0.558452 0.748305 0.832162
O O16 0.466949 0.250529 0.993467
O O17 0.250104 0.757219 0.508048
O O18 0.500000 0.500000 0.000000
#
# Coordination Sequence:
#
# PCOD9100605 Si02
#       8
#     2   2   2   2   2   2   2   2
#     4  10  20  37  64  97 131 170 222 278 330 399
#     4  11  26  41  63  96 145 179 216 279 350 403
#     4  10  25  44  63  93 135 188 234 265 333 414
#     4  11  24  41  66 105 135 170 224 285 347 396
#     4  11  21  41  70  95 127 175 228 287 327 395
#     4  11  23  42  66  99 130 179 233 274 334 404
#     4  12  20  39  66  98 137 170 223 275 333 406
#     4  12  23  40  64 102 142 172 214 286 351 396
#
# _framework density 21.803252000000001
#
# number of rings (size 3 to 8) (size 9 to 14) (size 15 to 20)
#    0.000    1.000    5.000    2.250    0.000    8.000 
#    0.000    0.625    0.000    3.750    0.000    0.000 
#    0.000    0.000    0.000    0.000    0.000    0.000 
#
# Total GULP energy -89148.234056 kJ/mol
# GULP energy per Si atom -5571.764628 kJ/mol
# Density = 2.175363 g / cm^3
# Si number density = 21.803252 Si / 1000 Ang^3
#
#
#
# Elastic Constant Matrix: (Units=GPa)
#
#
# Indices 1 2 3 4 5 6 
#
# 1 104.8201 41.0305 37.1680 13.0638 8.2641 -4.1244
# 2 41.0305 92.6537 42.5598 27.0074 4.6092 0.5997
# 3 37.1680 42.5598 108.8943 34.6801 2.2379 -4.9355
# 4 13.0638 27.0074 34.6801 27.5468 0.3252 2.7107
# 5 8.2641 4.6092 2.2379 0.3252 39.4766 8.2499
# 6 -4.1244 0.5997 -4.9355 2.7107 8.2499 35.1185
#
#
#
# Elastic Compliance Matrix: (Units=1/GPa)
#
#
# Indices 1 2 3 4 5 6 
#
# 1 0.012388 -0.004700 -0.003075 0.002489 -0.002189 0.001425
# 2 -0.004700 0.017279 -0.000703 -0.013850 -0.000952 0.000347
# 3 -0.003075 -0.000703 0.016900 -0.019485 -0.000851 0.003730
# 4 0.002489 -0.013850 -0.019485 0.074049 0.003415 -0.008727
# 5 -0.002189 -0.000952 -0.000851 0.003415 0.027396 -0.007060
# 6 0.001425 0.000347 0.003730 -0.008727 -0.007060 0.031493
#
#
# Mechanical properties :
#
#
# Convention : Reuss Voigt Hill
#
# Bulk Modulus (GPa) = 33.76995 60.87608 47.32302
# Shear Modulus (GPa) = 24.23285 32.80238 28.51761
#
# Velocity S-wave (km/s) = 3.33743 3.88296 3.62049
# Velocity P-wave (km/s) = 5.51121 6.93429 6.26330
#
# Compressibility (1/GPa) = 0.02961212
#
# Stress axis : x y z
#
# Youngs Moduli (GPa) = 80.72030 57.87324 59.17285
#
# Poissons Ratio (x) = 0.27198 0.18195
# Poissons Ratio (y) = 0.37935 0.04161
# Poissons Ratio (z) = 0.24820 0.04069
#
# Static dielectric constant tensor:
#      x y z
#    x 1.776480 -0.006980 0.049570 
#    y -0.006980 1.923530 0.064760 
#    z 0.049570 0.064760 1.915670 
# 
# From -- ./inp_files/247709.got.cif
#   From: 2010.05.17/outbox.cif.g08.bks.cpg/sg2_124_cif.got.tgz:247709.got - 2010.06.03 11:33:40.
