data_PCOD9100943
_publ_section_title
;
Structure prediction by ZEFSAII (Michael W. Deem and Ramdas Pophale) SiO2 
 PCOD9100943
Probable space group: P -1
;
_chemical_formula_sum "Si O2"
_cell_formula_units_Z 14
_cell_length_a 11.560188
_cell_length_b 11.766025
_cell_length_c 5.119629
_cell_angle_alpha 115.005075
_cell_angle_beta 110.393643
_cell_angle_gamma 86.423194
_cell_volume 588.570619
_symmetry_space_group_name_H-M "P -1"
_symmetry_group_IT_number 2
_symmetry_cell_setting 'triclinic'
loop_
_space_group_symop_operation_xyz
x,y,z
-x,-y,-z
loop_
_atom_site_type_symbol
_atom_site_label
_atom_site_fract_x
_atom_site_fract_y
_atom_site_fract_z
Si Si1 0.016118 0.150157 0.665192
Si Si2 0.799314 0.554958 0.357403
Si Si3 0.839664 0.816038 0.699849
Si Si4 0.354144 0.025488 0.108053
Si Si5 0.938999 0.394373 0.644843
Si Si6 0.428546 0.441057 0.136547
Si Si7 0.529058 0.846890 0.174839
O O1 0.130485 0.179096 0.578148
O O2 0.922604 0.251444 0.601032
O O3 0.043662 0.182491 0.017939
O O4 0.000000 0.000000 0.500000
O O5 0.756582 0.684232 0.571404
O O6 0.818474 0.440668 0.454497
O O7 0.942258 0.601037 0.449203
O O8 0.712933 0.530360 0.012390
O O9 0.777491 0.938419 0.865979
O O10 0.440738 0.112895 0.464523
O O11 0.391850 0.885679 0.045231
O O12 0.384930 0.066208 0.876032
O O13 0.000000 0.500000 0.000000
O O14 0.500000 0.500000 0.500000
O O15 0.500000 0.500000 0.000000
O O16 0.443383 0.293207 0.998856
#
# Coordination Sequence:
#
# PCOD9100943 Si02
#       7
#     2   2   2   2   2   2   2
#     4  11  24  41  62  99 136 166 212 279 352 401
#     4  10  23  41  68  98 126 173 239 273 326 404
#     4  11  21  39  70  91 123 174 220 271 330 404
#     4  10  20  37  67  92 116 158 224 279 304 378
#     4  10  21  41  71  97 126 176 228 283 321 394
#     4  12  27  43  65  96 142 182 214 277 346 403
#     4  10  21  39  62  91 124 162 217 272 320 385
#
# _framework density 23.786438
#
# number of rings (size 3 to 8) (size 9 to 14) (size 15 to 20)
#    0.000    1.429    2.857    2.143    4.000    0.000 
#    2.571    0.000    0.000    0.000    0.000    0.000 
#    0.000    0.000    0.000    0.000    0.000    0.000 
#
# Total GULP energy -78049.157837 kJ/mol
# GULP energy per Si atom -5574.939845 kJ/mol
# Density = 2.373230 g / cm^3
# Si number density = 23.786438 Si / 1000 Ang^3
#
#
#
# Elastic Constant Matrix: (Units=GPa)
#
#
# Indices 1 2 3 4 5 6 
#
# 1 40.6319 19.3285 9.2435 -7.3544 -7.4928 -17.6521
# 2 19.3285 189.6712 53.4812 -5.2723 20.4736 -40.5704
# 3 9.2435 53.4812 134.4583 -5.6776 -1.7951 -18.5839
# 4 -7.3544 -5.2723 -5.6776 28.8653 -7.6792 2.4019
# 5 -7.4928 20.4736 -1.7951 -7.6792 33.0539 -6.0225
# 6 -17.6521 -40.5704 -18.5839 2.4019 -6.0225 37.4024
#
#
#
# Elastic Compliance Matrix: (Units=1/GPa)
#
#
# Indices 1 2 3 4 5 6 
#
# 1 0.038542 -0.001682 0.001370 0.012523 0.016197 0.018850
# 2 -0.001682 0.007803 -0.002284 -0.001148 -0.004534 0.005878
# 3 0.001370 -0.002284 0.008795 0.002288 0.003266 0.002918
# 4 0.012523 -0.001148 0.002288 0.041423 0.014289 0.005442
# 5 0.016197 -0.004534 0.003266 0.014289 0.042091 0.010209
# 6 0.018850 0.005878 0.002918 0.005442 0.010209 0.044752
#
#
# Mechanical properties :
#
#
# Convention : Reuss Voigt Hill
#
# Bulk Modulus (GPa) = 20.02146 58.76309 39.39228
# Shear Modulus (GPa) = 24.36063 38.71154 31.53609
#
# Velocity S-wave (km/s) = 3.20369 4.03856 3.64511
# Velocity P-wave (km/s) = 4.70322 6.81944 5.85769
#
# Compressibility (1/GPa) = 0.04994640
#
# Stress axis : x y z
#
# Youngs Moduli (GPa) = 25.94551 128.16033 113.69854
#
# Poissons Ratio (x) = 0.21559 -0.15574
# Poissons Ratio (y) = 0.04365 0.25974
# Poissons Ratio (z) = -0.03554 0.29278
#
# Static dielectric constant tensor:
#      x y z
#    x 3.097910 -1.610320 0.258810 
#    y -1.610320 4.258480 -0.361770 
#    z 0.258810 -0.361770 1.995960 
# 
# From -- ./inp_files/72477.got.cif
#   From: 2010.05.17/outbox.cif.g08.bks.cpg/sg2_37_cif.got.tgz:72477.got - 2010.06.03 11:33:40.
