data_PCOD9100082
_publ_section_title
;
Structure prediction by ZEFSAII (Michael W. Deem and Ramdas Pophale) SiO2 
 PCOD9100082
Probable space group: P -1
;
_chemical_formula_sum "Si O2"
_cell_formula_units_Z 16
_cell_length_a 11.663147
_cell_length_b 22.698898
_cell_length_c 12.154012
_cell_angle_alpha 39.175383
_cell_angle_beta 40.651429
_cell_angle_gamma 18.940704
_cell_volume 654.655545
_symmetry_space_group_name_H-M "P -1"
_symmetry_group_IT_number 2
_symmetry_cell_setting 'triclinic'
loop_
_space_group_symop_operation_xyz
x,y,z
-x,-y,-z
loop_
_atom_site_type_symbol
_atom_site_label
_atom_site_fract_x
_atom_site_fract_y
_atom_site_fract_z
Si Si1 0.633399 0.614796 0.347699
Si Si2 0.608061 0.435075 0.693268
Si Si3 0.358446 0.856470 0.382277
Si Si4 0.573129 0.690468 0.052789
Si Si5 0.445937 0.103541 0.980983
Si Si6 0.486476 0.226482 0.257601
Si Si7 0.641351 0.506402 0.978575
Si Si8 0.591408 0.884293 0.359106
O O1 0.481028 0.580188 0.503001
O O2 0.555608 0.679890 0.436264
O O3 0.499861 0.742532 0.159301
O O4 0.056352 0.414516 0.308505
O O5 0.543589 0.362358 0.800031
O O6 0.412856 0.521219 0.827397
O O7 0.020464 0.264887 0.666374
O O8 0.592421 0.808517 0.367678
O O9 0.274572 0.953128 0.192090
O O10 0.000000 0.000000 0.500000
O O11 0.412541 0.820348 0.877617
O O12 0.000000 0.500000 0.000000
O O13 0.062171 0.326384 0.919677
O O14 0.449155 0.046657 0.175466
O O15 0.500000 0.000000 0.000000
O O16 0.617330 0.077742 0.449115
O O17 0.533511 0.310363 0.148763
O O18 0.500000 0.500000 0.000000
#
# Coordination Sequence:
#
# PCOD9100082 Si02
#       8
#     2   2   2   2   2   2   2   2
#     4  10  20  37  62  93 124 162 218 271 314 382
#     4  10  22  35  64  97 124 165 209 277 325 374
#     4  11  24  38  61  92 128 175 212 254 325 390
#     4   9  19  39  64  96 122 160 219 275 324 376
#     4  10  22  40  55  85 131 177 204 256 316 388
#     4   9  20  37  62  93 119 165 206 273 317 374
#     4  11  21  35  61  94 129 163 215 261 321 385
#     4  10  23  40  62  92 140 163 213 262 334 391
#
# _framework density 24.440335999999999
#
# number of rings (size 3 to 8) (size 9 to 14) (size 15 to 20)
#    0.000    2.000    1.250    1.875    5.250    3.000 
#    0.000    0.000    0.000    4.500    0.000    0.000 
#    0.000    0.000    0.000    0.000    0.000    0.000 
#
# Total GULP energy -89201.247868 kJ/mol
# GULP energy per Si atom -5575.077992 kJ/mol
# Density = 2.438471 g / cm^3
# Si number density = 24.440336 Si / 1000 Ang^3
#
#
#
# Elastic Constant Matrix: (Units=GPa)
#
#
# Indices 1 2 3 4 5 6 
#
# 1 105.8371 18.4380 39.9546 23.4144 9.2810 -7.0329
# 2 18.4380 52.6585 22.8626 5.6515 2.3623 -16.3623
# 3 39.9546 22.8626 199.4218 8.7267 9.2549 -9.2431
# 4 23.4144 5.6515 8.7267 28.4081 -1.7094 5.5401
# 5 9.2810 2.3623 9.2549 -1.7094 39.3318 7.1691
# 6 -7.0329 -16.3623 -9.2431 5.5401 7.1691 20.6481
#
#
#
# Elastic Compliance Matrix: (Units=1/GPa)
#
#
# Indices 1 2 3 4 5 6 
#
# 1 0.014075 0.000569 -0.001578 -0.013512 -0.005401 0.010039
# 2 0.000569 0.030150 -0.001323 -0.012245 -0.007523 0.029390
# 3 -0.001578 -0.001323 0.005628 -0.000523 -0.001165 0.001478
# 4 -0.013512 -0.012245 -0.000523 0.056343 0.012705 -0.034069
# 5 -0.005401 -0.007523 -0.001165 0.012705 0.032150 -0.022894
# 6 0.010039 0.029390 0.001478 -0.034069 -0.022894 0.092891
#
#
# Mechanical properties :
#
#
# Convention : Reuss Voigt Hill
#
# Bulk Modulus (GPa) = 22.12995 57.82532 39.97763
# Shear Modulus (GPa) = 19.92310 36.12177 28.02243
#
# Velocity S-wave (km/s) = 2.85822 3.84859 3.38977
# Velocity P-wave (km/s) = 4.46843 6.59242 5.63147
#
# Compressibility (1/GPa) = 0.04518763
#
# Stress axis : x y z
#
# Youngs Moduli (GPa) = 71.04723 33.16794 177.68972
#
# Poissons Ratio (x) = -0.01886 0.28038
# Poissons Ratio (y) = -0.04041 0.23513
# Poissons Ratio (z) = 0.11211 0.04389
#
# Static dielectric constant tensor:
#      x y z
#    x 2.109430 -0.257110 0.021300 
#    y -0.257110 2.480080 -0.120540 
#    z 0.021300 -0.120540 2.062460 
# 
# From -- ./inp_files/439239.got.cif
#   From: 2010.05.17/outbox.cif.g08.bks.cpg/sg2_220_cif.got.tgz:439239.got - 2010.06.03 11:33:40.
