data_PCOD9100837
_publ_section_title
;
Structure prediction by ZEFSAII (Michael W. Deem and Ramdas Pophale) SiO2 
 PCOD9100837
Probable space group: P -1
;
_chemical_formula_sum "Si O2"
_cell_formula_units_Z 16
_cell_length_a 21.602610
_cell_length_b 7.697749
_cell_length_c 11.638142
_cell_angle_alpha 74.863354
_cell_angle_beta 32.016324
_cell_angle_gamma 54.509078
_cell_volume 705.539430
_symmetry_space_group_name_H-M "P -1"
_symmetry_group_IT_number 2
_symmetry_cell_setting 'triclinic'
loop_
_space_group_symop_operation_xyz
x,y,z
-x,-y,-z
loop_
_atom_site_type_symbol
_atom_site_label
_atom_site_fract_x
_atom_site_fract_y
_atom_site_fract_z
Si Si1 0.655984 0.465858 0.308334
Si Si2 0.021240 0.520731 0.667987
Si Si3 0.527702 0.342824 0.674498
Si Si4 0.026721 0.067435 0.066731
Si Si5 0.201017 0.671552 0.247599
Si Si6 0.173760 0.230419 0.713226
Si Si7 0.301747 0.205634 0.757553
Si Si8 0.054763 0.088370 0.578588
O O1 0.562139 0.516512 0.565409
O O2 0.541873 0.621996 0.351554
O O3 0.758860 0.530645 0.157758
O O4 0.787606 0.165414 0.139623
O O5 0.106361 0.603447 0.463641
O O6 0.112906 0.390037 0.666723
O O7 0.050849 0.303535 0.584166
O O8 0.828164 0.765259 0.963607
O O9 0.691997 0.060306 0.492678
O O10 0.391637 0.441865 0.963386
O O11 0.025617 0.277216 0.997860
O O12 0.920443 0.075916 0.325597
O O13 0.000000 0.000000 0.000000
O O14 0.118039 0.770939 0.235391
O O15 0.174825 0.881263 0.326545
O O16 0.268724 0.214054 0.673953
O O17 0.500000 0.000000 0.500000
#
# Coordination Sequence:
#
# PCOD9100837 Si02
#       8
#     2   2   2   2   2   2   2   2
#     4  10  20  37  66  90 135 167 224 285 338 395
#     4  12  25  46  67 100 144 180 224 288 350 411
#     4  10  21  42  63  97 129 182 225 283 335 400
#     4  11  19  39  70  94 131 170 226 288 344 398
#     4  11  25  43  70  98 141 183 238 273 338 430
#     4  11  24  40  69 102 137 177 229 289 351 399
#     4  12  23  39  67 105 134 173 228 288 348 408
#     4  11  23  42  68 100 129 185 226 278 344 410
#
# _framework density 22.677682000000001
#
# number of rings (size 3 to 8) (size 9 to 14) (size 15 to 20)
#    0.000    1.000    5.000    1.500    0.000    3.500 
#    2.250    0.625    0.000    0.000    0.000    0.000 
#    0.000    0.000    0.000    0.000    0.000    0.000 
#
# Total GULP energy -89148.208174 kJ/mol
# GULP energy per Si atom -5571.763011 kJ/mol
# Density = 2.262607 g / cm^3
# Si number density = 22.677682 Si / 1000 Ang^3
#
#
#
# Elastic Constant Matrix: (Units=GPa)
#
#
# Indices 1 2 3 4 5 6 
#
# 1 114.0358 24.4680 18.0141 0.8564 11.6359 -2.8651
# 2 24.4680 69.5404 34.7638 -13.8957 7.4169 -15.5859
# 3 18.0141 34.7638 135.9360 -0.5019 0.0255 -5.4584
# 4 0.8564 -13.8957 -0.5019 37.1079 -4.5320 -2.9675
# 5 11.6359 7.4169 0.0255 -4.5320 26.4234 3.3575
# 6 -2.8651 -15.5859 -5.4584 -2.9675 3.3575 37.9220
#
#
#
# Elastic Compliance Matrix: (Units=1/GPa)
#
#
# Indices 1 2 3 4 5 6 
#
# 1 0.009951 -0.003385 -0.000481 -0.002000 -0.003706 -0.000537
# 2 -0.003385 0.022245 -0.004836 0.008538 -0.004460 0.009254
# 3 -0.000481 -0.004836 0.008609 -0.001593 0.001419 -0.001035
# 4 -0.002000 0.008538 -0.001593 0.030974 0.003128 0.005276
# 5 -0.003706 -0.004460 0.001419 0.003128 0.041948 -0.005378
# 6 -0.000537 0.009254 -0.001035 0.005276 -0.005378 0.030873
#
#
# Mechanical properties :
#
#
# Convention : Reuss Voigt Hill
#
# Bulk Modulus (GPa) = 42.73604 52.66711 47.70158
# Shear Modulus (GPa) = 29.44550 36.44174 32.94362
#
# Velocity S-wave (km/s) = 3.60729 4.01302 3.81555
# Velocity P-wave (km/s) = 6.01963 6.68932 6.36329
#
# Compressibility (1/GPa) = 0.02339945
#
# Stress axis : x y z
#
# Youngs Moduli (GPa) = 100.48953 44.95447 116.15411
#
# Poissons Ratio (x) = 0.15219 0.05589
# Poissons Ratio (y) = 0.34021 0.56175
# Poissons Ratio (z) = 0.04836 0.21741
#
# Static dielectric constant tensor:
#      x y z
#    x 1.856130 0.067110 -0.009200 
#    y 0.067110 1.913160 0.010710 
#    z -0.009200 0.010710 1.958390 
# 
# From -- ./inp_files/474177.got.cif
#   From: 2010.05.17/outbox.cif.g08.bks.cpg/sg2_238_cif.got.tgz:474177.got - 2010.06.03 11:33:40.
