data_PCOD9100831
_publ_section_title
;
Structure prediction by ZEFSAII (Michael W. Deem and Ramdas Pophale) SiO2 
 PCOD9100831
Probable space group: P -1
;
_chemical_formula_sum "Si O2"
_cell_formula_units_Z 16
_cell_length_a 14.436132
_cell_length_b 9.638175
_cell_length_c 15.471372
_cell_angle_alpha 127.401653
_cell_angle_beta 32.827442
_cell_angle_gamma 103.502613
_cell_volume 709.985826
_symmetry_space_group_name_H-M "P -1"
_symmetry_group_IT_number 2
_symmetry_cell_setting 'triclinic'
loop_
_space_group_symop_operation_xyz
x,y,z
-x,-y,-z
loop_
_atom_site_type_symbol
_atom_site_label
_atom_site_fract_x
_atom_site_fract_y
_atom_site_fract_z
Si Si1 0.301253 0.417865 0.302977
Si Si2 0.359501 0.402948 0.706202
Si Si3 0.721541 0.660107 0.437985
Si Si4 0.767218 0.107130 0.042186
Si Si5 0.201877 0.945711 0.195951
Si Si6 0.112051 0.563299 0.322640
Si Si7 0.196296 0.730977 0.660965
Si Si8 0.147529 0.569869 0.113349
O O1 0.271835 0.473437 0.245607
O O2 0.296829 0.579577 0.436282
O O3 0.085194 0.445861 0.508407
O O4 0.541584 0.171897 0.034321
O O5 0.273294 0.349228 0.673098
O O6 0.287309 0.651798 0.836581
O O7 0.627455 0.238776 0.437145
O O8 0.263976 0.413963 0.878246
O O9 0.463651 0.837313 0.734534
O O10 0.805609 0.422310 0.324920
O O11 0.885613 0.698306 0.359464
O O12 0.850397 0.983596 0.837326
O O13 0.954447 0.957020 0.910197
O O14 0.188306 0.748694 0.145901
O O15 0.024675 0.166480 0.474183
O O16 0.226126 0.448347 0.098552
#
# Coordination Sequence:
#
# PCOD9100831 Si02
#       8
#     2   2   2   2   2   2   2   2
#     4  11  21  39  63  90 118 153 201 246 295 350
#     4  10  23  40  63  86 121 160 200 248 298 346
#     4  11  22  40  62  90 119 159 202 247 296 348
#     4  10  20  37  66  90 117 152 201 252 297 345
#     4  11  21  39  61  89 123 159 191 243 298 357
#     4  11  23  38  62  89 121 156 197 243 297 355
#     4  11  19  40  65  89 120 153 199 256 294 347
#     4  11  22  41  59  88 127 161 197 237 297 363
#
# _framework density 22.535661999999999
#
# number of rings (size 3 to 8) (size 9 to 14) (size 15 to 20)
#    0.000    1.250    6.250    2.625    0.000    2.500 
#    0.000    3.750    0.000    5.250    0.000    0.000 
#    0.000    0.000    0.000    0.000    0.000    0.000 
#
# Total GULP energy -89478.901735 kJ/mol
# GULP energy per Si atom -5592.431358 kJ/mol
# Density = 2.248437 g / cm^3
# Si number density = 22.535662 Si / 1000 Ang^3
#
#
#
# Elastic Constant Matrix: (Units=GPa)
#
#
# Indices 1 2 3 4 5 6 
#
# 1 115.5280 23.9751 9.4503 -7.4317 9.7168 -32.2868
# 2 23.9751 40.7499 17.2532 -11.8412 -1.7625 -24.8698
# 3 9.4503 17.2532 54.3849 0.7035 -4.7153 -23.4815
# 4 -7.4317 -11.8412 0.7035 23.9622 -16.5696 0.7777
# 5 9.7168 -1.7625 -4.7153 -16.5696 37.6770 -9.1066
# 6 -32.2868 -24.8698 -23.4815 0.7777 -9.1066 42.3395
#
#
#
# Elastic Compliance Matrix: (Units=1/GPa)
#
#
# Indices 1 2 3 4 5 6 
#
# 1 0.011528 -0.000251 0.002669 0.004229 0.001727 0.010417
# 2 -0.000251 0.086257 0.003285 0.077565 0.053711 0.062425
# 3 0.002669 0.003285 0.027058 0.009359 0.012142 0.021411
# 4 0.004229 0.077565 0.009359 0.133483 0.078971 0.068509
# 5 0.001727 0.053711 0.012142 0.078971 0.078141 0.054957
# 6 0.010417 0.062425 0.021411 0.068509 0.054957 0.090667
#
#
# Mechanical properties :
#
#
# Convention : Reuss Voigt Hill
#
# Bulk Modulus (GPa) = 7.33947 34.66891 21.00419
# Shear Modulus (GPa) = 10.84262 31.46136 21.15199
#
# Velocity S-wave (km/s) = 2.19585 3.74046 3.06698
# Velocity P-wave (km/s) = 3.11334 5.83713 4.67787
#
# Compressibility (1/GPa) = 0.13624966
#
# Stress axis : x y z
#
# Youngs Moduli (GPa) = 86.74646 11.59327 36.95812
#
# Poissons Ratio (x) = 0.00291 -0.09866
# Poissons Ratio (y) = 0.02180 -0.12143
# Poissons Ratio (z) = -0.23157 -0.03809
#
# Static dielectric constant tensor:
#      x y z
#    x 1.837260 -0.007080 0.043220 
#    y -0.007080 1.828930 -0.010490 
#    z 0.043220 -0.010490 1.830330 
# 
# From -- ./inp_files/306331.got.cif
#   From: 2010.05.17/outbox.cif.g08.bks.cpg/sg2_154_cif.got.tgz:306331.got - 2010.06.03 11:33:40.
