data_PCOD9100610
_publ_section_title
;
Structure prediction by ZEFSAII (Michael W. Deem and Ramdas Pophale) SiO2 
 PCOD9100610
Probable space group: P -1
;
_chemical_formula_sum "Si O2"
_cell_formula_units_Z 15
_cell_length_a 11.980253
_cell_length_b 9.471952
_cell_length_c 8.862128
_cell_angle_alpha 64.514916
_cell_angle_beta 118.519243
_cell_angle_gamma 121.854530
_cell_volume 728.802485
_symmetry_space_group_name_H-M "P -1"
_symmetry_group_IT_number 2
_symmetry_cell_setting 'triclinic'
loop_
_space_group_symop_operation_xyz
x,y,z
-x,-y,-z
loop_
_atom_site_type_symbol
_atom_site_label
_atom_site_fract_x
_atom_site_fract_y
_atom_site_fract_z
Si Si1 0.842303 0.445883 0.466560
Si Si2 0.758962 0.749986 0.240116
Si Si3 0.670811 0.393414 0.650619
Si Si4 0.526984 0.519202 0.734882
Si Si5 0.493201 0.973301 0.185715
Si Si6 0.332632 0.160299 0.145906
Si Si7 0.238565 0.943345 0.491204
Si Si8 0.000000 0.000000 0.500000
O O1 0.790434 0.583417 0.299292
O O2 0.812736 0.459016 0.619666
O O3 0.770518 0.246525 0.466726
O O4 0.000000 0.500000 0.500000
O O5 0.595746 0.664665 0.223621
O O6 0.772675 0.864158 0.048668
O O7 0.859484 0.860862 0.385035
O O8 0.647468 0.505340 0.716387
O O9 0.554360 0.388523 0.455595
O O10 0.631662 0.207131 0.775190
O O11 0.599087 0.639024 0.864506
O O12 0.453541 0.110054 0.185178
O O13 0.633386 0.977012 0.347145
O O14 0.500000 0.000000 0.000000
O O15 0.269638 0.053478 0.305935
O O16 0.100268 0.940240 0.481779
#
# Coordination Sequence:
#
# PCOD9100610 Si02
#       8
#     2   2   2   2   2   2   2   1
#     4  11  23  45  66  94 135 185 230 268 342 415
#     4  11  25  44  70 100 139 183 226 282 339 418
#     4  10  20  37  64  98 131 176 217 281 340 397
#     4  10  21  38  68 100 137 168 227 283 352 393
#     4  12  23  41  68 104 138 173 227 285 349 406
#     4  12  24  42  72 108 135 172 231 294 349 401
#     4  12  25  44  71  97 140 183 227 287 343 409
#     4  12  26  46  68  96 136 190 236 270 342 404
#
# _framework density 20.581707999999999
#
# number of rings (size 3 to 8) (size 9 to 14) (size 15 to 20)
#    0.000    0.800    4.000    4.800    3.733    1.600 
#    0.000    0.000    0.000    3.200    0.000    0.000 
#    0.000    0.000    0.000    0.000    0.000    0.000 
#
# Total GULP energy -83515.189422 kJ/mol
# GULP energy per Si atom -5567.679295 kJ/mol
# Density = 2.053486 g / cm^3
# Si number density = 20.581708 Si / 1000 Ang^3
#
#
#
# Elastic Constant Matrix: (Units=GPa)
#
#
# Indices 1 2 3 4 5 6 
#
# 1 169.9010 27.8658 33.9303 -3.7858 -12.7315 -16.7079
# 2 27.8658 83.5923 38.2020 7.3791 -3.9225 -3.4451
# 3 33.9303 38.2020 84.1147 -17.1264 -18.2609 4.4658
# 4 -3.7858 7.3791 -17.1264 25.3644 -2.8910 -6.9456
# 5 -12.7315 -3.9225 -18.2609 -2.8910 18.7254 0.6403
# 6 -16.7079 -3.4451 4.4658 -6.9456 0.6403 29.1269
#
#
#
# Elastic Compliance Matrix: (Units=1/GPa)
#
#
# Indices 1 2 3 4 5 6 
#
# 1 0.007170 -0.001835 -0.000922 0.002677 0.003848 0.004591
# 2 -0.001835 0.020706 -0.015755 -0.018753 -0.015159 -0.000327
# 3 -0.000922 -0.015755 0.032623 0.029914 0.032538 -0.000976
# 4 0.002677 -0.018753 0.029914 0.072891 0.037933 0.011279
# 5 0.003848 -0.015159 0.032538 0.037933 0.090346 0.002485
# 6 0.004591 -0.000327 -0.000976 0.011279 0.002485 0.039712
#
#
# Mechanical properties :
#
#
# Convention : Reuss Voigt Hill
#
# Bulk Modulus (GPa) = 42.60259 59.73381 51.16820
# Shear Modulus (GPa) = 16.21805 30.48401 23.35103
#
# Velocity S-wave (km/s) = 2.81015 3.85271 3.37197
# Velocity P-wave (km/s) = 5.59227 6.99120 6.33050
#
# Compressibility (1/GPa) = 0.02347275
#
# Stress axis : x y z
#
# Youngs Moduli (GPa) = 139.46087 48.29616 30.65368
#
# Poissons Ratio (x) = 0.08865 0.02826
# Poissons Ratio (y) = 0.25598 0.48296
# Poissons Ratio (z) = 0.12859 0.76092
#
# Static dielectric constant tensor:
#      x y z
#    x 1.738940 -0.016190 -0.019530 
#    y -0.016190 1.788330 -0.011570 
#    z -0.019530 -0.011570 1.742320 
# 
# From -- ./inp_files/243185.got.cif
#   From: 2010.05.17/outbox.cif.g08.bks.cpg/sg2_122_cif.got.tgz:243185.got - 2010.06.03 11:33:40.
