data_PCOD9100015
_publ_section_title
;
Structure prediction by ZEFSAII (Michael W. Deem and Ramdas Pophale) SiO2 
 PCOD9100015
Probable space group: P -1
;
_chemical_formula_sum "Si O2"
_cell_formula_units_Z 16
_cell_length_a 9.911942
_cell_length_b 11.995166
_cell_length_c 9.633753
_cell_angle_alpha 82.196913
_cell_angle_beta 131.598353
_cell_angle_gamma 90.044973
_cell_volume 842.431020
_symmetry_space_group_name_H-M "P -1"
_symmetry_group_IT_number 2
_symmetry_cell_setting 'triclinic'
loop_
_space_group_symop_operation_xyz
x,y,z
-x,-y,-z
loop_
_atom_site_type_symbol
_atom_site_label
_atom_site_fract_x
_atom_site_fract_y
_atom_site_fract_z
Si Si1 0.892365 0.921238 0.038246
Si Si2 0.100343 0.916612 0.471841
Si Si3 0.729463 0.427617 0.792151
Si Si4 0.694292 0.483299 0.063208
Si Si5 0.936894 0.656443 0.133336
Si Si6 0.490441 0.083831 0.349835
Si Si7 0.510532 0.336298 0.419927
Si Si8 0.161736 0.655125 0.563913
O O1 0.930722 0.786110 0.062545
O O2 0.976972 0.933320 0.246199
O O3 0.675491 0.942991 0.858062
O O4 0.000000 0.000000 0.000000
O O5 0.309801 0.933042 0.580167
O O6 0.115149 0.786008 0.551851
O O7 0.000000 0.000000 0.500000
O O8 0.627594 0.342465 0.640821
O O9 0.641918 0.557091 0.683686
O O10 0.932805 0.412344 0.876423
O O11 0.705924 0.409449 0.942891
O O12 0.750279 0.603948 0.031897
O O13 0.828630 0.423969 0.282320
O O14 0.500000 0.500000 0.000000
O O15 0.024087 0.638803 0.348641
O O16 0.457400 0.212702 0.367305
O O17 0.500000 0.000000 0.500000
O O18 0.645323 0.362050 0.382444
#
# Coordination Sequence:
#
# PCOD9100015 Si02
#       8
#     2   2   2   2   2   2   2   2
#     4  11  23  42  72  93 124 174 222 262 321 387
#     4  10  23  44  62  96 131 162 212 275 318 376
#     4  10  20  37  62  90 127 160 206 260 307 374
#     4  12  22  36  59  93 124 164 205 247 315 386
#     4  10  23  40  62  89 125 164 210 258 313 373
#     4  11  22  41  69  92 124 172 217 265 322 375
#     4   9  19  39  62  90 125 166 202 258 314 376
#     4   9  20  40  62  81 128 168 198 250 320 378
#
# _framework density 18.992654000000002
#
# number of rings (size 3 to 8) (size 9 to 14) (size 15 to 20)
#    0.000    1.750    2.500    2.250    1.750    1.500 
#    2.250    1.250    0.000    0.000    0.000    0.000 
#    0.000    0.000    0.000    0.000    0.000    0.000 
#
# Total GULP energy -89200.049798 kJ/mol
# GULP energy per Si atom -5575.003112 kJ/mol
# Density = 1.894943 g / cm^3
# Si number density = 18.992654 Si / 1000 Ang^3
#
#
#
# Elastic Constant Matrix: (Units=GPa)
#
#
# Indices 1 2 3 4 5 6 
#
# 1 107.0774 76.0798 42.0115 8.7140 10.7114 -7.5408
# 2 76.0798 110.3129 42.3086 2.5965 -0.8448 -1.9142
# 3 42.0115 42.3086 105.1143 2.6194 10.0286 4.4133
# 4 8.7140 2.5965 2.6194 28.2902 5.4456 -0.6179
# 5 10.7114 -0.8448 10.0286 5.4456 37.3762 -2.0455
# 6 -7.5408 -1.9142 4.4133 -0.6179 -2.0455 38.8533
#
#
#
# Elastic Compliance Matrix: (Units=1/GPa)
#
#
# Indices 1 2 3 4 5 6 
#
# 1 0.020794 -0.013243 -0.002564 -0.003953 -0.004811 0.003358
# 2 -0.013243 0.019300 -0.002924 0.001648 0.004721 -0.001013
# 3 -0.002564 -0.002924 0.012057 0.000423 -0.002746 -0.002149
# 4 -0.003953 0.001648 0.000423 0.037211 -0.004386 -0.000373
# 5 -0.004811 0.004721 -0.002746 -0.004386 0.029676 0.001103
# 6 0.003358 -0.001013 -0.002149 -0.000373 0.001103 0.026636
#
#
# Mechanical properties :
#
#
# Convention : Reuss Voigt Hill
#
# Bulk Modulus (GPa) = 68.08263 71.47826 69.78045
# Shear Modulus (GPa) = 26.59119 31.71093 29.15106
#
# Velocity S-wave (km/s) = 3.74582 4.09056 3.92198
# Velocity P-wave (km/s) = 7.39141 7.74768 7.57164
#
# Compressibility (1/GPa) = 0.01468803
#
# Stress axis : x y z
#
# Youngs Moduli (GPa) = 48.09141 51.81396 82.94067
#
# Poissons Ratio (x) = 0.68618 0.21265
# Poissons Ratio (y) = 0.63688 0.24254
# Poissons Ratio (z) = 0.12330 0.15152
#
# Static dielectric constant tensor:
#      x y z
#    x 1.631160 0.018290 0.036000 
#    y 0.018290 1.661210 0.013870 
#    z 0.036000 0.013870 1.752400 
# 
# From -- ./inp_files/187934.got.cif
#   From: 2010.05.17/outbox.cif.g08.bks.cpg/sg2_94_cif.got.tgz:187934.got - 2010.06.03 11:33:40.
