data_PCOD9100341
_publ_section_title
;
Structure prediction by ZEFSAII (Michael W. Deem and Ramdas Pophale) SiO2 
 PCOD9100341
Probable space group: P -1
;
_chemical_formula_sum "Si O2"
_cell_formula_units_Z 16
_cell_length_a 11.705486
_cell_length_b 11.374119
_cell_length_c 9.133081
_cell_angle_alpha 113.927675
_cell_angle_beta 86.074819
_cell_angle_gamma 131.444364
_cell_volume 796.874414
_symmetry_space_group_name_H-M "P -1"
_symmetry_group_IT_number 2
_symmetry_cell_setting 'triclinic'
loop_
_space_group_symop_operation_xyz
x,y,z
-x,-y,-z
loop_
_atom_site_type_symbol
_atom_site_label
_atom_site_fract_x
_atom_site_fract_y
_atom_site_fract_z
Si Si1 0.030269 0.883086 0.012142
Si Si2 0.722375 0.103222 0.480324
Si Si3 0.027745 0.301908 0.366066
Si Si4 0.856177 0.809210 0.489203
Si Si5 0.266628 0.383486 0.877453
Si Si6 0.480418 0.293485 0.800592
Si Si7 0.637075 0.317614 0.517375
Si Si8 0.309016 0.081751 0.320696
O O1 0.028766 0.774054 0.830637
O O2 0.883462 0.743326 0.065189
O O3 0.193599 0.996615 0.148335
O O4 0.000000 0.000000 0.000000
O O5 0.641636 0.178659 0.514791
O O6 0.890870 0.245443 0.455759
O O7 0.623223 0.916680 0.306707
O O8 0.738551 0.061437 0.623492
O O9 0.078843 0.205182 0.379831
O O10 0.186966 0.509819 0.459383
O O11 0.796388 0.657287 0.302646
O O12 0.722288 0.806309 0.540977
O O13 0.000000 0.000000 0.500000
O O14 0.361345 0.321135 0.840201
O O15 0.389965 0.587578 0.022971
O O16 0.581767 0.370135 0.679288
O O17 0.498874 0.215175 0.355341
#
# Coordination Sequence:
#
# PCOD9100341 Si02
#       8
#     2   2   2   2   2   2   2   2
#     4  12  22  37  63  98 137 161 197 269 340 382
#     4  11  22  45  71  83 128 184 218 252 311 390
#     4  12  24  41  64  97 130 165 214 271 325 376
#     4  12  19  38  65  92 129 164 211 255 325 392
#     4  11  20  36  62  96 128 160 207 265 321 386
#     4  10  20  37  63  94 123 160 214 261 316 372
#     4  11  24  43  66  95 127 170 225 265 304 375
#     4  11  22  40  66  97 122 173 214 255 322 389
#
# _framework density 20.078447000000001
#
# number of rings (size 3 to 8) (size 9 to 14) (size 15 to 20)
#    0.000    0.750    7.500    2.625    0.000    0.500 
#    6.750    1.250    5.500    0.000    0.000    0.000 
#    0.000    0.000    0.000    0.000    0.000    0.000 
#
# Total GULP energy -89325.136415 kJ/mol
# GULP energy per Si atom -5582.821026 kJ/mol
# Density = 2.003275 g / cm^3
# Si number density = 20.078447 Si / 1000 Ang^3
#
#
#
# Elastic Constant Matrix: (Units=GPa)
#
#
# Indices 1 2 3 4 5 6 
#
# 1 79.5002 20.0494 35.2397 9.3698 20.7538 0.8852
# 2 20.0494 87.1036 34.0591 13.5241 13.5259 17.4327
# 3 35.2397 34.0591 114.4798 8.7239 43.9435 8.5628
# 4 9.3698 13.5241 8.7239 19.4726 5.6659 5.9935
# 5 20.7538 13.5259 43.9435 5.6659 31.8820 4.4950
# 6 0.8852 17.4327 8.5628 5.9935 4.4950 35.1848
#
#
#
# Elastic Compliance Matrix: (Units=1/GPa)
#
#
# Indices 1 2 3 4 5 6 
#
# 1 0.016078 -0.001808 -0.001497 -0.004499 -0.007195 0.002541
# 2 -0.001808 0.015278 -0.003780 -0.006859 0.001926 -0.005682
# 3 -0.001497 -0.003780 0.019785 0.001760 -0.025003 -0.000010
# 4 -0.004499 -0.006859 0.001760 0.061421 -0.006581 -0.006539
# 5 -0.007195 0.001926 -0.025003 -0.006581 0.071240 -0.002669
# 6 0.002541 -0.005682 -0.000010 -0.006539 -0.002669 0.032630
#
#
# Mechanical properties :
#
#
# Convention : Reuss Voigt Hill
#
# Bulk Modulus (GPa) = 27.04921 51.08668 39.06795
# Shear Modulus (GPa) = 20.58239 30.09024 25.33631
#
# Velocity S-wave (km/s) = 3.20519 3.87542 3.55613
# Velocity P-wave (km/s) = 5.21523 6.74714 6.03003
#
# Compressibility (1/GPa) = 0.03696966
#
# Stress axis : x y z
#
# Youngs Moduli (GPa) = 62.19575 65.45350 50.54439
#
# Poissons Ratio (x) = 0.11837 0.07565
# Poissons Ratio (y) = 0.11248 0.19108
# Poissons Ratio (z) = 0.09309 0.24744
#
# Static dielectric constant tensor:
#      x y z
#    x 1.789250 0.058080 0.019440 
#    y 0.058080 1.743740 0.013830 
#    z 0.019440 0.013830 1.728380 
# 
# From -- ./inp_files/263032.got.cif
#   From: 2010.05.17/outbox.cif.g08.bks.cpg/sg2_132_cif.got.tgz:263032.got - 2010.06.03 11:33:40.
