data_PCOD9100001
_publ_section_title
;
Structure prediction by ZEFSAII (Michael W. Deem and Ramdas Pophale) SiO2 
 PCOD9100001
Probable space group: P -1
;
_chemical_formula_sum "Si O2"
_cell_formula_units_Z 16
_cell_length_a 11.429892
_cell_length_b 15.173865
_cell_length_c 9.159358
_cell_angle_alpha 143.258069
_cell_angle_beta 57.758758
_cell_angle_gamma 121.473479
_cell_volume 789.594234
_symmetry_space_group_name_H-M "P -1"
_symmetry_group_IT_number 2
_symmetry_cell_setting 'triclinic'
loop_
_space_group_symop_operation_xyz
x,y,z
-x,-y,-z
loop_
_atom_site_type_symbol
_atom_site_label
_atom_site_fract_x
_atom_site_fract_y
_atom_site_fract_z
Si Si1 0.850293 0.293736 0.114242
Si Si2 0.608577 0.103387 0.463159
Si Si3 0.529750 0.586868 0.747196
Si Si4 0.764245 0.303575 0.855657
Si Si5 0.074296 0.589963 0.374487
Si Si6 0.990300 0.125162 0.015420
Si Si7 0.769316 0.874067 0.956290
Si Si8 0.352653 0.636025 0.423979
O O1 0.943899 0.180789 0.966048
O O2 0.709794 0.281984 0.289900
O O3 0.938924 0.460343 0.307814
O O4 0.814373 0.272293 0.940762
O O5 0.730476 0.170388 0.584450
O O6 0.568745 0.239214 0.576102
O O7 0.500000 0.000000 0.500000
O O8 0.667168 0.992815 0.169467
O O9 0.500000 0.500000 0.500000
O O10 0.668658 0.714219 0.794102
O O11 0.563506 0.480350 0.714311
O O12 0.387263 0.646305 0.960637
O O13 0.884295 0.409053 0.822558
O O14 0.046251 0.744988 0.674447
O O15 0.213319 0.558750 0.324445
O O16 0.153572 0.128564 0.942128
O O17 0.901330 0.958005 0.883142
#
# Coordination Sequence:
#
# PCOD9100001 Si02
#       8
#     2   2   2   2   2   2   2   2
#     4  11  19  38  60  92 124 161 205 259 313 369
#     4  11  22  44  63  90 121 169 202 253 310 373
#     4  12  24  40  61  98 128 161 207 261 311 366
#     4  11  23  37  61  89 134 157 204 257 319 362
#     4  10  20  37  62  90 120 167 205 254 310 363
#     4  10  21  38  66  90 115 165 219 250 298 375
#     4  11  21  41  68  87 124 162 211 255 301 373
#     4  10  21  40  64  89 119 164 218 242 301 384
#
# _framework density 20.263573000000001
#
# number of rings (size 3 to 8) (size 9 to 14) (size 15 to 20)
#    0.000    1.250    6.250    3.375    0.000    2.000 
#    4.500    2.500    0.000    0.000    0.000    0.000 
#    0.000    0.000    0.000    0.000    0.000    0.000 
#
# Total GULP energy -89120.692873 kJ/mol
# GULP energy per Si atom -5570.043305 kJ/mol
# Density = 2.021745 g / cm^3
# Si number density = 20.263573 Si / 1000 Ang^3
#
#
#
# Elastic Constant Matrix: (Units=GPa)
#
#
# Indices 1 2 3 4 5 6 
#
# 1 89.4496 57.9877 22.2134 18.9889 3.3414 -32.9539
# 2 57.9877 148.0987 30.3664 10.8284 17.0389 -9.0452
# 3 22.2134 30.3664 32.9166 5.8699 7.1091 -10.9779
# 4 18.9889 10.8284 5.8699 32.9233 -4.6715 3.2061
# 5 3.3414 17.0389 7.1091 -4.6715 23.6089 -7.5267
# 6 -32.9539 -9.0452 -10.9779 3.2061 -7.5267 45.1055
#
#
#
# Elastic Compliance Matrix: (Units=1/GPa)
#
#
# Indices 1 2 3 4 5 6 
#
# 1 0.027388 -0.008736 -0.003005 -0.013312 0.006959 0.019634
# 2 -0.008736 0.011659 -0.005921 0.001903 -0.007193 -0.006821
# 3 -0.003005 -0.005921 0.042459 -0.005512 -0.007221 0.006138
# 4 -0.013312 0.001903 -0.005512 0.040507 0.006190 -0.012532
# 5 0.006959 -0.007193 -0.007221 0.006190 0.053256 0.010331
# 6 0.019634 -0.006821 0.006138 -0.012532 0.010331 0.039256
#
#
# Mechanical properties :
#
#
# Convention : Reuss Voigt Hill
#
# Bulk Modulus (GPa) = 21.65277 54.62222 38.13750
# Shear Modulus (GPa) = 18.85079 30.98737 24.91908
#
# Velocity S-wave (km/s) = 3.05336 3.91476 3.51058
# Velocity P-wave (km/s) = 4.81034 6.88826 5.94086
#
# Compressibility (1/GPa) = 0.04618346
#
# Stress axis : x y z
#
# Youngs Moduli (GPa) = 36.51201 85.77414 23.55216
#
# Poissons Ratio (x) = 0.74931 0.07076
# Poissons Ratio (y) = 0.31896 0.13945
# Poissons Ratio (z) = 0.10970 0.50785
#
# Static dielectric constant tensor:
#      x y z
#    x 1.729330 0.038410 -0.046280 
#    y 0.038410 1.884640 -0.000180 
#    z -0.046280 -0.000180 1.749560 
# 
# From -- ./inp_files/274597.got.cif
#   From: 2010.05.17/outbox.cif.g08.bks.cpg/sg2_138_cif.got.tgz:274597.got - 2010.06.03 11:33:40.
