data_PCOD9100981
_publ_section_title
;
Structure prediction by ZEFSAII (Michael W. Deem and Ramdas Pophale) SiO2 
 PCOD9100981
Probable space group: P -1
;
_chemical_formula_sum "Si O2"
_cell_formula_units_Z 16
_cell_length_a 20.093055
_cell_length_b 7.339122
_cell_length_c 7.901438
_cell_angle_alpha 121.644035
_cell_angle_beta 107.883180
_cell_angle_gamma 115.319563
_cell_volume 648.497186
_symmetry_space_group_name_H-M "P -1"
_symmetry_group_IT_number 2
_symmetry_cell_setting 'triclinic'
loop_
_space_group_symop_operation_xyz
x,y,z
-x,-y,-z
loop_
_atom_site_type_symbol
_atom_site_label
_atom_site_fract_x
_atom_site_fract_y
_atom_site_fract_z
Si Si1 0.221080 0.226409 0.741954
Si Si2 0.973836 0.129240 0.407580
Si Si3 0.276642 0.157044 0.229249
Si Si4 0.566539 0.691028 0.314281
Si Si5 0.178719 0.537576 0.625963
Si Si6 0.913977 0.365545 0.001037
Si Si7 0.412364 0.639691 0.298493
Si Si8 0.229272 0.752010 0.398835
O O1 0.198858 0.367414 0.664266
O O2 0.145858 0.092339 0.779556
O O3 0.210848 0.963010 0.536280
O O4 0.337646 0.495172 0.012655
O O5 0.054513 0.278252 0.393529
O O6 0.000000 0.000000 0.500000
O O7 0.021959 0.440874 0.689195
O O8 0.360595 0.295701 0.508389
O O9 0.335973 0.455483 0.304905
O O10 0.174264 0.985108 0.168449
O O11 0.237285 0.864047 0.935899
O O12 0.478705 0.571496 0.314642
O O13 0.658985 0.045789 0.489164
O O14 0.500000 0.500000 0.000000
O O15 0.215538 0.609346 0.497300
O O16 0.853589 0.438403 0.909884
O O17 0.000000 0.500000 0.000000
O O18 0.500000 0.000000 0.500000
#
# Coordination Sequence:
#
# PCOD9100981 Si02
#       8
#     2   2   2   2   2   2   2   2
#     4  11  21  39  65  93 130 162 222 265 316 388
#     4   9  20  38  64  94 132 169 208 262 320 391
#     4  10  22  41  66  90 130 172 214 261 331 389
#     4  11  22  41  63  87 127 167 211 270 323 363
#     4  10  21  41  66  97 128 172 208 263 331 394
#     4  10  20  37  67  99 129 168 207 264 327 393
#     4  12  25  43  65  94 124 175 229 272 314 382
#     4  11  22  40  64  94 132 169 212 268 331 380
#
# _framework density 24.672426999999999
#
# number of rings (size 3 to 8) (size 9 to 14) (size 15 to 20)
#    0.000    1.500    3.750    1.125    0.000    3.500 
#    4.500    3.750    0.000    0.000    0.000    0.000 
#    0.000    0.000    0.000    0.000    0.000    0.000 
#
# Total GULP energy -89134.601419 kJ/mol
# GULP energy per Si atom -5570.912589 kJ/mol
# Density = 2.461627 g / cm^3
# Si number density = 24.672427 Si / 1000 Ang^3
#
#
#
# Elastic Constant Matrix: (Units=GPa)
#
#
# Indices 1 2 3 4 5 6 
#
# 1 69.9010 32.4209 34.2377 20.1276 23.2118 5.6298
# 2 32.4209 163.4564 31.3406 9.6328 14.6774 14.9812
# 3 34.2377 31.3406 130.7764 20.1942 34.7309 4.1070
# 4 20.1276 9.6328 20.1942 30.2094 10.2791 6.6922
# 5 23.2118 14.6774 34.7309 10.2791 42.1088 11.9021
# 6 5.6298 14.9812 4.1070 6.6922 11.9021 43.8697
#
#
#
# Elastic Compliance Matrix: (Units=1/GPa)
#
#
# Indices 1 2 3 4 5 6 
#
# 1 0.021797 -0.002927 -0.001355 -0.010450 -0.007911 0.002070
# 2 -0.002927 0.007018 -0.001097 0.000756 0.000501 -0.002169
# 3 -0.001355 -0.001097 0.010766 -0.003899 -0.007404 0.002144
# 4 -0.010450 0.000756 -0.003899 0.043735 -0.000527 -0.005081
# 5 -0.007911 0.000501 -0.007404 -0.000527 0.036512 -0.008288
# 6 0.002070 -0.002169 0.002144 -0.005081 -0.008288 0.026093
#
#
# Mechanical properties :
#
#
# Convention : Reuss Voigt Hill
#
# Bulk Modulus (GPa) = 34.69674 62.23690 48.46682
# Shear Modulus (GPa) = 30.06859 40.97990 35.52424
#
# Velocity S-wave (km/s) = 3.49479 4.07991 3.79863
# Velocity P-wave (km/s) = 5.51165 6.89016 6.23909
#
# Compressibility (1/GPa) = 0.02882115
#
# Stress axis : x y z
#
# Youngs Moduli (GPa) = 45.87883 142.48937 92.88922
#
# Poissons Ratio (x) = 0.41705 0.12590
# Poissons Ratio (y) = 0.13428 0.10192
# Poissons Ratio (z) = 0.06218 0.15634
#
# Static dielectric constant tensor:
#      x y z
#    x 2.125880 -0.040930 -0.094240 
#    y -0.040930 1.968040 0.017100 
#    z -0.094240 0.017100 2.057000 
# 
# From -- ./inp_files/220281.got.cif
#   From: 2010.05.17/outbox.cif.g08.bks.cpg/sg2_111_cif.got.tgz:220281.got - 2010.06.03 11:33:40.
