data_PCOD9100577
_publ_section_title
;
Structure prediction by ZEFSAII (Michael W. Deem and Ramdas Pophale) SiO2 
 PCOD9100577
Probable space group: P -1
;
_chemical_formula_sum "Si O2"
_cell_formula_units_Z 14
_cell_length_a 9.042691
_cell_length_b 8.812519
_cell_length_c 14.611999
_cell_angle_alpha 117.082851
_cell_angle_beta 136.122309
_cell_angle_gamma 49.409396
_cell_volume 612.670449
_symmetry_space_group_name_H-M "P -1"
_symmetry_group_IT_number 2
_symmetry_cell_setting 'triclinic'
loop_
_space_group_symop_operation_xyz
x,y,z
-x,-y,-z
loop_
_atom_site_type_symbol
_atom_site_label
_atom_site_fract_x
_atom_site_fract_y
_atom_site_fract_z
Si Si1 0.154287 0.742318 0.739581
Si Si2 0.586363 0.454102 0.736090
Si Si3 0.330179 0.236542 0.470143
Si Si4 0.854179 0.224428 0.038053
Si Si5 0.695419 0.745974 0.754214
Si Si6 0.131011 0.126231 0.855911
Si Si7 0.478395 0.127623 0.877311
O O1 0.431583 0.574992 0.788701
O O2 0.114182 0.773320 0.838229
O O3 0.946017 0.698867 0.600121
O O4 0.109164 0.955153 0.746280
O O5 0.443523 0.355577 0.600072
O O6 0.605622 0.611399 0.724251
O O7 0.869996 0.278287 0.827993
O O8 0.319500 0.267572 0.364820
O O9 0.500000 0.000000 0.500000
O O10 0.021938 0.314535 0.105965
O O11 0.566742 0.275302 0.920332
O O12 0.000000 0.000000 0.000000
O O13 0.516574 0.975170 0.772004
O O14 0.221416 0.221399 0.844787
O O15 0.330040 0.016016 0.996217
#
# Coordination Sequence:
#
# PCOD9100577 Si02
#       7
#     2   2   2   2   2   2   2
#     4  10  20  40  64  92 127 164 212 262 311 380
#     4  12  23  39  66  98 123 168 218 265 313 375
#     4  11  23  43  67  90 126 173 213 263 329 378
#     4   8  17  36  64  85 124 171 195 245 321 365
#     4  10  21  39  64  93 129 163 213 270 310 374
#     4  10  20  37  64  95 129 164 209 255 325 373
#     4   9  18  39  63  90 129 170 203 260 311 382
#
# _framework density 22.850784000000001
#
# number of rings (size 3 to 8) (size 9 to 14) (size 15 to 20)
#    0.000    2.000    2.857    0.857    0.000    0.571 
#    0.000    7.857    0.000    0.000    0.000    0.000 
#    0.000    0.000    0.000    0.000    0.000    0.000 
#
# Total GULP energy -78134.118408 kJ/mol
# GULP energy per Si atom -5581.008458 kJ/mol
# Density = 2.279878 g / cm^3
# Si number density = 22.850784 Si / 1000 Ang^3
#
#
#
# Elastic Constant Matrix: (Units=GPa)
#
#
# Indices 1 2 3 4 5 6 
#
# 1 138.2181 47.5730 20.9979 3.0464 13.5136 -16.6834
# 2 47.5730 79.4066 23.5460 14.1574 8.9314 -3.2680
# 3 20.9979 23.5460 47.2765 12.9366 3.6795 -0.3558
# 4 3.0464 14.1574 12.9366 23.3793 2.2779 7.1722
# 5 13.5136 8.9314 3.6795 2.2779 30.6170 1.0447
# 6 -16.6834 -3.2680 -0.3558 7.1722 1.0447 45.3723
#
#
#
# Elastic Compliance Matrix: (Units=1/GPa)
#
#
# Indices 1 2 3 4 5 6 
#
# 1 0.009988 -0.005331 -0.002230 0.002541 -0.002874 0.002936
# 2 -0.005331 0.018876 -0.004629 -0.008195 -0.002011 0.000705
# 3 -0.002230 -0.004629 0.027936 -0.012682 -0.000116 0.001073
# 4 0.002541 -0.008195 -0.012682 0.057227 -0.001165 -0.008775
# 5 -0.002874 -0.002011 -0.000116 -0.001165 0.034680 -0.001817
# 6 0.002936 0.000705 0.001073 -0.008775 -0.001817 0.024607
#
#
# Mechanical properties :
#
#
# Convention : Reuss Voigt Hill
#
# Bulk Modulus (GPa) = 30.84677 49.90389 40.37533
# Shear Modulus (GPa) = 23.98053 31.39267 27.68660
#
# Velocity S-wave (km/s) = 3.24302 3.71052 3.48462
# Velocity P-wave (km/s) = 5.24895 6.34379 5.82216
#
# Compressibility (1/GPa) = 0.03241830
#
# Stress axis : x y z
#
# Youngs Moduli (GPa) = 100.11819 52.97597 35.79658
#
# Poissons Ratio (x) = 0.28244 0.07984
# Poissons Ratio (y) = 0.53378 0.16571
# Poissons Ratio (z) = 0.22329 0.24524
#
# Static dielectric constant tensor:
#      x y z
#    x 1.905090 -0.004970 0.053380 
#    y -0.004970 1.869360 -0.019470 
#    z 0.053380 -0.019470 1.862580 
# 
# From -- ./inp_files/493710.got.cif
#   From: 2010.05.17/outbox.cif.g08.bks.cpg/sg2_247_cif.got.tgz:493710.got - 2010.06.03 11:33:40.
