data_PCOD9100589
_publ_section_title
;
Structure prediction by ZEFSAII (Michael W. Deem and Ramdas Pophale) SiO2 
 PCOD9100589
Probable space group: P -1
;
_chemical_formula_sum "Si O2"
_cell_formula_units_Z 16
_cell_length_a 15.954641
_cell_length_b 15.655707
_cell_length_c 11.305260
_cell_angle_alpha 57.938265
_cell_angle_beta 39.832571
_cell_angle_gamma 26.494442
_cell_volume 675.263713
_symmetry_space_group_name_H-M "P -1"
_symmetry_group_IT_number 2
_symmetry_cell_setting 'triclinic'
loop_
_space_group_symop_operation_xyz
x,y,z
-x,-y,-z
loop_
_atom_site_type_symbol
_atom_site_label
_atom_site_fract_x
_atom_site_fract_y
_atom_site_fract_z
Si Si1 0.399052 0.033769 0.215386
Si Si2 0.184700 0.798463 0.032543
Si Si3 0.115404 0.213004 0.952553
Si Si4 0.793236 0.078102 0.874731
Si Si5 0.313675 0.658922 0.467328
Si Si6 0.241344 0.524421 0.477506
Si Si7 0.225821 0.558364 0.056385
Si Si8 0.712095 0.627958 0.233782
O O1 0.055919 0.298731 0.398002
O O2 0.602718 0.941780 0.164919
O O3 0.449033 0.878653 0.285405
O O4 0.500000 0.000000 0.000000
O O5 0.517480 0.600280 0.781942
O O6 0.136426 0.714330 0.121429
O O7 0.131118 0.876072 0.163971
O O8 0.000000 0.000000 0.000000
O O9 0.050524 0.291056 0.830951
O O10 0.828456 0.454265 0.157826
O O11 0.139215 0.075488 0.023485
O O12 0.441745 0.326347 0.048811
O O13 0.025652 0.916820 0.635003
O O14 0.500000 0.500000 0.500000
O O15 0.186146 0.653091 0.535334
O O16 0.542181 0.552329 0.207844
O O17 0.340677 0.367898 0.576477
O O18 0.000000 0.500000 0.000000
#
# Coordination Sequence:
#
# PCOD9100589 Si02
#       8
#     2   2   2   2   2   2   2   2
#     4  11  22  39  64  99 134 162 211 272 329 378
#     4  11  24  47  65  89 137 176 212 267 318 386
#     4  11  22  37  64  96 126 166 208 265 323 375
#     4  12  22  41  65  92 128 172 214 266 321 382
#     4  11  20  40  61  97 128 161 215 276 317 378
#     4  11  22  42  64  98 128 169 216 261 324 387
#     4  11  24  39  65  93 128 168 220 261 330 377
#     4  10  20  37  64  96 128 163 205 267 325 368
#
# _framework density 23.694448000000001
#
# number of rings (size 3 to 8) (size 9 to 14) (size 15 to 20)
#    0.000    1.000    6.250    1.500    3.500    0.000 
#   11.250    0.625    0.000    3.750    0.000    0.000 
#    0.000    0.000    0.000    0.000    0.000    0.000 
#
# Total GULP energy -89377.833241 kJ/mol
# GULP energy per Si atom -5586.114578 kJ/mol
# Density = 2.364052 g / cm^3
# Si number density = 23.694448 Si / 1000 Ang^3
#
#
#
# Elastic Constant Matrix: (Units=GPa)
#
#
# Indices 1 2 3 4 5 6 
#
# 1 110.8381 32.6052 18.5672 16.1444 -4.7243 -1.9405
# 2 32.6052 129.0899 -4.0143 20.0318 5.5435 -11.4397
# 3 18.5672 -4.0143 20.7613 4.4238 1.7209 11.1401
# 4 16.1444 20.0318 4.4238 26.9366 -0.9427 -0.6749
# 5 -4.7243 5.5435 1.7209 -0.9427 27.9416 12.8550
# 6 -1.9405 -11.4397 11.1401 -0.6749 12.8550 36.3182
#
#
#
# Elastic Compliance Matrix: (Units=1/GPa)
#
#
# Indices 1 2 3 4 5 6 
#
# 1 0.012655 -0.002944 -0.012969 -0.003119 0.002065 0.002938
# 2 -0.002944 0.010121 0.004751 -0.006622 -0.004407 0.003010
# 3 -0.012969 0.004751 0.074739 -0.008523 0.002657 -0.023221
# 4 -0.003119 -0.006622 -0.008523 0.045419 0.002734 0.000238
# 5 0.002065 -0.004407 0.002657 0.002734 0.045249 -0.018058
# 6 0.002938 0.003010 -0.023221 0.000238 -0.018058 0.042158
#
#
# Mechanical properties :
#
#
# Convention : Reuss Voigt Hill
#
# Bulk Modulus (GPa) = 13.29965 39.44507 26.37236
# Shear Modulus (GPa) = 18.00306 32.47467 25.23887
#
# Velocity S-wave (km/s) = 2.75944 3.70612 3.26725
# Velocity P-wave (km/s) = 3.97213 5.91585 5.03861
#
# Compressibility (1/GPa) = 0.07518995
#
# Stress axis : x y z
#
# Youngs Moduli (GPa) = 79.02280 98.80119 13.37985
#
# Poissons Ratio (x) = 0.29086 0.17353
# Poissons Ratio (y) = 0.23263 -0.06356
# Poissons Ratio (z) = 1.02488 -0.46937
#
# Static dielectric constant tensor:
#      x y z
#    x 1.967620 -0.022350 -0.037230 
#    y -0.022350 1.960970 0.012910 
#    z -0.037230 0.012910 1.949620 
# 
# From -- ./inp_files/455686.got.cif
#   From: 2010.05.17/outbox.cif.g08.bks.cpg/sg2_228_cif.got.tgz:455686.got - 2010.06.03 11:33:40.
