data_PCOD9100267
_publ_section_title
;
Structure prediction by ZEFSAII (Michael W. Deem and Ramdas Pophale) SiO2 
 PCOD9100267
Probable space group: P -1
;
_chemical_formula_sum "Si O2"
_cell_formula_units_Z 14
_cell_length_a 9.644622
_cell_length_b 23.227549
_cell_length_c 8.480363
_cell_angle_alpha 141.629138
_cell_angle_beta 104.404112
_cell_angle_gamma 45.928279
_cell_volume 632.817308
_symmetry_space_group_name_H-M "P -1"
_symmetry_group_IT_number 2
_symmetry_cell_setting 'triclinic'
loop_
_space_group_symop_operation_xyz
x,y,z
-x,-y,-z
loop_
_atom_site_type_symbol
_atom_site_label
_atom_site_fract_x
_atom_site_fract_y
_atom_site_fract_z
Si Si1 0.957331 0.670447 0.760150
Si Si2 0.962808 0.891001 0.211082
Si Si3 0.513489 0.045083 0.935520
Si Si4 0.716213 0.615351 0.122993
Si Si5 0.805152 0.046037 0.147522
Si Si6 0.535156 0.585821 0.761454
Si Si7 0.421766 0.165664 0.717248
O O1 0.254802 0.478597 0.432230
O O2 0.982009 0.768495 0.956329
O O3 0.756050 0.756446 0.747879
O O4 0.800160 0.722217 0.977275
O O5 0.905490 0.958185 0.160950
O O6 0.714255 0.038203 0.570472
O O7 0.240024 0.779872 0.104691
O O8 0.556067 0.947759 0.600852
O O9 0.746812 0.988296 0.900270
O O10 0.500000 0.000000 0.000000
O O11 0.476429 0.754997 0.475839
O O12 0.647708 0.724931 0.201819
O O13 0.677556 0.533897 0.856332
O O14 0.000000 0.500000 0.000000
O O15 0.000000 0.000000 0.000000
O O16 0.500000 0.500000 0.500000
#
# Coordination Sequence:
#
# PCOD9100267 Si02
#       7
#     2   2   2   2   2   2   2
#     4  10  20  37  63  91 117 160 220 251 300 380
#     4   9  19  39  58  85 122 156 202 253 313 364
#     4  11  18  38  66  88 122 170 208 255 318 377
#     4  11  24  42  61  90 129 168 212 262 314 375
#     4  11  24  37  61  95 124 163 210 264 314 375
#     4  10  23  38  63  86 126 166 201 255 328 368
#     4  10  22  36  65  93 116 163 219 258 301 379
#
# _framework density 22.123287999999999
#
# number of rings (size 3 to 8) (size 9 to 14) (size 15 to 20)
#    0.000    1.714    4.286    2.571    0.000    8.571 
#    0.000    0.000    0.000    6.857    0.000    0.000 
#    0.000    0.000    0.000    0.000    0.000    0.000 
#
# Total GULP energy -77940.277253 kJ/mol
# GULP energy per Si atom -5567.162661 kJ/mol
# Density = 2.207293 g / cm^3
# Si number density = 22.123288 Si / 1000 Ang^3
#
#
#
# Elastic Constant Matrix: (Units=GPa)
#
#
# Indices 1 2 3 4 5 6 
#
# 1 168.1579 41.4669 60.7344 -2.4934 -38.6719 -21.3912
# 2 41.4669 65.8990 24.5547 10.9953 -31.2779 -27.0332
# 3 60.7344 24.5547 104.9384 -1.0593 -45.8069 -18.4454
# 4 -2.4934 10.9953 -1.0593 28.0627 -12.1609 -7.2665
# 5 -38.6719 -31.2779 -45.8069 -12.1609 67.7178 -1.7297
# 6 -21.3912 -27.0332 -18.4454 -7.2665 -1.7297 41.6089
#
#
#
# Elastic Compliance Matrix: (Units=1/GPa)
#
#
# Indices 1 2 3 4 5 6 
#
# 1 0.008523 -0.003162 -0.003011 0.003162 0.001980 0.001627
# 2 -0.003162 0.033195 0.006410 0.001208 0.018687 0.023770
# 3 -0.003011 0.006410 0.019197 0.008337 0.016062 0.013250
# 4 0.003162 0.001208 0.008337 0.046927 0.016813 0.015000
# 5 0.001980 0.018687 0.016062 0.016813 0.039048 0.024838
# 6 0.001627 0.023770 0.013250 0.015000 0.024838 0.049840
#
#
# Mechanical properties :
#
#
# Convention : Reuss Voigt Hill
#
# Bulk Modulus (GPa) = 16.28958 65.83417 41.06187
# Shear Modulus (GPa) = 23.07158 41.62716 32.34937
#
# Velocity S-wave (km/s) = 3.23284 4.34245 3.82806
# Velocity P-wave (km/s) = 4.61672 7.41383 6.17572
#
# Compressibility (1/GPa) = 0.06138893
#
# Stress axis : x y z
#
# Youngs Moduli (GPa) = 117.32880 30.12534 52.09241
#
# Poissons Ratio (x) = 0.09524 0.15685
# Poissons Ratio (y) = 0.37094 -0.33390
# Poissons Ratio (z) = 0.35327 -0.19310
#
# Static dielectric constant tensor:
#      x y z
#    x 1.846040 -0.051870 -0.047670 
#    y -0.051870 1.843440 0.006390 
#    z -0.047670 0.006390 1.751620 
# 
# From -- ./inp_files/226661.got.cif
#   From: 2010.05.17/outbox.cif.g08.bks.cpg/sg2_114_cif.got.tgz:226661.got - 2010.06.03 11:33:40.
