data_PCOD9100057
_publ_section_title
;
Structure prediction by ZEFSAII (Michael W. Deem and Ramdas Pophale) SiO2 
 PCOD9100057
Probable space group: P -1
;
_chemical_formula_sum "Si O2"
_cell_formula_units_Z 15
_cell_length_a 9.640012
_cell_length_b 12.769726
_cell_length_c 7.895445
_cell_angle_alpha 101.779959
_cell_angle_beta 134.213087
_cell_angle_gamma 71.941379
_cell_volume 662.214232
_symmetry_space_group_name_H-M "P -1"
_symmetry_group_IT_number 2
_symmetry_cell_setting 'triclinic'
loop_
_space_group_symop_operation_xyz
x,y,z
-x,-y,-z
loop_
_atom_site_type_symbol
_atom_site_label
_atom_site_fract_x
_atom_site_fract_y
_atom_site_fract_z
Si Si1 0.431014 0.417651 0.284103
Si Si2 0.620089 0.710233 0.334317
Si Si3 0.271042 0.053785 0.150335
Si Si4 0.126915 0.301045 0.130321
Si Si5 0.727121 0.245495 0.670431
Si Si6 0.618065 0.927316 0.227950
Si Si7 0.072139 0.008109 0.307151
Si Si8 0.500000 0.500000 0.000000
O O1 0.500000 0.500000 0.500000
O O2 0.222880 0.390983 0.151879
O O3 0.602664 0.306597 0.426795
O O4 0.432661 0.463079 0.115076
O O5 0.810443 0.697738 0.617928
O O6 0.430879 0.753896 0.313195
O O7 0.618866 0.800521 0.216729
O O8 0.597396 0.595271 0.205688
O O9 0.241162 0.180529 0.115383
O O10 0.499031 0.991320 0.310602
O O11 0.148410 0.060440 0.222085
O O12 0.160199 0.982273 0.911851
O O13 0.896578 0.305761 0.899518
O O14 0.832363 0.121913 0.668307
O O15 0.843154 0.939925 0.443997
O O16 0.500000 0.000000 0.000000
#
# Coordination Sequence:
#
# PCOD9100057 Si02
#       8
#     2   2   2   2   2   2   2   1
#     4  11  23  44  67  89 125 165 216 273 310 375
#     4  11  23  42  62  89 129 168 212 264 310 376
#     4  10  20  37  62  92 121 155 204 251 306 381
#     4  10  21  41  68  93 120 160 209 264 323 380
#     4  10  21  41  68  93 120 160 209 264 323 380
#     4  12  24  35  60  92 131 170 203 251 320 377
#     4  10  20  37  62  92 121 155 204 251 306 381
#     4  12  26  46  62  92 132 170 212 270 318 364
#
# _framework density 22.651281999999998
#
# number of rings (size 3 to 8) (size 9 to 14) (size 15 to 20)
#    0.000    1.333    5.333    2.000    3.733    1.067 
#    0.000    2.667    0.000    0.000    0.000    0.000 
#    0.000    0.000    0.000    0.000    0.000    0.000 
#
# Total GULP energy -83553.008414 kJ/mol
# GULP energy per Si atom -5570.200561 kJ/mol
# Density = 2.259973 g / cm^3
# Si number density = 22.651282 Si / 1000 Ang^3
#
#
#
# Elastic Constant Matrix: (Units=GPa)
#
#
# Indices 1 2 3 4 5 6 
#
# 1 57.1489 16.2403 27.2387 -3.2878 -1.0986 30.3609
# 2 16.2403 66.9405 24.8380 18.0208 -3.8118 35.4259
# 3 27.2387 24.8380 103.9646 20.4276 11.9558 28.7863
# 4 -3.2878 18.0208 20.4276 32.6916 11.1465 3.9784
# 5 -1.0986 -3.8118 11.9558 11.1465 39.4508 -4.8632
# 6 30.3609 35.4259 28.7863 3.9784 -4.8632 41.8038
#
#
#
# Elastic Compliance Matrix: (Units=1/GPa)
#
#
# Indices 1 2 3 4 5 6 
#
# 1 0.031920 0.005808 -0.003259 0.006190 -0.002609 -0.026753
# 2 0.005808 0.035514 0.002415 -0.017630 0.003667 -0.033873
# 3 -0.003259 0.002415 0.014455 -0.008572 -0.002945 -0.009160
# 4 0.006190 -0.017630 -0.008572 0.048942 -0.011485 0.010353
# 5 -0.002609 0.003667 -0.002945 -0.011485 0.030439 0.005450
# 6 -0.026753 -0.033873 -0.009160 0.010353 0.005450 0.078012
#
#
# Mechanical properties :
#
#
# Convention : Reuss Voigt Hill
#
# Bulk Modulus (GPa) = 10.89128 40.52090 25.70609
# Shear Modulus (GPa) = 19.23368 33.43837 26.33603
#
# Velocity S-wave (km/s) = 2.91713 3.84633 3.41350
# Velocity P-wave (km/s) = 4.02056 6.13625 5.18741
#
# Compressibility (1/GPa) = 0.09181654
#
# Stress axis : x y z
#
# Youngs Moduli (GPa) = 31.32859 28.15757 69.18049
#
# Poissons Ratio (x) = -0.16355 0.22549
# Poissons Ratio (y) = -0.18197 -0.16705
# Poissons Ratio (z) = 0.10211 -0.06799
#
# Static dielectric constant tensor:
#      x y z
#    x 1.833570 0.019530 -0.034750 
#    y 0.019530 1.861760 -0.017880 
#    z -0.034750 -0.017880 1.911100 
# 
# From -- ./inp_files/259252.got.cif
#   From: 2010.05.17/outbox.cif.g08.bks.cpg/sg2_130_cif.got.tgz:259252.got - 2010.06.03 11:33:40.
