data_PCOD9100482
_publ_section_title
;
Structure prediction by ZEFSAII (Michael W. Deem and Ramdas Pophale) SiO2 
 PCOD9100482
Probable space group: P -1
;
_chemical_formula_sum "Si O2"
_cell_formula_units_Z 16
_cell_length_a 9.568116
_cell_length_b 10.163009
_cell_length_c 16.863112
_cell_angle_alpha 73.096056
_cell_angle_beta 149.864012
_cell_angle_gamma 106.359138
_cell_volume 786.132493
_symmetry_space_group_name_H-M "P -1"
_symmetry_group_IT_number 2
_symmetry_cell_setting 'triclinic'
loop_
_space_group_symop_operation_xyz
x,y,z
-x,-y,-z
loop_
_atom_site_type_symbol
_atom_site_label
_atom_site_fract_x
_atom_site_fract_y
_atom_site_fract_z
Si Si1 0.121376 0.437199 0.149332
Si Si2 0.676129 0.967969 0.365180
Si Si3 0.322242 0.269600 0.468839
Si Si4 0.787947 0.041492 0.995917
Si Si5 0.647876 0.781095 0.797148
Si Si6 0.675222 0.739165 0.997889
Si Si7 0.813077 0.206497 0.131907
Si Si8 0.144678 0.563301 0.301731
O O1 0.349423 0.334667 0.248700
O O2 0.220977 0.541050 0.249385
O O3 0.873462 0.345778 0.086625
O O4 0.000000 0.500000 0.000000
O O5 0.642471 0.827136 0.422299
O O6 0.478738 0.955724 0.192839
O O7 0.565102 0.099221 0.334549
O O8 0.000000 0.000000 0.500000
O O9 0.172745 0.414653 0.381619
O O10 0.621446 0.324818 0.572225
O O11 0.114156 0.184437 0.322132
O O12 0.725425 0.092551 0.044346
O O13 0.044858 0.139275 0.072207
O O14 0.864372 0.883122 0.064509
O O15 0.611936 0.713020 0.878644
O O16 0.842571 0.621521 0.141408
O O17 0.405548 0.772067 0.910106
#
# Coordination Sequence:
#
# PCOD9100482 Si02
#       8
#     2   2   2   2   2   2   2   2
#     4  10  20  38  60  88 117 152 205 250 285 354
#     4  11  22  38  61  89 125 158 194 251 304 351
#     4  10  21  39  57  85 123 156 192 239 305 360
#     4  10  21  39  63  89 117 160 208 243 290 356
#     4  10  20  37  64  91 114 162 209 240 292 357
#     4  11  19  36  61  91 119 152 202 252 295 354
#     4  10  23  38  59  92 117 157 199 252 303 341
#     4  10  21  37  62  87 118 161 195 246 302 356
#
# _framework density 20.352803999999999
#
# number of rings (size 3 to 8) (size 9 to 14) (size 15 to 20)
#    0.000    1.750    1.250    4.875    1.750    2.000 
#    2.250   16.250    0.000    3.750    0.000    0.000 
#    0.000    0.000    0.000    0.000    0.000    0.000 
#
# Total GULP energy -89268.503234 kJ/mol
# GULP energy per Si atom -5579.281452 kJ/mol
# Density = 2.030648 g / cm^3
# Si number density = 20.352804 Si / 1000 Ang^3
#
#
#
# Elastic Constant Matrix: (Units=GPa)
#
#
# Indices 1 2 3 4 5 6 
#
# 1 95.0845 13.5513 21.6972 -2.6091 8.0316 -11.9756
# 2 13.5513 43.3812 30.1940 -10.8492 -8.1942 -4.4902
# 3 21.6972 30.1940 93.5304 -16.1358 -1.9294 -7.2122
# 4 -2.6091 -10.8492 -16.1358 28.5822 4.0080 -9.6874
# 5 8.0316 -8.1942 -1.9294 4.0080 26.8166 -4.7921
# 6 -11.9756 -4.4902 -7.2122 -9.6874 -4.7921 34.7866
#
#
#
# Elastic Compliance Matrix: (Units=1/GPa)
#
#
# Indices 1 2 3 4 5 6 
#
# 1 0.012057 -0.002974 -0.001564 0.000716 -0.004192 0.003065
# 2 -0.002974 0.034463 -0.008326 0.008502 0.010538 0.005518
# 3 -0.001564 -0.008326 0.015067 0.006455 -0.001400 0.003116
# 4 0.000716 0.008502 0.006455 0.047445 -0.001438 0.015697
# 5 -0.004192 0.010538 -0.001400 -0.001438 0.042795 0.005122
# 6 0.003065 0.005518 0.003116 0.015697 0.005122 0.036237
#
#
# Mechanical properties :
#
#
# Convention : Reuss Voigt Hill
#
# Bulk Modulus (GPa) = 27.88550 40.32011 34.10280
# Shear Modulus (GPa) = 22.14881 29.14068 25.64474
#
# Velocity S-wave (km/s) = 3.30243 3.78799 3.55351
# Velocity P-wave (km/s) = 5.31716 6.24383 5.79904
#
# Compressibility (1/GPa) = 0.03586093
#
# Stress axis : x y z
#
# Youngs Moduli (GPa) = 82.93756 29.01632 66.36840
#
# Poissons Ratio (x) = 0.08628 0.10379
# Poissons Ratio (y) = 0.24662 0.55260
# Poissons Ratio (z) = 0.12970 0.24160
#
# Static dielectric constant tensor:
#      x y z
#    x 1.732590 -0.011670 -0.020190 
#    y -0.011670 1.794030 0.006670 
#    z -0.020190 0.006670 1.741510 
# 
# From -- ./inp_files/559847.got.cif
#   From: 2010.05.17/outbox.cif.g08.bks.cpg/sg2_280_cif.got.tgz:559847.got - 2010.06.03 11:33:40.
