data_PCOD9100609
_publ_section_title
;
Structure prediction by ZEFSAII (Michael W. Deem and Ramdas Pophale) SiO2 
 PCOD9100609
Probable space group: P -1
;
_chemical_formula_sum "Si O2"
_cell_formula_units_Z 16
_cell_length_a 16.431267
_cell_length_b 9.186516
_cell_length_c 11.203836
_cell_angle_alpha 65.177591
_cell_angle_beta 132.797048
_cell_angle_gamma 75.709719
_cell_volume 677.403832
_symmetry_space_group_name_H-M "P -1"
_symmetry_group_IT_number 2
_symmetry_cell_setting 'triclinic'
loop_
_space_group_symop_operation_xyz
x,y,z
-x,-y,-z
loop_
_atom_site_type_symbol
_atom_site_label
_atom_site_fract_x
_atom_site_fract_y
_atom_site_fract_z
Si Si1 0.738630 0.846387 0.169716
Si Si2 0.060900 0.745138 0.133094
Si Si3 0.227540 0.146266 0.081323
Si Si4 0.086300 0.661129 0.550612
Si Si5 0.888704 0.048333 0.625807
Si Si6 0.854435 0.394934 0.114874
Si Si7 0.454234 0.453997 0.350066
Si Si8 0.573146 0.592962 0.258926
O O1 0.777519 0.611656 0.293021
O O2 0.928093 0.725248 0.420010
O O3 0.711275 0.912300 0.976787
O O4 0.579762 0.092300 0.013454
O O5 0.275455 0.508633 0.461744
O O6 0.959137 0.736495 0.119492
O O7 0.000000 0.000000 0.000000
O O8 0.974220 0.829986 0.885634
O O9 0.381307 0.862249 0.396165
O O10 0.198213 0.358148 0.028108
O O11 0.010632 0.896234 0.318842
O O12 0.182486 0.614536 0.782156
O O13 0.692593 0.353683 0.362823
O O14 0.934426 0.894450 0.606555
O O15 0.727024 0.443005 0.880206
O O16 0.500000 0.500000 0.500000
O O17 0.457087 0.587154 0.208424
#
# Coordination Sequence:
#
# PCOD9100609 Si02
#       8
#     2   2   2   2   2   2   2   2
#     4  10  21  40  69  97 121 173 222 271 311 379
#     4  10  20  37  64  98 130 167 209 263 329 386
#     4  11  22  42  67  99 133 165 218 272 325 381
#     4  10  23  44  64  88 132 176 225 257 314 386
#     4  11  22  39  60  88 133 176 206 256 324 389
#     4  11  26  42  64  95 132 176 214 271 321 380
#     4  12  22  40  69 100 127 165 221 271 327 388
#     4  11  22  36  66 102 127 164 220 269 326 380
#
# _framework density 23.619589999999999
#
# number of rings (size 3 to 8) (size 9 to 14) (size 15 to 20)
#    0.000    1.250    3.750    3.750    1.750    1.000 
#    0.000    2.500    0.000    0.000    0.000    0.000 
#    0.000    0.000    0.000    0.000    0.000    0.000 
#
# Total GULP energy -89195.385362 kJ/mol
# GULP energy per Si atom -5574.711585 kJ/mol
# Density = 2.356583 g / cm^3
# Si number density = 23.619590 Si / 1000 Ang^3
#
#
#
# Elastic Constant Matrix: (Units=GPa)
#
#
# Indices 1 2 3 4 5 6 
#
# 1 61.1214 36.3867 -0.0890 0.0712 5.8952 0.4096
# 2 36.3867 168.5115 41.7124 -28.5038 8.6545 -12.9795
# 3 -0.0890 41.7124 62.1771 -18.2262 8.4331 -4.6563
# 4 0.0712 -28.5038 -18.2262 40.7048 -3.3387 5.1692
# 5 5.8952 8.6545 8.4331 -3.3387 35.1054 -8.2367
# 6 0.4096 -12.9795 -4.6563 5.1692 -8.2367 33.7056
#
#
#
# Elastic Compliance Matrix: (Units=1/GPa)
#
#
# Indices 1 2 3 4 5 6 
#
# 1 0.020051 -0.005574 0.003366 -0.002418 -0.003603 -0.002435
# 2 -0.005574 0.009182 -0.004924 0.003983 0.000824 0.002514
# 3 0.003366 -0.004924 0.021655 0.006012 -0.004191 -0.000892
# 4 -0.002418 0.003983 0.006012 0.030358 0.000357 -0.002175
# 5 -0.003603 0.000824 -0.004191 0.000357 0.031681 0.007469
# 6 -0.002435 0.002514 -0.000892 -0.002175 0.007469 0.032702
#
#
# Mechanical properties :
#
#
# Convention : Reuss Voigt Hill
#
# Bulk Modulus (GPa) = 27.30479 49.75890 38.53184
# Shear Modulus (GPa) = 29.05287 36.15648 32.60467
#
# Velocity S-wave (km/s) = 3.51099 3.91677 3.71942
# Velocity P-wave (km/s) = 5.29352 6.44727 5.89867
#
# Compressibility (1/GPa) = 0.03662361
#
# Stress axis : x y z
#
# Youngs Moduli (GPa) = 49.87328 108.91153 46.17875
#
# Poissons Ratio (x) = 0.60709 -0.15543
# Poissons Ratio (y) = 0.27800 0.22737
# Poissons Ratio (z) = -0.16787 0.53624
#
# Static dielectric constant tensor:
#      x y z
#    x 2.028410 -0.105110 -0.048150 
#    y -0.105110 1.928400 0.058580 
#    z -0.048150 0.058580 2.056460 
# 
# From -- ./inp_files/461177.got.cif
#   From: 2010.05.17/outbox.cif.g08.bks.cpg/sg2_231_cif.got.tgz:461177.got - 2010.06.03 11:33:40.
