data_PCOD9100542
_publ_section_title
;
Structure prediction by ZEFSAII (Michael W. Deem and Ramdas Pophale) SiO2 
 PCOD9100542
Probable space group: P -1
;
_chemical_formula_sum "Si O2"
_cell_formula_units_Z 16
_cell_length_a 17.278172
_cell_length_b 9.269670
_cell_length_c 14.388846
_cell_angle_alpha 31.532297
_cell_angle_beta 138.173290
_cell_angle_gamma 140.586177
_cell_volume 738.704612
_symmetry_space_group_name_H-M "P -1"
_symmetry_group_IT_number 2
_symmetry_cell_setting 'triclinic'
loop_
_space_group_symop_operation_xyz
x,y,z
-x,-y,-z
loop_
_atom_site_type_symbol
_atom_site_label
_atom_site_fract_x
_atom_site_fract_y
_atom_site_fract_z
Si Si1 0.337336 0.246992 0.423015
Si Si2 0.440451 0.290144 0.973274
Si Si3 0.000471 0.525512 0.124548
Si Si4 0.616402 0.174836 0.443748
Si Si5 0.954546 0.927686 0.730491
Si Si6 0.553259 0.856042 0.237762
Si Si7 0.878776 0.571265 0.526176
Si Si8 0.744223 0.025459 0.149568
O O1 0.188154 0.128312 0.342790
O O2 0.419022 0.571337 0.273314
O O3 0.367725 0.247588 0.559293
O O4 0.389071 0.018843 0.545592
O O5 0.406570 0.525048 0.754724
O O6 0.304232 0.014911 0.979605
O O7 0.500000 0.500000 0.000000
O O8 0.536195 0.147920 0.102175
O O9 0.848586 0.354038 0.080360
O O10 0.048786 0.324863 0.210001
O O11 0.051623 0.503334 0.284216
O O12 0.025448 0.848411 0.924346
O O13 0.757576 0.274871 0.554129
O O14 0.500000 0.000000 0.500000
O O15 0.028348 0.254466 0.570896
O O16 0.625905 0.938709 0.160449
O O17 0.818362 0.815062 0.360728
#
# Coordination Sequence:
#
# PCOD9100542 Si02
#       8
#     2   2   2   2   2   2   2   2
#     4  11  22  39  64  96 133 170 225 270 328 397
#     4  11  22  41  61  96 134 171 215 265 334 394
#     4  10  20  39  64  95 125 171 226 268 326 392
#     4  11  25  45  62  93 138 174 209 271 341 399
#     4  10  21  37  62  93 126 164 222 277 315 386
#     4  11  22  38  67  97 129 177 220 273 327 391
#     4  10  21  41  64  89 133 173 216 268 335 392
#     4  10  20  37  64  93 132 170 223 274 323 391
#
# _framework density 21.659535999999999
#
# number of rings (size 3 to 8) (size 9 to 14) (size 15 to 20)
#    0.000    1.500    1.250    5.625    0.000    3.500 
#    9.000    0.625    0.000    0.000    0.000    0.000 
#    0.000    0.000    0.000    0.000    0.000    0.000 
#
# Total GULP energy -89165.034050 kJ/mol
# GULP energy per Si atom -5572.814628 kJ/mol
# Density = 2.161024 g / cm^3
# Si number density = 21.659536 Si / 1000 Ang^3
#
#
#
# Elastic Constant Matrix: (Units=GPa)
#
#
# Indices 1 2 3 4 5 6 
#
# 1 121.1131 43.8186 34.3955 -0.1068 5.0112 17.9609
# 2 43.8186 106.0293 31.5010 17.4277 -13.7976 7.8140
# 3 34.3955 31.5010 83.7839 18.3406 -7.9071 1.5361
# 4 -0.1068 17.4277 18.3406 35.2134 -10.7295 2.8045
# 5 5.0112 -13.7976 -7.9071 -10.7295 34.3479 0.7964
# 6 17.9609 7.8140 1.5361 2.8045 0.7964 29.7772
#
#
#
# Elastic Compliance Matrix: (Units=1/GPa)
#
#
# Indices 1 2 3 4 5 6 
#
# 1 0.012129 -0.004305 -0.004420 0.004018 -0.003116 -0.006254
# 2 -0.004305 0.013009 -0.001803 -0.004219 0.004131 -0.000438
# 3 -0.004420 -0.001803 0.016104 -0.007361 0.001260 0.002968
# 4 0.004018 -0.004219 -0.007361 0.037049 0.007705 -0.004632
# 5 -0.003116 0.004131 0.001260 0.007705 0.033946 -0.000903
# 6 -0.006254 -0.000438 0.002968 -0.004632 -0.000903 0.037777
#
#
# Mechanical properties :
#
#
# Convention : Reuss Voigt Hill
#
# Bulk Modulus (GPa) = 49.53467 58.92848 54.23157
# Shear Modulus (GPa) = 28.12199 33.28180 30.70189
#
# Velocity S-wave (km/s) = 3.60719 3.92419 3.76902
# Velocity P-wave (km/s) = 6.34574 6.91362 6.63576
#
# Compressibility (1/GPa) = 0.02018788
#
# Stress axis : x y z
#
# Youngs Moduli (GPa) = 82.44565 76.86929 62.09816
#
# Poissons Ratio (x) = 0.33088 0.27447
# Poissons Ratio (y) = 0.35489 0.11194
# Poissons Ratio (z) = 0.36440 0.13856
#
# Static dielectric constant tensor:
#      x y z
#    x 1.812560 0.228660 -0.136550 
#    y 0.228660 3.260070 -0.738350 
#    z -0.136550 -0.738350 2.235610 
# 
# From -- ./inp_files/537561.got.cif
#   From: 2010.05.17/outbox.cif.g08.bks.cpg/sg2_269_cif.got.tgz:537561.got - 2010.06.03 11:33:40.
