data_PCOD9100051
_publ_section_title
;
Structure prediction by ZEFSAII (Michael W. Deem and Ramdas Pophale) SiO2 
 PCOD9100051
Probable space group: P -1
;
_chemical_formula_sum "Si O2"
_cell_formula_units_Z 15
_cell_length_a 13.019108
_cell_length_b 22.172464
_cell_length_c 24.955811
_cell_angle_alpha 165.710419
_cell_angle_beta 19.897861
_cell_angle_gamma 157.162055
_cell_volume 600.507245
_symmetry_space_group_name_H-M "P -1"
_symmetry_group_IT_number 2
_symmetry_cell_setting 'triclinic'
loop_
_space_group_symop_operation_xyz
x,y,z
-x,-y,-z
loop_
_atom_site_type_symbol
_atom_site_label
_atom_site_fract_x
_atom_site_fract_y
_atom_site_fract_z
Si Si1 0.570773 0.233984 0.468886
Si Si2 0.273260 0.719117 0.455658
Si Si3 0.665101 0.558285 0.340208
Si Si4 0.248171 0.262737 0.915355
Si Si5 0.800814 0.068790 0.874679
Si Si6 0.000000 0.500000 0.000000
Si Si7 0.831500 0.554582 0.435479
Si Si8 0.668461 0.295466 0.889114
O O1 0.795836 0.322942 0.483638
O O2 0.554374 0.341795 0.509926
O O3 0.247836 0.300424 0.706368
O O4 0.558340 0.942725 0.218150
O O5 0.996277 0.657243 0.497753
O O6 0.510627 0.538310 0.164790
O O7 0.380171 0.010200 0.647693
O O8 0.507329 0.532401 0.452760
O O9 0.002941 0.701143 0.297278
O O10 0.728939 0.281075 0.051568
O O11 0.987156 0.333698 0.144508
O O12 0.500000 0.500000 0.000000
O O13 0.070100 0.199160 0.892366
O O14 0.869603 0.800559 0.592146
O O15 0.500000 0.000000 0.000000
O O16 0.759753 0.310446 0.919378
#
# Coordination Sequence:
#
# PCOD9100051 Si02
#       8
#     2   2   2   2   2   1   2   2
#     4  10  20  38  61  98 129 166 215 262 319 385
#     4  10  23  41  65  90 130 165 213 274 312 388
#     4  10  21  38  66  92 127 170 204 263 325 380
#     4  11  25  42  68  96 124 174 224 268 328 385
#     4   9  22  42  63  95 130 166 210 270 325 387
#     4   8  16  32  52  86 124 158 198 256 302 362
#     4  10  23  44  62  91 134 165 215 267 323 387
#     4  10  20  37  62  91 128 163 216 260 313 381
#
# _framework density 24.978883
#
# number of rings (size 3 to 8) (size 9 to 14) (size 15 to 20)
#    0.000    2.133    0.000    2.400    5.600    3.733 
#    0.000   28.000    0.000    0.000    0.000    0.000 
#    0.000    0.000    0.000    0.000    0.000    0.000 
#
# Total GULP energy -83523.402075 kJ/mol
# GULP energy per Si atom -5568.226805 kJ/mol
# Density = 2.492203 g / cm^3
# Si number density = 24.978883 Si / 1000 Ang^3
#
#
#
# Elastic Constant Matrix: (Units=GPa)
#
#
# Indices 1 2 3 4 5 6 
#
# 1 77.0969 22.4527 27.7259 28.6778 6.3446 24.7087
# 2 22.4527 63.1084 23.2868 13.0747 4.9316 -3.8663
# 3 27.7259 23.2868 151.3990 14.2370 -3.8406 -11.1183
# 4 28.6778 13.0747 14.2370 24.9600 0.2570 2.3518
# 5 6.3446 4.9316 -3.8406 0.2570 35.7227 5.9729
# 6 24.7087 -3.8663 -11.1183 2.3518 5.9729 34.5115
#
#
#
# Elastic Compliance Matrix: (Units=1/GPa)
#
#
# Indices 1 2 3 4 5 6 
#
# 1 0.038706 -0.006073 -0.004813 -0.035964 -0.001749 -0.027189
# 2 -0.006073 0.019785 -0.001184 -0.003333 -0.002912 0.006914
# 3 -0.004813 -0.001184 0.008010 0.001038 0.000925 0.005663
# 4 -0.035964 -0.003333 0.001038 0.080653 0.003088 0.019679
# 5 -0.001749 -0.002912 0.000925 0.003088 0.029466 -0.004086
# 6 -0.027189 0.006914 0.005663 0.019679 -0.004086 0.050407
#
#
# Mechanical properties :
#
#
# Convention : Reuss Voigt Hill
#
# Bulk Modulus (GPa) = 23.60636 48.72613 36.16624
# Shear Modulus (GPa) = 18.84751 33.58143 26.21447
#
# Velocity S-wave (km/s) = 2.74986 3.67057 3.24306
# Velocity P-wave (km/s) = 4.42192 6.12482 5.34167
#
# Compressibility (1/GPa) = 0.04236146
#
# Stress axis : x y z
#
# Youngs Moduli (GPa) = 25.83611 50.54406 124.83878
#
# Poissons Ratio (x) = 0.30693 0.60088
# Poissons Ratio (y) = 0.15689 0.14778
# Poissons Ratio (z) = 0.12436 0.05983
#
# Static dielectric constant tensor:
#      x y z
#    x 2.025050 -0.073830 0.010800 
#    y -0.073830 2.053140 -0.038250 
#    z 0.010800 -0.038250 1.984270 
# 
# From -- ./inp_files/623725.got.cif
#   From: 2010.05.17/outbox.cif.g08.bks.cpg/sg2_312_cif.got.tgz:623725.got - 2010.06.03 11:33:40.
