data_PCOD9100018
_publ_section_title
;
Structure prediction by ZEFSAII (Michael W. Deem and Ramdas Pophale) SiO2 
 PCOD9100018
Probable space group: P -1
;
_chemical_formula_sum "Si O2"
_cell_formula_units_Z 16
_cell_length_a 12.901612
_cell_length_b 8.962435
_cell_length_c 14.993333
_cell_angle_alpha 46.294376
_cell_angle_beta 36.646429
_cell_angle_gamma 64.930035
_cell_volume 712.931260
_symmetry_space_group_name_H-M "P -1"
_symmetry_group_IT_number 2
_symmetry_cell_setting 'triclinic'
loop_
_space_group_symop_operation_xyz
x,y,z
-x,-y,-z
loop_
_atom_site_type_symbol
_atom_site_label
_atom_site_fract_x
_atom_site_fract_y
_atom_site_fract_z
Si Si1 0.667552 0.822305 0.126079
Si Si2 0.713894 0.002878 0.496588
Si Si3 0.365744 0.136012 0.062252
Si Si4 0.628584 0.521067 0.815722
Si Si5 0.266730 0.782087 0.419304
Si Si6 0.069775 0.606472 0.244840
Si Si7 0.305894 0.884079 0.846399
Si Si8 0.960118 0.046795 0.142098
O O1 0.450935 0.705454 0.314918
O O2 0.649479 0.008991 0.129880
O O3 0.739627 0.871203 0.954663
O O4 0.839818 0.772026 0.074314
O O5 0.717274 0.768559 0.625328
O O6 0.500377 0.945894 0.640784
O O7 0.845163 0.082677 0.290420
O O8 0.756538 0.167882 0.481808
O O9 0.277680 0.004418 0.265573
O O10 0.489820 0.376314 0.899816
O O11 0.500000 0.000000 0.000000
O O12 0.793978 0.423660 0.760708
O O13 0.500000 0.500000 0.000000
O O14 0.101095 0.600369 0.565881
O O15 0.999104 0.815217 0.220495
O O16 0.192116 0.643104 0.054040
O O17 0.165139 0.963285 0.853051
#
# Coordination Sequence:
#
# PCOD9100018 Si02
#       8
#     2   2   2   2   2   2   2   2
#     4   9  20  39  63  89 122 165 208 258 311 360
#     4  11  24  42  66  97 130 170 208 258 326 383
#     4  10  20  37  62  90 129 168 198 257 315 375
#     4  12  23  42  66  94 134 173 201 255 329 392
#     4  10  22  40  62  95 136 164 204 261 324 382
#     4  11  23  40  67  98 123 168 218 260 315 380
#     4  10  21  48  67  87 129 173 215 263 315 374
#     4  11  24  42  70  92 123 172 223 262 307 374
#
# _framework density 22.442557999999998
#
# number of rings (size 3 to 8) (size 9 to 14) (size 15 to 20)
#    0.000    1.500    2.500    4.875    5.250    2.000 
#    0.000    6.250    2.750    0.000    0.000    0.000 
#    0.000    0.000    0.000    0.000    0.000    0.000 
#
# Total GULP energy -89129.774107 kJ/mol
# GULP energy per Si atom -5570.610882 kJ/mol
# Density = 2.239148 g / cm^3
# Si number density = 22.442558 Si / 1000 Ang^3
#
#
#
# Elastic Constant Matrix: (Units=GPa)
#
#
# Indices 1 2 3 4 5 6 
#
# 1 129.9006 29.6596 17.9073 8.1144 -21.5251 -0.5851
# 2 29.6596 46.0034 9.5175 12.1767 -3.1196 5.7558
# 3 17.9073 9.5175 73.5431 14.5988 -22.6354 10.4848
# 4 8.1144 12.1767 14.5988 22.2509 0.8262 -2.0920
# 5 -21.5251 -3.1196 -22.6354 0.8262 24.2825 10.5696
# 6 -0.5851 5.7558 10.4848 -2.0920 10.5696 37.2970
#
#
#
# Elastic Compliance Matrix: (Units=1/GPa)
#
#
# Indices 1 2 3 4 5 6 
#
# 1 0.011191 -0.004945 0.004808 -0.005636 0.016284 -0.005344
# 2 -0.004945 0.031231 0.006142 -0.020737 0.010779 -0.010842
# 3 0.004808 0.006142 0.041671 -0.037588 0.058828 -0.031367
# 4 -0.005636 -0.020737 -0.037588 0.088677 -0.061410 0.036056
# 5 0.016284 0.010779 0.058828 -0.061410 0.140580 -0.061229
# 6 -0.005344 -0.010842 -0.031367 0.036056 -0.061229 0.056593
#
#
# Mechanical properties :
#
#
# Convention : Reuss Voigt Hill
#
# Bulk Modulus (GPa) = 10.40546 40.40177 25.40362
# Shear Modulus (GPa) = 12.82154 29.59027 21.20591
#
# Velocity S-wave (km/s) = 2.39279 3.63504 3.07725
# Velocity P-wave (km/s) = 3.50435 5.97155 4.89591
#
# Compressibility (1/GPa) = 0.09610339
#
# Stress axis : x y z
#
# Youngs Moduli (GPa) = 89.35851 32.01918 23.99723
#
# Poissons Ratio (x) = 0.15833 -0.11537
# Poissons Ratio (y) = 0.44187 -0.14739
# Poissons Ratio (z) = -0.42962 -0.19666
#
# Static dielectric constant tensor:
#      x y z
#    x 1.913550 0.027200 -0.002350 
#    y 0.027200 1.887180 0.022580 
#    z -0.002350 0.022580 1.916520 
# 
# From -- ./inp_files/329463.got.cif
#   From: 2010.05.17/outbox.cif.g08.bks.cpg/sg2_165_cif.got.tgz:329463.got - 2010.06.03 11:33:40.
