data_PCOD9100415
_publ_section_title
;
Structure prediction by ZEFSAII (Michael W. Deem and Ramdas Pophale) SiO2 
 PCOD9100415
Probable space group: P -1
;
_chemical_formula_sum "Si O2"
_cell_formula_units_Z 14
_cell_length_a 13.855139
_cell_length_b 8.841829
_cell_length_c 7.209010
_cell_angle_alpha 128.323668
_cell_angle_beta 54.519107
_cell_angle_gamma 124.290140
_cell_volume 534.808913
_symmetry_space_group_name_H-M "P -1"
_symmetry_group_IT_number 2
_symmetry_cell_setting 'triclinic'
loop_
_space_group_symop_operation_xyz
x,y,z
-x,-y,-z
loop_
_atom_site_type_symbol
_atom_site_label
_atom_site_fract_x
_atom_site_fract_y
_atom_site_fract_z
Si Si1 0.741203 0.158406 0.726474
Si Si2 0.615390 0.666390 0.903838
Si Si3 0.288368 0.496853 0.801166
Si Si4 0.551740 0.771986 0.637855
Si Si5 0.840011 0.518379 0.429825
Si Si6 0.806841 0.080499 0.012260
Si Si7 0.986256 0.095845 0.287546
O O1 0.842303 0.072858 0.456229
O O2 0.603856 0.009460 0.718098
O O3 0.748879 0.393237 0.897441
O O4 0.763899 0.130664 0.897828
O O5 0.574420 0.726842 0.793713
O O6 0.717092 0.553209 0.673486
O O7 0.500000 0.500000 0.000000
O O8 0.696436 0.886081 0.065334
O O9 0.405493 0.663857 0.691412
O O10 0.356951 0.332792 0.646193
O O11 0.173016 0.423848 0.730593
O O12 0.837870 0.286186 0.252939
O O13 0.951119 0.670413 0.537843
O O14 0.928555 0.014092 0.780992
O O15 0.000000 0.000000 0.000000
#
# Coordination Sequence:
#
# PCOD9100415 Si02
#       7
#     2   2   2   2   2   2   2
#     4  10  20  37  64  85 117 159 198 241 293 355
#     4   9  18  35  57  87 127 157 190 238 297 361
#     4   9  18  35  59  92 116 146 198 247 288 351
#     4   9  18  35  57  92 121 150 195 241 292 352
#     4   9  20  39  60  82 120 154 201 247 291 360
#     4   9  20  39  62  85 113 160 203 241 298 352
#     4  11  24  41  56  87 123 155 201 254 297 350
#
# _framework density 26.177574
#
# number of rings (size 3 to 8) (size 9 to 14) (size 15 to 20)
#    0.000    2.571    0.000    1.714    0.000    4.571 
#   18.000    0.000    0.000    0.000    0.000    0.000 
#    0.000    0.000    0.000    0.000    0.000    0.000 
#
# Total GULP energy -78205.765629 kJ/mol
# GULP energy per Si atom -5586.126116 kJ/mol
# Density = 2.611799 g / cm^3
# Si number density = 26.177574 Si / 1000 Ang^3
#
#
#
# Elastic Constant Matrix: (Units=GPa)
#
#
# Indices 1 2 3 4 5 6 
#
# 1 73.9501 27.7876 21.2105 6.6450 2.4572 5.9141
# 2 27.7876 113.4942 74.1686 25.7890 7.4754 31.9062
# 3 21.2105 74.1686 132.5843 45.2199 -24.5574 6.8052
# 4 6.6450 25.7890 45.2199 43.6039 7.0542 1.5712
# 5 2.4572 7.4754 -24.5574 7.0542 42.4893 8.2355
# 6 5.9141 31.9062 6.8052 1.5712 8.2355 43.6526
#
#
#
# Elastic Compliance Matrix: (Units=1/GPa)
#
#
# Indices 1 2 3 4 5 6 
#
# 1 0.014979 -0.003198 -0.001291 0.001145 -0.001381 0.000728
# 2 -0.003198 0.022420 -0.015371 0.005413 -0.011290 -0.011622
# 3 -0.001291 -0.015371 0.028595 -0.024156 0.022628 0.003552
# 4 0.001145 0.005413 -0.024156 0.048319 -0.023456 0.002340
# 5 -0.001381 -0.011290 0.022628 -0.023456 0.043032 -0.002363
# 6 0.000728 -0.011622 0.003552 0.002340 -0.002363 0.031112
#
#
# Mechanical properties :
#
#
# Convention : Reuss Voigt Hill
#
# Bulk Modulus (GPa) = 38.05962 62.92911 50.49437
# Shear Modulus (GPa) = 21.10275 39.07329 30.08802
#
# Velocity S-wave (km/s) = 2.84234 3.86764 3.39393
# Velocity P-wave (km/s) = 5.03413 6.63599 5.88977
#
# Compressibility (1/GPa) = 0.02627456
#
# Stress axis : x y z
#
# Youngs Moduli (GPa) = 66.75880 44.60333 34.97073
#
# Poissons Ratio (x) = 0.14262 0.04516
# Poissons Ratio (y) = 0.21346 0.53754
# Poissons Ratio (z) = 0.08620 0.68560
#
# Static dielectric constant tensor:
#      x y z
#    x 2.125830 -0.038660 0.064710 
#    y -0.038660 2.169930 0.040540 
#    z 0.064710 0.040540 2.105440 
# 
# From -- ./inp_files/332516.got.cif
#   From: 2010.05.17/outbox.cif.g08.bks.cpg/sg2_167_cif.got.tgz:332516.got - 2010.06.03 11:33:40.
