data_PCOD9100238
_publ_section_title
;
Structure prediction by ZEFSAII (Michael W. Deem and Ramdas Pophale) SiO2 
 PCOD9100238
Probable space group: P -1
;
_chemical_formula_sum "Si O2"
_cell_formula_units_Z 16
_cell_length_a 19.078842
_cell_length_b 9.857988
_cell_length_c 8.827862
_cell_angle_alpha 88.290914
_cell_angle_beta 65.071017
_cell_angle_gamma 39.474835
_cell_volume 821.864957
_symmetry_space_group_name_H-M "P -1"
_symmetry_group_IT_number 2
_symmetry_cell_setting 'triclinic'
loop_
_space_group_symop_operation_xyz
x,y,z
-x,-y,-z
loop_
_atom_site_type_symbol
_atom_site_label
_atom_site_fract_x
_atom_site_fract_y
_atom_site_fract_z
Si Si1 0.110249 0.942067 0.829583
Si Si2 0.321146 0.406708 0.596491
Si Si3 0.689511 0.622331 0.740563
Si Si4 0.349966 0.095404 0.754812
Si Si5 0.117160 0.225846 0.966329
Si Si6 0.396569 0.979797 0.067616
Si Si7 0.993521 0.148611 0.592690
Si Si8 0.117279 0.227854 0.327132
O O1 0.256228 0.642255 0.707119
O O2 0.055613 0.046777 0.706188
O O3 0.113480 0.080657 0.907303
O O4 0.000000 0.000000 0.000000
O O5 0.269487 0.466414 0.467377
O O6 0.284188 0.328102 0.732810
O O7 0.490776 0.157068 0.440796
O O8 0.620859 0.872752 0.802567
O O9 0.826849 0.427851 0.726954
O O10 0.564928 0.704081 0.907594
O O11 0.262149 0.090032 0.799061
O O12 0.356273 0.092966 0.931894
O O13 0.098694 0.250169 0.162992
O O14 0.000000 0.500000 0.000000
O O15 0.278298 0.042548 0.213753
O O16 0.083321 0.131384 0.427580
O O17 0.000000 0.000000 0.500000
O O18 0.000000 0.500000 0.500000
#
# Coordination Sequence:
#
# PCOD9100238 Si02
#       8
#     2   2   2   2   2   2   2   2
#     4  12  26  40  62  89 126 161 206 255 311 363
#     4  10  21  40  63  91 120 162 205 253 301 369
#     4  10  20  37  63  89 124 154 205 250 305 357
#     4   9  21  40  65  88 121 159 206 250 308 364
#     4  11  24  39  62  92 126 162 203 253 306 364
#     4   9  20  38  63  93 119 156 202 259 301 360
#     4  12  24  40  62  91 122 165 203 253 309 367
#     4  11  22  40  64  91 122 158 208 254 301 368
#
# _framework density 19.467918000000001
#
# number of rings (size 3 to 8) (size 9 to 14) (size 15 to 20)
#    0.000    1.500    2.500    2.250    5.250    1.500 
#    0.000    0.625    2.750    0.000    0.000    0.000 
#    0.000    0.000    0.000    0.000    0.000    0.000 
#
# Total GULP energy -89309.306668 kJ/mol
# GULP energy per Si atom -5581.831667 kJ/mol
# Density = 1.942361 g / cm^3
# Si number density = 19.467918 Si / 1000 Ang^3
#
#
#
# Elastic Constant Matrix: (Units=GPa)
#
#
# Indices 1 2 3 4 5 6 
#
# 1 146.9775 44.5596 60.7786 -5.6920 -14.3468 23.1767
# 2 44.5596 85.5282 41.7576 -2.9244 -10.8134 9.8058
# 3 60.7786 41.7576 98.3777 -9.0011 -20.9007 12.6760
# 4 -5.6920 -2.9244 -9.0011 26.5513 9.0686 -1.6671
# 5 -14.3468 -10.8134 -20.9007 9.0686 41.5553 5.9074
# 6 23.1767 9.8058 12.6760 -1.6671 5.9074 34.6919
#
#
#
# Elastic Compliance Matrix: (Units=1/GPa)
#
#
# Indices 1 2 3 4 5 6 
#
# 1 0.010257 -0.002478 -0.004390 -0.000360 0.001451 -0.004812
# 2 -0.002478 0.015562 -0.004745 -0.000909 0.001185 -0.001255
# 3 -0.004390 -0.004745 0.016592 0.002116 0.005507 -0.002625
# 4 -0.000360 -0.000909 0.002116 0.041406 -0.008789 0.003211
# 5 0.001451 0.001185 0.005507 -0.008789 0.030839 -0.008990
# 6 -0.004812 -0.001255 -0.002625 0.003211 -0.008990 0.035039
#
#
# Mechanical properties :
#
#
# Convention : Reuss Voigt Hill
#
# Bulk Modulus (GPa) = 52.11686 69.45279 60.78482
# Shear Modulus (GPa) = 27.88382 32.81219 30.34801
#
# Velocity S-wave (km/s) = 3.78867 4.10988 3.95254
# Velocity P-wave (km/s) = 6.77993 7.63377 7.21948
#
# Compressibility (1/GPa) = 0.01918765
#
# Stress axis : x y z
#
# Youngs Moduli (GPa) = 97.49753 64.25959 60.26850
#
# Poissons Ratio (x) = 0.15921 0.26455
# Poissons Ratio (y) = 0.24156 0.28594
# Poissons Ratio (z) = 0.42797 0.30488
#
# Static dielectric constant tensor:
#      x y z
#    x 1.654280 0.013860 -0.032290 
#    y 0.013860 1.661430 0.058460 
#    z -0.032290 0.058460 1.690470 
# 
# From -- ./inp_files/203112.got.cif
#   From: 2010.05.17/outbox.cif.g08.bks.cpg/sg2_102_cif.got.tgz:203112.got - 2010.06.03 11:33:40.
