data_PCOD9100625
_publ_section_title
;
Structure prediction by ZEFSAII (Michael W. Deem and Ramdas Pophale) SiO2 
 PCOD9100625
Probable space group: P -1
;
_chemical_formula_sum "Si O2"
_cell_formula_units_Z 16
_cell_length_a 13.395022
_cell_length_b 11.553249
_cell_length_c 10.170204
_cell_angle_alpha 137.183417
_cell_angle_beta 143.787426
_cell_angle_gamma 41.265401
_cell_volume 579.743080
_symmetry_space_group_name_H-M "P -1"
_symmetry_group_IT_number 2
_symmetry_cell_setting 'triclinic'
loop_
_space_group_symop_operation_xyz
x,y,z
-x,-y,-z
loop_
_atom_site_type_symbol
_atom_site_label
_atom_site_fract_x
_atom_site_fract_y
_atom_site_fract_z
Si Si1 0.646449 0.799502 0.442505
Si Si2 0.726095 0.774518 0.196877
Si Si3 0.965200 0.416853 0.259347
Si Si4 0.794619 0.084974 0.129382
Si Si5 0.749308 0.756452 0.933466
Si Si6 0.352077 0.720363 0.142051
Si Si7 0.823992 0.360762 0.618175
Si Si8 0.777180 0.133422 0.599915
O O1 0.659341 0.783422 0.284153
O O2 0.841690 0.759216 0.686892
O O3 0.569648 0.646541 0.283720
O O4 0.500000 0.000000 0.500000
O O5 0.962277 0.708202 0.163221
O O6 0.752297 0.963746 0.362564
O O7 0.637581 0.759456 0.951655
O O8 0.252531 0.417437 0.295128
O O9 0.912975 0.584388 0.241903
O O10 0.000000 0.500000 0.500000
O O11 0.780884 0.381285 0.046591
O O12 0.797534 0.236055 0.367282
O O13 0.721785 0.182549 0.994908
O O14 0.004983 0.948366 0.211234
O O15 0.694788 0.954766 0.970722
O O16 0.322815 0.836683 0.342344
O O17 0.729519 0.309026 0.602231
#
# Coordination Sequence:
#
# PCOD9100625 Si02
#       8
#     2   2   2   2   2   2   2   2
#     4  11  25  44  68 107 150 194 246 304 371 450
#     4  11  20  43  71 103 146 189 247 311 365 440
#     4  10  25  43  68 104 146 192 246 301 370 439
#     4  11  21  38  63 104 144 187 248 298 366 446
#     4  10  20  38  67 101 142 188 246 304 363 439
#     4  12  26  44  72 108 150 193 241 307 377 437
#     4  10  20  37  65 101 136 191 247 296 360 443
#     4  11  20  39  68 102 145 189 241 301 370 437
#
# _framework density 27.598431000000001
#
# number of rings (size 3 to 8) (size 9 to 14) (size 15 to 20)
#    0.000    1.250    3.750    3.375    1.750    2.000 
#    2.250    0.625    0.000    0.750    0.000    2.625 
#    0.000    0.000    0.000    0.000    0.000    0.000 
#
# Total GULP energy -89493.946322 kJ/mol
# GULP energy per Si atom -5593.371645 kJ/mol
# Density = 2.753562 g / cm^3
# Si number density = 27.598431 Si / 1000 Ang^3
#
#
#
# Elastic Constant Matrix: (Units=GPa)
#
#
# Indices 1 2 3 4 5 6 
#
# 1 144.9390 38.9655 48.4646 7.4132 -26.9867 10.6872
# 2 38.9655 139.5462 56.8225 15.2072 -9.0928 16.4488
# 3 48.4646 56.8225 115.8244 21.3839 0.9344 6.6609
# 4 7.4132 15.2072 21.3839 44.0092 4.4150 0.2189
# 5 -26.9867 -9.0928 0.9344 4.4150 51.7228 -4.1261
# 6 10.6872 16.4488 6.6609 0.2189 -4.1261 44.9052
#
#
#
# Elastic Compliance Matrix: (Units=1/GPa)
#
#
# Indices 1 2 3 4 5 6 
#
# 1 0.009196 -0.000733 -0.003455 -0.000080 0.004660 -0.000979
# 2 -0.000733 0.009528 -0.003979 -0.001350 0.001272 -0.002602
# 3 -0.003455 -0.003979 0.012781 -0.004016 -0.002375 0.000185
# 4 -0.000080 -0.001350 -0.004016 0.025382 -0.002311 0.000773
# 5 0.004660 0.001272 -0.002375 -0.002311 0.022296 0.000837
# 6 -0.000979 -0.002602 0.000185 0.000773 0.000837 0.023501
#
#
# Mechanical properties :
#
#
# Convention : Reuss Voigt Hill
#
# Bulk Modulus (GPa) = 65.91392 76.53498 71.22445
# Shear Modulus (GPa) = 40.29866 45.19791 42.74829
#
# Velocity S-wave (km/s) = 3.82537 4.05124 3.93993
# Velocity P-wave (km/s) = 6.59139 7.04807 6.82355
#
# Compressibility (1/GPa) = 0.01517130
#
# Stress axis : x y z
#
# Youngs Moduli (GPa) = 108.74679 104.95752 78.23980
#
# Poissons Ratio (x) = 0.07696 0.27029
# Poissons Ratio (y) = 0.07974 0.31129
# Poissons Ratio (z) = 0.37568 0.41760
#
# Static dielectric constant tensor:
#      x y z
#    x 2.242880 -0.121500 0.081960 
#    y -0.121500 2.244340 0.036340 
#    z 0.081960 0.036340 2.154690 
# 
# From -- ./inp_files/263624.got.cif
#   From: 2010.05.17/outbox.cif.g08.bks.cpg/sg2_132_cif.got.tgz:263624.got - 2010.06.03 11:33:40.
